#------------------------------------------------------------------------------
#$Date: 2019-12-26 21:57:59 +0200 (Thu, 26 Dec 2019) $
#$Revision: 246128 $
#$URL: file:///home/coder/svn-repositories/cod/cif/2/31/18/2311825.cif $
#------------------------------------------------------------------------------
#
# This file is available in the Crystallography Open Database (COD),
# http://www.crystallography.net/. The original data for this entry
# were provided by IUCr Journals, http://journals.iucr.org/.
#
# The file may be used within the scientific community so long as
# proper attribution is given to the journal article from which the
# data were obtained.
#
data_2311825
loop_
_publ_author_name
'Nayak, Prakash S.'
'Jasinski, Jerry P.'
'Golen, James A.'
'Narayana, Badiadka'
'Kaur, Manpreet'
'Yathirajan, Hemmige S.'
'Glidewell, Christopher'
_publ_section_title
;
 Halogenated C,N-diarylacetamides: molecular conformations and
 supramolecular assembly.
;
_journal_coeditor_code           SK3561
_journal_issue                   'Pt 9'
_journal_name_full
'Acta crystallographica. Section C, Structural chemistry'
_journal_page_first              889
_journal_page_last               894
_journal_paper_doi               10.1107/S2053229614018713
_journal_volume                  70
_journal_year                    2014
_chemical_formula_iupac          'C15 H14 Br N O'
_chemical_formula_moiety         'C15 H14 Br N O'
_chemical_formula_sum            'C15 H14 Br N O'
_chemical_formula_weight         304.18
_chemical_name_systematic
;
<i>N</i>-(4-Bromo-3-methylphenyl)-2-phenylacetamide
;
_space_group_crystal_system      triclinic
_space_group_IT_number           2
_space_group_name_Hall           '-P 1'
_space_group_name_H-M_alt        'P -1'
_atom_sites_solution_hydrogens   geom
_audit_creation_method           SHELXL-2014
_cell_angle_alpha                108.149(4)
_cell_angle_beta                 91.968(5)
_cell_angle_gamma                90.310(4)
_cell_formula_units_Z            2
_cell_length_a                   4.9995(3)
_cell_length_b                   10.8392(4)
_cell_length_c                   12.7301(7)
_cell_measurement_reflns_used    2515
_cell_measurement_temperature    173(2)
_cell_measurement_theta_max      72.411
_cell_measurement_theta_min      4.293
_cell_volume                     655.05(6)
_computing_cell_refinement       'CrysAlis PRO (Agilent, 2012)'
_computing_data_collection       'CrysAlis PRO (Agilent, 2012)'
_computing_data_reduction        'CrysAlis RED (Agilent, 2012)'
_computing_molecular_graphics    'PLATON (Spek, 2009)'
_computing_publication_material
'SHELXL2014 (Sheldrick, 2014) and PLATON (Spek, 2009)'
_computing_structure_refinement  'SHELXL2014 (Sheldrick, 2014)'
_computing_structure_solution    'SUPERFLIP (Palatinus & Chapuis, 2007)'
_diffrn_ambient_temperature      173(2)
_diffrn_measured_fraction_theta_full 0.999
_diffrn_measured_fraction_theta_max 0.968
_diffrn_measurement_device_type  'Agilent Eos Gemini'
_diffrn_measurement_method       '\w scans'
_diffrn_radiation_type           CuK\a
_diffrn_radiation_wavelength     1.54184
_diffrn_reflns_av_R_equivalents  0.0391
_diffrn_reflns_limit_h_max       6
_diffrn_reflns_limit_h_min       -6
_diffrn_reflns_limit_k_max       8
_diffrn_reflns_limit_k_min       -13
_diffrn_reflns_limit_l_max       15
_diffrn_reflns_limit_l_min       -15
_diffrn_reflns_number            3876
_diffrn_reflns_theta_full        67.684
_diffrn_reflns_theta_max         72.411
_diffrn_reflns_theta_min         4.293
_diffrn_standards_decay_%        0
_diffrn_standards_interval_count 0
_diffrn_standards_interval_time  0
_diffrn_standards_number         0
_exptl_absorpt_coefficient_mu    4.163
_exptl_absorpt_correction_T_max  0.818
_exptl_absorpt_correction_T_min  0.286
_exptl_absorpt_correction_type   multi-scan
_exptl_absorpt_process_details   '(CrysAlis PRO; Agilent, 2012)'
_exptl_crystal_colour            colourless
_exptl_crystal_density_diffrn    1.542
_exptl_crystal_description       plate
_exptl_crystal_F_000             308
_exptl_crystal_size_max          0.320
_exptl_crystal_size_mid          0.180
_exptl_crystal_size_min          0.080
_refine_diff_density_max         0.724
_refine_diff_density_min         -0.453
_refine_ls_extinction_method     none
_refine_ls_goodness_of_fit_ref   1.066
_refine_ls_hydrogen_treatment    constr
_refine_ls_matrix_type           full
_refine_ls_number_parameters     164
_refine_ls_number_reflns         2515
_refine_ls_number_restraints     0
_refine_ls_restrained_S_all      1.066
_refine_ls_R_factor_all          0.0453
_refine_ls_R_factor_gt           0.0418
_refine_ls_shift/su_max          0.000
_refine_ls_shift/su_mean         0.000
_refine_ls_structure_factor_coef Fsqd
_refine_ls_weighting_details
'w=1/[\s^2^(Fo^2^)+(0.0697P)^2^] where P=(Fo^2^+2Fc^2^)/3'
_refine_ls_weighting_scheme      calc
_refine_ls_wR_factor_gt          0.1061
_refine_ls_wR_factor_ref         0.1097
_reflns_number_gt                2276
_reflns_number_total             2515
_reflns_threshold_expression     I>2\s(I)
_cod_data_source_file            sk3561sup1.cif
_cod_data_source_block           II
_cod_database_code               2311825
_shelx_space_group_comment
;
The symmetry employed for this shelxl refinement is uniquely defined
by the following loop, which should always be used as a source of
symmetry information in preference to the above space-group names.
They are only intended as comments.
;
_shelx_estimated_absorpt_t_min   0.349
_shelx_estimated_absorpt_t_max   0.732
_shelx_hkl_file
;
  -6  -3   1 415.931 134.434  11
  -6  -3   2 484.108 143.327  11
  -6  -2  -1 219.844 107.389  11
  -6  -2   0 11.1724 83.4397  11
  -6  -2   1 1360.95 226.729  11
  -6  -2   2 1409.51 231.958  11
  -6  -1  -1 1093.87 198.091  11
  -6  -1   0 1420.46 232.527  11
  -6  -1   1 352.857 135.090  11
  -6  -1   2 3583.09 353.356  11
  -6   0  -1 425.021 129.106  11
  -6   0   0 2957.62 311.211  11
  -6   0   1 1778.68 247.893  11
  -6   0   2 9007.03 522.568  11
  -5  -7   0 1398.99 245.932  14
  -5  -7   1 47.8686 109.282  14
  -5  -7   2 5664.15 453.408  14
  -5  -7   3 443.982 154.387  19
  -5  -7   4 466.886 144.858  19
  -5  -7   5 238.569 134.954  19
  -5  -7   6 2493.38 284.203  19
  -5  -6  -2 1927.78 297.509  14
  -5  -6  -1 893.652 239.805  14
  -5  -6  -1 773.665 180.937  11
  -5  -6   0 948.154 215.235  11
  -5  -6   1 448.549 147.743  19
  -5  -6   1 614.168 188.427  11
  -5  -6   2 596.318 165.963  11
  -5  -6   2 596.000 173.603  19
  -5  -6   3 257.843 149.952  19
  -5  -6   3 221.146 111.804  11
  -5  -6   4-92.7097 122.622  19
  -5  -6   5 5521.44 484.023  19
  -5  -6   6 3234.82 370.188  19
  -5  -6   7 1325.75 225.149  19
  -5  -6   8 521.874 134.192  19
  -5  -5  -4 154.622 106.042  14
  -5  -5  -3 73.2411 89.3970  11
  -5  -5  -3 333.533 163.543  14
  -5  -5  -2 154.621 120.618  11
  -5  -5  -1 1475.68 285.832  11
  -5  -5   0 5315.72 492.252  19
  -5  -5   0 6201.16 557.405  11
  -5  -5   1 2509.61 361.028  11
  -5  -5   1 2074.83 318.893  19
  -5  -5   2 8448.71 636.625  19
  -5  -5   3 1123.16 260.856  19
  -5  -5   4 9469.61 676.050  19
  -5  -5   5 573.783 179.988  19
  -5  -5   6 68.6403 130.373  19
  -5  -5   7 972.191 220.700  19
  -5  -5   8 102.848 112.852  19
  -5  -4  -5 27.0430 92.2211  14
  -5  -4  -4 1107.18 232.193  14
  -5  -4  -4 863.031 207.295  11
  -5  -4  -3 1895.42 310.276  11
  -5  -4  -2 3814.97 442.241  11
  -5  -4  -1 8464.06 653.128  11
  -5  -4   0 43.5504 99.6573  11
  -5  -4   0 65.7468 111.264  19
  -5  -4   1 2360.66 354.147  19
  -5  -4   2 271.916 157.077  19
  -5  -4   3 1165.15 255.726  19
  -5  -4   4-35.4340 121.135  19
  -5  -4   5 9995.55 711.153  19
  -5  -4   6 8413.90 642.612  19
  -5  -4   7 889.452 224.198  19
  -5  -4   8 889.867 193.241  19
  -5  -4   9 8.05472 72.9184  19
  -5  -3  -5 2527.02 299.358  14
  -5  -3  -4 108.378 110.158  11
  -5  -3  -3 4993.40 505.257  11
  -5  -3  -2-35.5245 104.856  11
  -5  -3  -1 2121.82 338.903  11
  -5  -3  -1 1765.90 297.597  19
  -5  -3   0 12330.1 772.725  19
  -5  -3   1 1037.48 242.211  19
  -5  -3   2 10417.8 715.609  19
  -5  -3   3 526.383 208.471  19
  -5  -3   4 4677.96 495.250  19
  -5  -3   5 478.519 177.694  19
  -5  -3   6 4126.80 459.861  19
  -5  -3   7 3506.04 397.970  19
  -5  -3   8 1239.43 219.981  19
  -5  -2  -5 1101.56 216.531  14
  -5  -2  -5 1241.36 244.620  11
  -5  -2  -4 1044.91 244.146  11
  -5  -2  -3 8018.49 641.642  11
  -5  -2  -2 68.4715 104.520  11
  -5  -2  -1 11924.7 767.786  19
  -5  -2   0 695.319 197.417  19
  -5  -2   1 83.2507 102.755  19
  -5  -2   2 7219.28 599.333  19
  -5  -2   3 519.265 180.312  19
  -5  -2   4 34573.4 1317.78  19
  -5  -2   5 396.957 170.913  19
  -5  -2   6 264.263 148.042  19
  -5  -1  -5 1835.07 303.333  11
  -5  -1  -4 3598.54 424.706  11
  -5  -1  -3 279.430 155.613  11
  -5  -1  -2 1446.64 279.561  11
  -5  -1  -1 261.081 136.303  19
  -5  -1   0 2095.68 333.603  19
  -5  -1   1 677.536 207.410  19
  -5  -1   2 31065.2 1220.19  19
  -5   0  -6 658.349 168.583  11
  -5   0  -5 929.409 218.589  11
  -5   0  -4 166.043 131.041  11
  -5   0  -3 8978.45 666.888  11
  -5   0  -2 1822.90 302.357  11
  -5   1  -5 297.243 135.263  11
  -5   1  -4 3562.80 410.072  11
  -5   1  -3 6295.87 547.030  11
  -5   1  -2 814.953 211.572  11
  -4  -9  -1 413.018 145.592  20
  -4  -9   0 206.690 127.187  20
  -4  -9   1 1697.68 259.969  20
  -4  -9   2 2195.88 282.591  20
  -4  -9   3 4616.27 431.004  22
  -4  -9   4 4955.38 445.039  22
  -4  -9   5 745.036 182.392  22
  -4  -9   6-36.6786 83.8332  22
  -4  -9   7 17.4955 64.6254  22
  -4  -8  -3 505.303 164.670  14
  -4  -8  -2 1181.78 257.811  14
  -4  -8  -1 4232.70 476.189  14
  -4  -8   0 4701.00 525.663  14
  -4  -8   1 384.870 171.734  14
  -4  -8   2 3253.61 385.898  22
  -4  -8   2 4045.90 422.987  19
  -4  -8   3 4793.77 466.004  19
  -4  -8   3 4255.03 451.692  22
  -4  -8   4 4595.93 459.368  19
  -4  -8   4 4876.02 483.017  22
  -4  -8   5 62.5955 119.618  19
  -4  -8   5 70.4133 104.229  22
  -4  -8   6 1405.10 261.593  22
  -4  -8   6 1172.79 232.772  19
  -4  -8   7 3186.46 368.624  19
  -4  -8   8 9384.38 594.562  19
  -4  -8   9 1493.31 228.768  19
  -4  -8  10 1007.39 165.254  19
  -4  -7  -5 59.8519 89.3937  14
  -4  -7  -4 11358.4 709.014  14
  -4  -7  -3 11771.7 819.088  14
  -4  -7  -2 279.705 189.669  14
  -4  -7  -1 242.874 174.244  14
  -4  -7   0 720.493 202.538  19
  -4  -7   1 1437.25 268.807  22
  -4  -7   1 1889.74 319.399  19
  -4  -7   2 2736.54 372.862  22
  -4  -7   2 2264.69 341.340  19
  -4  -7   3 3339.54 412.396  19
  -4  -7   4 11510.8 762.791  19
  -4  -7   5 7089.80 603.317  19
  -4  -7   6 5595.21 546.332  19
  -4  -7   7 64.3324 118.462  19
  -4  -7   8 315.145 140.508  19
  -4  -7   9 1259.06 251.823  19
  -4  -7  10 298.136 127.050  19
  -4  -7  11 18287.2 667.597  19
  -4  -6  -6 86.6055 102.382  14
  -4  -6  -5-64.4933 120.697  14
  -4  -6  -4 73.6192 162.518  14
  -4  -6  -3 951.732 245.730  11
  -4  -6  -3 1104.31 329.160  14
  -4  -6  -2 10886.6 806.783  11
  -4  -6  -1 2655.01 382.417  19
  -4  -6  -1 3176.97 447.091  11
  -4  -6   0 9880.64 715.410  19
  -4  -6   0 11565.5 818.958  11
  -4  -6   1 26131.1 1152.89  19
  -4  -6   2-36.2916 107.077  19
  -4  -6   3 787.909 223.697  19
  -4  -6   4 2062.63 340.836  19
  -4  -6   5 10.8002 125.772  19
  -4  -6   6 5731.34 580.191  19
  -4  -6   7 6054.82 601.432  19
  -4  -6   8 13141.6 871.785  19
  -4  -6   9 46.7569 109.320  19
  -4  -6  10 3490.02 396.106  19
  -4  -6  11 126.910 102.758  19
  -4  -5  -7 87.7484 88.4692  14
  -4  -5  -6 6220.93 534.283  14
  -4  -5  -5 10365.8 781.283  14
  -4  -5  -4 2812.92 440.962  11
  -4  -5  -4 2907.27 475.099  14
  -4  -5  -3 882.593 251.489  11
  -4  -5  -2 5223.61 534.304  19
  -4  -5  -2 5920.42 612.778  11
  -4  -5  -1 1169.69 289.849  11
  -4  -5  -1 1276.78 271.775  19
  -4  -5   0-10.6285 111.178  19
  -4  -5   1 3305.11 415.516  19
  -4  -5   2 6556.50 574.664  19
  -4  -5   3 18386.5 965.588  19
  -4  -5   4 3328.05 435.096  19
  -4  -5   5 1312.03 291.637  19
  -4  -5   6 15183.7 955.633  19
  -4  -5   7 749.627 246.140  19
  -4  -5   8 841.994 262.768  19
  -4  -5   9 7120.61 651.487  19
  -4  -5  10 588.665 192.941  19
  -4  -5  11 1481.54 245.063  19
  -4  -5  12 1604.96 194.464  19
  -4  -4  -8 2136.74 217.482  14
  -4  -4  -7 7377.95 533.657  14
  -4  -4  -6 23.7945 132.329  14
  -4  -4  -5 5944.07 637.855  14
  -4  -4  -5 5792.56 602.547  11
  -4  -4  -4 199.399 131.838  11
  -4  -4  -3 1398.40 320.004  11
  -4  -4  -2 6851.58 647.991  11
  -4  -4  -2 6059.31 571.394  19
  -4  -4  -1 15548.0 878.809  19
  -4  -4   0 4866.80 486.243  19
  -4  -4   1 9916.26 683.426  19
  -4  -4   2 159.157 126.019  19
  -4  -4   3 2248.62 340.516  19
  -4  -4   4 1944.59 330.177  19
  -4  -4   5 1490.48 305.158  19
  -4  -4   6 32902.3 1423.21  19
  -4  -4   7 510.971 204.194  19
  -4  -4  11 1284.51 238.646  19
  -4  -4  12 107.922 65.5443  19
  -4  -3  -7 967.485 219.906  14
  -4  -3  -6 404.397 180.810  11
  -4  -3  -6 1012.55 264.874  14
  -4  -3  -5 9423.36 790.126  11
  -4  -3  -4 9527.37 786.765  11
  -4  -3  -3 3436.69 464.064  11
  -4  -3  -3 3526.49 446.607  19
  -4  -3  -2 11062.7 745.674  19
  -4  -3  -1-109.972 105.074  19
  -4  -3   0 2809.71 364.112  19
  -4  -3   1 7000.42 560.918  19
  -4  -3   2 2188.34 325.451  19
  -4  -3   3 3457.37 410.457  19
  -4  -3   4 56154.0 1687.15  19
  -4  -3   5 15713.7 949.713  19
  -4  -3   6 379.707 180.526  19
  -4  -3  11 11315.9 626.419  19
  -4  -2  -7 2270.06 345.592  14
  -4  -2  -6 3619.37 500.859  11
  -4  -2  -5 5130.16 589.265  11
  -4  -2  -4-13.4339 100.177  11
  -4  -2  -3 1536.59 300.253  11
  -4  -2  -3 1270.91 275.268  19
  -4  -2  -2 11539.5 748.827  19
  -4  -2  -1 9319.29 649.708  19
  -4  -2   0 3426.97 395.227  19
  -4  -2   0 4546.63 432.878   5
  -4  -2   1 23617.0 997.616  19
  -4  -2   1 24104.3 1017.06   5
  -4  -2   2 17105.6 882.157   5
  -4  -2   2 15936.8 837.672  19
  -4  -2   3 35133.5 1257.74  19
  -4  -2   4 11737.5 763.487  19
  -4  -2   5-24.5766 104.573  19
  -4  -1  -7 1825.00 357.664  11
  -4  -1  -6 9585.78 781.214  11
  -4  -1  -5 4346.38 529.062  11
  -4  -1  -4 17136.1 989.833  11
  -4  -1  -3 3336.30 419.630  19
  -4  -1  -2 24387.8 1063.48  19
  -4  -1  -1 1729.06 282.268  19
  -4  -1  -1 2086.95 297.915   5
  -4  -1   0 1035.64 207.253   5
  -4  -1   1 1398.60 250.992   5
  -4  -1   2 10847.5 705.105   5
  -4  -1   2 10049.9 646.371  19
  -4  -1   3 55108.7 1545.80  19
  -4  -1   4 166.153 118.248  19
  -4  -1   5 9822.77 716.450  19
  -4  -1   6 29778.8 1292.04  19
  -4   0  -7 11669.2 852.414  11
  -4   0  -6 3081.80 452.343  11
  -4   0  -5 4135.94 510.947  11
  -4   0  -4 4004.35 472.911  11
  -4   0  -3 244.905 135.910  19
  -4   0  -2 128.179 122.034  19
  -4   0  -1 23108.2 986.742   5
  -4   0   0 28915.5 1101.91   5
  -4   0   1 42683.9 1367.01   5
  -4   0   2 184.823 114.694   5
  -4   1  -7 1455.21 308.187  11
  -4   1  -6 5237.32 565.685  11
  -4   1  -5 3257.51 438.755  11
  -4   1  -4 7529.14 617.818  11
  -4   1  -1 154.811 95.8025   5
  -4   1   0 14174.8 778.482   5
  -4   1   1 7098.51 571.750   5
  -3 -11   1 93.7284 81.8135  20
  -3 -11   2 1720.55 230.887  20
  -3 -11   3 1628.55 265.572  22
  -3 -11   4 2267.97 325.833  22
  -3 -11   5 6069.44 503.236  22
  -3 -11   6 141.163 103.351  22
  -3 -11   7 3857.23 372.170  22
  -3 -11   8 1480.47 218.071  22
  -3 -10  -2 7436.97 515.780  20
  -3 -10  -1 402.448 166.115  20
  -3 -10   0 5165.25 507.258  20
  -3 -10   1 2823.41 386.608  22
  -3 -10   1 3275.03 415.653  20
  -3 -10   2 16172.2 911.403  22
  -3 -10   2 15646.6 860.497  20
  -3 -10   3 50.8267 130.470  22
  -3 -10   3 288.685 151.682  20
  -3 -10   4 12016.1 792.963  22
  -3 -10   5 227.205 159.424  22
  -3 -10   6 6108.59 564.223  22
  -3 -10   7 852.470 226.699  22
  -3 -10   8 886.642 222.178  22
  -3 -10   9 6235.37 487.737  22
  -3 -10  10 7529.27 479.085  22
  -3  -9  -4 2371.44 288.609  14
  -3  -9  -4 1832.83 254.921  20
  -3  -9  -3 5163.59 493.136  20
  -3  -9  -3 5524.39 476.809  14
  -3  -9  -2 4092.37 457.351  14
  -3  -9  -2 3672.72 455.209  20
  -3  -9  -1 12207.0 815.084  14
  -3  -9   0 85.3397 140.601  22
  -3  -9   1 55.7128 108.156  22
  -3  -9   2 1357.91 296.153  22
  -3  -9   3 1208.31 275.765  22
  -3  -9   4 5644.38 580.410  22
  -3  -9   5 10500.1 784.525  22
  -3  -9   6 14669.8 930.030  22
  -3  -9   7 10603.9 778.936  22
  -3  -9   8-38.0078 111.210  22
  -3  -9   9 515.336 166.544  22
  -3  -9  10-18.8548 90.0953  22
  -3  -9  11 1246.69 209.641  22
  -3  -8  -6 7068.13 449.970  14
  -3  -8  -5 8150.23 586.372  14
  -3  -8  -5 7397.51 524.873  20
  -3  -8  -4 857.390 234.169  14
  -3  -8  -3 3849.70 510.664  14
  -3  -8  -2 2206.02 404.249  14
  -3  -8  -1 106.607 150.372  22
  -3  -8  -1 344.241 230.246  14
  -3  -8   0 21390.4 1267.56  14
  -3  -8   0 21586.6 1100.44  22
  -3  -8   1 719.340 220.293  22
  -3  -8   2 27164.1 1229.39  22
  -3  -8   3 8566.80 700.113  22
  -3  -8   4 5396.26 565.123  22
  -3  -8   5 33.6077 113.631  22
  -3  -8   6 0.95649 81.2137  19
  -3  -8   6-87.3387 124.093  22
  -3  -8   7 2699.56 380.898  19
  -3  -8   7 2965.04 438.822  22
  -3  -8   8 5875.64 621.936  17
  -3  -8   8 5228.08 564.783  22
  -3  -8   8 5364.51 529.476  19
  -3  -8   9 8876.39 660.457  19
  -3  -8   9 8486.90 739.798  17
  -3  -8  10 7170.32 566.426  19
  -3  -8  10 8442.15 702.898  17
  -3  -8  11 2084.80 284.029  19
  -3  -8  11 2274.85 310.269  22
  -3  -8  11 2712.58 375.800  17
  -3  -8  12 1351.61 200.220  22
  -3  -8  12 1542.22 206.304  19
  -3  -7  -7 169.583 102.655  14
  -3  -7  -6 845.852 243.602  14
  -3  -7  -5 8150.73 706.800  14
  -3  -7  -4 2556.47 446.724  14
  -3  -7  -3 7958.40 789.498  14
  -3  -7  -2 6761.28 738.545  14
  -3  -7  -1 27803.9 1226.01  22
  -3  -7   0 1274.61 275.003  22
  -3  -7   1 5395.43 531.987  22
  -3  -7   2 2624.17 363.012  19
  -3  -7   2 2018.60 328.819  22
  -3  -7   3 13403.7 871.461   7
  -3  -7   3 14474.5 825.094  19
  -3  -7   3 13677.8 856.111  22
  -3  -7   4 9208.93 715.875  22
  -3  -7   4 9596.81 690.599  19
  -3  -7   4 8521.12 713.860   7
  -3  -7   5 15292.2 942.802  22
  -3  -7   5 14870.7 970.137   7
  -3  -7   5 15544.6 897.577  19
  -3  -7   6 1870.65 324.554  19
  -3  -7   6 2292.32 402.314  17
  -3  -7   6 1936.03 363.239  22
  -3  -7   7 8613.82 790.177  17
  -3  -7   8 11010.3 920.446  17
  -3  -7   9-98.2397 192.768  17
  -3  -7  10-38.4538 147.952  17
  -3  -7  11 950.018 272.286  17
  -3  -7  12 1986.28 307.915  17
  -3  -6  -8 7405.62 482.254  14
  -3  -6  -7 11001.1 714.802  14
  -3  -6  -6 13285.6 899.397  14
  -3  -6  -5 18208.7 1130.40  14
  -3  -6  -4 315.618 199.549  14
  -3  -6  -3 695.604 289.352  14
  -3  -6  -2 310.734 148.630  19
  -3  -6  -2 340.302 158.971  22
  -3  -6  -1 1895.86 313.292  19
  -3  -6  -1 1478.69 295.114  22
  -3  -6   0 28406.5 1174.18  22
  -3  -6   0 30114.0 1186.22  19
  -3  -6   1 9171.54 642.027  19
  -3  -6   1 9235.06 654.859  22
  -3  -6   2 25384.4 1149.33   7
  -3  -6   2 27260.3 1097.95  19
  -3  -6   2 26755.2 1095.23  22
  -3  -6   3 18636.9 925.816  22
  -3  -6   3 20140.4 948.677  19
  -3  -6   3 18310.1 982.114   7
  -3  -6   4 4852.60 528.989   7
  -3  -6   4 5355.00 514.483  22
  -3  -6   4 4870.76 490.946  19
  -3  -6   5 3132.53 439.190   7
  -3  -6   5 3637.32 472.864  17
  -3  -6   6 13071.3 915.847   7
  -3  -6   6 13151.5 960.758  17
  -3  -6   7 570.201 258.270  17
  -3  -6   7 795.594 263.385   7
  -3  -6   8 23389.7 1402.71  17
  -3  -6   9 3177.24 524.976  17
  -3  -6  10 17443.6 1164.06  17
  -3  -6  11 1062.00 292.071  17
  -3  -6  12 4976.53 502.715  17
  -3  -5  -9 242.611 109.059  14
  -3  -5  -8 9857.66 653.723  14
  -3  -5  -7 132.022 161.518  14
  -3  -5  -6 1450.04 334.614  14
  -3  -5  -5 1510.85 363.241  14
  -3  -5  -5 1302.36 322.634  11
  -3  -5  -4 1135.87 289.952  11
  -3  -5  -3 103124. 2526.65  11
  -3  -5  -2 3962.50 455.440  19
  -3  -5  -2 3230.87 403.621  22
  -3  -5  -2 3413.14 442.340  11
  -3  -5   2 598.552 190.874   7
  -3  -5   3 93.3035 121.084   7
  -3  -5   4 3784.29 445.247   7
  -3  -5   5 22334.9 1113.94   7
  -3  -5   6 59249.2 1880.35   7
  -3  -5   6 59228.3 2046.43  17
  -3  -5   7 17355.3 1171.85  17
  -3  -5   7 18121.0 1066.77   7
  -3  -5   8 803.054 298.128  17
  -3  -5   9 6081.81 725.691  17
  -3  -5  10 63.6403 159.681  17
  -3  -5  11 4478.22 550.135  17
  -3  -5  12 5771.94 540.908  17
  -3  -4  -9 3348.83 343.428  14
  -3  -4  -8 7708.81 634.194  14
  -3  -4  -7 10528.9 830.310  14
  -3  -4  -6 1421.63 330.567  14
  -3  -4  -5 3121.78 466.813  11
  -3  -4  -4 16195.4 1025.84  11
  -3  -4  -3 27847.9 1189.52  19
  -3  -4  -3 27495.3 1236.67  11
  -3  -4   2 62650.9 1632.94   7
  -3  -4   3 1742.36 287.478   7
  -3  -4   4 48774.5 1518.91   7
  -3  -4   5 26034.5 1147.80   7
  -3  -4   6 10210.0 755.391   7
  -3  -4   7 4279.45 591.727  17
  -3  -4   8 14176.4 1086.20  17
  -3  -4   9 7358.67 795.042  17
  -3  -4  10 8560.79 807.390  17
  -3  -4  11 18793.5 1080.19  17
  -3  -4  12 9268.40 663.666  17
  -3  -3  -8 7075.17 635.098  14
  -3  -3  -7 1332.90 319.633  14
  -3  -3  -6 20614.9 1201.41  14
  -3  -3  -6 16544.8 1089.51  11
  -3  -3  -5 23554.2 1246.21  11
  -3  -3   2 1044.42 219.126   7
  -3  -3   3 5851.54 456.665   5
  -3  -3   3 4963.96 445.724   7
  -3  -3   4 55817.4 1531.54   7
  -3  -3   4 57763.0 1533.37   5
  -3  -3   5 58170.8 1618.97   7
  -3  -3   5 65078.4 1842.04   5
  -3  -3   6 5606.39 616.658   5
  -3  -3   7 21709.4 1309.06   5
  -3  -3   7 18856.9 1184.44  17
  -3  -3   8 5957.77 688.934  17
  -3  -3   9 1603.99 374.560  17
  -3  -3  10 207.186 171.584  17
  -3  -3  11 1469.43 304.444  17
  -3  -2  -7 4202.80 533.478  14
  -3  -2  -7 3845.16 544.082  11
  -3  -2  -6 46209.5 1758.15  11
  -3  -2  -5 19837.3 1003.90   5
  -3  -2  -5 18776.1 1070.35  11
  -3  -2  -4 12989.2 760.051   5
  -3  -2  -3 2921.23 341.634   5
  -3  -2  -2 13121.3 667.392   5
  -3  -2  -1 345.293 111.751   5
  -3  -2   0 29617.8 925.639   5
  -3  -2   1 32163.9 970.684   5
  -3  -2   2 47610.8 1232.09   5
  -3  -2   2 50241.4 1311.58   7
  -3  -2   3 38572.1 1181.40   5
  -3  -2   3 40910.9 1189.35   7
  -3  -2   4 13057.5 738.161   5
  -3  -2   5 3704.18 443.459   5
  -3  -2   6 334.642 188.492   5
  -3  -2   7 564.297 240.279   5
  -3  -2   8 8765.21 808.681  17
  -3  -2   9 16640.7 1073.37  17
  -3  -2  10 39675.1 1552.72  17
  -3  -1  -7 65.5766 142.902  11
  -3  -1  -6 6160.99 634.004  11
  -3  -1  -4 11028.9 707.017   5
  -3  -1  -3 39419.9 1234.41   5
  -3  -1  -2 2326.69 286.849   5
  -3  -1  -1 113006. 1879.62   5
  -3  -1   0 27034.5 898.727   5
  -3  -1   1 14377.3 661.417   5
  -3  -1   2 1308.51 218.695   5
  -3  -1   3 5609.83 464.285   5
  -3  -1   4 9279.31 630.596   5
  -3  -1   5 44019.2 1518.12   5
  -3  -1   6 8373.98 751.546   5
  -3  -1   7 31973.5 1597.21   5
  -3  -1   8 53149.9 1847.64  17
  -3   0  -7 3530.83 490.752  11
  -3   0  -4 18136.7 901.547   5
  -3   0  -3 13178.7 709.231   5
  -3   0  -2 4660.50 404.052   5
  -3   0  -1 18852.0 765.069   5
  -3   0   0 6474.32 445.266   5
  -3   0   1 13939.6 655.609   5
  -3   0   2 117057. 2004.58   5
  -3   0   3 84280.0 1790.95   5
  -3   0   4 32870.4 1201.76   5
  -3   0   5 17874.4 988.091   5
  -3   0   6 1894.49 372.965   5
  -3   1  -7 2403.90 399.603  11
  -3   1  -4 617.924 176.886   5
  -3   1  -3 61152.0 1502.97   5
  -3   1  -2 69331.2 1519.61   5
  -3   1  -1 93573.6 1720.49   5
  -3   1   0 1710.31 236.856   5
  -3   1   1 20510.0 811.994   5
  -3   1   2 9626.12 593.524   5
  -3   1   3 43743.4 1326.61   5
  -3   1   4 5445.94 508.734   5
  -3   1   5 15342.9 948.896   5
  -3   1   6 86960.6 2524.46   5
  -3   2  -5 29802.1 1192.73   5
  -3   2  -4 39519.9 1268.86   5
  -3   2  -3 1206.98 223.583   5
  -3   2  -2 1829.12 258.844   5
  -3   2  -1-48.4434 115.457   5
  -3   2   0 45770.9 1205.96   5
  -3   2   1 114822. 1969.35   5
  -3   2   2 32088.5 1104.74   5
  -3   2   3 18588.3 897.589   5
  -3   2   4 19385.1 994.542   5
  -3   2   5 749.387 233.588   5
  -3   3  -6 1124.55 260.517   5
  -3   3  -5 6574.00 547.093   5
  -3   3  -4 2432.53 318.387   5
  -3   3  -3 40991.4 1201.92   5
  -3   3  -2 27212.2 948.251   5
  -3   3  -1 44320.8 1191.44   5
  -3   3   0 58025.4 1382.09   5
  -3   3   1 2602.62 314.582   5
  -3   3   2 3731.56 397.460   5
  -3   3   3 362.266 147.127   5
  -3   3   4 12468.0 856.275   5
  -3   3   5 29579.3 1472.91   5
  -3   4  -6 14534.2 833.522   5
  -3   4  -5 9765.40 647.981   5
  -3   4  -4 61897.6 1529.75   5
  -3   4  -3 669.828 163.614   5
  -3   4  -2 569.193 149.561   5
  -3   4  -1 56.1206 69.9795   5
  -3   4   0 20028.9 852.886   5
  -3   4   1 11752.2 690.369   5
  -3   4   2 37221.7 1296.16   5
  -3   4   3 53214.7 1699.72   5
  -3   4   4 50130.8 1825.13   5
  -3   5  -5 2854.26 338.686   5
  -3   5  -4 16624.7 776.423   5
  -2 -12   1 272.854 121.797  20
  -2 -12   2 6385.43 456.655  20
  -2 -12   3 3386.56 329.249  20
  -2 -12   4 4973.18 435.313  22
  -2 -12   5 636.719 168.819  22
  -2 -12   6 5837.59 465.215  22
  -2 -12   7-69.5100 96.6814  22
  -2 -12   8 101.576 88.9502  22
  -2 -11  -2 7034.68 485.192  20
  -2 -11  -1 4376.29 435.885  20
  -2 -11   0 2966.30 386.674  20
  -2 -11   1 13203.6 818.170  20
  -2 -11   2 1124.48 255.553  20
  -2 -11   2 948.055 243.766  22
  -2 -11   3 141.165 138.098  22
  -2 -11   3 224.086 145.071  20
  -2 -11   4 635.560 203.102  22
  -2 -11   5 94.5394 132.830  22
  -2 -11   6 15271.5 892.087  22
  -2 -11   7 5043.00 513.429  22
  -2 -11   8 2122.03 326.540  22
  -2 -11   9 4160.74 415.376  22
  -2 -11  10 2200.36 280.956  22
  -2 -11  11 77.3497 65.7371  22
  -2 -10  -4 6162.99 426.665  20
  -2 -10  -4 6651.23 423.101  14
  -2 -10  -3 6091.81 458.857  14
  -2 -10  -3 5959.75 509.346  20
  -2 -10  -2 5660.67 557.266  20
  -2 -10  -1 136.457 153.511  20
  -2 -10   0 729.077 260.484  20
  -2 -10   0 719.132 236.824  22
  -2 -10   1 2371.75 412.661  20
  -2 -10   1 2773.70 414.420  22
  -2 -10   2 6116.55 627.632  20
  -2 -10   2 5291.14 570.519  22
  -2 -10   3 4275.62 520.361  22
  -2 -10   3 4130.55 509.297  20
  -2 -10   4 31651.1 1393.26  22
  -2 -10   4 29445.0 1419.79  23
  -2 -10   5 7631.92 684.523  22
  -2 -10   5 9343.91 845.198  23
  -2 -10   6 8250.55 802.251  23
  -2 -10   6 7511.34 679.145  22
  -2 -10   7 1697.56 461.996  23
  -2 -10   7 122.726 129.385  22
  -2 -10   8 6026.76 592.992  22
  -2 -10   9 4016.81 466.850  22
  -2 -10  10-62.2185 140.772  22
  -2 -10  11 7799.29 549.476  22
  -2 -10  12 2972.32 297.572  22
  -2  -9  -6 11164.6 561.814  14
  -2  -9  -5 584.314 160.739  20
  -2  -9  -5 668.420 182.159  14
  -2  -9  -4 2531.84 367.503  14
  -2  -9  -4 2349.96 354.484  20
  -2  -9  -3 3079.74 446.046  20
  -2  -9  -3 3648.27 454.439  14
  -2  -9  -2 7346.62 715.205  20
  -2  -9  -2 8403.29 708.632  14
  -2  -9  -1 11258.0 821.073  22
  -2  -9   0 14660.2 951.861  22
  -2  -9   1 24955.5 1227.06  22
  -2  -9   2 173.582 145.212  22
  -2  -9   3 5890.28 599.095  22
  -2  -9   3 5797.09 609.141  20
  -2  -9   3 6394.04 678.408  23
  -2  -9   4 3343.61 539.730  23
  -2  -9   4 3000.50 432.278  22
  -2  -9   5 5856.65 704.561  23
  -2  -9   5 6554.90 646.868  22
  -2  -9   6 6592.78 764.616  23
  -2  -9   6 7764.78 705.531  22
  -2  -9   7 5186.17 654.530  23
  -2  -9   8 17850.8 1108.44  23
  -2  -9   9 9916.95 775.314  17
  -2  -9  10 2256.04 371.730  17
  -2  -9  11 428.720 162.941  17
  -2  -9  12 142.031 110.624  17
  -2  -9  13 3781.48 338.617  17
  -2  -8  -7 767.128 183.456  14
  -2  -8  -6 5447.60 511.557  14
  -2  -8  -5 12314.6 832.137  14
  -2  -8  -5 11225.1 740.223  20
  -2  -8  -4 36315.3 1501.85  14
  -2  -8  -3 6663.46 684.528  14
  -2  -8  -2 874.727 264.146  14
  -2  -8  -2 64.9493 126.529  22
  -2  -8  -1 1324.75 299.634  22
  -2  -8  -1 1384.36 326.609  14
  -2  -8   0 138.671 94.6512  22
  -2  -8   1 2189.68 364.465  22
  -2  -8   2 33626.7 1342.65   7
  -2  -8   2 34321.8 1364.60  22
  -2  -8   3 31101.1 1311.37  22
  -2  -8   3 31403.2 1309.28   7
  -2  -8   4 12954.5 846.539  22
  -2  -8   4 11744.1 972.449  23
  -2  -8   4 14098.2 897.066   7
  -2  -8   5 17995.0 1025.80   7
  -2  -8   5 15025.1 1123.37  23
  -2  -8   6 339.071 264.530  23
  -2  -8   6 274.864 144.386   7
  -2  -8   7 2946.15 457.130   7
  -2  -8   7 3075.07 513.673  23
  -2  -8   8 25997.0 1335.03  17
  -2  -8   8 26727.2 1350.85  23
  -2  -8   9 657.198 240.972  17
  -2  -8  10 28792.1 1412.94  17
  -2  -8  11 3055.53 453.378  17
  -2  -8  12 10628.7 755.265  17
  -2  -8  13 4051.89 403.294  17
  -2  -8  14 1009.11 169.033  17
  -2  -7  -8 12797.3 677.148  14
  -2  -7  -7 13781.2 820.305  14
  -2  -7  -6 1599.51 329.267  14
  -2  -7  -5 758.803 251.640  14
  -2  -7  -4 7511.86 731.872  14
  -2  -7  -3 1933.93 396.763  14
  -2  -7  -2 617.506 259.630  14
  -2  -7  -2 573.426 179.397  22
  -2  -7  -1 53405.4 1908.39  14
  -2  -7  -1 58033.1 1745.55  22
  -2  -7   1 26362.4 1131.25   7
  -2  -7   2 12083.1 766.244   7
  -2  -7   3 7631.41 624.854   7
  -2  -7   4 3179.88 403.587   7
  -2  -7   5 1020.76 248.788   7
  -2  -7   6 13444.8 889.974   7
  -2  -7   6 14714.4 1055.13  23
  -2  -7   7 15902.4 1024.11  17
  -2  -7   7 18555.4 1145.50  23
  -2  -7   7 17235.3 1051.93   7
  -2  -7   8 49752.6 1901.16  17
  -2  -7   8 50810.7 1840.44   7
  -2  -7   8 52497.9 1830.99  23
  -2  -7   9 2962.32 489.360  17
  -2  -7  10 4460.66 594.405  17
  -2  -7  11 1079.45 307.754  17
  -2  -7  12-14.0022 134.222  17
  -2  -7  13 621.037 198.774  17
  -2  -7  14 3784.26 345.482  17
  -2  -6  -9 959.729 201.267  14
  -2  -6  -8 85.3529 141.663  14
  -2  -6  -7 1873.30 350.624  14
  -2  -6  -6 18175.7 1099.10  14
  -2  -6  -6 17293.4 936.255  15
  -2  -6  -5 20334.6 1193.14  14
  -2  -6  -5 20461.2 1011.17  15
  -2  -6  -4 5100.28 608.171  14
  -2  -6  -3 22261.2 1228.46  14
  -2  -6  -3 23229.5 1127.37  22
  -2  -6   1 20671.5 927.271   7
  -2  -6   2 17330.1 848.784   7
  -2  -6   3 27492.6 1071.54   7
  -2  -6   4 42862.9 1368.17   7
  -2  -6   5 24730.3 1109.02   7
  -2  -6   6 45418.2 1579.06   7
  -2  -6   7 12920.2 885.616   7
  -2  -6   8 18214.9 1083.95   7
  -2  -6   8 16179.6 1085.57  17
  -2  -6   8 19606.1 1060.72  23
  -2  -6   9 5598.60 670.943  17
  -2  -6   9 5310.46 602.045   7
  -2  -6  10 11055.5 925.298  17
  -2  -6  11 9837.57 837.205  17
  -2  -6  12 8778.85 735.979  17
  -2  -6  13 4446.91 467.754  17
  -2  -6  14 3415.37 338.754  17
  -2  -5 -10 3668.81 335.122  14
  -2  -5  -9 21775.6 979.857  14
  -2  -5  -9 20028.6 888.698  15
  -2  -5  -8 9950.20 748.397  14
  -2  -5  -8 9179.35 681.828  15
  -2  -5  -7 12752.9 899.291  14
  -2  -5  -7 12146.2 796.503  15
  -2  -5  -6 2558.09 381.282  15
  -2  -5  -6 1924.16 379.482  14
  -2  -5  -5 1415.62 298.117  15
  -2  -5  -5 1829.63 375.759  14
  -2  -5   0 55019.7 1444.86   7
  -2  -5   1 23790.0 929.661   7
  -2  -5   2 12146.7 654.887   7
  -2  -5   3 12262.6 668.572   7
  -2  -5   4 9895.91 623.814   7
  -2  -5   5 1243.91 245.528   7
  -2  -5   6 64085.4 1771.48   7
  -2  -5   7 43720.0 1569.78   7
  -2  -5   8 11570.3 854.520   7
  -2  -5   9 13093.1 984.845  17
  -2  -5   9 10743.2 832.556   7
  -2  -5  10 7257.78 747.451  17
  -2  -5  10 5531.70 609.147   7
  -2  -5  11 2072.15 402.398  17
  -2  -5  12 2063.38 365.352  17
  -2  -5  13 7467.43 593.133  17
  -2  -5  14 3066.02 317.531  17
  -2  -4 -11 5245.44 364.671  15
  -2  -4 -10 6106.57 481.719  15
  -2  -4 -10 6693.43 507.298  14
  -2  -4  -9 2645.69 370.070  15
  -2  -4  -9 3364.07 419.192  14
  -2  -4  -8 193.505 155.209  14
  -2  -4  -8-54.7437 154.077  15
  -2  -4  -7 14017.1 856.124  15
  -2  -4  -7 13771.5 942.643  14
  -2  -4  -6 8208.34 734.766  14
  -2  -4  -6 8325.56 633.629  15
  -2  -4  -5 19322.6 971.894   3
  -2  -4  -4 117305. 2251.30   3
  -2  -4   0 761.654 171.878   7
  -2  -4   1 26140.5 891.987   7
  -2  -4   2 14434.4 651.875   7
  -2  -4   3 153489. 2137.77   7
  -2  -4   4 61433.0 1429.65   7
  -2  -4   5 25609.4 983.540   7
  -2  -4   6 1132.79 235.883   7
  -2  -4   7 14698.4 875.922   7
  -2  -4   8 1020.50 257.805   7
  -2  -4   9 1186.36 313.112  17
  -2  -4   9 665.069 202.849  10
  -2  -4   9 507.502 193.623   7
  -2  -4  10 10279.8 811.352  10
  -2  -4  10 11835.9 908.167  17
  -2  -4  11 10462.1 828.392  17
  -2  -4  11 9734.56 787.701  10
  -2  -4  12 23628.6 1158.02  10
  -2  -4  12 23300.9 1144.62  17
  -2  -4  13 5556.57 492.140  17
  -2  -3 -12 403.619 114.813  15
  -2  -3 -11 7315.67 486.831  15
  -2  -3 -10 9567.38 646.942  15
  -2  -3  -9 4948.88 506.085  15
  -2  -3  -9 6219.85 585.017  14
  -2  -3  -8 15239.6 880.221  15
  -2  -3  -8 16631.0 996.222  14
  -2  -3  -7 31805.4 1405.04  14
  -2  -3  -7 34634.0 1304.20  15
  -2  -3  -6 16601.8 947.111   3
  -2  -3  -5 7752.47 617.937   3
  -2  -3  -4 728.725 191.384   3
  -2  -3  -3 90876.5 1800.93   3
  -2  -3  -1 245.984 85.2539   5
  -2  -3   0 6190.42 417.343   7
  -2  -3   0 6524.60 333.921   5
  -2  -3   1 210656. 1852.49   5
  -2  -3   1 204432. 2262.73   7
  -2  -3   2 12901.3 487.878   5
  -2  -3   2 11470.1 531.218   7
  -2  -3   3 42274.4 963.699   5
  -2  -3   3 41583.2 1024.26   7
  -2  -3   4 4462.83 359.469   7
  -2  -3   4 4948.64 386.198   5
  -2  -3   5 21065.7 846.604   7
  -2  -3   5 21140.0 923.484   5
  -2  -3   6 37180.5 1415.53   5
  -2  -3   6 36039.8 1209.03   7
  -2  -3   7 22074.3 1025.00   7
  -2  -3   8 21497.0 1064.39   7
  -2  -3   8 26564.0 1382.37   4
  -2  -3   9 32815.5 1506.26   4
  -2  -3  10 39577.5 1609.14  10
  -2  -3  10 43338.7 1669.06  17
  -2  -3  11 873.303 283.207  10
  -2  -3  11 883.763 257.901  17
  -2  -3  12 3157.40 406.095  17
  -2  -3  12 3734.00 486.595  10
  -2  -3  13 412.827 177.796  10
  -2  -2 -12 11636.5 545.277  15
  -2  -2 -11 4155.23 416.702  15
  -2  -2 -10 9461.57 672.094  15
  -2  -2  -7 349.969 162.309   3
  -2  -2  -6 21587.2 1058.27   3
  -2  -2  -5 12496.4 751.558   3
  -2  -2  -4 44986.2 1294.85   3
  -2  -2  -3 96137.0 1733.99   3
  -2  -2  -1 67.6850 73.2280   5
  -2  -2   0 17877.9 650.248   7
  -2  -2   0 17837.6 562.642   5
  -2  -2   1 78089.7 1156.98   5
  -2  -2   1 77136.6 1289.96   7
  -2  -2   2 27921.0 752.389   7
  -2  -2   2 29258.6 747.108   5
  -2  -2   2 30300.2 912.663   2
  -2  -2   3 52108.4 1060.98   7
  -2  -2   3 54623.9 1103.15   5
  -2  -2   4 35390.6 928.199   7
  -2  -2   4 35345.5 987.865   5
  -2  -2   5 212140. 2852.31   5
  -2  -2   5 213243. 2498.60   7
  -2  -2   6 21153.3 1060.62   5
  -2  -2   6 19984.7 851.730   7
  -2  -2   7 17209.3 1058.28   5
  -2  -2   8 954.563 281.623   4
  -2  -2   9 1526.04 360.770   4
  -2  -2  10 27778.5 1254.11  17
  -2  -2  10 24942.8 1288.17  10
  -2  -2  11 13950.3 957.262  10
  -2  -2  12 30229.2 1333.31  10
  -2  -2  13 7758.24 628.050  10
  -2  -1 -13 333.450 97.7154  15
  -2  -1 -12 142.206 107.497  15
  -2  -1 -11 166.324 114.041  15
  -2  -1  -7 13143.2 854.310   3
  -2  -1  -6 26428.3 1145.78   3
  -2  -1  -5 9611.00 635.394   3
  -2  -1  -4 2054.54 276.404   3
  -2  -1  -3 4617.39 365.905   3
  -2  -1  -2 1478.16 198.965   3
  -2  -1  -1 161630. 1764.27   5
  -2  -1   0 268772. 2338.09   7
  -2  -1   0 267362. 2191.79   5
  -2  -1   1 130409. 1531.93   7
  -2  -1   1 128868. 1517.28   5
  -2  -1   2 97201.3 1276.40   7
  -2  -1   2 94558.3 1356.31   5
  -2  -1   3 42350.3 863.503   7
  -2  -1   3 41320.5 996.496   5
  -2  -1   4 1899.19 201.114   7
  -2  -1   4 1624.79 221.720   5
  -2  -1   5 69625.1 1647.73   5
  -2  -1   6 12439.0 814.033   5
  -2  -1   7 37349.2 1559.90   5
  -2  -1   8 45303.0 1826.59   4
  -2  -1   9 23996.7 1338.92   4
  -2  -1   9 22477.4 1200.22  10
  -2  -1  10 7940.27 734.783  10
  -2  -1  11 3681.32 518.401  10
  -2  -1  12 1544.74 312.708  10
  -2  -1  13 2533.26 357.963  10
  -2   0 -13 1850.99 207.198  15
  -2   0  -8 431.802 180.369   3
  -2   0  -7 1192.16 270.962   3
  -2   0  -6 69898.6 1809.97   3
  -2   0  -5 58173.9 1488.60   3
  -2   0  -4 63950.9 1388.18   3
  -2   0  -3 65312.5 1249.59   3
  -2   0  -1 407.066 113.478   5
  -2   0   0 1397.99 172.293   5
  -2   0   1 46707.4 928.934   5
  -2   0   1 44326.3 814.272   7
  -2   0   2 15826.2 576.869   5
  -2   0   2 16093.0 473.584   7
  -2   0   3 239742. 2428.67   5
  -2   0   4 39260.9 1086.03   5
  -2   0   5 57732.4 1534.13   5
  -2   0   6 16548.3 955.885   5
  -2   0   7 20439.7 1175.36   5
  -2   0   8 1620.17 365.215   4
  -2   0   9 742.631 252.960  10
  -2   0  10 22362.7 1208.38  10
  -2   0  11 5860.85 612.994  10
  -2   0  12 21836.3 1082.51  10
  -2   1  -8 31720.7 1306.99   3
  -2   1  -7 41669.2 1429.24   3
  -2   1  -6 31567.6 1151.09   3
  -2   1  -5 14712.5 698.988   3
  -2   1  -4 16784.6 657.457   3
  -2   1  -3 7688.92 405.285   3
  -2   1  -1 86488.4 1301.71   5
  -2   1   0 189640. 1903.60   5
  -2   1   1 125013. 1560.58   5
  -2   1   2 66421.1 1217.65   5
  -2   1   3 17898.6 693.478   5
  -2   1   4 21043.3 837.243   5
  -2   1   5 4839.31 476.849   5
  -2   1   6 3437.76 464.920   5
  -2   1   8 93426.7 2681.42   4
  -2   1   9 71471.7 2133.89  10
  -2   1  10 2705.60 430.219  10
  -2   1  11 6498.34 623.170  10
  -2   1  12 100.891 108.800  10
  -2   2  -9 13644.9 843.006   3
  -2   2  -8 2460.26 364.469   3
  -2   2  -7 15246.2 816.576   3
  -2   2  -6 4450.81 405.366   3
  -2   2  -5 20303.5 751.564   3
  -2   2  -4 70026.5 1222.11   3
  -2   2  -2 199298. 2058.53   5
  -2   2  -1 222.006 93.7190   5
  -2   2   0 22914.0 676.742   5
  -2   2   1 215.647 92.0914   5
  -2   2   2 57875.9 1196.68   5
  -2   2   3 108083. 1781.66   5
  -2   2   4 43516.4 1302.63   5
  -2   2   5 141560. 2726.10   5
  -2   2   6 25765.2 1295.76   5
  -2   2   8 2803.97 436.626  10
  -2   2   9 985.226 262.304  10
  -2   2  10 13899.2 900.020  10
  -2   2  11 15576.2 866.941  10
  -2   3  -2 172247. 1936.81   5
  -2   3  -1 65345.5 1185.00   5
  -2   3   0 144334. 1740.92   5
  -2   3   1 2130.36 233.516   5
  -2   3   2 180715. 2235.58   5
  -2   3   3 26658.2 954.354   5
  -2   3   4 5817.76 526.474   5
  -2   3   5 1280.44 283.027   5
  -2   3   7 177903. 3692.96   4
  -2   4  -3 87101.5 1443.79   5
  -2   4  -2 7209.62 404.012   5
  -2   4  -1 49464.0 1029.83   5
  -2   4   0 551.498 128.550   5
  -2   4   1 26410.6 838.401   5
  -2   4   2 12532.8 633.731   5
  -2   4   3 62281.3 1628.63   5
  -2   4   4 45046.5 1610.85   5
  -2   5  -5 68894.9 1439.68   5
  -1 -12  -1 17001.0 724.526  20
  -1 -12   0 3584.73 381.714  20
  -1 -12   1 582.282 182.883  20
  -1 -12   2 392.314 172.860  20
  -1 -12   3 2336.54 332.583  20
  -1 -12   4 10659.0 676.108  23
  -1 -12   4 10715.2 672.814  20
  -1 -12   5 1443.06 291.895  23
  -1 -12   6 12985.3 801.938  23
  -1 -12   7 6593.39 490.911  22
  -1 -12   7 7000.94 593.988  23
  -1 -12   8 2263.74 348.453  23
  -1 -12   8 1354.81 215.842  22
  -1 -12   9-7.33500 64.2341  22
  -1 -12   9 956.049 226.003  23
  -1 -11  -3 300.977 122.493  20
  -1 -11  -2 2772.94 353.749  20
  -1 -11  -1 769.857 228.428  20
  -1 -11   0 9773.38 758.571  20
  -1 -11   1 9428.46 677.371  22
  -1 -11   1 9678.61 777.107  20
  -1 -11   2 13223.9 906.091  20
  -1 -11   2 12743.5 804.434  22
  -1 -11   3 11771.4 839.489  20
  -1 -11   3 11176.9 759.565  22
  -1 -11   4 3863.68 462.093  20
  -1 -11   4 3725.27 447.644  22
  -1 -11   4 4025.90 514.850  23
  -1 -11   5 973.558 242.825  22
  -1 -11   5 865.654 246.482  23
  -1 -11   6 4221.02 478.973  22
  -1 -11   6 3830.61 527.623  23
  -1 -11   7 3690.34 497.677  23
  -1 -11   7 3753.65 447.798  22
  -1 -11   8 6224.16 549.161  22
  -1 -11   8 6451.27 627.380  23
  -1 -11   9 5291.67 488.891  22
  -1 -11   9 6320.16 568.113  23
  -1 -11  10 1241.89 230.557  22
  -1 -11  10 1505.81 294.510  23
  -1 -11  11 3447.43 329.791  22
  -1 -10  -5 4280.09 352.751  14
  -1 -10  -4 9295.82 584.797  20
  -1 -10  -4 9685.96 592.890  14
  -1 -10  -3 23336.5 1063.56  20
  -1 -10  -2 20355.1 1085.23  20
  -1 -10  -1 7787.98 727.669  20
  -1 -10   0 58.8467 94.9307  22
  -1 -10   0-35.7610 132.150  20
  -1 -10   1 5478.51 568.083  22
  -1 -10   1 5598.62 632.616  20
  -1 -10   2 3094.94 423.345  22
  -1 -10   2 3455.10 496.619  20
  -1 -10   3 2942.36 457.902  23
  -1 -10   3 2340.70 373.295  22
  -1 -10   3 2837.27 438.878  20
  -1 -10   4 14338.7 914.427  22
  -1 -10   4 14407.9 1051.46  23
  -1 -10   4 13844.4 910.362  20
  -1 -10   5 17091.6 1002.43  22
  -1 -10   5 15206.2 1094.33  23
  -1 -10   6 14653.5 934.312  22
  -1 -10   6 12029.4 969.882  23
  -1 -10   7 5018.40 552.885  22
  -1 -10   7 5019.69 619.997  23
  -1 -10   8 2565.37 424.413  23
  -1 -10   9 83.6438 141.599  23
  -1 -10  10 3646.95 442.898  23
  -1 -10  11 5255.65 454.738  23
  -1 -10  11 5055.94 466.167  17
  -1 -10  12 9678.61 577.045  17
  -1 -10  13 954.529 165.584  17
  -1  -9  -7 8283.61 470.949  14
  -1  -9  -6 14057.2 727.836  14
  -1  -9  -5 9782.79 679.749  14
  -1  -9  -4 10709.7 741.638  20
  -1  -9  -4 11100.8 762.409  14
  -1  -9  -3 687.057 220.019  14
  -1  -9  -3 795.047 257.695  20
  -1  -9  -2 18085.4 1100.27  20
  -1  -9  -1 1058.72 298.441  20
  -1  -9  -1 936.915 246.407  22
  -1  -9   0 1667.48 356.386   9
  -1  -9   0 1595.26 316.620  22
  -1  -9   0 1427.78 348.922  20
  -1  -9   1 49173.0 1644.69  22
  -1  -9   1 51564.9 1960.73   9
  -1  -9   1 48120.0 1842.44  20
  -1  -9   2 25290.2 1305.87  20
  -1  -9   2 24759.4 1166.81  22
  -1  -9   2 26678.8 1489.06   9
  -1  -9   3 25432.2 1169.29  22
  -1  -9   3 25006.7 1354.45  23
  -1  -9   3 27349.0 1541.69   9
  -1  -9   3 24545.6 1235.34  20
  -1  -9   4 2025.82 412.847  23
  -1  -9   4 1910.56 342.161  22
  -1  -9   4 1446.64 297.530  20
  -1  -9   4 2521.61 511.020   9
  -1  -9   5 334.521 160.445  22
  -1  -9   5 145.975 160.247  23
  -1  -9   5 264.800 154.105   7
  -1  -9   5 183.745 180.077   9
  -1  -9   6 363.947 217.025  23
  -1  -9   6 936.238 306.509   9
  -1  -9   6 583.560 202.797   7
  -1  -9   7 6710.75 642.463   7
  -1  -9   7 5887.08 675.494  23
  -1  -9   8 291.770 180.603  23
  -1  -9   9 5531.84 588.603  23
  -1  -9   9 5494.03 580.875  17
  -1  -9  10 51015.9 1740.59  17
  -1  -9  10 53512.6 1678.96  23
  -1  -9  11 5975.21 505.635  23
  -1  -9  11 5874.70 575.555  17
  -1  -9  12 297.537 153.193  17
  -1  -9  13 818.302 190.731  17
  -1  -9  14 1222.54 185.789  17
  -1  -8  -8 2130.13 268.854  14
  -1  -8  -7 1003.20 228.247  14
  -1  -8  -6 1349.28 287.638  14
  -1  -8  -5 13192.2 798.934  20
  -1  -8  -5 12557.2 843.812  14
  -1  -8  -4 5729.32 583.540  20
  -1  -8  -4 4789.63 550.785  14
  -1  -8  -3 28053.2 1340.18  20
  -1  -8  -3 26358.4 1290.30  14
  -1  -8  -2 4959.55 536.164  22
  -1  -8  -2 5938.52 637.128  20
  -1  -8  -2 5968.57 613.893  14
  -1  -8  -1 43141.0 1518.29  22
  -1  -8  -1 45588.8 1617.98   9
  -1  -8   0 15503.4 1014.32   9
  -1  -8   1 891.578 265.007   9
  -1  -8   2-22.2249 160.258   9
  -1  -8   2 128.818 125.992   7
  -1  -8   3 4646.24 475.102   7
  -1  -8   3 4266.37 635.577   9
  -1  -8   4 51021.4 1563.37   7
  -1  -8   4 45732.8 1963.35   9
  -1  -8   5 23798.4 1110.57   7
  -1  -8   5 23610.3 1369.60   9
  -1  -8   6 41052.2 1512.47   7
  -1  -8   6 43676.2 1771.89   9
  -1  -8   6 41244.7 1760.01  23
  -1  -8   7 18640.3 1060.01   7
  -1  -8   7 19661.3 1176.50  23
  -1  -8   8 15063.4 969.745   7
  -1  -8   8 14904.5 1001.33  23
  -1  -8   8 15481.8 988.636  17
  -1  -8   9 483.355 187.673  17
  -1  -8   9 557.721 217.345  23
  -1  -8   9 711.337 241.667   7
  -1  -8  10 1881.15 367.434  17
  -1  -8  10 2376.04 362.636  23
  -1  -8  11 90.1352 128.173  17
  -1  -8  12 10158.8 749.786  17
  -1  -8  13 3004.07 389.829  17
  -1  -8  14 5914.59 448.161  17
  -1  -7  -9 635.143 171.872  14
  -1  -7  -8 15701.8 826.820  14
  -1  -7  -7 14946.4 889.970  14
  -1  -7  -6 28900.0 1298.15  14
  -1  -7  -5 25803.2 1147.35  15
  -1  -7  -5 24399.1 1228.47  14
  -1  -7  -4 402.726 158.212  14
  -1  -7  -3 392.758 170.657  14
  -1  -7  -2 20635.5 1001.65   9
  -1  -7  -1 24825.8 1156.99   9
  -1  -7   0 43751.6 1617.73   9
  -1  -7   1 107718. 2686.79   9
  -1  -7   1 108002. 2050.28   7
  -1  -7   2 36564.5 1633.98   9
  -1  -7   2 34226.9 1155.83   7
  -1  -7   3 8222.23 577.951   7
  -1  -7   3 7824.91 786.757   9
  -1  -7   4 28709.5 1469.47   9
  -1  -7   4 30325.1 1140.15   7
  -1  -7   5 10494.3 861.396   9
  -1  -7   5 11038.7 714.942   7
  -1  -7   6 2894.95 401.485   7
  -1  -7   6 2884.75 434.094   9
  -1  -7   7 113.529 139.388   7
  -1  -7   8 61250.8 1937.57   7
  -1  -7   8 61864.0 1886.41  23
  -1  -7   9 56705.3 1975.60  17
  -1  -7   9 62698.8 1837.36  23
  -1  -7   9 60928.2 1969.05   7
  -1  -7  10 397.486 186.628   7
  -1  -7  10 410.223 190.769  17
  -1  -7  11 2629.97 423.885  17
  -1  -7  12 2867.44 418.600  17
  -1  -7  13 767.363 230.135  17
  -1  -7  14 175.905 110.145  17
  -1  -7  15 697.760 135.723  17
  -1  -6 -10 6641.70 450.725  14
  -1  -6  -9 9554.67 628.082  15
  -1  -6  -9 9689.88 648.592  14
  -1  -6  -8 11477.6 752.651  15
  -1  -6  -8 10928.3 761.905  14
  -1  -6  -7 29.7437 117.087  14
  -1  -6  -7 315.910 180.799  15
  -1  -6  -6 1251.87 292.949  14
  -1  -6  -6 1321.77 303.574  15
  -1  -6  -5 11057.2 746.235  15
  -1  -6  -5 11259.7 821.969  14
  -1  -6  -4 13537.0 930.467   6
  -1  -6  -3 55210.0 1840.04   6
  -1  -6  -2 89848.2 1928.42   9
  -1  -6  -2 82648.2 2101.06   6
  -1  -6  -1 34698.7 1250.09   6
  -1  -6  -1 36763.1 1318.60   9
  -1  -6   0 15198.7 721.454   7
  -1  -6   0 15670.1 913.173   9
  -1  -6   1 16303.0 739.645   7
  -1  -6   1 15773.4 961.172   9
  -1  -6   2 28477.8 953.288   7
  -1  -6   2 28594.9 1344.99   9
  -1  -6   3 11865.5 628.921   7
  -1  -6   3 11391.3 868.980   9
  -1  -6   4 39505.9 1195.12   7
  -1  -6   4 40602.8 1601.13   9
  -1  -6   5 50076.9 1435.57   7
  -1  -6   5 51809.8 1724.04   9
  -1  -6   6 59778.9 1740.86   9
  -1  -6   6 55236.4 1620.06   7
  -1  -6   7 9285.54 717.518   7
  -1  -6   8 9458.27 763.763   7
  -1  -6   9 17517.0 1080.48  17
  -1  -6   9 16483.1 1020.11   7
  -1  -6  10 1903.74 381.402  17
  -1  -6  10 1761.04 353.073   7
  -1  -6  11 4450.16 546.951  17
  -1  -6  12 3377.30 456.253  17
  -1  -6  13 10831.7 751.547  17
  -1  -6  14 15061.6 775.071  17
  -1  -6  15 63.5861 61.2662  17
  -1  -5 -11 3539.65 324.278  15
  -1  -5 -11 3704.31 306.255  14
  -1  -5 -10 800.033 202.284  14
  -1  -5 -10 519.440 200.569  15
  -1  -5  -9 7542.34 625.365  15
  -1  -5  -9 7484.25 619.818  14
  -1  -5  -8 24089.9 1124.68  15
  -1  -5  -8 23372.2 1141.68  14
  -1  -5  -7 19199.4 1006.49  15
  -1  -5  -7 19430.3 1069.39  14
  -1  -5  -6 41008.4 1428.75  15
  -1  -5  -6 43818.0 1586.62  14
  -1  -5  -5 11747.2 862.612   6
  -1  -5  -4 41315.1 1594.07   6
  -1  -5  -3 665.471 225.824   6
  -1  -5  -2 680.795 224.074   6
  -1  -5  -2 165.686 97.5082   9
  -1  -5  -1 48081.1 1367.89   6
  -1  -5  -1 47018.6 1366.99   9
  -1  -5   0 44529.2 1411.30   9
  -1  -5   0 44177.2 1124.44   7
  -1  -5   1 40705.9 1411.50   9
  -1  -5   1 42341.0 1039.06   7
  -1  -5   2 33579.9 926.401   7
  -1  -5   2 32837.8 1316.10   9
  -1  -5   3 211450. 2422.61   7
  -1  -5   3 201205. 3260.52   9
  -1  -5   4 12646.8 629.974   7
  -1  -5   4 14066.8 844.012   9
  -1  -5   5 5804.60 515.115   9
  -1  -5   5 5135.85 445.696   7
  -1  -5   6 162.794 104.005   9
  -1  -5   6 82.4488 114.935   7
  -1  -5   7 17717.8 946.641   7
  -1  -5   8 13132.3 871.931   7
  -1  -5   9 17844.4 1046.42   7
  -1  -5  10 16288.7 1014.03  17
  -1  -5  10 14460.8 952.209   7
  -1  -5  11 38330.2 1555.75  17
  -1  -5  11 33331.9 1416.44   7
  -1  -5  12 12452.3 855.575  17
  -1  -5  13 1522.54 292.394  17
  -1  -5  14 1439.37 240.413  17
  -1  -5  15 993.802 160.018  17
  -1  -4 -12 5814.33 381.858  15
  -1  -4 -11 16956.4 790.036  15
  -1  -4 -11 16359.6 733.490  14
  -1  -4 -10 23289.0 1025.91  14
  -1  -4 -10 22290.6 1034.69  15
  -1  -4  -9 6958.65 614.857  14
  -1  -4  -9 6530.77 601.609  15
  -1  -4  -8 16012.8 934.376  15
  -1  -4  -8 14953.0 914.304  14
  -1  -4  -7 4954.46 504.634   3
  -1  -4  -7 5340.12 519.825  15
  -1  -4  -7 5540.45 560.226  14
  -1  -4  -6 811.010 243.828   6
  -1  -4  -6 83.8899 77.1359   3
  -1  -4  -5 17767.3 1031.57   6
  -1  -4  -5 15146.8 790.005   3
  -1  -4  -4 40613.0 1171.55   3
  -1  -4  -4 41313.9 1526.42   6
  -1  -4  -3 58932.5 1720.18   6
  -1  -4  -3 69899.3 1369.71   3
  -1  -4  -2 90010.4 1632.80   9
  -1  -4  -2 87943.6 1932.97   6
  -1  -4  -2 92487.1 1415.82   3
  -1  -4  -1 35956.8 944.351   7
  -1  -4  -1 37804.1 827.608   3
  -1  -4  -1 36452.6 1086.94   6
  -1  -4  -1 35527.2 1075.47   9
  -1  -4   0 4910.45 335.337   7
  -1  -4   0 4993.72 428.496   9
  -1  -4   1 93855.7 1361.45   7
  -1  -4   1 90137.4 1870.67   9
  -1  -4   2 7333.61 391.500   7
  -1  -4   2 7725.95 572.639   9
  -1  -4   3 23491.0 733.239   7
  -1  -4   3 22729.8 960.355   9
  -1  -4   4 49389.7 1172.87   7
  -1  -4   4 52088.0 1385.72   9
  -1  -4   5 58368.8 1394.00   7
  -1  -4   5 61390.2 1386.53   9
  -1  -4   6 147763. 2449.75   4
  -1  -4   6 136297. 2343.28   7
  -1  -4   7 74741.0 1847.69   7
  -1  -4   7 83250.5 1957.43   4
  -1  -4   8 13062.2 824.616   4
  -1  -4   8 11319.2 772.010   7
  -1  -4   9 2941.19 423.517   7
  -1  -4   9 3151.87 428.334   4
  -1  -4  10 380.209 190.855  17
  -1  -4  10-117.064 89.8381  10
  -1  -4  10 182.223 147.035   7
  -1  -4  11 3863.64 479.601  17
  -1  -4  11 3432.74 456.485   7
  -1  -4  11 3365.84 435.184  10
  -1  -4  12 24879.2 1150.43  10
  -1  -4  12 24476.6 1154.60  17
  -1  -4  13 4531.42 470.462  10
  -1  -4  13 4337.44 459.183  17
  -1  -4  14 9230.69 564.300  17
  -1  -4  14 10207.2 629.982  10
  -1  -4  15 3996.47 329.068  10
  -1  -3 -13 4568.13 300.716  15
  -1  -3 -12 4637.23 403.590  15
  -1  -3 -11 1407.66 286.234  15
  -1  -3 -10 2240.40 334.095  14
  -1  -3  -9 805.009 228.447  14
  -1  -3  -8 34753.7 1340.84  14
  -1  -3  -7 18689.9 1008.40   6
  -1  -3  -7 15170.4 883.653   3
  -1  -3  -6 43903.7 1544.36   6
  -1  -3  -6 34353.7 1262.88   3
  -1  -3  -5 32243.2 1307.80   6
  -1  -3  -5 27236.8 1044.49   3
  -1  -3  -4 114753. 1935.91   3
  -1  -3  -4 110067. 2320.25   6
  -1  -3  -3 13054.4 585.192   3
  -1  -3  -3 11050.8 701.661   6
  -1  -3  -2 30746.1 1032.15   6
  -1  -3  -2 33043.1 898.038   9
  -1  -3  -2 31951.3 789.663   3
  -1  -3  -1 199594. 2001.78   7
  -1  -3  -1 199481. 2203.46   6
  -1  -3  -1 194884. 2235.17   9
  -1  -3  -1 194699. 1769.96   3
  -1  -3   0 88392.2 1235.66   7
  -1  -3   0 85559.6 1529.33   9
  -1  -3   0 88609.5 776.069   5
  -1  -3   1 152613. 1537.59   7
  -1  -3   1 152459. 953.236   5
  -1  -3   2 145571. 1523.68   7
  -1  -3   2 146854. 1168.50   5
  -1  -3   3 131503. 1572.21   7
  -1  -3   3 132539. 1895.55   9
  -1  -3   3 130144. 1534.73   5
  -1  -3   4 28240.8 828.720   9
  -1  -3   4 25462.0 865.059   5
  -1  -3   4 27035.2 805.823   7
  -1  -3   5 78560.8 1511.85   7
  -1  -3   6 890.188 239.263   4
  -1  -3   6 560.969 164.700   7
  -1  -3   7 101911. 2277.19   4
  -1  -3   7 95468.9 2033.34   7
  -1  -3   8 11062.5 743.681   7
  -1  -3   8 13173.2 835.769   4
  -1  -3   9 47419.7 1600.22   7
  -1  -3   9 51607.3 1714.08   4
  -1  -3  10 21740.2 1077.51   7
  -1  -3  10 23384.4 1185.92   4
  -1  -3  11 21718.8 1099.92  10
  -1  -3  11 21861.0 1080.72   7
  -1  -3  12 4062.63 480.672  10
  -1  -3  12 3605.05 429.606  17
  -1  -3  13 2242.64 344.475  10
  -1  -3  14 1325.77 248.089  10
  -1  -3  15 684.635 156.133  10
  -1  -2 -13 3319.62 305.623  15
  -1  -2 -12 9558.58 615.612  15
  -1  -2  -7 424.546 158.379   6
  -1  -2  -6 2338.30 349.220   6
  -1  -2  -5 2790.74 373.391   6
  -1  -2  -4 151166. 2472.85   6
  -1  -2  -3 62776.2 1449.97   6
  -1  -2  -2 7395.98 444.746   6
  -1  -2  -2 6810.26 346.779   3
  -1  -2  -1 498688. 2973.43   6
  -1  -2  -1 495121. 2856.80   7
  -1  -2  -1 494244. 3124.51   9
  -1  -2  -1 496238. 2548.72   3
  -1  -2   0 523085. 2023.33   5
  -1  -2   1 13189.4 303.658   5
  -1  -2   2 32804.3 559.752   5
  -1  -2   2 35153.1 667.905   7
  -1  -2   2 34610.3 812.812   9
  -1  -2   3 17123.5 523.833   7
  -1  -2   3 16984.8 546.208   9
  -1  -2   3 15615.0 497.159   5
  -1  -2   4 242210. 2506.37   5
  -1  -2   4 239522. 2172.66   7
  -1  -2   5 107313. 1716.20   7
  -1  -2   5 98775.4 1929.77   5
  -1  -2   6 16765.2 892.597   4
  -1  -2   6 18180.2 793.897   7
  -1  -2   7 36121.9 1392.43   4
  -1  -2   7 33606.0 1171.32   7
  -1  -2   8 40876.4 1487.01   4
  -1  -2   8 39087.1 1351.36   7
  -1  -2   9 4887.33 501.583   7
  -1  -2   9 4714.02 526.484   4
  -1  -2  10 232.467 133.712   4
  -1  -2  10 389.717 159.476  10
  -1  -2  10 5.31310 95.2239   7
  -1  -2  11 829.005 239.386  10
  -1  -2  12 12306.6 815.560  10
  -1  -2  13 4561.12 484.379  10
  -1  -2  14 26671.8 1030.09  10
  -1  -2  15 2086.98 246.360  10
  -1  -1 -14 6141.00 345.231  15
  -1  -1  -7 38009.1 1272.14   6
  -1  -1  -6 230444. 3030.40   6
  -1  -1  -5 65115.9 1529.39   6
  -1  -1  -4 87441.2 1628.02   6
  -1  -1  -3 13913.6 629.004   2
  -1  -1  -3 12808.1 564.356   6
  -1  -1  -2 140760. 1444.03   3
  -1  -1  -1 13542.6 389.037   3
  -1  -1   0 95823.5 894.807   5
  -1  -1   1 455354. 1882.19   5
  -1  -1   2 103875. 1021.38   5
  -1  -1   3 155488. 796.082   2
  -1  -1   3 162835. 1582.27   5
  -1  -1   4 146990. 1645.93   7
  -1  -1   4 149362. 1921.25   5
  -1  -1   5 11784.4 667.561   5
  -1  -1   5 14030.8 599.770   7
  -1  -1   6 287.032 128.932   7
  -1  -1   7 5418.74 549.147   4
  -1  -1   7 6398.33 500.687   7
  -1  -1   8 1847.84 332.231   4
  -1  -1   8 1182.82 245.657   7
  -1  -1   9 42679.9 1564.03   4
  -1  -1  10 50030.0 1640.12  10
  -1  -1  11 47246.5 1624.25  10
  -1  -1  12 147.650 138.197  10
  -1  -1  13 8590.14 643.117  10
  -1  -1  14-57.2585 105.416  10
  -1  -1  15 201.427 93.5688  10
  -1   0 -14 55.7013 81.5824  15
  -1   0  -5 21288.5 765.110   6
  -1   0  -2 236207. 1706.88   3
  -1   0  -1 83786.2 855.074   3
  -1   0   0 142577. 1108.46   5
  -1   0   1 9382.52 286.926   5
  -1   0   2 82.4336 51.6287   5
  -1   0   3 484.373 110.337   5
  -1   0   4 33414.7 452.267   2
  -1   0   4 32232.0 740.978   7
  -1   0   4 32102.6 919.089   5
  -1   0   5 26186.5 802.441   7
  -1   0   5 26304.6 1014.91   5
  -1   0   6 157489. 2212.05   7
  -1   0   7 72020.2 1984.53   4
  -1   0   8 54019.0 1739.87   4
  -1   0   9 17181.7 998.294   4
  -1   0  10 7402.26 640.866  10
  -1   0  11 2259.46 370.291  10
  -1   0  12 12704.8 802.795  10
  -1   0  13 11503.1 701.716  10
  -1   0  14 9673.31 562.368  10
  -1   1  -2 395620. 1942.72   3
  -1   1  -1 32605.3 480.384   3
  -1   1   0 324949. 1711.97   5
  -1   1   1 216369. 1427.29   5
  -1   1   2 223290. 1696.15   5
  -1   1   3 117859. 1496.81   5
  -1   1   4 102262. 1742.51   5
  -1   1   4 116695. 1227.00   2
  -1   1   5 8109.48 595.275   5
  -1   1   6 6247.67 576.200   4
  -1   1   7 9745.46 743.815   4
  -1   1   8 28637.4 1275.53   4
  -1   1   9 100015. 2415.78   4
  -1   1  10 508.490 182.370  10
  -1   1  11 37258.7 1374.25  10
  -1   1  12 8543.52 638.401  10
  -1   1  13 5884.65 478.793  10
  -1   1  14-42.9447 80.4752  10
  -1   2  -2 999999. 2587.90   3
  -1   2  -1 162812. 1291.92   5
  -1   2   0 4284.57 205.810   5
  -1   2   1 78534.6 928.472   5
  -1   2   2 6131.39 307.594   5
  -1   2   3 1718.96 211.505   5
  -1   2   4 82801.9 1708.93   5
  -1   2   6 109498. 2478.28   4
  -1   2   7 73423.2 2048.41   4
  -1   2   8 8991.22 726.246   4
  -1   2   9 1697.05 296.783  10
  -1   2  10 7176.45 615.675  10
  -1   2  11 61.2063 118.559  10
  -1   2  12 6286.19 508.660  10
  -1   2  13 6815.63 445.014  10
  -1   3  -3 15258.7 336.968   3
  -1   3  -1 56655.2 773.932   5
  -1   3   0 18457.5 436.101   5
  -1   3   1 181791. 1553.64   5
  -1   3   2 66824.3 1147.89   5
  -1   3   3 49161.9 1236.95   5
  -1   3   4 70552.1 1747.10   5
  -1   3   5 12977.2 836.393   4
  -1   3   6 7578.86 666.529   4
  -1   3   7 14829.1 918.240   4
  -1   3   8 273.724 148.988   4
  -1   3  10 18688.7 932.608  10
  -1   3  11 19790.3 890.013  10
  -1   4  -2 31022.2 604.662   5
  -1   4  -1 73163.1 871.404   5
  -1   4   0 26958.0 572.321   5
  -1   4   1 176707. 1733.89   5
  -1   4   2 12964.8 612.435   5
  -1   4   3 43099.1 1326.91   5
   0 -13   5 4008.36 344.060  23
   0 -13   6 594.861 166.574  23
   0 -13   7 2660.27 293.350  23
   0 -13   8 2501.40 270.563  23
   0 -12  -1 4913.43 416.295  20
   0 -12   0 7318.55 560.783  20
   0 -12   1 9487.46 684.742  20
   0 -12   1 9175.31 582.675  13
   0 -12   2 2200.29 360.399  20
   0 -12   3 78.8106 130.405  20
   0 -12   4 1296.17 275.132  23
   0 -12   4 1651.24 308.158  20
   0 -12   5 3348.35 437.913  23
   0 -12   6 14792.0 889.293  23
   0 -12   7 3683.12 441.293  23
   0 -12   8 2596.41 354.827  23
   0 -12   9 2583.97 325.112  23
   0 -12  10 1097.81 200.263  23
   0 -11  -3 9362.66 543.952  20
   0 -11  -2 8527.93 615.212  20
   0 -11  -1 1016.23 262.359  20
   0 -11   0 24238.6 1070.85  13
   0 -11   0 24191.6 1212.29  20
   0 -11   1 623.817 197.928  13
   0 -11   1 820.161 259.277  20
   0 -11   2 290.199 151.522  13
   0 -11   2 232.387 206.040  20
   0 -11   3 47042.3 1610.17  13
   0 -11   3 48173.3 1746.77  20
   0 -11   3 48141.7 1745.72  23
   0 -11   4 5271.54 572.934  20
   0 -11   4 5220.51 550.234  13
   0 -11   4 6236.08 671.469  23
   0 -11   5 16336.9 1086.15  23
   0 -11   5 18429.8 985.281  20
   0 -11   6 2024.16 396.451  23
   0 -11   7-75.5267 172.424  23
   0 -11   8 2723.58 417.941  23
   0 -11   9 122.385 132.304  23
   0 -11  10 501.831 184.594  23
   0 -11  11 3729.85 346.003  23
   0 -10  -5 2124.40 263.503  14
   0 -10  -4 1419.05 250.325  14
   0 -10  -4 1702.70 252.424  20
   0 -10  -3 5914.89 545.928  20
   0 -10  -2 11990.6 845.194  20
   0 -10  -1 22597.6 1232.61  20
   0 -10  -1 20834.3 1052.59  13
   0 -10   0 15501.9 927.190  13
   0 -10   0 17099.0 1110.36  20
   0 -10   1 17250.8 988.414  13
   0 -10   1 18451.6 1156.93  20
   0 -10   2 7789.23 750.077  20
   0 -10   2 7070.68 641.644  13
   0 -10   3 374.880 172.562  13
   0 -10   3 479.876 238.850  23
   0 -10   3 109.189 117.988  20
   0 -10   4 1475.34 320.570  20
   0 -10   4 921.902 252.553  13
   0 -10   4 991.691 302.239  23
   0 -10   5 7148.55 763.936  23
   0 -10   5 7725.77 653.876  20
   0 -10   5 7497.89 665.251  13
   0 -10   6 7878.44 791.791  23
   0 -10   7 11563.6 929.777  23
   0 -10   8 21196.9 1208.41  23
   0 -10   9 2485.40 403.249  23
   0 -10  10 12456.6 795.857  23
   0 -10  11 352.438 136.201  23
   0 -10  11 82.7769 99.4774  17
   0 -10  12 1155.22 215.934  17
   0 -10  13 1520.75 213.571  17
   0  -9  -7 5761.08 415.657  14
   0  -9  -6 11705.9 675.876  14
   0  -9  -5 19000.7 949.860  14
   0  -9  -4 14439.9 873.761  14
   0  -9  -4 15731.8 873.487  20
   0  -9  -3 21168.6 1111.62  20
   0  -9  -3 19447.9 1035.32  14
   0  -9  -2 578.199 192.704  20
   0  -9  -1 2946.13 460.162  20
   0  -9  -1 2725.77 395.192  13
   0  -9   0 14817.8 892.860  13
   0  -9   0 16193.6 1079.50  20
   0  -9   0 16413.8 1081.31   9
   0  -9   1 33406.6 1325.52  13
   0  -9   1 34735.5 1559.27  20
   0  -9   1 37362.2 1719.11   9
   0  -9   2 27478.7 1416.07  23
   0  -9   2 26858.4 1183.14  13
   0  -9   2 26809.5 1323.24  20
   0  -9   2 29257.8 1575.53   9
   0  -9   3 52761.0 1660.22  13
   0  -9   3 54741.6 2082.42  23
   0  -9   3 54987.1 1823.60  20
   0  -9   4 24855.2 1142.08  13
   0  -9   4 23433.9 1133.63  20
   0  -9   4 25760.5 1451.46  23
   0  -9   4 24467.6 1473.93   9
   0  -9   5 19162.2 1247.92  23
   0  -9   5 17737.5 994.480  13
   0  -9   5 21690.7 1355.76   9
   0  -9   6 800.155 274.248  23
   0  -9   6 732.410 277.303   9
   0  -9   7 6832.36 726.416  23
   0  -9   7 7585.03 734.287   9
   0  -9   8 5680.72 639.561  23
   0  -9   9 488.448 221.610  23
   0  -9   9 412.079 170.337  17
   0  -9  10 28830.2 1244.59  23
   0  -9  10 28193.2 1274.07  17
   0  -9  11 7048.65 623.499  17
   0  -9  12 1618.43 296.936  17
   0  -9  13 1809.03 274.368  17
   0  -9  14 1977.55 240.706  17
   0  -8  -9 7334.86 396.715  14
   0  -8  -8 21324.8 842.248  14
   0  -8  -7 19268.9 914.260  14
   0  -8  -6 6012.56 563.977  14
   0  -8  -5 308.947 163.192  14
   0  -8  -4 993.008 259.032  14
   0  -8  -4 1567.18 304.065  20
   0  -8  -3 17555.9 1046.34  20
   0  -8  -3 16920.9 1015.92  14
   0  -8  -2 13882.7 947.615  20
   0  -8  -1 34522.4 1508.35  20
   0  -8  -1 33542.7 1421.28   9
   0  -8   0 102544. 2623.93   9
   0  -8   1 17701.6 1147.61   9
   0  -8   2 19219.1 1239.99   9
   0  -8   3 638.183 273.579   9
   0  -8   4 904.723 296.864   9
   0  -8   5 1828.01 402.865   9
   0  -8   6 34135.4 1295.34   7
   0  -8   6 36642.4 1639.92   9
   0  -8   7 28651.6 1243.35   7
   0  -8   7 26187.0 1348.28  23
   0  -8   7 30502.0 1412.12   9
   0  -8   8 31274.5 1426.06  23
   0  -8   8 29108.1 1305.93   7
   0  -8   8 29105.3 1328.51  17
   0  -8   8 29654.9 1350.45  25
   0  -8   9 10494.3 823.640  17
   0  -8   9 10456.5 810.613  25
   0  -8   9 11215.2 823.801  23
   0  -8   9 11834.5 845.159   7
   0  -8  10 1380.91 317.811  25
   0  -8  10 1330.11 310.421  17
   0  -8  11 339.996 184.483  17
   0  -8  12 46.1696 136.498  17
   0  -8  13 1118.43 255.419  17
   0  -8  14 163.924 114.134  17
   0  -7 -10 1380.71 182.213  14
   0  -7  -9 51.2390 100.262  14
   0  -7  -8 1146.73 259.673  14
   0  -7  -7 11045.6 701.867  15
   0  -7  -7 10273.9 742.890  14
   0  -7  -6 17216.7 911.094  15
   0  -7  -6 17884.6 1017.90  14
   0  -7  -5 23286.8 1058.98  15
   0  -7  -5 21929.3 1154.79  14
   0  -7  -4 53800.8 1537.67  15
   0  -7  -4 52309.4 1777.82  14
   0  -7  -3 47197.0 1766.21   6
   0  -7  -2 13815.4 922.502   6
   0  -7  -1 292.252 147.045   6
   0  -7  -1 243.795 145.757   9
   0  -7   0-66.3881 126.652   9
   0  -7   1 50211.3 1841.96   9
   0  -7   2 43160.6 1759.73   9
   0  -7   3 87711.8 2540.03   9
   0  -7   4 4717.70 411.932   7
   0  -7   4 4397.10 584.145   9
   0  -7   5 99262.1 2013.88   7
   0  -7   5 100379. 2661.21   9
   0  -7   6 2090.44 322.223   7
   0  -7   6 1164.54 299.168   9
   0  -7   7 12262.7 808.739   7
   0  -7   8 3758.34 476.552   7
   0  -7   9 804.116 235.976  25
   0  -7   9 1077.49 283.428   7
   0  -7  10 26236.8 1260.69  25
   0  -7  10 24816.7 1167.29  12
   0  -7  10 25452.3 1262.35   7
   0  -7  10 25579.8 1285.84  17
   0  -7  11 23479.6 1215.50  17
   0  -7  12 7062.14 646.797  17
   0  -7  13 6109.49 567.112  17
   0  -7  14 5194.70 458.191  17
   0  -7  15 379.516 115.291  17
   0  -6 -10 26215.7 935.512  14
   0  -6  -9 38995.1 1238.68  15
   0  -6  -9 39539.1 1319.53  14
   0  -6  -8 14758.1 836.412  15
   0  -6  -8 14914.3 882.975  14
   0  -6  -7 5131.23 517.424  15
   0  -6  -7 5699.00 574.832  14
   0  -6  -6 17559.6 916.949  15
   0  -6  -6 16799.3 990.844  14
   0  -6  -5 219.092 120.106  14
   0  -6  -5 185.077 124.540   6
   0  -6  -5 326.784 139.385  15
   0  -6  -4 402.705 190.000   6
   0  -6  -3 61.4805 124.446   6
   0  -6  -2 100318. 2404.67   6
   0  -6  -2 97060.9 1990.92   9
   0  -6  -1 52090.4 1611.31   6
   0  -6  -1 53696.0 1594.95   9
   0  -6   0 113413. 2126.41   6
   0  -6   0 120928. 2493.74   9
   0  -6   1 15646.1 945.416   9
   0  -6   2 48442.1 1080.64   7
   0  -6   2 48832.1 1730.00   9
   0  -6   3 48826.5 1146.16   7
   0  -6   3 50705.6 1791.80   9
   0  -6   4 1371.49 214.463   7
   0  -6   4 1293.33 310.615   9
   0  -6   5 103838. 1974.12   7
   0  -6   5 112204. 2551.00   9
   0  -6   6 21149.3 965.404   7
   0  -6   6 24578.3 1145.72   9
   0  -6   7 39452.3 1393.52   7
   0  -6   8 52219.2 1664.32   7
   0  -6   9 6151.49 591.954   7
   0  -6  10 7435.15 647.417  12
   0  -6  10 8211.20 701.789  25
   0  -6  10 7610.25 674.586   7
   0  -6  11 9401.80 770.200  17
   0  -6  11 9060.14 708.033  12
   0  -6  12 130.515 157.606  17
   0  -6  13 9853.96 715.876  17
   0  -6  14 5883.20 489.592  17
   0  -6  15 7289.04 440.143  17
   0  -5 -11 3359.66 320.394  15
   0  -5 -11 2986.68 306.898  14
   0  -5 -10 18905.0 866.461  15
   0  -5 -10 17788.2 866.979  14
   0  -5  -9 4196.12 463.674  15
   0  -5  -9 3822.85 463.125  14
   0  -5  -8 3058.61 411.574  15
   0  -5  -8 3349.85 440.782  14
   0  -5  -7 7056.38 601.982  15
   0  -5  -7 6540.28 620.783  14
   0  -5  -6 30121.1 1381.80   6
   0  -5  -5 104864. 2579.86   6
   0  -5  -4 27844.0 1313.23   6
   0  -5  -3 20040.3 1083.52   6
   0  -5  -2 113018. 2444.27   6
   0  -5  -2 110822. 1907.49   9
   0  -5  -1 10576.4 689.434   6
   0  -5  -1 10343.6 648.477   9
   0  -5   0 49.7440 108.724   6
   0  -5   0 54.9878 84.7867   9
   0  -5   1 80561.0 1420.81   6
   0  -5   1 83259.6 1209.74   7
   0  -5   1 80755.9 1924.49   9
   0  -5   2 14150.5 526.759   7
   0  -5   2 14924.3 862.377   9
   0  -5   3 155897. 1896.03   7
   0  -5   3 155403. 2753.00   9
   0  -5   4 61580.3 1314.87   7
   0  -5   4 65327.2 1763.47   9
   0  -5   5 235582. 3273.47   9
   0  -5   5 205971. 2630.92   7
   0  -5   6 2014.10 298.854   7
   0  -5   6 2368.10 331.030   9
   0  -5   7 59567.4 1663.35   7
   0  -5   8 18387.3 981.973   7
   0  -5   9 43519.7 1573.85   7
   0  -5  10 15449.1 922.623  25
   0  -5  10 15198.8 902.281  12
   0  -5  10 15213.3 956.664   7
   0  -5  11 977.623 247.486  12
   0  -5  11 1054.48 268.455   7
   0  -5  12 16940.6 984.891  17
   0  -5  13 9538.89 695.145  17
   0  -5  14 1299.64 246.023  17
   0  -5  15 2055.27 228.757  17
   0  -4 -12 328.519 125.094  15
   0  -4 -11 8145.61 570.016  15
   0  -4 -11 7249.78 517.593  14
   0  -4 -10 13813.0 815.970  15
   0  -4 -10 13870.4 806.734  14
   0  -4  -9 5865.77 557.248  15
   0  -4  -9 4778.29 512.128  14
   0  -4  -8 40270.8 1475.03  14
   0  -4  -7 44220.2 1596.05   6
   0  -4  -6 30964.9 1349.70   6
   0  -4  -5 15639.5 947.247   6
   0  -4  -4 1134.98 281.473   6
   0  -4  -3 2587.79 383.291   6
   0  -4  -2 313020. 3819.15   6
   0  -4  -2 293949. 2779.42   9
   0  -4  -1 58529.5 1530.82   6
   0  -4  -1 60515.5 953.827   7
   0  -4  -1 62640.1 1353.16   9
   0  -4   0 228601. 2620.31   6
   0  -4   0 230627. 1772.33   7
   0  -4   0 227236. 2700.03   9
   0  -4   1 93309.5 1350.01   6
   0  -4   1 92476.6 1106.43   7
   0  -4   1 91568.3 1831.72   9
   0  -4   2 239530. 1520.92   6
   0  -4   2 241338. 1938.70   7
   0  -4   2 237944. 3034.10   9
   0  -4   3 57145.9 1050.44   7
   0  -4   3 59141.8 1536.07   9
   0  -4   4 385.942 119.437   7
   0  -4   4 229.651 141.087   9
   0  -4   5 16457.1 724.085   7
   0  -4   5 17327.8 758.901   9
   0  -4   6 49015.8 1400.97   7
   0  -4   7 94021.2 2076.76   7
   0  -4   8 18286.8 977.262   7
   0  -4   9 34466.2 1399.37   7
   0  -4  10 21965.0 1133.51   7
   0  -4  11 815.440 216.926  12
   0  -4  11 874.905 222.913  10
   0  -4  11 577.021 217.530   7
   0  -4  12 467.797 171.175  10
   0  -4  12 744.230 222.065  17
   0  -4  13 2139.60 327.390  10
   0  -4  13 2011.09 322.122  17
   0  -4  14 7234.60 522.744  10
   0  -4  14 7631.31 519.338  17
   0  -4  15 1567.14 208.676  10
   0  -3 -13 10276.0 476.689  15
   0  -3 -12 22066.4 885.448  15
   0  -3 -10 10039.3 696.827  14
   0  -3  -9 3262.05 420.111  14
   0  -3  -8 197.456 131.418   6
   0  -3  -7 25996.9 1170.47   6
   0  -3  -6 30144.3 1240.52   6
   0  -3  -5 59243.5 1702.21   6
   0  -3  -4 198652. 3064.97   6
   0  -3  -3 213005. 3110.77   6
   0  -3  -2 31465.0 784.534   9
   0  -3  -2 34931.3 1196.05   6
   0  -3  -1 6454.90 379.455   9
   0  -3  -1 6724.36 484.746   6
   0  -3   0 6750.22 184.077   3
   0  -3   0 6972.56 419.686   9
   0  -3   0 7053.40 422.309   6
   0  -3   1 110593. 1236.12   6
   0  -3   2 10681.3 555.449   9
   0  -3   3 482602. 2467.07   4
   0  -3   3 485253. 2912.70   7
   0  -3   3 482728. 3721.12   9
   0  -3   4 36998.0 956.177   7
   0  -3   4 38317.1 1008.53   9
   0  -3   4 35853.7 904.186   4
   0  -3   5 188832. 2462.51   7
   0  -3   5 191149. 2068.89   9
   0  -3   6 2891.10 355.544   7
   0  -3   6 2904.09 352.572   4
   0  -3   7 4713.78 475.536   4
   0  -3   7 4546.43 468.208   7
   0  -3   8 353.814 161.997   4
   0  -3   8 235.372 159.346   7
   0  -3   9 1044.26 261.298   4
   0  -3   9 616.120 206.614   7
   0  -3  10 12949.7 879.431   7
   0  -3  11 20581.8 1031.79  10
   0  -3  11 18457.0 1038.82   7
   0  -3  11 21442.0 1044.34  17
   0  -3  12 45232.6 1472.08  17
   0  -3  12 41994.5 1458.56  10
   0  -3  13 13821.7 802.530  10
   0  -3  14 1059.73 231.246  10
   0  -3  15 2426.61 271.312  10
   0  -2 -13 5235.28 409.456  15
   0  -2  -8 56222.8 1631.66   6
   0  -2  -7 72281.8 1831.29   6
   0  -2  -6 36215.8 1269.42   6
   0  -2  -5 65160.5 1659.97   6
   0  -2  -4 125446. 2252.62   6
   0  -2  -3 18963.2 852.956   6
   0  -2  -2 232866. 2729.70   6
   0  -2  -1 1802.83 235.445   6
   0  -2   0 37744.2 796.958   6
   0  -2   2 953444. 2947.30   4
   0  -2   3 25742.2 699.092   4
   0  -2   4 42130.2 1089.11   4
   0  -2   4 47699.2 1096.89   7
   0  -2   5 74101.9 1607.95   4
   0  -2   5 70358.6 1459.01   8
   0  -2   6 54502.6 1515.74   4
   0  -2   7 60474.1 1656.54   7
   0  -2   7 59270.0 1689.70   4
   0  -2   8 57899.7 1775.78   4
   0  -2   8 59216.2 1733.37   7
   0  -2   9 47416.7 1645.57   4
   0  -2   9 44240.5 1563.27   7
   0  -2  10 35538.1 1442.05   7
   0  -2  11 4600.94 503.890  10
   0  -2  11 4746.52 516.230   7
   0  -2  12 5950.45 561.220  10
   0  -2  13 2939.76 378.229  10
   0  -2  14 1066.85 220.844  10
   0  -2  15 8383.72 480.442  10
   0  -1 -14 11181.8 514.964  15
   0  -1  -8 434.667 148.590   6
   0  -1  -7 16553.2 819.186   6
   0  -1  -6 4136.80 403.676   6
   0  -1  -5 234445. 2883.36   6
   0  -1  -4 118460. 1962.10   6
   0  -1  -3 171564. 2193.74   6
   0  -1  -2 165555. 1956.96   6
   0  -1  -1 18218.1 381.240   1
   0  -1  -1 18265.8 546.153   6
   0  -1   2 36947.8 765.696   4
   0  -1   3 280133. 2615.62   4
   0  -1   4 94898.8 1722.00   4
   0  -1   4 92990.0 1499.72   8
   0  -1   5 203785. 2767.13   4
   0  -1   5 199387. 2376.57   8
   0  -1   6 105498. 2167.29   4
   0  -1   6 107444. 1922.93   8
   0  -1   7 35876.5 1323.92   4
   0  -1   7 35792.4 1197.75   8
   0  -1   8 17197.2 964.866   4
   0  -1   9 438.361 181.195   4
   0  -1   9 426.207 170.749   7
   0  -1  10 45252.6 1509.30  10
   0  -1  10 46178.7 1598.23   7
   0  -1  11 32958.0 1311.67  10
   0  -1  11 27206.4 1196.92   7
   0  -1  12 1791.59 313.081  10
   0  -1  13 15131.4 834.177  10
   0  -1  14 1931.48 279.412  10
   0  -1  15 1074.96 173.392  10
   0   0  -7 105413. 1879.32   6
   0   0  -6 1635.03 239.049   6
   0   0  -5 60195.2 1305.80   6
   0   0  -4 813.318 167.119   6
   0   0  -3 3629.48 219.987   2
   0   0  -3 3758.12 290.558   6
   0   0  -2 1187.56 110.794   2
   0   0  -2 1189.23 140.601   6
   0   0   2 1333.79 187.327   4
   0   0   3 4084.42 364.190   4
   0   0   4 442.736 121.874   8
   0   0   4 535.642 180.277   4
   0   0   5 60457.9 1541.50   4
   0   0   5 62259.4 1315.40   8
   0   0   6 1793.74 301.550   4
   0   0   6 1471.32 228.735   8
   0   0   7 102039. 2246.82   4
   0   0   7 102420. 1973.98   8
   0   0   8 104983. 2101.71   8
   0   0   8 112404. 2473.17   4
   0   0   9 57063.0 1809.88   4
   0   0   9 53232.1 1667.59   7
   0   0  10 2015.28 330.534  10
   0   0  11 74.7132 99.7801  10
   0   0  12 8298.34 638.853  10
   0   0  13 546.374 184.715  10
   0   0  14 6601.30 465.349  10
   0   1  -6 106307. 1578.85   6
   0   1  -5 191945. 1937.10   6
   0   1  -5 188220. 1501.28   2
   0   1  -4 86267.2 1167.22   6
   0   1  -4 89779.5 1114.98   1
   0   1  -3 265870. 1917.60   1
   0   1  -3 260699. 1671.43   6
   0   1  -2 31505.6 633.879   1
   0   1  -1 47242.0 709.969   1
   0   1   0 5817.70 221.870   1
   0   1   1 21933.7 474.833   2
   0   1   2 173339. 2004.71   4
   0   1   2 183177. 1563.84   2
   0   1   3 171960. 2298.72   4
   0   1   4 118404. 2049.71   4
   0   1   4 114227. 1543.35   8
   0   1   5 234213. 3069.63   4
   0   1   5 238688. 2503.30   8
   0   1   6 10345.5 691.919   4
   0   1   6 3740.18 352.365   8
   0   1   7 15716.5 900.947   4
   0   1   7 15775.7 760.478   8
   0   1   8 470.121 178.256   4
   0   1   9 7240.62 652.739   4
   0   1  10 3927.64 466.860  10
   0   1  11 18398.1 952.978  10
   0   1  12 15217.7 823.943  10
   0   1  13 11206.6 641.339  10
   0   1  14 10956.8 529.950  10
   0   2  -5 71231.2 1243.69   1
   0   2  -4 42538.0 983.270   1
   0   2  -3 24008.4 745.001   1
   0   2  -2 748077. 3980.82   1
   0   2  -1 91308.0 1305.95   1
   0   2   0 44571.3 834.555   1
   0   2   1 2273.04 198.620   4
   0   2   2 242336. 2438.73   4
   0   2   2 251863. 2252.71   2
   0   2   3 18005.2 505.771   8
   0   2   3 20248.2 794.507   4
   0   2   3 19873.1 654.943   2
   0   2   4 114190. 1509.54   8
   0   2   4 120549. 2100.66   4
   0   2   5 63005.8 1648.43   4
   0   2   5 61111.4 1254.98   8
   0   2   6 36206.5 1315.91   4
   0   2   7 76351.7 2024.41   4
   0   2   8 60389.7 1850.77   4
   0   2   9 17434.3 906.272  10
   0   2  10 29169.9 1190.29  10
   0   2  11 4871.96 471.079  10
   0   2  12 98.5900 113.206  10
   0   2  13 5088.76 391.492  10
   0   3  -5 183484. 2369.53   1
   0   3  -4 37392.0 1091.51   1
   0   3  -3 416077. 3614.73   1
   0   3  -2 9440.16 536.030   1
   0   3  -1 104536. 1654.40   1
   0   3   0 7755.73 416.853   1
   0   3   1 6566.25 396.303   2
   0   3   1 5970.95 291.040   4
   0   3   2 36526.2 658.527   8
   0   3   2 35719.9 977.058   2
   0   3   2 33900.0 884.954   4
   0   3   3 211291. 2543.37   4
   0   3   4 194367. 2713.05   4
   0   3   5 65826.3 1698.97   4
   0   3   6 34144.6 1305.29   4
   0   3   7 29401.2 1260.59   4
   0   3  10 8578.51 613.086  10
   0   3  11 20847.9 897.544  10
   0   4  -3 52266.0 1451.34   1
   0   4  -2 228418. 2917.99   1
   0   4  -1 93551.9 1746.60   1
   0   4   0 244578. 2591.30   1
   1 -13   6 3619.59 325.795  23
   1 -13   7 1687.04 220.961  23
   1 -12  -1 8102.30 477.380  13
   1 -12   0 8828.93 555.998  13
   1 -12   1 4611.54 437.093  13
   1 -12   2 276.689 153.063  13
   1 -12   3 20872.8 975.220  13
   1 -12   4 5867.02 552.629  23
   1 -12   5 76.0091 141.666  23
   1 -12   6 21.9713 121.652  23
   1 -12   7 7623.79 612.589  23
   1 -12   8 2902.51 362.693  23
   1 -12   9 4182.50 389.387  23
   1 -12  10 2650.63 263.584  23
   1 -11  -3 15183.4 681.372  13
   1 -11  -2 7175.12 540.132  13
   1 -11  -1 16910.2 889.895  13
   1 -11   0 479.788 199.663  13
   1 -11   1 1180.39 271.933  13
   1 -11   1 1311.96 317.232  20
   1 -11   2 2022.58 355.926  13
   1 -11   2 1784.85 366.034  20
   1 -11   3 5285.68 610.975  23
   1 -11   3 5160.30 551.011  13
   1 -11   4 12750.1 954.082  23
   1 -11   4 12358.4 839.400  13
   1 -11   5 14935.1 947.259  13
   1 -11   5 14570.7 1026.20  23
   1 -11   6 8995.36 794.124  23
   1 -11   7 2937.98 436.787  23
   1 -11   8 5322.88 570.159  23
   1 -11   9 327.646 169.552  23
   1 -11  10 2646.01 328.192  23
   1 -11  11-30.5909 64.7090  23
   1 -10  -5 4129.63 348.308  13
   1 -10  -4 3076.77 356.086  13
   1 -10  -3 581.667 205.618  13
   1 -10  -2 52.5757 114.382  13
   1 -10  -2-1.69851 134.368  20
   1 -10  -1 13746.3 886.336  13
   1 -10  -1 18845.8 1114.65  20
   1 -10   0 241.726 146.917  13
   1 -10   0-37.5526 133.225  20
   1 -10   1 48347.3 1894.89  20
   1 -10   1 44301.4 1623.85  13
   1 -10   2 74061.9 2089.14  13
   1 -10   2 73774.9 2320.61  20
   1 -10   2 78068.4 2431.63  23
   1 -10   3 4820.62 641.554  23
   1 -10   3 4851.69 556.391  13
   1 -10   3 4301.57 565.320  20
   1 -10   4 1066.93 338.929  23
   1 -10   4 1184.97 284.520  13
   1 -10   4 987.961 265.312  20
   1 -10   5 67.9457 140.702  13
   1 -10   5 397.157 232.309  23
   1 -10   6 2957.18 502.823  23
   1 -10   6 2861.10 433.453  13
   1 -10   7 2527.24 455.712  23
   1 -10   8 2509.93 425.960  23
   1 -10   9 13433.8 823.700  25
   1 -10   9 14931.1 951.069  23
   1 -10  10 8322.83 620.655  25
   1 -10  10 8753.59 651.563  23
   1 -10  11 2799.35 333.684  17
   1 -10  12-27.5292 69.1672  17
   1  -9  -7 1224.18 194.270  14
   1  -9  -6 109.352 110.022  14
   1  -9  -5 12643.9 754.848  14
   1  -9  -4 21731.5 1042.28  14
   1  -9  -3 23747.1 1154.27  20
   1  -9  -2 30424.5 1420.78  20
   1  -9  -1 26361.0 1391.08  20
   1  -9   0 259.678 179.199  20
   1  -9   0 448.537 216.919   9
   1  -9   1 1850.40 347.903  13
   1  -9   1 2061.84 418.592  20
   1  -9   1 2396.67 458.854   9
   1  -9   2 282.894 173.854  13
   1  -9   2 257.251 205.255  23
   1  -9   2 354.404 189.508  20
   1  -9   2 516.009 252.837   9
   1  -9   3 12044.3 1025.29  23
   1  -9   3 10827.5 837.351  20
   1  -9   3 12609.9 1066.18   9
   1  -9   3 12189.1 825.614  13
   1  -9   4 38684.9 1829.26  23
   1  -9   4 39477.4 1511.92  20
   1  -9   4 43229.0 1560.05  13
   1  -9   4 44678.0 1985.44   9
   1  -9   5 6067.23 724.383  23
   1  -9   5 6654.42 611.498  13
   1  -9   5 5451.73 686.188   9
   1  -9   6 21723.3 1327.00  23
   1  -9   6 24035.2 1183.56  13
   1  -9   6 23804.3 1378.99   9
   1  -9   7 24264.6 1372.05  23
   1  -9   7 25431.4 1374.37   9
   1  -9   8 163.253 207.146  23
   1  -9   8-54.6060 96.8589  25
   1  -9   9 1567.60 332.237  23
   1  -9   9 1443.46 308.330  25
   1  -9  10 391.214 176.305  25
   1  -9  10 152.404 114.923  23
   1  -9  10 379.221 168.671  17
   1  -9  11 219.493 140.582  25
   1  -9  11 140.453 134.590  17
   1  -9  12 10597.2 683.257  17
   1  -9  13 3043.80 331.745  17
   1  -9  14 1767.47 203.422  17
   1  -8  -8 17916.6 742.384  14
   1  -8  -7 16667.8 837.434  14
   1  -8  -6 22193.8 1058.02  14
   1  -8  -5 2122.52 359.714  14
   1  -8  -4 31784.4 1390.80  14
   1  -8  -3 1527.53 310.941  14
   1  -8  -3 2039.36 364.719  20
   1  -8  -2 845.039 269.020  20
   1  -8  -1 21284.6 1229.58  20
   1  -8  -1 22232.4 1230.68   9
   1  -8   0 47577.6 1875.22   9
   1  -8   1 60201.7 2208.62   9
   1  -8   2 16604.5 1162.70   9
   1  -8   3 19256.6 1262.47   9
   1  -8   4 10987.8 960.802   9
   1  -8   5 5506.57 672.281   9
   1  -8   6 1350.92 351.354  23
   1  -8   6 1330.62 273.958  13
   1  -8   6 1736.50 380.749   9
   1  -8   7 24257.1 1333.38  23
   1  -8   7 24410.5 1264.27  25
   1  -8   7 24643.4 1320.93   9
   1  -8   8 8370.43 762.533  23
   1  -8   8 7188.15 712.251  25
   1  -8   9 15721.8 1052.31  25
   1  -8   9 17940.0 1019.49  12
   1  -8   9 18873.8 1083.77  23
   1  -8  10 12966.8 855.263  12
   1  -8  10 12799.0 900.531  25
   1  -8  11 10791.0 784.934  25
   1  -8  11 10908.4 749.211  12
   1  -8  12 606.644 207.137  25
   1  -8  12 712.020 199.137  12
   1  -8  12 470.205 180.978  17
   1  -8  13 879.988 211.738  17
   1  -8  14 638.217 154.747  17
   1  -7  -9 17045.0 633.179  18
   1  -7  -9 17601.0 758.791  14
   1  -7  -8 2065.08 265.118  18
   1  -7  -8 2406.66 344.434  14
   1  -7  -7 140.326 121.191  14
   1  -7  -7-181.618 108.640  18
   1  -7  -6 5399.99 572.062  14
   1  -7  -5 1237.24 294.073  14
   1  -7  -4 25646.4 1285.33  14
   1  -7  -3 47734.4 1856.97   6
   1  -7  -3 44417.4 1636.68  14
   1  -7  -2 25940.1 1338.72   6
   1  -7  -1 46993.2 1699.30   9
   1  -7   0 46994.1 1761.11   9
   1  -7   1 10714.4 876.706   9
   1  -7   2 18977.8 1198.97   9
   1  -7   3 6516.52 725.451   9
   1  -7   4 39799.6 1729.64   9
   1  -7   5 68959.2 2238.08   9
   1  -7   6 34507.6 1519.42   9
   1  -7   7 20029.7 994.339   7
   1  -7   7 19949.8 1113.16   9
   1  -7   8 4933.92 574.078  25
   1  -7   8 5397.34 580.464  23
   1  -7   8 5074.29 527.128   7
   1  -7   9 6111.83 644.813  25
   1  -7   9 5682.45 585.204  12
   1  -7   9 5927.73 575.667   7
   1  -7  10 6284.70 652.495  25
   1  -7  10 6281.55 628.504  12
   1  -7  11 3495.32 454.600  12
   1  -7  11 3019.89 445.608  25
   1  -7  12 5359.24 528.011  12
   1  -7  12 5290.38 546.375  25
   1  -7  13 2993.90 385.260  17
   1  -7  14 8470.49 551.490  17
   1  -6 -10 248.620 127.669  14
   1  -6 -10 62.4405 89.7383  18
   1  -6  -9 805.374 212.114  14
   1  -6  -9 619.389 154.180  18
   1  -6  -8 33967.7 1328.73  14
   1  -6  -7 21222.1 1114.40  14
   1  -6  -6 50838.5 1775.00  14
   1  -6  -5 14528.5 964.048  14
   1  -6  -4 41195.1 1741.97   6
   1  -6  -3 8403.55 791.003   6
   1  -6  -2 13159.6 784.928   9
   1  -6  -2 12822.6 945.726   6
   1  -6  -1 12504.8 817.790   9
   1  -6  -1 12087.9 888.584   6
   1  -6   0 95287.4 2379.64   9
   1  -6   0 91199.2 2247.67   6
   1  -6   1 108344. 2611.27   9
   1  -6   2 64216.4 2051.12   9
   1  -6   3 50424.2 1821.64   9
   1  -6   4 48710.3 1778.86   9
   1  -6   5 1028.57 192.504   7
   1  -6   5 395.852 222.878   9
   1  -6   6-51.4192 91.4256   7
   1  -6   6 72.9847 115.503   9
   1  -6   7 27857.8 1160.98   7
   1  -6   8 13545.9 864.613   7
   1  -6   9 54089.0 1843.82  25
   1  -6   9 54083.6 1766.39  12
   1  -6   9 54555.1 1778.00   7
   1  -6  10 2092.44 364.315  12
   1  -6  10 2637.67 420.536  25
   1  -6  10 2306.91 387.648   7
   1  -6  11 2921.45 414.063  12
   1  -6  11 2767.39 425.738  25
   1  -6  12 2098.66 347.804  25
   1  -6  12 2144.03 355.003  12
   1  -6  13 1713.26 308.985  17
   1  -6  14 123.746 101.881  17
   1  -6  15 570.858 125.149  17
   1  -5 -11 25387.6 820.047  18
   1  -5 -11 26364.7 861.098  14
   1  -5 -10 10247.9 645.855  14
   1  -5  -9 9949.57 716.039  14
   1  -5  -8 7960.70 680.797  14
   1  -5  -7 31198.0 1383.60  14
   1  -5  -6 8709.43 771.186   6
   1  -5  -6 8993.56 744.758  14
   1  -5  -5 10842.3 875.340   6
   1  -5  -4 54422.9 1948.80   6
   1  -5  -3 110801. 2736.74   6
   1  -5  -2 148273. 2420.75   9
   1  -5  -2 159011. 3146.47   6
   1  -5  -1 51686.3 1533.31   9
   1  -5  -1 52241.0 1720.37   6
   1  -5   0 11768.2 769.800   9
   1  -5   0 10244.9 723.455   6
   1  -5   1 16555.8 947.717   9
   1  -5   1 13552.7 756.369   6
   1  -5   2 35236.4 1391.78   9
   1  -5   3 21368.5 1103.25   9
   1  -5   4 43723.4 1089.04   7
   1  -5   4 41991.3 1527.18   9
   1  -5   5 36819.5 1134.60   7
   1  -5   5 36084.9 1378.91   9
   1  -5   6 42662.8 1363.71   7
   1  -5   6 45246.7 1478.40   9
   1  -5   7 65322.4 1813.81   7
   1  -5   8 7608.91 657.001   7
   1  -5   9 3062.53 443.511   7
   1  -5  10 512.515 211.985  25
   1  -5  10 248.661 125.135  12
   1  -5  10 331.206 183.263   7
   1  -5  11 8044.65 686.386  25
   1  -5  11 8829.53 722.504  12
   1  -5  12 11502.3 780.619  25
   1  -5  12 10759.0 772.127  12
   1  -5  13 646.849 196.704  17
   1  -5  14 17392.0 792.344  17
   1  -4 -12 11039.8 522.107  18
   1  -4 -11 5834.46 472.682  14
   1  -4 -10 1640.93 288.555  14
   1  -4 -10 1837.92 276.686  15
   1  -4  -9 34834.6 1220.30  15
   1  -4  -9 35728.8 1386.63  14
   1  -4  -8 39510.3 1517.81  14
   1  -4  -7 2848.27 412.321  14
   1  -4  -7 2810.43 426.499   6
   1  -4  -6 110531. 2663.12   6
   1  -4  -5 17556.7 1064.85   6
   1  -4  -4 60267.2 1920.30   6
   1  -4  -3 47364.6 1648.88   6
   1  -4  -2 14360.7 685.373   9
   1  -4  -2 13058.1 839.667   6
   1  -4  -1 193375. 2739.45   9
   1  -4   0 30208.5 1128.57   9
   1  -4   1 85935.2 1922.54   9
   1  -4   2 33646.2 1214.43   9
   1  -4   3 176976. 1932.34   7
   1  -4   3 172288. 2737.48   9
   1  -4   4 241713. 2664.44   7
   1  -4   4 244019. 3209.03   9
   1  -4   5 45145.8 1291.02   7
   1  -4   5 44974.5 1372.37   9
   1  -4   6 1728.25 295.196   7
   1  -4   6 1569.30 263.576   9
   1  -4   7 27322.9 1181.71   7
   1  -4   8 13460.2 875.153   7
   1  -4   9 20593.2 1128.78   7
   1  -4  10 8615.38 706.633  12
   1  -4  10 9181.41 703.661  25
   1  -4  10 9811.70 703.829  10
   1  -4  10 8866.07 775.885   7
   1  -4  11 53721.3 1716.37  12
   1  -4  11 55058.0 1668.69  10
   1  -4  11 55598.4 1713.43  25
   1  -4  12 18258.4 938.944  10
   1  -4  12 17807.2 987.471  12
   1  -4  13 93.5902 105.761  10
   1  -4  13 34.6199 97.1885  17
   1  -4  14 7530.33 502.031  10
   1  -4  15 535.782 115.709  10
   1  -3 -13 3261.09 266.996  18
   1  -3 -12 7901.09 460.805  15
   1  -3 -11 18525.4 822.344  15
   1  -3 -11 18289.3 856.986  14
   1  -3 -10 19135.9 975.081  14
   1  -3  -9 72232.0 1964.58  14
   1  -3  -8 237.251 166.690  14
   1  -3  -8-114.490 109.948   6
   1  -3  -7 14431.9 919.188   6
   1  -3  -6 7394.66 658.606   6
   1  -3  -5 12462.9 828.420   6
   1  -3  -4 82284.6 2051.47   6
   1  -3  -2 76504.0 1507.38   1
   1  -3  -2 71711.9 1383.64   9
   1  -3  -1 207476. 2440.46   1
   1  -3  -1 206785. 2478.75   9
   1  -3   0 21425.6 783.350   1
   1  -3   0 22133.2 831.921   9
   1  -3   1 61628.6 1316.03   1
   1  -3   2 42106.0 1095.75   1
   1  -3   3 19906.5 752.785   1
   1  -3   3 19807.0 684.418   8
   1  -3   4 150685. 2176.56   9
   1  -3   4 146213. 2090.47   8
   1  -3   5 121557. 1945.87   9
   1  -3   5 117972. 2079.32   8
   1  -3   6 133504. 2344.57   8
   1  -3   7 28337.2 1164.72   8
   1  -3   8 39488.4 1434.06   8
   1  -3   9 408.934 216.216   7
   1  -3  10 8067.72 653.280  12
   1  -3  10 7907.59 635.331  25
   1  -3  10 7610.36 646.274  10
   1  -3  10 7423.08 702.556   7
   1  -3  11 789.717 238.754  12
   1  -3  11 316.133 146.822  10
   1  -3  11 399.603 192.081   7
   1  -3  12 15890.4 905.361  12
   1  -3  12 15779.8 899.048  10
   1  -3  13 20569.9 955.937  10
   1  -3  14 457.254 167.958  10
   1  -3  15 5932.42 375.234  10
   1  -2 -13 6351.73 383.467  15
   1  -2 -10 8294.63 641.369  14
   1  -2  -9 1891.78 320.966  14
   1  -2  -8 9862.62 714.785   6
   1  -2  -7 74324.7 1950.13   6
   1  -2  -6 111882. 2333.77   6
   1  -2  -5 76461.7 1861.21   6
   1  -2   3 5755.21 351.286   1
   1  -2   3 5034.39 344.665   8
   1  -2   4 8173.44 418.462   1
   1  -2   4 8568.94 505.684   8
   1  -2   5 13948.9 706.605   8
   1  -2   6 2506.09 346.322   8
   1  -2   7 28025.6 1157.43   8
   1  -2   8 8153.00 668.210   8
   1  -2   9 79212.8 2146.05   8
   1  -2  10 30752.0 1217.93  12
   1  -2  10 32044.5 1334.93  10
   1  -2  10 30122.6 1396.62   7
   1  -2  11 17607.4 997.660  10
   1  -2  11 17305.1 929.853  12
   1  -2  12 1157.93 267.739  10
   1  -2  13 962.174 231.028  10
   1  -2  14 1413.16 244.940  10
   1  -2  15 241.628 94.1099  10
   1  -1 -14 307.160 94.0988  15
   1  -1  -8 31581.4 1206.43   6
   1  -1  -7 9971.47 667.889   6
   1  -1  -6 6029.67 505.760   6
   1  -1   3 5705.51 359.305   8
   1  -1   4 98700.0 1661.94   8
   1  -1   4 96441.1 1187.42   1
   1  -1   5 28324.2 993.197   8
   1  -1   6 70281.5 1684.34   8
   1  -1   7 62092.7 1709.05   8
   1  -1   8 31174.2 1284.54   8
   1  -1   9 6481.13 612.660   8
   1  -1  10 177.986 137.674   8
   1  -1  10 212.891 121.658  12
   1  -1  10 57.3825 114.322  10
   1  -1  11 8517.61 697.879  10
   1  -1  12 1632.30 303.347  10
   1  -1  13 9039.79 639.126  10
   1  -1  14 10789.0 603.673  10
   1   0  -7 71456.1 1636.69   6
   1   0  -6 142558. 2191.40   6
   1   0   3 115393. 1526.09   8
   1   0   4 45003.7 1114.19   8
   1   0   4 38945.9 569.581   1
   1   0   5 26318.7 960.074   8
   1   0   6 9462.37 622.646   8
   1   0   7 66248.3 1736.53   8
   1   0   8 2807.93 392.039   8
   1   0   9 38658.8 1464.83   8
   1   0  10 23758.3 1156.15  10
   1   0  10 26370.2 1218.00   8
   1   0  11 16274.2 947.335  10
   1   0  12 10811.4 722.504  10
   1   0  13 2237.82 309.051  10
   1   0  14 30.1867 75.2426  10
   1   1   3 15256.6 578.704   8
   1   1   4 112425. 1740.10   8
   1   1   5 75825.6 1601.46   8
   1   1   6 245171. 3198.33   8
   1   1   7 34433.2 1265.23   8
   1   1   8 13555.6 838.121   8
   1   1   9 1375.86 297.059   8
   1   1   9 1510.48 301.644  10
   1   1  10 1453.29 297.210  10
   1   1  11 5126.22 521.768  10
   1   1  12 6165.89 524.500  10
   1   1  13 13530.8 676.008  10
   1   1  14 5825.99 353.011  10
   1   2   2 9025.24 415.561   8
   1   2   3 86905.1 1448.25   8
   1   2   4 211266. 2495.97   8
   1   2   5 4794.85 409.703   8
   1   2   6 2157.10 315.206   8
   1   2   7 634.080 196.645   8
   1   2   8 32099.8 1269.88   8
   1   2   9 41810.6 1450.66  10
   1   2  10 14116.4 841.550  10
   1   2  11 6833.02 556.258  10
   1   2  12 7616.27 535.039  10
   1   2  13 3707.00 309.745  10
   1   3   2 42332.7 973.840   8
   1   3   3 16100.7 665.944   8
   1   3   4 143731. 2138.45   8
   1   3   5 33443.6 1141.58   8
   1   3   6 41309.3 1355.04   8
   1   3   9 661.681 187.000  10
   1   3  10 2310.05 324.996  10
   1   3  11 1588.82 260.390  10
   1   4   1 37276.6 1008.18   1
   1   4   2 121137. 1788.30   8
   1   4   3 91343.0 1682.69   8
   1   4   4 50435.6 1335.86   8
   1   5   1 60901.5 1323.44   8
   1   5   2 242.314 113.242   8
   1   5   3 620.306 146.142   8
   1   6   1 46409.0 1249.63   8
   2 -12   0-31.2043 75.9043  13
   2 -12   1 8093.94 512.107  13
   2 -12   2 214.389 129.239  13
   2 -12   3 21275.6 887.611  13
   2 -12   3 18615.9 784.070  23
   2 -12   4 9230.49 616.150  23
   2 -12   5 2015.56 309.398  23
   2 -12   6-71.6843 118.174  23
   2 -12   7 360.683 143.912  23
   2 -12   8 938.561 185.275  23
   2 -11  -3 2846.67 276.072  13
   2 -11  -2 7931.47 521.446  13
   2 -11  -1 6813.25 535.852  13
   2 -11   0 15515.7 836.890  13
   2 -11   1 5833.04 536.948  13
   2 -11   2 5167.34 516.565  13
   2 -11   2 5295.40 540.160  23
   2 -11   3 318.929 170.673  13
   2 -11   3 324.756 188.825  23
   2 -11   4 1457.72 331.738  23
   2 -11   4 1652.66 303.757  13
   2 -11   5 7008.58 691.078  23
   2 -11   6 9986.27 799.287  23
   2 -11   7 597.110 224.686  23
   2 -11   8 4692.44 486.561  23
   2 -11   9 5312.26 460.409  23
   2 -11  10 13.6694 83.2709  23
   2 -10  -5 17883.7 658.639  13
   2 -10  -4 11744.9 639.266  13
   2 -10  -3 1418.65 269.510  13
   2 -10  -2 5048.20 512.612  13
   2 -10  -1 604.349 224.511  13
   2 -10   0 604.601 216.585  13
   2 -10   1 9088.24 729.124  13
   2 -10   2 983.302 303.531  23
   2 -10   2 1081.59 260.624  13
   2 -10   3 26743.0 1494.55  23
   2 -10   3 26880.1 1220.24  13
   2 -10   4 14287.8 1094.43  23
   2 -10   4 16132.2 933.145  13
   2 -10   5 8360.68 680.773  13
   2 -10   5 8062.63 820.799  23
   2 -10   6 497.998 241.410  23
   2 -10   7 4361.06 576.564  23
   2 -10   8 1968.48 325.624  25
   2 -10   8 1746.71 353.546  23
   2 -10   9 4708.26 476.911  25
   2 -10   9 4568.86 498.054  23
   2 -10  10 1628.73 269.594  25
   2 -10  10 1659.83 263.068  23
   2 -10  11 2759.62 308.412  25
   2  -9  -6 707.949 136.415  24
   2  -9  -5 87.5769 92.5284  24
   2  -9  -4 948.728 204.513  24
   2  -9  -3 378.316 144.271  24
   2  -9  -2 35258.0 1262.75  24
   2  -9  -1 14026.3 809.823  24
   2  -9   0 31016.1 1199.92  24
   2  -9   1 8698.66 634.686  24
   2  -9   1 7334.07 671.894  13
   2  -9   2 3054.44 441.766  13
   2  -9   3 161.084 148.290  13
   2  -9   4 580.379 200.343  13
   2  -9   5 4700.19 501.280  13
   2  -9   6 10016.1 942.513  23
   2  -9   6 12429.9 806.928  13
   2  -9   7 15989.4 1053.52  25
   2  -9   7 16561.6 1146.10  23
   2  -9   8 17833.4 1118.08  23
   2  -9   8 15120.4 1006.07  25
   2  -9   9 5886.49 617.396  25
   2  -9   9 5749.50 553.095  12
   2  -9   9 5984.76 609.994  23
   2  -9  10 175.403 151.448  12
   2  -9  10 22.1620 119.369  25
   2  -9  11 879.155 220.192  25
   2  -9  11 802.155 195.338  12
   2  -9  12 1992.50 268.986  25
   2  -9  12 1759.36 233.665  12
   2  -9  12 1937.64 262.441  17
   2  -9  13 1167.31 169.936  17
   2  -8  -7 8432.55 504.840  24
   2  -8  -6 14764.1 769.579  24
   2  -8  -6 14742.5 816.414  14
   2  -8  -5 16273.1 877.780  24
   2  -8  -5 15927.2 916.772  14
   2  -8  -4 12011.3 783.332  24
   2  -8  -4 12470.9 852.939  14
   2  -8  -3 14317.5 867.712  24
   2  -8  -2 14707.9 871.667  24
   2  -8  -1 650.779 196.600  24
   2  -8   0 7520.41 599.529  24
   2  -8   0 8121.77 811.826   9
   2  -8   1 7559.30 588.473  24
   2  -8   1 8203.68 861.905   9
   2  -8   2 82593.8 1908.04  24
   2  -8   2 84184.3 2766.75   9
   2  -8   3 56369.1 1581.11  24
   2  -8   3 58005.3 2307.27   9
   2  -8   3 60649.7 1750.54  13
   2  -8   4 1101.78 258.458  13
   2  -8   4 386.771 164.438  24
   2  -8   4 959.451 332.530   9
   2  -8   5 25327.9 1101.15  13
   2  -8   5 23612.9 1423.57   9
   2  -8   5 23172.2 1039.90  24
   2  -8   6 3397.71 420.651  13
   2  -8   6 2874.54 504.347   9
   2  -8   7 157.022 108.023  16
   2  -8   7-378.248 213.761   9
   2  -8   8 48.2650 138.654  23
   2  -8   8-239.703 148.120  16
   2  -8   9 2065.35 374.538  23
   2  -8   9 1638.08 361.372  25
   2  -8   9 2070.24 363.746  16
   2  -8  10 13416.9 928.235  25
   2  -8  10 12474.0 861.926  12
   2  -8  11 12277.7 844.868  25
   2  -8  11 12005.3 786.225  12
   2  -8  12 138.260 116.819  12
   2  -8  12 198.716 132.259  25
   2  -8  13 1263.42 215.067  17
   2  -7  -9 14285.6 571.669  24
   2  -7  -9 14504.2 530.259  18
   2  -7  -8 16681.5 759.529  24
   2  -7  -8 16924.1 720.803  18
   2  -7  -7 12894.7 717.470  18
   2  -7  -7 12648.9 796.425  14
   2  -7  -6 5273.29 496.494  18
   2  -7  -6 5895.39 595.609  14
   2  -7  -5 7888.79 628.503  18
   2  -7  -5 8816.06 767.336  14
   2  -7  -4 14696.9 847.478  18
   2  -7  -4 13712.1 960.831  14
   2  -7  -3 5842.11 517.241  18
   2  -7  -3 5393.26 591.549  14
   2  -7  -2 35513.1 1326.49  24
   2  -7  -1 20055.0 951.678  24
   2  -7  -1 21157.8 1243.90   9
   2  -7   0 84548.7 2609.26   9
   2  -7   1 4542.92 649.018   9
   2  -7   2 38307.3 1819.50   9
   2  -7   3 1540.42 397.506   9
   2  -7   4 11264.7 980.107   9
   2  -7   5 7956.58 833.721   9
   2  -7   6 7974.27 802.442   9
   2  -7   6 7350.69 613.265  16
   2  -7   7 34391.7 1577.46   9
   2  -7   7 33805.4 1377.83  16
   2  -7   8 5001.09 564.877  16
   2  -7   9 9459.69 830.620  25
   2  -7   9 9538.51 782.034  16
   2  -7  10 1902.82 378.290  25
   2  -7  10 1773.62 352.636  12
   2  -7  11 49.1445 112.754  12
   2  -7  11 6.69159 126.415  25
   2  -7  12 120.198 118.486  25
   2  -7  12 79.2612 132.475  12
   2  -7  13 895.388 199.286  12
   2  -7  14 1437.06 193.684  17
   2  -6 -10 11046.3 495.811  18
   2  -6  -9 148.645 113.348  18
   2  -6  -8-34.5754 120.090  14
   2  -6  -8 129.368 134.766  18
   2  -6  -7 17539.4 926.794  18
   2  -6  -7 17923.8 1041.89  14
   2  -6  -6 18268.1 978.205  18
   2  -6  -6 18756.4 1116.18  14
   2  -6  -5 20215.4 1023.18  18
   2  -6  -5 22114.5 1247.50  14
   2  -6  -4 52971.7 1587.45  18
   2  -6  -4 45353.4 1768.25  14
   2  -6  -3 31332.4 1644.88   6
   2  -6  -2 12070.1 1017.67   6
   2  -6  -1 7422.79 722.535   9
   2  -6  -1 6939.67 742.976   6
   2  -6   0 22250.5 1293.85   9
   2  -6   1 55648.9 2086.36   9
   2  -6   2 6862.86 750.741   9
   2  -6   3 28981.5 1511.56   9
   2  -6   4 12141.4 968.513   9
   2  -6   5 54143.5 2011.71   9
   2  -6   6 29181.3 1455.51   9
   2  -6   7 128.390 145.486   9
   2  -6   8 586.290 193.683  16
   2  -6   9 8774.53 755.579  16
   2  -6  10 4172.26 548.837  12
   2  -6  10 4002.98 532.140  25
   2  -6  11 7557.97 680.508  12
   2  -6  11 8029.20 704.916  25
   2  -6  12 7552.23 625.466  25
   2  -6  12 6867.16 607.866  12
   2  -6  13 6716.52 532.681  12
   2  -6  14 2577.07 267.565  17
   2  -5 -11 4037.85 301.874  18
   2  -5 -10 20899.5 829.189  18
   2  -5  -9 27012.4 1072.37  18
   2  -5  -9 25093.9 1107.50  14
   2  -5  -8 20876.1 1018.68  18
   2  -5  -8 20300.7 1099.62  14
   2  -5  -7 7895.25 653.696  18
   2  -5  -7 8460.12 751.280  14
   2  -5  -6 323.767 193.901  14
   2  -5  -6 2.60702 91.3580  18
   2  -5  -5 24260.9 1085.58  18
   2  -5  -5 23863.4 1280.89  14
   2  -5  -4 7803.40 806.305   6
   2  -5  -3 1672.84 374.586   6
   2  -5  -2 83150.6 2200.43   9
   2  -5  -1 48971.5 1761.88   9
   2  -5   0 96970.8 2520.64   9
   2  -5   1 21675.7 1215.93   9
   2  -5   2 20861.8 1189.34   9
   2  -5   3 1305.96 337.755   9
   2  -5   4 24021.0 1275.51   9
   2  -5   5 64391.7 2052.52   9
   2  -5   6 35859.0 1515.40   9
   2  -5   7 19305.1 1026.95   7
   2  -5   8 20621.2 1111.43   7
   2  -5   8 20162.4 1076.09  16
   2  -5   9 10440.6 813.313   7
   2  -5   9 10281.0 804.923  16
   2  -5  10 5239.38 593.063  25
   2  -5  10 5269.54 591.248  12
   2  -5  11 2433.43 395.532  25
   2  -5  11 2715.41 416.967  12
   2  -5  12 501.049 173.142  25
   2  -5  12 580.022 208.006  12
   2  -5  13 1246.24 242.680  12
   2  -5  14 11831.0 550.559  17
   2  -4 -12 14418.7 521.044  18
   2  -4 -11 7841.55 494.700  18
   2  -4 -10 9268.88 627.988  18
   2  -4  -9 1164.79 280.873  14
   2  -4  -9 1192.36 266.208  18
   2  -4  -8 3902.64 503.717  14
   2  -4  -7 14514.3 983.591  14
   2  -4  -6 8759.15 824.728   6
   2  -4  -6 7956.18 739.281  14
   2  -4  -5 63586.6 2198.64   6
   2  -4  -2 12228.6 793.548   9
   2  -4  -1 24487.0 1138.31   9
   2  -4   4 266987. 3113.12   8
   2  -4   5 13856.3 864.821   9
   2  -4   5 16469.2 850.465   8
   2  -4   6 9131.15 703.883   9
   2  -4   6 9420.27 693.752   8
   2  -4   7 149.471 136.828   8
   2  -4   8 2024.93 367.314   7
   2  -4   8 2133.52 369.864   8
   2  -4   9 3533.21 507.813   7
   2  -4   9 4191.06 522.458  16
   2  -4  10 10221.7 792.155  25
   2  -4  10 10464.5 831.081  12
   2  -4  10 11210.8 819.994  10
   2  -4  10 8727.13 770.033   7
   2  -4  11 9752.04 727.854  25
   2  -4  11 8605.04 733.632  12
   2  -4  11 9797.05 732.295  10
   2  -4  12 3684.30 444.667  12
   2  -4  12 3798.90 421.841  10
   2  -4  13 11412.5 641.494  10
   2  -4  14 163.396 89.9676  10
   2  -3 -12 1480.75 211.061  18
   2  -3 -11 2631.84 321.585  18
   2  -3 -10 19931.7 992.403  14
   2  -3  -9 5361.56 563.870  14
   2  -3  -8 1726.15 343.579  14
   2  -3  -7 172945. 3301.32  14
   2  -3  -7 163267. 3386.04   6
   2  -3  -6 32786.6 1526.67   6
   2  -3   3 3405.38 333.131   8
   2  -3   4 52898.2 1427.18   8
   2  -3   5 1086.98 240.742   8
   2  -3   6 4178.86 472.074   8
   2  -3   7 50605.8 1704.48   8
   2  -3   8 27267.1 1292.72   8
   2  -3   9 29199.2 1373.69  10
   2  -3   9 28258.1 1293.14  16
   2  -3   9 32770.3 1446.59   8
   2  -3  10 10021.8 778.343  12
   2  -3  10 10073.0 809.092  10
   2  -3  10 8462.74 762.814   7
   2  -3  11 192.645 151.702  12
   2  -3  11-183.025 142.906  10
   2  -3  12 6714.67 576.386  12
   2  -3  12 6724.45 590.477  10
   2  -3  13 165.779 133.016  10
   2  -3  14 308.772 108.962  10
   2  -2 -13 15801.8 560.720  18
   2  -2 -12 14673.2 681.732  18
   2  -2  -9 1202.92 282.255  14
   2  -2  -8 4087.83 507.553  14
   2  -2  -7 13858.9 948.700   6
   2  -2   2 179684. 2186.79   8
   2  -2   3 43403.4 1194.99   8
   2  -2   4 74691.2 1707.33   8
   2  -2   5 22187.1 1006.18   8
   2  -2   6 5265.92 530.559   8
   2  -2   7 21547.3 1115.98   8
   2  -2   8 3433.64 486.709   8
   2  -2   9 16519.0 945.509  12
   2  -2   9 16860.3 1057.45  10
   2  -2   9 18538.9 1108.27   8
   2  -2  10 678.044 239.885   8
   2  -2  10 225.900 142.469  12
   2  -2  10 377.642 198.652  10
   2  -2  11 25045.8 1114.85  12
   2  -2  11 22845.6 1181.49  10
   2  -2  12 24289.6 1114.03  10
   2  -2  13 1848.32 279.597  10
   2  -2  14 1141.88 182.444  10
   2  -1 -13 2356.49 243.547  18
   2  -1 -12 92.3630 92.0003  18
   2  -1  -9 74357.9 1867.11  21
   2  -1  -9 74882.2 2009.20  14
   2  -1  -8 78795.2 2132.66   6
   2  -1  -7 10686.3 786.438   6
   2  -1   0 181769. 1720.18   8
   2  -1   1 86764.8 1344.85   8
   2  -1   2 24917.1 811.254   8
   2  -1   3 7556.81 502.457   8
   2  -1   4 19715.0 872.731   8
   2  -1   5 17213.3 888.127   8
   2  -1   6 40673.3 1471.42   8
   2  -1   7 65003.4 1964.82   8
   2  -1   8 47821.0 1743.44   8
   2  -1   9 10462.5 847.361  10
   2  -1   9 12925.7 928.096   8
   2  -1  10 1167.03 300.828   8
   2  -1  10 1226.39 314.734  10
   2  -1  11 3499.07 461.611  10
   2  -1  12 1879.25 327.837  10
   2  -1  13 4289.28 409.672  10
   2  -1  14 4632.01 332.069  10
   2   0 -13 4431.94 341.286  18
   2   0 -12 18514.6 828.255  21
   2   0 -11 4917.35 474.943  21
   2   0  -1 41418.3 826.264   8
   2   0   0 1608.79 181.456   8
   2   0   1 542.822 133.561   8
   2   0   2 124242. 1811.99   8
   2   0   3 69773.2 1497.69   8
   2   0   4 69397.8 1622.88   8
   2   0   5 64051.1 1726.39   8
   2   0   6 91042.9 2211.07   8
   2   0   7 1357.95 311.830   8
   2   0   8 339.419 206.300   8
   2   0   9 4048.25 529.337  10
   2   0   9 3863.01 521.319   8
   2   0  10 17076.6 1050.69  10
   2   0  11 12510.6 840.343  10
   2   0  12 3346.77 408.297  10
   2   0  13 1981.51 260.189  10
   2   1 -14 3188.93 254.106  21
   2   1 -13 2530.73 297.749  21
   2   1 -12 1504.73 266.725  21
   2   1   0 280591. 2407.10   8
   2   1   1 166187. 1978.01   8
   2   1   2 1986.93 247.791   8
   2   1   3 2165.42 285.364   8
   2   1   4 2390.58 322.718   8
   2   1   5 11533.9 739.886   8
   2   1   6 33425.4 1364.41   8
   2   1   7 16865.6 1026.99   8
   2   1   8 20513.2 1148.14  10
   2   1   8 23379.5 1221.17   8
   2   1   9 28430.7 1350.58  10
   2   1   9 28229.9 1341.74   8
   2   1  10 6456.02 625.043  10
   2   1  11 29.2852 103.040  10
   2   1  12 140.308 108.062  10
   2   1  13 155.871 80.4999  10
   2   2 -14 5777.88 385.838  21
   2   2 -13 5967.24 480.083  21
   2   2   1 185.402 93.2489   8
   2   2   2 122979. 1952.78   8
   2   2   3 114151. 1993.41   8
   2   2   4 49119.2 1444.78   8
   2   2   5 14949.9 861.033   8
   2   2   6 28616.1 1276.71   8
   2   2   7 203.140 152.772   8
   2   2   8 1894.01 371.953   8
   2   2   8 1665.07 335.499  10
   2   2   9 520.307 188.907  10
   2   2  10 10573.8 760.208  10
   2   2  11 4575.54 443.592  10
   2   2  12 10987.0 570.056  10
   2   3 -14 2623.41 288.417  21
   2   3   1 230.521 111.262   8
   2   3   2 133884. 2098.47   8
   2   3   3 106807. 2026.61   8
   2   3   4 1030.04 231.118   8
   2   3   5 9020.18 696.209   8
   2   3   6 21981.3 1125.71   8
   2   3   7 35501.6 1483.53   8
   2   3   7 35352.3 1444.81  10
   2   3   8 15544.5 946.057  10
   2   3   8 13517.3 910.239   8
   2   3   9 5846.32 554.736  10
   2   3  10 8278.06 597.228  10
   2   3  11 6534.10 453.635  10
   2   4 -15 744.783 128.453  21
   2   4 -14 6882.79 463.173  21
   2   4   1 41793.9 1201.32   8
   2   4   2 19461.1 849.563   8
   2   4   3 301.177 135.796   8
   2   4   4 139370. 2603.56   8
   2   4   5 22179.6 1103.32   8
   2   4   6 9493.19 751.527   8
   2   5 -15 3432.64 257.519  21
   2   5 -14 2999.50 311.016  21
   2   5   1 158625. 2457.81   8
   2   5   2 33417.3 1194.82   8
   2   5   3 4035.41 439.619   8
   2   5   4 13291.3 826.116   8
   2   5   5 1761.69 347.580   8
   2   6 -14 2924.65 292.315  21
   2   6   0 41.0080 119.445   8
   2   6   1 393.107 150.784   8
   2   6   2 46498.0 1472.45   8
   2   6   3 31686.1 1265.08   8
   2   7 -14 2771.74 250.334  21
   2   7   0 10784.5 726.348   8
   2   7   1 74168.1 1888.60   8
   2   7   2 447.085 175.716   8
   2   8  -1 2820.26 390.947   8
   2   8   0 440.119 180.299   8
   3 -11   0 5623.77 386.643  13
   3 -11   1 9509.45 522.429  13
   3 -11   2 5070.91 394.432  13
   3 -11   2 3370.94 345.143  23
   3 -11   3 2097.29 261.960  13
   3 -11   3 2329.83 324.159  23
   3 -11   4 2427.93 351.745  23
   3 -11   5 193.325 131.095  23
   3 -11   6-111.212 137.557  23
   3 -11   7 2274.52 298.977  23
   3 -11   8 3859.36 333.839  23
   3 -10  -3 6384.75 416.061  13
   3 -10  -2 10800.7 538.426  24
   3 -10  -2 10539.8 595.574  13
   3 -10  -1 3743.31 387.990  13
   3 -10  -1 3556.94 347.062  24
   3 -10   0 1268.42 224.899  24
   3 -10   0 1304.58 243.496  13
   3 -10   1 292.055 150.524  13
   3 -10   1 157.289 131.743  23
   3 -10   1 129.639 122.645  24
   3 -10   2 124.999 126.178  13
   3 -10   2 268.885 200.073  23
   3 -10   2 578.492 172.782  24
   3 -10   3 3988.19 415.882  13
   3 -10   3 4041.70 552.724  23
   3 -10   3 4644.42 441.335  24
   3 -10   4 14416.4 1017.95  23
   3 -10   5 8660.11 777.547  23
   3 -10   6 1277.36 306.976  23
   3 -10   7 6621.44 536.038  25
   3 -10   7 6391.89 605.365  23
   3 -10   8 1010.48 211.297  25
   3 -10   8 1421.43 267.778  23
   3 -10   9 112.053 100.394  25
   3 -10   9-47.1927 96.6779  23
   3 -10  10 70.2625 79.9888  25
   3  -9  -5 2826.36 252.496  24
   3  -9  -5 2498.05 263.646  13
   3  -9  -4 2370.03 279.107  24
   3  -9  -3 570.481 166.492  24
   3  -9  -2 487.414 170.768  24
   3  -9  -1 6244.83 542.151  24
   3  -9  -1 5018.44 512.674  13
   3  -9   0 11017.6 717.860  24
   3  -9   0 11289.5 747.377  13
   3  -9   1 11038.6 745.631  13
   3  -9   1 11448.8 744.991  24
   3  -9   2 36131.9 1293.73  13
   3  -9   2 34048.7 1280.18  24
   3  -9   3 4075.27 439.655  13
   3  -9   3 3500.30 424.376  24
   3  -9   4-93.9098 177.684  24
   3  -9   5-110.304 112.989  16
   3  -9   6 2034.64 337.337  16
   3  -9   7 859.648 271.746  23
   3  -9   7 897.080 231.953  16
   3  -9   8 613.798 212.188  23
   3  -9   8 871.413 257.514  25
   3  -9   8 1017.46 240.002  16
   3  -9   9 8072.47 633.303  25
   3  -9   9 9000.20 627.990  12
   3  -9   9 7301.04 549.459  23
   3  -9  10 2559.97 333.789  25
   3  -9  10 2301.58 293.166  12
   3  -9  11 3223.93 307.878  25
   3  -9  11 2903.42 268.229  12
   3  -8  -6 848.619 170.718  24
   3  -8  -5 8543.43 575.547  24
   3  -8  -4 19058.0 930.068  24
   3  -8  -3 7186.82 600.823  24
   3  -8  -2 14216.3 858.768  24
   3  -8  -1 5258.41 526.669  24
   3  -8   0 6306.24 570.195  24
   3  -8   1 548.748 201.587  13
   3  -8   1 416.660 170.445  24
   3  -8   2 1533.01 295.662  24
   3  -8   3 4093.25 460.059  24
   3  -8   4 16175.4 902.416  24
   3  -8   4 16858.5 939.879  16
   3  -8   5 14545.0 893.246  16
   3  -8   6 896.109 240.855  16
   3  -8   7 11770.0 831.471  16
   3  -8   8 4429.69 538.455  23
   3  -8   8 5089.16 547.999  16
   3  -8   9 1783.77 349.450  25
   3  -8   9 1733.12 315.080  16
   3  -8  10 227.880 154.252  25
   3  -8  10 64.0802 100.624  12
   3  -8  11 1937.88 279.265  25
   3  -8  11 1942.76 278.697  12
   3  -8  12 576.919 133.035  25
   3  -8  12 678.163 144.126  12
   3  -7  -8 20985.5 672.541  24
   3  -7  -8 19991.1 612.673  18
   3  -7  -7 11634.0 622.027  24
   3  -7  -7 12309.5 606.075  18
   3  -7  -6 13794.7 776.887  24
   3  -7  -6 14001.3 742.290  18
   3  -7  -5 1628.35 293.680  24
   3  -7  -5 1805.45 312.009  18
   3  -7  -4 3222.48 427.192  24
   3  -7  -4 2646.66 365.574  18
   3  -7  -3 8604.78 688.640  24
   3  -7  -3 8679.58 658.658  18
   3  -7  -2 5271.79 540.207  24
   3  -7  -2 5511.02 522.376  18
   3  -7  -1 8609.42 668.585  24
   3  -7   0 23187.6 1074.33  24
   3  -7   0 21578.1 1355.48   9
   3  -7   1 30106.1 1194.33  24
   3  -7   1 29694.9 1655.33   9
   3  -7   2 3885.92 435.516  24
   3  -7   2 3818.63 621.457   9
   3  -7   3 844.396 212.856  24
   3  -7   3 996.319 346.045   9
   3  -7   4 13812.7 879.671  21
   3  -7   4 13652.5 813.393  24
   3  -7   4 13020.1 1116.40   9
   3  -7   5 8110.41 640.946  24
   3  -7   5 7605.44 839.950   9
   3  -7   5 8524.56 683.675  16
   3  -7   6 217.272 154.099  16
   3  -7   7 14330.1 938.695  16
   3  -7   8 12413.3 867.126  16
   3  -7   9 9131.57 744.521  16
   3  -7  10 2936.12 431.125  25
   3  -7  10 2508.47 393.392  12
   3  -7  11 419.832 159.869  25
   3  -7  11 373.065 146.136  12
   3  -7  12 2521.78 274.029  25
   3  -7  12 2138.44 269.020  12
   3  -6  -9 7154.42 405.448  24
   3  -6  -9 7557.63 405.510  18
   3  -6  -8 3001.05 336.494  24
   3  -6  -8 3216.08 338.398  18
   3  -6  -7 234.369 160.738  24
   3  -6  -7 66.3618 127.303  18
   3  -6  -6 9123.63 715.724  24
   3  -6  -6 8407.93 658.194  18
   3  -6  -5 372.232 194.404  24
   3  -6  -5 218.159 150.960  18
   3  -6  -4 7927.19 684.025  24
   3  -6  -4 7706.29 653.148  18
   3  -6  -3 25759.1 1196.42  24
   3  -6  -3 23508.2 1107.65  18
   3  -6  -2 34461.5 1328.23  24
   3  -6  -2 33460.2 1264.69  18
   3  -6  -1 25435.1 1097.86  24
   3  -6  -1 25475.7 1052.38  18
   3  -6  -1 23382.6 1376.05   9
   3  -6   0 5842.17 514.468  24
   3  -6   0 5765.64 729.825   9
   3  -6   1 4517.52 442.850  24
   3  -6   1 4735.99 682.000   9
   3  -6   2 2719.34 353.072  24
   3  -6   2 2797.98 534.101   9
   3  -6   3 37214.4 1270.82  24
   3  -6   3 39632.8 1382.79  21
   3  -6   3 37864.8 1865.64   9
   3  -6   4 59.1107 87.5705  24
   3  -6   4-93.7013 121.587  21
   3  -6   4-3.33160 208.743   9
   3  -6   5 12903.8 785.816  24
   3  -6   5 12786.1 857.685  21
   3  -6   5 13133.4 825.591  16
   3  -6   5 12263.6 1050.19   9
   3  -6   6 70638.6 1999.17  16
   3  -6   6 68022.2 2392.45   9
   3  -6   7-4.74853 96.4811  16
   3  -6   8 2652.41 423.596  16
   3  -6   9 410.548 214.867  16
   3  -6  10 367.702 163.906  25
   3  -6  11 4302.58 452.454  25
   3  -6  11 4225.25 462.710  12
   3  -6  12 641.680 158.786  25
   3  -6  12 663.752 169.927  12
   3  -5 -10 2358.23 231.948  24
   3  -5 -10 2593.74 240.795  18
   3  -5  -9 3767.76 368.146  24
   3  -5  -9 3991.50 379.103  18
   3  -5  -8 16264.5 866.658  18
   3  -5  -7 9927.02 733.740  18
   3  -5  -6 2970.60 430.155  18
   3  -5  -5 66023.5 1948.12  18
   3  -5  -4 12542.0 829.251  18
   3  -5  -3 737.158 213.175  24
   3  -5  -3 645.852 205.200  18
   3  -5  -2 154.819 137.531  24
   3  -5  -2 47.3671 79.2449  18
   3  -5  -1 12607.0 1001.96   9
   3  -5   0 28898.9 1540.49   9
   3  -5   1 10361.1 932.516   9
   3  -5   2 43355.8 1885.09   9
   3  -5   3 47021.9 1977.07   9
   3  -5   4 15945.2 1145.39   9
   3  -5   5 2597.03 371.630  21
   3  -5   5 2867.78 380.508  16
   3  -5   5 2252.67 453.864   9
   3  -5   6 12871.4 838.122  16
   3  -5   6 11879.0 976.428   9
   3  -5   7 1821.25 346.259  16
   3  -5   8 5546.92 603.065  16
   3  -5   9 2184.76 381.929  16
   3  -5  10 8081.30 695.588  25
   3  -5  11 8133.89 619.083  25
   3  -5  11 7887.76 639.256  12
   3  -5  12 487.418 157.016  12
   3  -4 -11 11859.4 465.261  18
   3  -4 -10 7608.93 496.390  18
   3  -4  -9 16408.3 850.749  18
   3  -4  -8 1635.25 311.828  18
   3  -4  -7 8543.12 716.345  18
   3  -4  -6 459.055 219.359  18
   3  -4  -5 25478.2 1196.95  18
   3  -4  -4 44361.2 1492.22  18
   3  -4  -2 28423.2 1378.25   9
   3  -4   6 15438.3 882.349  16
   3  -4   6 13930.6 1007.02   9
   3  -4   7 9951.24 750.374  16
   3  -4   8 8069.09 704.562  16
   3  -4   8 7922.61 713.236   8
   3  -4   9 633.197 215.592  10
   3  -4   9 267.195 182.607  16
   3  -4  10 1030.37 262.227  25
   3  -4  10 1141.00 283.664  12
   3  -4  10 1023.29 255.193  10
   3  -4  11 10681.0 717.616  12
   3  -4  11 10163.6 689.353  10
   3  -4  12 291.167 123.034  12
   3  -4  12 146.712 104.507  10
   3  -3 -11 58.8118 87.8011  18
   3  -3 -10 545.156 178.874  18
   3  -3  -9 13810.3 841.668  18
   3  -3  -8 3819.82 484.350  18
   3  -3  -7 26633.6 1277.26  18
   3  -3  -6 32950.6 1270.58  21
   3  -3  -6 30326.8 1326.01  18
   3  -3  -5 25412.4 1090.17  21
   3  -3  -5 26372.5 1169.05  18
   3  -3   5 6776.75 624.580   8
   3  -3   6 1470.92 328.308   8
   3  -3   7-72.4985 140.568   8
   3  -3   7-161.984 122.080  10
   3  -3   7-9.80966 92.2066  16
   3  -3   8 7733.81 761.085  10
   3  -3   8 7823.90 689.288  16
   3  -3   8 8526.40 757.610   8
   3  -3   9 19325.5 1181.58  10
   3  -3   9 19364.4 1092.42  16
   3  -3  10 15797.6 932.328  12
   3  -3  10 15028.9 988.284  10
   3  -3  11 2324.55 330.778  12
   3  -3  11 2396.47 372.149  10
   3  -3  12 3147.50 355.681  10
   3  -3  13 221.329 91.5299  10
   3  -2 -12 2040.62 199.388  18
   3  -2 -11 14295.8 683.043  18
   3  -2 -10 16300.2 859.225  18
   3  -2  -9 17096.6 872.394  21
   3  -2  -9 16432.9 951.974  18
   3  -2  -8 19754.7 1002.62  21
   3  -2  -8 19094.0 1065.88  18
   3  -2  -7 2355.29 362.565  21
   3  -2  -7 2179.19 376.322  18
   3  -2  -6 10508.7 737.585  21
   3  -2  -6 10990.3 775.416  18
   3  -2   4 37745.4 1423.34   8
   3  -2   5 29732.1 1321.78   8
   3  -2   6 46048.3 1703.36   8
   3  -2   7 9336.68 823.414  10
   3  -2   7 9546.50 713.629  16
   3  -2   7 11272.8 872.251   8
   3  -2   8 10509.0 909.832  10
   3  -2   8 11049.7 794.914  16
   3  -2   8 12741.8 938.223   8
   3  -2   9 2530.20 454.903  10
   3  -2  10 228.299 147.632  10
   3  -2  11 2914.68 413.282  10
   3  -2  12 44.6544 109.524  10
   3  -2  13 8033.14 428.133  10
   3  -1 -12 3054.81 260.679  18
   3  -1 -11 1603.12 245.638  21
   3  -1 -11 1508.67 244.595  18
   3  -1 -10 328.260 161.504  21
   3  -1 -10 329.508 138.951  18
   3  -1  -9 2283.39 351.983  21
   3  -1  -9 2807.96 406.701  18
   3  -1  -8 192.829 147.003  21
   3  -1  -8 420.444 164.312  18
   3  -1  -7 55217.3 1755.74  21
   3  -1  -7 54647.0 1714.25  18
   3  -1   2 68711.6 1690.19   8
   3  -1   3 57811.0 1647.39   8
   3  -1   4 387.595 202.760   8
   3  -1   5 10920.0 814.853   8
   3  -1   6 29.9019 128.109   8
   3  -1   7 2489.62 425.992   8
   3  -1   7 2102.04 400.306  10
   3  -1   8 33246.3 1591.28  10
   3  -1   8 40410.4 1654.98   8
   3  -1   9 1985.23 402.826  10
   3  -1  10 12769.8 918.337  10
   3  -1  11 5304.00 534.838  10
   3  -1  12 62.6610 110.246  10
   3  -1  13-155.907 81.3857  10
   3   0 -12 12878.6 620.141  21
   3   0 -11 9851.64 640.899  21
   3   0 -10 18956.3 990.986  21
   3   0  -9 12162.4 844.062  21
   3   0  -8 5254.53 573.334  21
   3   0  -7 10198.2 770.126  21
   3   0   0 7463.82 497.049   8
   3   0   1 20461.7 872.317   8
   3   0   2 5510.17 481.476   8
   3   0   3 14118.7 817.463   8
   3   0   4 17980.4 980.336   8
   3   0   5 19988.7 1102.35   8
   3   0   6 12812.7 919.229   8
   3   0   7 4834.93 618.140  10
   3   0   7 5110.24 606.218   8
   3   0   8 24723.0 1386.14  10
   3   0   8 25192.3 1300.59   8
   3   0   9 92.3788 155.812  10
   3   0  10 2901.71 441.691  10
   3   0  11 2915.92 389.971  10
   3   0  12 5602.33 417.542  10
   3   1 -13 12572.3 535.682  21
   3   1 -12 8397.00 558.024  21
   3   1 -11 100.417 143.131  21
   3   1 -10 2048.72 356.190  21
   3   1  -9 8409.32 720.144  21
   3   1  -8 44342.4 1644.38  21
   3   1  -7 27508.6 1253.12  21
   3   1  -1 15276.2 720.261   8
   3   1   0 31186.6 1041.72   8
   3   1   1 121696. 2158.01   8
   3   1   2 3494.60 388.098   8
   3   1   3 39800.7 1371.79   8
   3   1   4 11083.4 772.548   8
   3   1   5 23346.5 1193.74   8
   3   1   6 7216.97 696.898   8
   3   1   6 7934.79 745.295  10
   3   1   7 136.067 144.561   8
   3   1   7 304.783 187.254  10
   3   1   8 14543.0 1058.13  10
   3   1   9 4251.61 544.198  10
   3   1  10 9050.13 710.725  10
   3   1  11 1300.56 241.652  10
   3   1  12 9665.26 470.123  10
   3   2 -13 1459.59 214.134  21
   3   2 -12 5994.18 504.252  21
   3   2 -11 4269.29 487.943  21
   3   2 -10 32337.3 1391.17  21
   3   2  -9 14727.1 980.450  21
   3   2  -8 7743.69 704.160  21
   3   2  -1 35472.4 1122.04   8
   3   2   0 33631.1 1122.70   8
   3   2   1 499.940 150.560   8
   3   2   2 12905.5 758.907   8
   3   2   3 2309.14 347.301   8
   3   2   4 13189.9 847.605   8
   3   2   5 21574.9 1143.49   8
   3   2   6 59770.1 1953.16   8
   3   2   6 64337.0 2130.65  10
   3   2   7 4488.24 599.112  10
   3   2   8 4127.27 550.971  10
   3   2   9 606.415 231.453  10
   3   2  10-8.18797 110.918  10
   3   2  11 1396.72 212.377  10
   3   3 -13 4029.94 359.481  21
   3   3 -12 3527.37 407.584  21
   3   3 -11 1095.76 269.469  21
   3   3 -10 53.9255 160.916  21
   3   3  -9 1561.26 331.811  21
   3   3  -8 5106.22 583.758  21
   3   3  -7 20740.2 1095.28  21
   3   3  -1 35933.1 1184.65   8
   3   3   0 7525.67 555.965   8
   3   3   1 55833.4 1553.14   8
   3   3   2 17632.1 892.506   8
   3   3   3 28054.3 1196.09   8
   3   3   4 8661.02 692.688   8
   3   3   5 28016.7 1299.49   8
   3   3   5 31706.0 1453.59  10
   3   3   6 23017.2 1197.97   8
   3   3   6 24417.2 1325.41  10
   3   3   7 738.804 251.735  10
   3   3   8 6967.30 650.915  10
   3   3   9 6962.76 565.480  10
   3   3  10 8188.69 494.386  10
   3   4 -14 331.318 95.1091  21
   3   4 -13-125.042 97.5847  21
   3   4 -12 8002.33 607.167  21
   3   4 -11 16233.0 955.490  21
   3   4 -10 7793.29 702.429  21
   3   4  -9 6014.09 630.816  21
   3   4  -8 16053.4 996.748  21
   3   4  -7 4640.76 517.491  21
   3   4  -1 20528.2 931.896   8
   3   4   0 36050.2 1233.41   8
   3   4   1 13357.7 779.203   8
   3   4   2 177.734 136.389   8
   3   4   3 32061.4 1288.14   8
   3   4   4 18199.6 1007.43   8
   3   4   5 3435.04 464.858   8
   3   5 -13 6640.70 446.342  21
   3   5 -12 4743.55 452.466  21
   3   5 -11 3141.82 419.712  21
   3   5 -10 212.319 137.415  21
   3   5  -9 6188.68 622.075  21
   3   5  -8 491.905 178.466  21
   3   5  -1 1524.33 269.861   8
   3   5   0 9818.78 674.521   8
   3   5   1 9842.39 691.970   8
   3   5   2 3788.43 449.748   8
   3   5   3 110825. 2450.66   8
   3   5   4 1408.23 288.794   8
   3   6 -13 1639.94 215.576  21
   3   6 -12 4202.87 397.428  21
   3   6 -11 709.351 202.377  21
   3   6 -10 17331.5 950.465  21
   3   6  -2 30230.9 1232.99   8
   3   6  -1 10342.5 724.993   8
   3   6   0 34421.6 1302.00   8
   3   6   1 2179.86 342.963   8
   3   6   2 388.545 162.900   8
   3   7  -2 2721.66 387.551   8
   3   7  -1 5783.67 556.509   8
   4 -10   3 46.7027 97.3479  23
   4 -10   4 363.321 135.700  23
   4 -10   5 3307.45 347.190  23
   4  -9  -2 162.795 95.5580  24
   4  -9  -1 5421.00 415.777  24
   4  -9   0 1049.54 206.886  24
   4  -9   1 1549.12 251.763  24
   4  -9   1 1407.71 221.220  16
   4  -9   2 15275.3 752.258  24
   4  -9   2 13788.5 687.738  16
   4  -9   3 2969.41 341.912  16
   4  -9   4 3756.08 376.212  16
   4  -9   5 412.054 145.271  16
   4  -9   6 2049.26 333.926  23
   4  -9   6 2291.70 294.130  16
   4  -9   7 412.300 146.374  25
   4  -9   7 347.779 141.979  23
   4  -9   7 669.156 162.410  16
   4  -9   8-77.5656 69.3524  25
   4  -8  -4 3354.56 309.690  24
   4  -8  -3 148.615 106.481  24
   4  -8  -2 7761.43 560.144  24
   4  -8  -1 14276.8 782.810  24
   4  -8   0 5560.36 509.085  24
   4  -8   1 5826.53 520.504  24
   4  -8   2 1067.49 245.814  24
   4  -8   2 1348.67 267.363  16
   4  -8   3 57.0106 143.162  24
   4  -8   3-29.9301 105.804  16
   4  -8   4 169.974 119.061  16
   4  -8   5 5702.23 521.550  16
   4  -8   6 37.5970 101.928  16
   4  -8   7 14633.1 789.984  16
   4  -8   8 11630.4 707.138  25
   4  -8   8 12744.5 683.915  16
   4  -8   9 98.4075 78.6446  25
   4  -8   9 69.4803 86.5978  12
   4  -7  -6 8739.25 442.442  24
   4  -7  -5 4640.26 393.258  24
   4  -7  -4 333.132 136.250  24
   4  -7  -3 32668.2 1207.92  24
   4  -7  -2 2824.13 384.502  24
   4  -7  -1 483.217 177.269  24
   4  -7   0 5150.19 511.907  24
   4  -7   1 3314.01 423.215  24
   4  -7   2 17148.8 901.901  24
   4  -7   2 16111.2 911.739  21
   4  -7   3 3786.40 444.703  24
   4  -7   3 3803.02 462.300  21
   4  -7   4 9650.01 697.407  16
   4  -7   5 512.858 189.359  16
   4  -7   6 11364.9 761.359  16
   4  -7   7 1013.92 243.514  16
   4  -7   8 2306.87 335.564  16
   4  -7   9 139.448 114.944  25
   4  -7   9 47.3590 92.2478  16
   4  -7  10 1912.22 235.955  25
   4  -7  10 2087.03 253.744  12
   4  -6  -7 3699.83 301.440  24
   4  -6  -6 1632.99 251.580  24
   4  -6  -5 2060.27 310.560  24
   4  -6  -4 2.32845 111.549  24
   4  -6  -3 24759.5 1122.35  24
   4  -6  -2 9140.73 689.206  24
   4  -6  -1 10952.3 744.478  24
   4  -6   0 10534.4 725.126  24
   4  -6   0 10141.2 715.364  21
   4  -6   1 2704.84 376.809  24
   4  -6   1 2487.62 377.931  21
   4  -6   2 8553.56 642.121  24
   4  -6   2 9264.59 707.399  21
   4  -6   3 895.027 236.186  24
   4  -6   3 976.804 248.569  21
   4  -6   4 423.060 195.620  21
   4  -6   4 800.450 225.357  16
   4  -6   5 16508.8 919.383  16
   4  -6   6 5736.19 552.947  16
   4  -6   7 761.238 237.853  16
   4  -6   8 1083.62 258.285  16
   4  -6   9 2213.43 316.131  16
   4  -6  10 232.468 118.606  25
   4  -6  10 254.855 112.766  12
   4  -6  11 2518.58 230.056  12
   4  -5  -8 1793.83 204.585  24
   4  -5  -7 8303.49 539.912  24
   4  -5  -6 898.505 220.977  24
   4  -5  -6 693.158 206.192  18
   4  -5  -5 23670.3 1094.93  24
   4  -5  -5 23978.3 1108.83  18
   4  -5  -4 15854.7 918.519  24
   4  -5  -3 15227.2 895.794  24
   4  -5  -3 15281.2 847.147  21
   4  -5  -2-34.1284 125.186  24
   4  -5  -2 71.7652 128.962  21
   4  -5  -1-19.9697 88.9342  24
   4  -5  -1 173.386 128.234  21
   4  -5   0 4879.72 487.409  24
   4  -5   0 5095.39 506.854  21
   4  -5   1 787.742 234.134  24
   4  -5   1 1171.64 267.511  21
   4  -5   2 28611.0 1139.27  24
   4  -5   2 27008.5 1182.05  21
   4  -5   3 129.679 110.935  24
   4  -5   3 664.199 209.509  21
   4  -5   4 22592.0 1120.60  21
   4  -5   4 22786.4 1055.31  16
   4  -5   5 16457.3 963.664  21
   4  -5   5 16280.6 904.544  16
   4  -5   6 575.261 205.244  16
   4  -5   7 96.2732 111.374  16
   4  -5   8-74.5673 108.300  16
   4  -5   9 1156.16 236.107  16
   4  -5  10 2685.42 288.839  25
   4  -5  10 2777.46 319.112  12
   4  -5  11 957.439 156.607  12
   4  -4  -8 13863.1 659.338  24
   4  -4  -8 14347.4 714.308  18
   4  -4  -7 4198.49 433.961  24
   4  -4  -7 4046.42 444.027  18
   4  -4  -6 7306.29 611.319  24
   4  -4  -6 8007.27 664.912  18
   4  -4  -5 1316.96 274.804  24
   4  -4  -5 1462.53 267.708  21
   4  -4  -5 1535.12 323.109  18
   4  -4  -4 447.198 197.677  24
   4  -4  -4 118.417 130.675  21
   4  -4  -4 288.187 152.464  18
   4  -4  -3 3465.82 433.822  24
   4  -4  -3 3066.17 403.742  21
   4  -4  -2 5916.69 540.038  24
   4  -4  -2 5960.07 554.998  21
   4  -4  -1 19254.3 936.950  24
   4  -4  -1 18452.7 954.991  21
   4  -4   0 10918.2 704.860  24
   4  -4   0 10768.3 727.221  21
   4  -4   1 30431.7 1146.56  24
   4  -4   1 31603.9 1228.63  21
   4  -4   2 5114.01 486.391  24
   4  -4   2 5408.28 529.182  21
   4  -4   3 4788.08 468.898  24
   4  -4   3 4684.08 491.355  21
   4  -4   4 212.071 175.380  21
   4  -4   4 117.947 141.611  16
   4  -4   5 62.5076 137.050  21
   4  -4   5 257.325 146.343  16
   4  -4   6 7026.89 609.616  16
   4  -4   7 14870.4 889.806  16
   4  -4   8 1580.63 318.151  10
   4  -4   8 1591.15 299.323  16
   4  -4   9 12293.5 761.995  10
   4  -4  10 1405.95 224.365  12
   4  -4  10 1657.62 244.384  10
   4  -4  11 1491.53 174.546  12
   4  -3  -9 107.640 100.719  18
   4  -3  -8 516.092 141.856  21
   4  -3  -8 596.832 200.430  18
   4  -3  -7 3986.07 438.257  24
   4  -3  -7 4388.85 441.296  21
   4  -3  -7 3213.78 419.007  18
   4  -3  -6 3143.97 407.797  24
   4  -3  -6 3242.54 416.997  21
   4  -3  -6 2869.26 423.046  18
   4  -3  -5 21112.7 1062.03  24
   4  -3  -5 19285.3 1006.97  21
   4  -3  -5 20384.2 1082.08  18
   4  -3  -4 16563.4 919.086  24
   4  -3  -4 15886.4 919.143  21
   4  -3  -4 15843.9 930.652  18
   4  -3  -3 12119.6 755.449  24
   4  -3  -3 10598.8 746.118  21
   4  -3  -3 10574.9 729.631  18
   4  -3  -2 462.196 162.231  24
   4  -3  -2 980.573 239.518  21
   4  -3  -1 34295.0 1182.76  24
   4  -3  -1 33964.4 1261.65  21
   4  -3   0 11918.6 694.802  24
   4  -3   0 10712.6 697.058  21
   4  -3   1 1271.09 235.839  24
   4  -3   1 1293.92 256.730  21
   4  -3   2 17338.2 844.872  24
   4  -3   2 16825.6 871.149  21
   4  -3   3 16903.6 887.662  21
   4  -3   4 34113.2 1290.27  21
   4  -3   4 34588.4 1248.35  16
   4  -3   5 719.063 218.874  21
   4  -3   5 642.479 211.388  16
   4  -3   6 987.099 275.861  10
   4  -3   6 902.266 220.983  16
   4  -3   7 107.696 122.274  10
   4  -3   7 442.367 166.969  16
   4  -3   8 124.175 150.644  10
   4  -3   8 347.287 148.294  16
   4  -3   9 346.089 138.479  12
   4  -3   9 400.057 170.682  10
   4  -3  10 5122.61 455.548  10
   4  -3  11 643.146 142.553  10
   4  -2  -9 7576.50 498.092  21
   4  -2  -9 7994.89 535.291  18
   4  -2  -8 13708.6 773.726  21
   4  -2  -8 13123.6 787.972  18
   4  -2  -7 9622.05 709.491  21
   4  -2  -7 8683.60 697.361  18
   4  -2  -6 23442.3 1141.16  21
   4  -2  -6 23275.3 1146.64  18
   4  -2  -5 499.084 202.016  21
   4  -2  -5 403.807 192.185  18
   4  -2  -4 140.236 110.803  21
   4  -2  -4 139.960 119.876  18
   4  -2  -3 14083.4 849.874  21
   4  -2  -2 3814.61 429.500  21
   4  -2  -1 43188.0 1375.56  21
   4  -2   0 12715.0 734.329  21
   4  -2   1 10807.6 671.196  21
   4  -2   2 6449.28 525.659  21
   4  -2   3 4504.21 452.201  21
   4  -2   4 2312.30 336.311  21
   4  -2   4 2282.31 325.768  16
   4  -2   5 8512.74 659.468  21
   4  -2   5 8963.56 647.927  16
   4  -2   6 633.238 192.565  16
   4  -2   7 10073.9 856.811  10
   4  -2   8 3313.16 477.975  10
   4  -2   9 2738.74 403.718  10
   4  -2  10 1309.91 250.975  10
   4  -2  11 227.531 105.120  10
   4  -1 -10 947.801 189.194  21
   4  -1  -9 77.2115 124.676  21
   4  -1  -8 78.2986 137.852  21
   4  -1  -7 2490.43 395.438  21
   4  -1  -7 2542.55 376.426  18
   4  -1  -6 9656.68 767.756  21
   4  -1  -6 10579.0 755.863  18
   4  -1  -5 27034.6 1256.08  21
   4  -1  -5 30363.4 1230.37  18
   4  -1  -4 21185.4 1065.37  21
   4  -1  -4 20201.2 961.886  18
   4  -1  -3 24968.3 1097.14  21
   4  -1  -2 76.9789 90.5007  21
   4  -1  -1 7077.71 543.303  21
   4  -1   0 13504.1 723.412  21
   4  -1   1 129.894 101.022  21
   4  -1   2 14554.2 765.907  21
   4  -1   3 12755.2 729.632  21
   4  -1   4 7139.55 571.631  21
   4  -1   5 2847.14 383.282  21
   4  -1   7 1419.84 342.787  10
   4  -1   8 129.932 134.089  10
   4  -1   9 325.561 191.938  10
   4  -1  10 9302.07 614.343  10
   4  -1  11 313.268 105.968  10
   4   0 -11 3015.07 282.864  21
   4   0 -10 11361.7 670.576  21
   4   0  -9 3576.11 437.293  21
   4   0  -8 46263.3 1641.43  21
   4   0  -7 2101.70 377.614  21
   4   0  -6 221.817 183.580  21
   4   0  -5-164.128 144.483  21
   4   0  -4 14309.8 855.141  21
   4   0  -3 15786.8 854.916  21
   4   0  -2 91.2588 97.1370  21
   4   0   2 389.053 132.951  21
   4   0   4 5241.60 583.471   8
   4   0   6 3691.02 522.961  10
   4   0   7 14069.3 999.793  10
   4   0   8 7192.48 682.622  10
   4   0   9 1635.94 318.867  10
   4   0  10 363.202 144.062  10
   4   0  11 748.974 133.022  10
   4   1 -12 947.023 139.490  21
   4   1 -11 6039.36 444.196  21
   4   1 -10 4471.53 465.332  21
   4   1  -9 2354.13 376.864  21
   4   1  -8 104.019 133.977  21
   4   1  -7 908.632 273.422  21
   4   1  -6 32809.3 1412.57  21
   4   1  -5 11478.0 795.373  21
   4   1  -4 163.446 142.288  21
   4   1  -3 56625.2 1550.27  21
   4   1  -2 10088.5 620.546  21
   4   1   2 27641.1 1265.63   8
   4   1   3 4092.04 502.420   8
   4   1   4 17796.9 1051.74   8
   4   1   6 13119.2 956.977  10
   4   1   7 2598.11 452.428  10
   4   1   8 14584.5 918.302  10
   4   1   9 63.0969 121.211  10
   4   1  10 1067.44 186.837  10
   4   2 -12 1427.26 190.235  21
   4   2 -11 135.772 125.705  21
   4   2 -10 5934.04 551.503  21
   4   2  -9 7774.43 686.738  21
   4   2  -8 5006.97 580.709  21
   4   2  -7 2317.61 403.493  21
   4   2  -6 45472.9 1632.57  21
   4   2  -5 184.521 132.419  21
   4   2  -4 11552.9 729.313  21
   4   2  -3 35258.1 1177.70  21
   4   2   0 4966.59 520.519   8
   4   2   1 10447.2 765.978   8
   4   2   2 12928.8 860.723   8
   4   2   3 1692.93 325.783   8
   4   2   5 7226.99 717.897  10
   4   2   6 4373.50 568.652  10
   4   2   7 3182.27 460.644  10
   4   2   8 121.797 139.749  10
   4   2   9 9830.07 574.524  10
   4   3 -12 6009.02 383.563  21
   4   3 -11 12145.9 682.653  21
   4   3 -10 803.955 236.288  21
   4   3  -9 2266.03 375.799  21
   4   3  -8 2316.19 397.086  21
   4   3  -7 2408.43 385.762  21
   4   3  -6 344.209 168.613  21
   4   3  -5 16962.0 903.797  21
   4   3  -1 8237.99 670.243   8
   4   3   0 3445.14 446.534   8
   4   3   1 311.863 162.233   8
   4   3   2 12672.8 839.437   8
   4   3   5 12692.5 944.204  10
   4   3   6 525.844 226.134  10
   4   3   7 1310.13 272.922  10
   4   3   8 2236.54 292.524  10
   4   4 -12 119.017 82.6571  21
   4   4 -11 967.300 218.926  21
   4   4 -10 5373.80 509.413  21
   4   4  -9 3084.20 417.156  21
   4   4  -8 19374.0 1051.37  21
   4   4  -7 676.505 228.717  21
   4   4  -3 2363.97 385.251   8
   4   4  -2 352.463 164.850   8
   4   4  -1 12231.0 818.042   8
   4   4   0 5913.43 586.326   8
   4   5 -11 1499.88 226.333  21
   4   5 -10 735.669 186.766  21
   4   5  -9 8249.85 610.921  21
   5  -7   0 2535.90 290.690  16
   5  -7   1 307.346 136.337  16
   5  -7   2 910.820 189.991  16
   5  -7   3 4.90187 88.5350  16
   5  -7   4 6891.91 478.767  16
   5  -7   5 261.795 110.825  16
   5  -7   6 5264.91 366.028  16
   5  -6  -3 210.993 103.618  24
   5  -6  -2 540.761 150.910  24
   5  -6  -1 4137.37 389.129  24
   5  -6  -1 3430.84 346.412  21
   5  -6   0 337.048 154.721  21
   5  -6   1 3165.37 380.102  21
   5  -6   2 1924.40 303.642  21
   5  -6   2 2108.61 303.259  16
   5  -6   3 10163.2 627.420  16
   5  -6   4 141.579 107.393  16
   5  -6   5 1091.17 209.540  16
   5  -6   6 851.768 175.714  16
   5  -6   7 154.252 84.7442  16
   5  -5  -4 2866.87 276.443  21
   5  -5  -3 2022.70 274.339  24
   5  -5  -3 2253.70 289.146  21
   5  -5  -2 14102.4 730.403  24
   5  -5  -2 13130.6 722.741  21
   5  -5  -1 1635.97 272.295  24
   5  -5  -1 2114.46 318.795  21
   5  -5   0 1905.33 289.426  24
   5  -5   0 1847.57 315.886  21
   5  -5   1 1326.89 280.358  21
   5  -5   2 2224.93 345.643  21
   5  -5   2 1854.16 291.015  16
   5  -5   3 2645.98 362.255  21
   5  -5   3 2606.32 336.404  16
   5  -5   4 3406.65 369.019  16
   5  -5   5 157.005 115.744  16
   5  -5   6 8131.94 521.553  16
   5  -5   7 1424.69 201.082  16
   5  -4  -5 8979.71 512.307  21
   5  -4  -4 2952.67 341.886  21
   5  -4  -3 171.607 133.432  21
   5  -4  -2 287.016 135.435  21
   5  -4  -1 1697.79 293.676  21
   5  -4   0 1065.81 255.473  21
   5  -4   1 24895.0 1080.80  21
   5  -4   2 886.910 246.502  21
   5  -4   2 465.274 178.225  16
   5  -4   3 10280.4 688.341  21
   5  -4   3 9309.91 613.247  16
   5  -4   4 351.738 179.128  21
   5  -4   4 85.6441 105.711  16
   5  -4   5 140.619 113.457  16
   5  -4   6 6799.90 478.557  16
   5  -4   7 785.355 159.486  16
   5  -3  -7 66.3558 74.3530  21
   5  -3  -6-16.8060 84.9315  21
   5  -3  -5 1266.30 252.669  21
   5  -3  -4 16125.9 847.646  21
   5  -3  -3 4653.50 477.438  21
   5  -3  -2 12502.4 778.868  21
   5  -3  -1 423.116 171.126  21
   5  -3   0 735.909 212.344  21
   5  -3   1 741.217 211.347  21
   5  -3   2 933.380 227.637  21
   5  -3   2 989.818 213.628  16
   5  -3   3 43.2112 109.885  21
   5  -3   3-44.2487 84.6139  16
   5  -3   4 1493.59 274.612  21
   5  -3   4 1577.81 260.682  16
   5  -3   5 14042.2 848.468  10
   5  -3   5 13049.3 684.817  16
   5  -3   6 2905.01 384.026  10
   5  -3   7 543.532 181.365  10
   5  -3   8 3104.69 291.653  10
   5  -2  -7 9048.78 533.422  21
   5  -2  -6 9284.69 609.772  21
   5  -2  -5 3540.54 411.317  21
   5  -2  -4-261.991 163.625  21
   5  -2  -3-65.4827 143.528  21
   5  -2  -2 646.762 212.092  21
   5  -2  -1 8671.62 640.610  21
   5  -2   0 358.292 176.631  21
   5  -2   1 15899.1 837.771  21
   5  -2   2 2177.41 320.082  21
   5  -2   3 8235.49 591.232  21
   5  -2   4 2099.48 308.634  21
   5  -2   5 8364.11 668.316  10
   5  -2   6 389.564 173.548  10
   5  -2   7 1282.95 250.120  10
   5  -2   8 1777.70 237.376  10
   5  -1  -8 1921.09 248.952  21
   5  -1  -7 793.743 209.571  21
   5  -1  -6 3413.34 408.939  21
   5  -1  -5-111.476 127.323  21
   5  -1  -4 7926.98 647.457  21
   5  -1  -3 937.887 235.806  21
   5  -1  -2 4396.07 466.820  21
   5  -1  -1 16648.9 859.543  21
   5  -1   0 11639.3 710.422  21
   5  -1   1 1190.23 241.838  21
   5  -1   2 338.135 141.917  21
   5  -1   3 5886.74 487.602  21
   5  -1   5 624.532 216.141  10
   5  -1   6 4393.68 466.628  10
   5  -1   7 1873.07 297.148  10
   5  -1   8 2495.20 281.206  10
   5   0  -9 1405.53 191.144  21
   5   0  -8 2567.37 313.903  21
   5   0  -7 9736.61 660.808  21
   5   0  -6 3693.10 436.682  21
   5   0  -5 5326.71 528.269  21
   5   0  -4 1033.87 251.695  21
   5   0  -3 575.399 191.929  21
   5   0  -2 9179.08 643.935  21
   5   0  -1 18775.8 889.288  21
   5   0   0 2929.63 348.756  21
   5   0   1 8036.75 562.095  21
   5   0   2 1778.57 270.270  21
   5   0   5 1560.65 328.725  10
   5   0   6 707.704 208.848  10
   5   0   7-43.4609 84.3236  10
   5   0   8 8352.20 469.784  10
   5   1  -9 4215.41 350.664  21
   5   1  -8 1096.92 225.839  21
   5   1  -7 906.169 235.480  21
   5   1  -6 52.6648 124.866  21
   5   1  -5-171.566 134.860  21
   5   1  -4 14409.4 829.040  21
   5   1  -3 9595.62 658.142  21
   5   1  -2 28789.4 1085.62  21
   5   1  -1 712.284 191.969  21
   5   1   5 2581.34 376.654  10
   5   1   6 1699.63 292.631  10
   5   1   7 3289.44 340.309  10
   5   2  -9 4687.69 374.791  21
   5   2  -8 1233.69 227.931  21
   5   2  -7 7509.41 580.331  21
   5   2  -6 271.626 147.547  21
   5   2  -5 364.187 161.390  21
   5   2  -4 34783.8 1207.70  21
   5   2  -3 571.115 169.431  21
   5   2   4 1430.28 291.540  10
   5   2   5 1902.88 317.618  10
   5   2   6 878.244 199.786  10
   5   3  -9 375.451 114.730  21
   5   3  -8 1208.06 220.293  21
   5   3  -7 4370.74 419.643  21
   5   3  -6 5289.82 462.326  21
   5   3   3 6312.30 570.539  10
   5   3   4 90.6508 111.017  10
   5   3   5 3331.15 360.969  10
   5   4   2 5811.03 538.670  10
   6  -3   0 437.969 135.327  21
   6  -2  -2 153.540 102.152  21
   6  -2  -1 1760.86 242.156  21
   6  -2   0 2448.35 276.707  21
   6  -1  -3 2201.57 253.183  21
   6  -1  -2 315.066 117.866  21
   6  -1  -1 5831.26 405.896  21
   6  -1   0 3216.23 299.577  21
   6  -1   2 596.507 165.258  10
   6  -1   3-164.223 99.6577  10
   6   0  -3 524.586 137.403  21
   6   0  -2 6811.27 420.722  21
   6   0  -1 1138.86 179.195  21
   6   0   2 436.272 151.930  10
   6   0   3 1717.82 242.615  10
   6   1   2 1599.96 238.374  10
   0   0   0    0.00    0.00   0
TITL YBN-177-B in P-1
REM P1 (#1 in standard setting)
CELL 1.54184   4.999486  10.839190  12.730129 108.1496  91.9677  90.3099
ZERR    2.00   0.000340   0.000409   0.000652   0.0039   0.0049   0.0043
LATT -1
SFAC C H N O Br
UNIT 28.00 28.00 2.00 2.00 2.00
TREF
HKLF 4
END
;
_shelx_hkl_checksum              27364
_shelx_res_file
;
TITL cg177
CELL 1.54184 4.9995 10.8392 12.7301 108.149 91.968 90.310
ZERR 2 0.0003 0.0004 0.0007 0.004 0.005 0.004
LATT 1
SFAC C H N O Br
UNIT 30 28 2 2 2
OMIT -2 180.0
L.S. 20
PLAN  15
TEMP -100
SIZE 0.32 0.18 0.08
ACTA
BOND $H
CONF
HTAB
fmap 2
WGHT    0.069700
FVAR       7.77940
C1    1    0.297745    0.763751    0.550950    11.00000    0.02629    0.02630 =
         0.03374    0.00806    0.00293    0.00115
O1    4    0.059433    0.734609    0.530925    11.00000    0.02311    0.03639 =
         0.04887   -0.00296    0.00375    0.00007
N1    3    0.493200    0.703508    0.484482    11.00000    0.02193    0.02981 =
         0.03738    0.00830    0.00129   -0.00069
AFIX  43
H1    2    0.657746    0.733167    0.503745    11.00000   -1.20000
AFIX   0
C2    1    0.398427    0.869199    0.655379    11.00000    0.02768    0.03610 =
         0.03999    0.00182   -0.00063    0.00109
AFIX  23
H2A   2    0.463499    0.827724    0.710375    11.00000   -1.20000
H2B   2    0.551917    0.915789    0.637026    11.00000   -1.20000
AFIX   0
C11   1    0.458387    0.596976    0.386581    11.00000    0.02388    0.02667 =
         0.03215    0.01007    0.00254    0.00408
C12   1    0.621396    0.591024    0.299014    11.00000    0.02533    0.03392 =
         0.03920    0.01541    0.00415   -0.00093
AFIX  43
H12   2    0.747200    0.659531    0.306579    11.00000   -1.20000
AFIX   0
C13   1    0.607251    0.488570    0.200762    11.00000    0.03057    0.03697 =
         0.03597    0.01542    0.00588    0.00780
C14   1    0.419104    0.390636    0.193655    11.00000    0.03887    0.02534 =
         0.02853    0.00541    0.00402    0.00716
BR14  5    0.379063    0.246027    0.062402    11.00000    0.06186    0.03462 =
         0.03627    0.00200    0.00912    0.00613
C15   1    0.254323    0.394601    0.279808    11.00000    0.03752    0.02649 =
         0.03815    0.00933    0.00591   -0.00008
AFIX  43
H15   2    0.128397    0.326148    0.272266    11.00000   -1.20000
AFIX   0
C16   1    0.271995    0.497386    0.376521    11.00000    0.03372    0.02941 =
         0.03487    0.01233    0.01056    0.00258
AFIX  43
H16   2    0.158562    0.500316    0.435582    11.00000   -1.20000
AFIX   0
C17   1    0.786230    0.488339    0.107928    11.00000    0.04387    0.05982 =
         0.04002    0.01821    0.01348    0.00377
AFIX 137
H17A  2    0.868452    0.403075    0.079347    11.00000   -1.50000
H17B  2    0.926631    0.555203    0.135550    11.00000   -1.50000
H17C  2    0.680071    0.506590    0.048477    11.00000   -1.50000
AFIX   0
C21   1    0.187554    0.966075    0.706487    11.00000    0.02839    0.02538 =
         0.03422    0.00351   -0.00009   -0.00267
C22   1    0.082555    0.969499    0.806869    11.00000    0.04357    0.03345 =
         0.03370    0.00969   -0.00075   -0.00081
AFIX  43
H22   2    0.143838    0.910006    0.843240    11.00000   -1.20000
AFIX   0
C23   1   -0.111725    1.059171    0.854969    11.00000    0.04688    0.04390 =
         0.02985    0.00201    0.00760    0.00040
AFIX  43
H23   2   -0.181638    1.060644    0.923796    11.00000   -1.20000
AFIX   0
C24   1   -0.202205    1.145460    0.802882    11.00000    0.04046    0.03070 =
         0.04721   -0.00078    0.00483    0.00355
AFIX  43
H24   2   -0.333988    1.206922    0.835665    11.00000   -1.20000
AFIX   0
C25   1   -0.100081    1.142258    0.702312    11.00000    0.04449    0.02695 =
         0.05091    0.01373   -0.00222    0.00057
AFIX  43
H25   2   -0.163099    1.201288    0.665776    11.00000   -1.20000
AFIX   0
C26   1    0.093296    1.053473    0.654830    11.00000    0.03887    0.03560 =
         0.03641    0.01267    0.00583   -0.00397
AFIX  43
H26   2    0.162407    1.052357    0.585956    11.00000   -1.20000
AFIX   0
HKLF 4
REM  cg177
REM R1 =  0.0418 for    2276 Fo > 4sig(Fo)  and  0.0453 for all    2515 data
REM    164 parameters refined using      0 restraints
END
WGHT      0.0696      0.0000
REM Instructions for potential hydrogen bonds
EQIV $1 x+1, y, z
HTAB N1 O1_$1
REM Highest difference peak  0.724,  deepest hole -0.453,  1-sigma level  0.091
Q1    1   0.4015  0.2805  0.1400  11.00000  0.05    0.72
Q2    1   0.3494  0.2193 -0.0091  11.00000  0.05    0.71
Q3    1   0.5293  0.2546  0.0247  11.00000  0.05    0.47
Q4    1   0.0925  0.9601  0.7538  11.00000  0.05    0.37
Q5    1   0.9976  0.2362  0.0621  11.00000  0.05    0.36
Q6    1   0.7489  0.2876  0.0449  11.00000  0.05    0.34
Q7    1   0.4072  0.3968  0.2492  11.00000  0.05    0.34
Q8    1   0.5887  0.5484  0.2435  11.00000  0.05    0.28
Q9    1   0.7082  0.6404  0.0250  11.00000  0.05    0.28
Q10   1  -0.0357  1.0161  0.8274  11.00000  0.05    0.26
Q11   1   0.4238  0.7373  0.5050  11.00000  0.05    0.26
Q12   1   0.2870  0.4319  0.3367  11.00000  0.05    0.26
Q13   1   0.3490  0.8099  0.6227  11.00000  0.05    0.25
Q14   1  -0.0961  1.1484  0.7583  11.00000  0.05    0.25
Q15   1   0.3645  0.5511  0.3730  11.00000  0.05    0.25
;
_shelx_res_checksum              95529
_shelxl_version_number           2.014
loop_
_space_group_symop_operation_xyz
'x, y, z'
'-x, -y, -z'
loop_
_atom_site_type_symbol
_atom_site_label
_atom_site_fract_x
_atom_site_fract_y
_atom_site_fract_z
_atom_site_U_iso_or_equiv
_atom_site_adp_type
_atom_site_calc_flag
_atom_site_occupancy
C C1 0.2977(5) 0.7638(2) 0.5510(2) 0.0290(5) Uani d 1
O O1 0.0594(4) 0.7346(2) 0.53092(18) 0.0398(5) Uani d 1
N N1 0.4932(4) 0.7035(2) 0.48448(19) 0.0302(5) Uani d 1
H H1 0.6577 0.7332 0.5037 0.036 Uiso calc 1
C C2 0.3984(5) 0.8692(3) 0.6554(2) 0.0369(6) Uani d 1
H H2A 0.4635 0.8277 0.7104 0.044 Uiso calc 1
H H2B 0.5519 0.9158 0.6370 0.044 Uiso calc 1
C C11 0.4584(5) 0.5970(2) 0.3866(2) 0.0273(5) Uani d 1
C C12 0.6214(5) 0.5910(3) 0.2990(2) 0.0318(5) Uani d 1
H H12 0.7472 0.6595 0.3066 0.038 Uiso calc 1
C C13 0.6073(5) 0.4886(3) 0.2008(2) 0.0334(5) Uani d 1
C C14 0.4191(5) 0.3906(3) 0.1937(2) 0.0315(5) Uani d 1
Br Br14 0.37906(7) 0.24603(3) 0.06240(2) 0.04614(15) Uani d 1
C C15 0.2543(6) 0.3946(3) 0.2798(2) 0.0341(6) Uani d 1
H H15 0.1284 0.3261 0.2723 0.041 Uiso calc 1
C C16 0.2720(5) 0.4974(3) 0.3765(2) 0.0319(5) Uani d 1
H H16 0.1586 0.5003 0.4356 0.038 Uiso calc 1
C C17 0.7862(7) 0.4883(4) 0.1079(3) 0.0470(7) Uani d 1
H H17A 0.8685 0.4031 0.0793 0.071 Uiso calc 1
H H17B 0.9266 0.5552 0.1356 0.071 Uiso calc 1
H H17C 0.6801 0.5066 0.0485 0.071 Uiso calc 1
C C21 0.1876(5) 0.9661(3) 0.7065(2) 0.0307(5) Uani d 1
C C22 0.0826(6) 0.9695(3) 0.8069(2) 0.0371(6) Uani d 1
H H22 0.1438 0.9100 0.8432 0.045 Uiso calc 1
C C23 -0.1117(6) 1.0592(3) 0.8550(2) 0.0422(7) Uani d 1
H H23 -0.1816 1.0606 0.9238 0.051 Uiso calc 1
C C24 -0.2022(6) 1.1455(3) 0.8029(3) 0.0423(7) Uani d 1
H H24 -0.3340 1.2069 0.8357 0.051 Uiso calc 1
C C25 -0.1001(6) 1.1423(3) 0.7023(3) 0.0405(6) Uani d 1
H H25 -0.1631 1.2013 0.6658 0.049 Uiso calc 1
C C26 0.0933(6) 1.0535(3) 0.6548(2) 0.0365(6) Uani d 1
H H26 0.1624 1.0524 0.5860 0.044 Uiso calc 1
loop_
_atom_site_aniso_label
_atom_site_aniso_U_11
_atom_site_aniso_U_22
_atom_site_aniso_U_33
_atom_site_aniso_U_12
_atom_site_aniso_U_13
_atom_site_aniso_U_23
C1 0.0263(12) 0.0263(12) 0.0337(13) 0.0012(9) 0.0029(9) 0.0081(10)
O1 0.0231(9) 0.0364(11) 0.0489(11) 0.0001(7) 0.0038(8) -0.0030(9)
N1 0.0219(9) 0.0298(11) 0.0374(11) -0.0007(8) 0.0013(8) 0.0083(9)
C2 0.0277(12) 0.0361(14) 0.0400(14) 0.0011(11) -0.0006(11) 0.0018(12)
C11 0.0239(11) 0.0267(12) 0.0321(12) 0.0041(9) 0.0025(9) 0.0101(10)
C12 0.0253(12) 0.0339(14) 0.0392(14) -0.0009(10) 0.0041(10) 0.0154(11)
C13 0.0306(12) 0.0370(14) 0.0360(13) 0.0078(10) 0.0059(10) 0.0154(11)
C14 0.0389(14) 0.0253(12) 0.0285(12) 0.0072(10) 0.0040(10) 0.0054(10)
Br14 0.0619(3) 0.0346(2) 0.0363(2) 0.00613(14) 0.00912(14) 0.00200(13)
C15 0.0375(14) 0.0265(13) 0.0382(14) -0.0001(10) 0.0059(11) 0.0093(11)
C16 0.0337(13) 0.0294(13) 0.0349(13) 0.0026(10) 0.0106(10) 0.0123(11)
C17 0.0439(16) 0.060(2) 0.0400(16) 0.0038(14) 0.0135(13) 0.0182(14)
C21 0.0284(12) 0.0254(12) 0.0342(13) -0.0027(10) -0.0001(10) 0.0035(10)
C22 0.0436(15) 0.0334(14) 0.0337(14) -0.0008(11) -0.0008(11) 0.0097(11)
C23 0.0469(17) 0.0439(17) 0.0299(13) 0.0004(13) 0.0076(12) 0.0020(12)
C24 0.0405(15) 0.0307(14) 0.0472(16) 0.0035(11) 0.0048(12) -0.0008(12)
C25 0.0445(15) 0.0270(14) 0.0509(17) 0.0006(11) -0.0022(13) 0.0137(12)
C26 0.0389(14) 0.0356(14) 0.0364(14) -0.0040(11) 0.0058(11) 0.0127(11)
loop_
_atom_type_symbol
_atom_type_description
_atom_type_scat_dispersion_real
_atom_type_scat_dispersion_imag
_atom_type_scat_source
C C 0.0181 0.0091 'International Tables Vol C Tables 4.2.6.8 and 6.1.1.4'
H H 0.0000 0.0000 'International Tables Vol C Tables 4.2.6.8 and 6.1.1.4'
N N 0.0311 0.0180 'International Tables Vol C Tables 4.2.6.8 and 6.1.1.4'
O O 0.0492 0.0322 'International Tables Vol C Tables 4.2.6.8 and 6.1.1.4'
Br Br -0.6763 1.2805 'International Tables Vol C Tables 4.2.6.8 and 6.1.1.4'
loop_
_geom_angle_atom_site_label_1
_geom_angle_atom_site_label_2
_geom_angle_atom_site_label_3
_geom_angle
O1 C1 N1 123.2(2)
O1 C1 C2 122.6(2)
N1 C1 C2 114.2(2)
C1 N1 C11 126.1(2)
C1 N1 H1 117.0
C11 N1 H1 117.0
C21 C2 C1 113.3(2)
C21 C2 H2A 108.9
C1 C2 H2A 108.9
C21 C2 H2B 108.9
C1 C2 H2B 108.9
H2A C2 H2B 107.7
C12 C11 C16 119.4(2)
C12 C11 N1 118.2(2)
C16 C11 N1 122.3(2)
C11 C12 C13 122.4(2)
C11 C12 H12 118.8
C13 C12 H12 118.8
C12 C13 C14 116.6(2)
C12 C13 C17 120.1(3)
C14 C13 C17 123.3(3)
C15 C14 C13 122.0(3)
C15 C14 Br14 117.6(2)
C13 C14 Br14 120.4(2)
C16 C15 C14 120.4(2)
C16 C15 H15 119.8
C14 C15 H15 119.8
C15 C16 C11 119.2(2)
C15 C16 H16 120.4
C11 C16 H16 120.4
C13 C17 H17A 109.5
C13 C17 H17B 109.5
H17A C17 H17B 109.5
C13 C17 H17C 109.5
H17A C17 H17C 109.5
H17B C17 H17C 109.5
C26 C21 C22 118.4(3)
C26 C21 C2 121.2(3)
C22 C21 C2 120.4(3)
C21 C22 C23 120.8(3)
C21 C22 H22 119.6
C23 C22 H22 119.6
C24 C23 C22 120.0(3)
C24 C23 H23 120.0
C22 C23 H23 120.0
C23 C24 C25 119.6(3)
C23 C24 H24 120.2
C25 C24 H24 120.2
C26 C25 C24 120.3(3)
C26 C25 H25 119.9
C24 C25 H25 119.9
C25 C26 C21 120.8(3)
C25 C26 H26 119.6
C21 C26 H26 119.6
loop_
_geom_bond_atom_site_label_1
_geom_bond_atom_site_label_2
_geom_bond_distance
C1 O1 1.228(3)
C1 N1 1.348(3)
C1 C2 1.526(4)
N1 C11 1.415(3)
N1 H1 0.8800
C2 C21 1.507(4)
C2 H2A 0.9900
C2 H2B 0.9900
C11 C12 1.389(4)
C11 C16 1.395(4)
C12 C13 1.389(4)
C12 H12 0.9500
C13 C14 1.394(4)
C13 C17 1.506(4)
C14 C15 1.384(4)
C14 Br14 1.905(3)
C15 C16 1.379(4)
C15 H15 0.9500
C16 H16 0.9500
C17 H17A 0.9800
C17 H17B 0.9800
C17 H17C 0.9800
C21 C26 1.387(4)
C21 C22 1.388(4)
C22 C23 1.394(4)
C22 H22 0.9500
C23 C24 1.375(5)
C23 H23 0.9500
C24 C25 1.385(5)
C24 H24 0.9500
C25 C26 1.383(4)
C25 H25 0.9500
C26 H26 0.9500
loop_
_geom_hbond_atom_site_label_D
_geom_hbond_atom_site_label_H
_geom_hbond_atom_site_label_A
_geom_hbond_site_symmetry_A
_geom_hbond_distance_DH
_geom_hbond_distance_HA
_geom_hbond_distance_DA
_geom_hbond_angle_DHA
_geom_hbond_publ_flag
N1 H1 O1 1_655 0.88 2.03 2.868(3) 160 no
C2 H2B Cg1 1_655 0.99 2.78 3.546(3) 135 no
loop_
_geom_torsion_atom_site_label_1
_geom_torsion_atom_site_label_2
_geom_torsion_atom_site_label_3
_geom_torsion_atom_site_label_4
_geom_torsion
O1 C1 N1 C11 -2.7(4)
C2 C1 N1 C11 175.6(2)
O1 C1 C2 C21 -22.5(4)
N1 C1 C2 C21 159.1(2)
C1 N1 C11 C12 144.2(3)
C1 N1 C11 C16 -37.4(4)
C16 C11 C12 C13 -0.3(4)
N1 C11 C12 C13 178.2(2)
C11 C12 C13 C14 0.1(4)
C11 C12 C13 C17 179.1(3)
C12 C13 C14 C15 -0.1(4)
C17 C13 C14 C15 -178.9(3)
C12 C13 C14 Br14 179.40(18)
C17 C13 C14 Br14 0.5(4)
C13 C14 C15 C16 0.1(4)
Br14 C14 C15 C16 -179.4(2)
C14 C15 C16 C11 -0.2(4)
C12 C11 C16 C15 0.3(4)
N1 C11 C16 C15 -178.1(2)
C1 C2 C21 C26 -69.4(3)
C1 C2 C21 C22 110.5(3)
C26 C21 C22 C23 -0.4(4)
C2 C21 C22 C23 179.7(3)
C21 C22 C23 C24 0.2(4)
C22 C23 C24 C25 0.3(5)
C23 C24 C25 C26 -0.5(5)
C24 C25 C26 C21 0.2(4)
C22 C21 C26 C25 0.2(4)
C2 C21 C26 C25 -179.9(3)
