#------------------------------------------------------------------------------
#$Date: 2019-12-26 21:22:11 +0200 (Thu, 26 Dec 2019) $
#$Revision: 246100 $
#$URL: file:///home/coder/svn-repositories/cod/cif/2/31/17/2311754.cif $
#------------------------------------------------------------------------------
#
# This file is available in the Crystallography Open Database (COD),
# http://www.crystallography.net/. The original data for this entry
# were provided by IUCr Journals, http://journals.iucr.org/.
#
# The file may be used within the scientific community so long as
# proper attribution is given to the journal article from which the
# data were obtained.
#
data_2311754
loop_
_publ_author_name
'Ende, Martin'
'Effenberger, Herta'
'Miletich, Ronald'
_publ_section_title
;
 Evolution of the \a-BaMg(CO<sub>3</sub>)<sub>2</sub> low-temperature
 superstructure and the tricritical nature of its \a-\b phase transition.
;
_journal_issue                   'Pt 5'
_journal_name_full
'Acta crystallographica Section B, Structural science, crystal engineering and materials'
_journal_page_first              827
_journal_page_last               835
_journal_paper_doi               10.1107/S2052520617009295
_journal_volume                  73
_journal_year                    2017
_chemical_formula_sum            'C6 Ba3 Mg3 O18'
_chemical_formula_weight         845.01
_space_group_crystal_system      trigonal
_space_group_IT_number           166
_space_group_name_Hall           '-R 3 2"'
_space_group_name_H-M_alt        'R -3 m :H'
_audit_creation_method           SHELXL-2014/7
_cell_angle_alpha                90
_cell_angle_beta                 90
_cell_angle_gamma                120
_cell_formula_units_Z            1
_cell_length_a                   5.0214(2)
_cell_length_b                   5.0214(2)
_cell_length_c                   16.7931(6)
_cell_measurement_reflns_used    5028
_cell_measurement_temperature    380(2)
_cell_measurement_theta_max      45
_cell_measurement_theta_min      1.5
_cell_volume                     366.70(2)
_computing_structure_refinement  'SHELXL-2014/7 (Sheldrick, 2014)'
_diffrn_ambient_temperature      380(2)
_diffrn_measured_fraction_theta_full 0.990
_diffrn_measured_fraction_theta_max 0.993
_diffrn_measurement_device_type  StoeStadiVari
_diffrn_radiation_type           MoK\a
_diffrn_radiation_wavelength     0.71073
_diffrn_reflns_av_R_equivalents  0.0293
_diffrn_reflns_av_unetI/netI     0.0191
_diffrn_reflns_Laue_measured_fraction_full 0.990
_diffrn_reflns_Laue_measured_fraction_max 0.993
_diffrn_reflns_limit_h_max       10
_diffrn_reflns_limit_h_min       -9
_diffrn_reflns_limit_k_max       9
_diffrn_reflns_limit_k_min       -10
_diffrn_reflns_limit_l_max       17
_diffrn_reflns_limit_l_min       -32
_diffrn_reflns_number            5028
_diffrn_reflns_point_group_measured_fraction_full 0.990
_diffrn_reflns_point_group_measured_fraction_max 0.993
_diffrn_reflns_theta_full        25.242
_diffrn_reflns_theta_max         45.540
_diffrn_reflns_theta_min         3.640
_exptl_absorpt_coefficient_mu    8.208
_exptl_absorpt_correction_T_max  0.8
_exptl_absorpt_correction_T_min  0.7
_exptl_absorpt_correction_type   numerical
_exptl_absorpt_process_details   '(Stoe & Cie GmbH 2016)'
_exptl_crystal_density_diffrn    3.826
_exptl_crystal_description       prismatic
_exptl_crystal_F_000             384
_exptl_crystal_size_max          0.060
_exptl_crystal_size_mid          0.030
_exptl_crystal_size_min          0.030
_refine_diff_density_max         1.220
_refine_diff_density_min         -0.564
_refine_diff_density_rms         0.187
_refine_ls_extinction_method     none
_refine_ls_goodness_of_fit_ref   1.144
_refine_ls_hydrogen_treatment    undef
_refine_ls_matrix_type           full
_refine_ls_number_parameters     14
_refine_ls_number_reflns         427
_refine_ls_number_restraints     0
_refine_ls_restrained_S_all      1.144
_refine_ls_R_factor_all          0.0148
_refine_ls_R_factor_gt           0.0148
_refine_ls_shift/su_max          0.000
_refine_ls_shift/su_mean         0.000
_refine_ls_structure_factor_coef Fsqd
_refine_ls_weighting_details
'w=1/[\s^2^(Fo^2^)+(0.0098P)^2^+0.8518P] where P=(Fo^2^+2Fc^2^)/3'
_refine_ls_weighting_scheme      calc
_refine_ls_wR_factor_gt          0.0303
_refine_ls_wR_factor_ref         0.0303
_reflns_Friedel_coverage         0.000
_reflns_number_gt                427
_reflns_number_total             427
_reflns_threshold_expression     'I > 2\s(I)'
_cod_data_source_file            xk5041sup1.cif
_cod_data_source_block           norse_380
_cod_original_cell_volume        366.70(3)
_cod_original_sg_symbol_H-M      'R -3 m'
_cod_database_code               2311754
_shelx_shelxl_version_number     2014/7
_shelx_space_group_comment
;
The symmetry employed for this shelxl refinement is uniquely defined
by the following loop, which should always be used as a source of
symmetry information in preference to the above space-group names.
They are only intended as comments.
;
_shelx_estimated_absorpt_t_min   0.639
_shelx_estimated_absorpt_t_max   0.791
_shelx_res_file
;

    norse_380_a.res created by SHELXL-2014/7


TITL norse_440_a.res in R-3m
REM Old TITL norse_440 in R3m

REM SHELXT solution in R-3m
REM R1 0.034,  Rweak 0.143,  Alpha 0.055,  Orientation as input
REM Formula found by SHELXT:  C2 O6 Mg Ba

CELL  0.71073   5.0214   5.0214  16.7931   90.000   90.000  120.000
ZERR    1.000   0.0002   0.0002   0.0006    0.000    0.000    0.000
LATT  3
SYMM -Y, X-Y, Z
SYMM -X+Y, -X, Z
SYMM Y, X, -Z
SYMM X-Y, -Y, -Z
SYMM -X, -X+Y, -Z
SFAC C O MG BA
UNIT 6 18 3 3
L.S. 20
TEMP 106.85
SIZE 0.06 0.03 0.03
BOND $H
LIST 4
ACTA
FMAP 2
PLAN 20
REM EXTI    0.000000
WGHT    0.009800    0.851800
FVAR       0.44067
BA1   4    0.000000    0.000000    0.500000    10.08333    0.01179    0.01179 =
         0.01654    0.00000    0.00000    0.00590
MG2   3    0.000000    0.000000    0.000000    10.08333    0.00900    0.00900 =
         0.01374    0.00000    0.00000    0.00450
O3    2    0.853619    0.707238    0.257783    10.50000    0.03561    0.00998 =
         0.02634    0.00419    0.00209    0.00499
C4    1    0.000000    0.000000    0.260774    10.16667    0.01067    0.01067 =
         0.01132    0.00000    0.00000    0.00533
HKLF 4

REM  norse_440_a.res in R-3m
REM R1 =  0.0148 for     427 Fo > 4sig(Fo)  and  0.0148 for all     427 data
REM     14 parameters refined using      0 restraints

END

WGHT      0.0098      0.8518

REM Highest difference peak  1.220,  deepest hole -0.564,  1-sigma level  0.187
Q1    1   0.0000  0.0000  0.4639  10.16667  0.05    0.54
Q2    1   0.7980  0.5961  0.2817  10.50000  0.05    0.42
Q3    1   0.7047  0.7287  0.3050  11.00000  0.05    0.40
Q4    1   0.8446  0.6892  0.3075  10.50000  0.05    0.37
Q5    1   0.9479  0.4739  0.2401  10.50000  0.05    0.34
Q6    1   0.6326  0.7087  0.2128  11.00000  0.05    0.31
Q7    1   0.6622  0.6484  0.2400  11.00000  0.05    0.30
Q8    1   0.9242  0.8484  0.2589  10.50000  0.05    0.29
Q9    1   0.6131  0.6150  0.2705  11.00000  0.05    0.29
Q10   1  -0.3112 -0.1556  0.0203  10.50000  0.05    0.29
Q11   1   0.6683  0.5907  0.2984  11.00000  0.05    0.28
Q12   1  -0.1574  0.1574  0.4591  10.50000  0.05    0.28
Q13   1   0.5701  0.6902  0.2541  11.00000  0.05    0.28
Q14   1   1.1738  0.8262  0.3118  10.50000  0.05    0.28
Q15   1   1.0366  0.5183  0.2723  10.50000  0.05    0.27
Q16   1   0.1484  0.2968  0.4705  10.50000  0.05    0.27
Q17   1   0.6208  0.7016  0.3178  11.00000  0.05    0.25
Q18   1   0.6800  0.8400  0.2808  10.50000  0.05    0.24
Q19   1   0.6706  0.8353  0.2347  10.50000  0.05    0.23
Q20   1   1.2363  0.7637  0.2901  10.50000  0.05    0.21
;
_shelx_res_checksum              39742
_shelx_hkl_file
;
   4  -4   8  398.20   15.00   0
   1  -1  -7 1110.60   22.58   0
   3  -3   9  305.98   14.78   0
  -1   2   0 1568.41   25.48   0
   3  -2 -13  458.77   12.07   0
   2   0 -16  563.16   15.89   0
   4  -4  -1 1370.38   18.20   0
   4  -4   2 1220.66   17.94   0
   6  -5  -1  286.53   10.16   0
   0   0   3  544.11   33.44   0
   2  -1 -12 1810.11   24.02   0
   1   0 -11  438.89   15.68   0
   2  -2  -5  184.68   10.22   0
   4  -2 -15  190.59    9.52   0
   1  -1  -4 9999.99   68.61   0
   3  -3   0 2566.31   26.46   0
   3  -2 -10 1343.14   18.21   0
   4  -3  -8 1954.44   19.89   0
   5  -4  -3  336.05    9.83   0
  -1  -1 -15  565.76   12.48   0
   0  -3 -18  690.14   13.50   0
   1  -1   5 3857.56   38.80   0
  -1   0 -10 1499.28   20.20   0
   0  -1 -11  464.51   12.45   0
   0   0   3 1746.77   39.26   0
  -3   0 -15  490.35   10.92   0
  -5   2  -7  319.93   10.26   0
  -2   1  -6 4064.55   35.61   0
   1  -3 -14 1224.86   18.55   0
  -5   1 -12  570.63   11.91   0
  -2  -1 -16 1132.13   15.23   0
   1  -4 -16  769.95   14.96   0
   0   0   6  285.30   12.33   0
  -4   2  -3  784.44   17.17   0
   2  -4 -12 1708.54   25.19   0
  -6   2  -5  286.89   10.35   0
   4  -3   4 2642.86   24.28   0
   2  -2  -2 4874.59   37.50   0
   3  -6  -6  639.56   11.47   0
   5  -4   6  864.62   13.89   0
   3  -2   2 3036.93   29.15   0
   1  -5  -9  329.35    9.75   0
   4  -5  -3  342.99    8.71   0
   4  -4  -1 1340.13   16.24   0
   2  -5  -8 1626.46   18.13   0
   0   1   8 5253.61   46.79   0
   5  -5   1  290.08    8.08   0
  -3   0  -3 1923.84   27.44   0
   3  -4  -5 1043.67   14.41   0
   3  -3  -3 1984.32   20.72   0
   3  -1  10 1415.59   31.81   0
   0  -2  -7  311.67   12.24   0
  -1   1   4 9926.81   59.92   0
   5  -4   3  787.17   13.01   0
   1  -3  -8 1926.08   22.41   0
  -3  -1  -5 1001.18   24.72   0
   6  -5   5  398.85    9.80   0
   3  -6  -9  358.50    9.36   0
   5  -5  -2 1049.32   13.36   0
   4  -5  -6 1029.20   13.60   0
  -1  -2  -8 1925.63   35.57   0
   1  -4 -10  801.53   14.44   0
   2  -3  -7 1526.47   18.83   0
   4  -4  -4 1408.99   16.17   0
   2  -4  -9  974.61   14.75   0
   5  -3   8 1682.97   20.84   0
   4  -2   6  747.16   15.77   0
   3  -2  -1  629.06   13.13   0
   6  -5   2  628.78   11.30   0
   3  -4  -8 1910.28   18.98   0
   3  -1   7 1597.88   29.65   0
  -2   0  -2 4689.43   48.94   0
   2  -5 -11  237.19    8.69   0
   2  -1   0 3894.93   38.92   0
   4  -3  -2 1229.83   15.78   0
   5  -3   5  700.42   13.30   0
   0  -1  -5 3785.12   49.10   0
   2  -2  -5  175.68    8.00   0
   6  -4   7  228.69    8.66   0
   3  -3  -6 1912.98   19.60   0
   5  -5  -5  631.31   10.71   0
   4  -2   3  789.25   14.96   0
   5  -4  -3  325.60    8.46   0
   4  -4  -7  283.69    8.14   0
   6  -4   4  771.69   12.92   0
   5  -3   2  658.21   12.68   0
   1  -1  -4 9303.79   61.61   0
   3  -1   4 3293.01   36.75   0
   6  -4   1  530.67   10.95   0
   3  -2  -4 3204.13   26.75   0
   4  -3  -5 1028.76   14.21   0
   5  -5  -8  589.10   10.31   0
   2  -4 -12 1646.96   18.76   0
   1  -3 -11  431.47   11.54   0
  -1   0  -1 1940.94   44.05   0
   5  -4  -6 1024.17   13.34   0
   5  -3  -1  742.90   12.44   0
   1  -4 -13  556.28   12.95   0
   4  -4 -10 1162.70   14.76   0
   6  -4  -2  761.43   12.42   0
   2  -2  -8 2919.63   26.39   0
   2  -1  -3 1985.14   25.70   0
   0  -3 -12  975.38   18.98   0
  -2   0   1 4972.56   40.27   0
   4  -3  -8 1978.89   19.21   0
   5  -3  -4 2035.72   19.51   0
   0  -2 -10 3176.05   34.85   0
   4  -2  -3  754.90   13.28   0
   5  -4  -9  652.56   11.24   0
   3  -2  -7 1586.34   18.75   0
   5  -2   7  345.73   12.05   0
   6  -3   3  411.57   10.63   0
   3  -4 -14  610.69   11.76   0
   5  -2   4 2172.71   24.69   0
   2  -4 -15  160.04    7.41   0
   2  -3 -13  466.06   10.89   0
   3  -3 -12 1412.87   16.93   0
   6  -3   0  974.55   14.67   0
   5  -3  -7  338.06    8.84   0
   1   0  10 1588.55   29.04   0
   5  -2   1  782.26   14.56   0
  -2  -1  -4 3186.93   44.80   0
   1  -1  -7 1660.72   24.27   0
   3  -1  -2 2974.51   28.49   0
   4  -3 -11  342.75    9.52   0
   4  -2  -6  731.93   12.70   0
   1  -3 -14 1185.17   18.17   0
   6  -3  -3  422.31   10.16   0
   2  -2 -11 1769.10   20.09   0
   2  -1  -6 3964.35   32.73   0
   5  -2  -2  657.60   12.78   0
   3  -2 -10 1407.97   17.05   0
  -1   0   2 2546.43   35.59   0
   1  -2 -12 1660.78   21.10   0
   6  -3  -6  624.67   11.21   0
  -3   2 -20  384.49   11.02   0
  -2  -1   8 1869.61   51.85   0
  -2  -1 -10 1436.13   18.26   0
  -3   1 -19  262.19    9.72   0
  -1   1 -14 1236.60   20.64   0
  -1   2 -15  535.38   15.94   0
  -1  -1  -6 3898.78   33.72   0
   0   1   5 3743.30   36.21   0
   0   0  -3 1624.73   45.01   0
  -2   1 -18  795.36   14.89   0
  -4  -2  -2  796.59   14.18   0
  -3  -2  -4 2060.99   21.12   0
  -3  -1 -14  652.84   11.91   0
  -3   0 -18  451.64   11.27   0
  -4  -2  -5  294.42    9.68   0
  -1   0 -13 1089.49   17.40   0
  -4  -2   1  538.24   12.71   0
  -3  -2   2  652.24   14.52   0
  -2  -1 -13  499.58   11.53   0
  -1  -1  -9 1183.64   18.27   0
  -2   0 -17  242.78    9.35   0
  -2  -2   0 4090.77   34.16   0
  -2  -2  -6  737.09   13.45   0
   0   0  -6  254.05   14.67   0
  -2  -2  -9 1018.52   15.49   0
  -1   0   8 4962.59   56.22   0
  -1  -1 -12 1731.28   20.35   0
   0   1   2 2466.86   35.73   0
  -3  -2   5  672.53   16.53   0
  -2  -2   3  767.65   17.67   0
  -1   1 -17  801.33   16.68   0
  -1   0 -16 1574.26   20.44   0
  -2  -2 -12 1794.72   18.71   0
  -2   1 -21  263.11    9.70   0
   0   1 -10 1379.10   32.42   0
  -2   0 -20  700.49   13.40   0
  -1  -2  -5 1982.41   22.54   0
  -1  -2  -2 2933.93   29.76   0
  -1  -2  -8 2056.69   22.12   0
  -3  -3  -6  661.01   12.65   0
  -2  -2 -15  172.35    7.55   0
  -2  -1 -19  281.31    9.50   0
  -3  -3  -3  409.30   10.95   0
  -1  -2 -11  430.03   10.72   0
   0  -1  -5 3750.44   38.98   0
   0   2  -5  161.05   12.68   0
  -3  -3   0  970.22   16.04   0
   0  -1  -8 4952.93   39.89   0
  -1   0 -19  235.28    9.48   0
   0   0 -12 4484.66   40.10   0
  -2  -3  -2  657.97   13.57   0
  -2  -3 -11  261.40    9.11   0
  -1  -2 -14 1243.42   16.16   0
  -1  -1 -18  797.66   14.12   0
   0  -1 -11  457.12   12.58   0
   0  -1  -2 2348.61   36.88   0
   0   1  -1 1844.62   40.85   0
  -2  -3   1  731.09   15.04   0
  -2   0  10 3137.76   42.61   0
  -1  -3  -7  640.04   12.96   0
   0   1 -13 1067.11   25.19   0
  -1  -3 -10  874.56   13.75   0
   0  -2  -7  314.21   10.39   0
   0  -1 -14 1249.30   18.56   0
   0   0 -15  165.49    9.57   0
  -1  -3 -13  583.27   12.03   0
   0  -2 -10 3388.70   28.33   0
  -1  -1 -21  269.14    9.71   0
   0  -2  -4 2118.49   25.81   0
  -1  -3  -1  830.65   15.78   0
   0  -2 -13 1191.28   16.97   0
  -2  -4  -4  779.59   13.49   0
   0  -1 -17  844.70   15.43   0
  -1  -2   4 3126.14   42.35   0
   0  -3  -9 1286.12   17.33   0
   0  -2 -16  603.78   12.20   0
  -2  -3   4 2026.24   27.32   0
  -1  -4  -9  361.57    9.69   0
   0  -3 -12 1009.61   14.88   0
   0  -3  -6 2504.21   24.12   0
   0  -2  -1 5163.13   44.57   0
   0   0 -18  512.72   13.44   0
   0   1 -16 1536.71   28.31   0
  -2  -4  -1  553.39   12.61   0
  -1  -3   2 1267.74   20.91   0
   0  -3 -15  271.39    8.67   0
  -1  -4  -3  790.11   14.34   0
   0  -2 -19  215.11    9.02   0
   0  -3  -3  493.82   12.47   0
   0  -1 -20  631.50   13.48   0
   0  -4 -11  659.33   12.07   0
   0  -4  -8 1398.74   17.46   0
   0  -4 -14  570.74   11.95   0
   0  -1   1 1750.71   42.34   0
  -1  -4   0 1354.79   19.06   0
  -1   1   4 9546.14   66.10   0
  -1  -5   4  679.67   13.41   0
   1  -3 -11  433.62   10.83   0
   1  -3  -5 2008.31   22.12   0
  -1   1   4 9558.17   66.66   0
   1  -4 -10  844.16   13.45   0
   1  -2  -9 1117.48   18.03   0
   1  -2  -6 3896.85   34.28   0
   1  -4  -4 2604.68   23.19   0
   0  -4   4 1431.33   19.59   0
   1  -3 -14 1222.73   16.45   0
   1  -2 -12 1707.83   21.52   0
   0  -5   2 1054.01   15.67   0
   1  -3  -2 3008.36   28.07   0
   1  -5  -9  334.16    9.14   0
  -1   2  -3 1967.64   28.85   0
   1  -5  -6  863.89   13.30   0
   2  -4  -9  954.01   13.20   0
   3  -5 -19   75.76    6.68   0
   3  -5 -16  615.88   11.97   0
   5  -6 -19  110.75    8.24   0
   5  -6 -13  204.41    8.27   0
   5  -6 -16  317.48   10.44   0
   6  -6  -9  222.77    8.94   0
   7  -6  -8  505.08   11.40   0
   9  -6 -12  121.42    8.22   0
   4  -5 -24  109.99    8.52   0
   6  -6 -21  113.90    8.17   0
   6  -4   1  545.84   11.34   0
   8  -6 -10  138.65    8.42   0
   3  -4  -5 1049.43   14.10   0
   5  -5  -5  633.68   11.70   0
   7  -5  -3  388.09   10.08   0
   2  -4 -18  322.24    9.66   0
   4  -5  -9  674.52   11.34   0
   5  -4   0 1325.28   16.17   0
   6  -6 -18  111.13    8.05   0
   6  -6 -15  109.97    8.79   0
   7  -6 -11  131.03    8.48   0
   2  -4 -15  163.43    7.18   0
   6  -5  -4  717.71   12.39   0
   7  -6 -20  140.73    8.58   0
   1  -3 -11  406.55    9.52   0
   5  -5 -26  121.86    8.89   0
   7  -6 -14  118.37    8.46   0
   8  -6 -16  141.95    8.46   0
   3  -4 -26  137.76    8.73   0
   4  -5 -21  183.70    9.50   0
   7  -6 -17  116.51    7.92   0
   8  -5  -5  169.51    8.18   0
   1  -3 -20  416.86   10.69   0
   2  -3  -4 3190.03   24.49   0
   4  -5 -12  604.56   11.74   0
   1  -3 -17  535.40   11.38   0
   1  -3 -14 1225.19   16.03   0
   4  -5 -15  152.29    7.46   0
   5  -5  -8  601.46   11.09   0
   0  -2 -16  592.64   12.64   0
   5  -5 -23   69.15    8.40   0
   9  -5 -10   73.42    7.14   0
   3  -4  -8 1961.10   18.30   0
   4  -4 -28   64.83    8.07   0
   7  -5  -6  348.61    9.89   0
   7  -4  -1  190.59    7.96   0
   3  -4 -23   59.32    7.78   0
   4  -4  -4 1389.54   15.64   0
   5  -3   2  630.44   12.36   0
   8  -5  -8  332.38   10.13   0
   9  -5 -13  104.83    7.50   0
   5  -5 -20  171.42    9.29   0
   5  -5 -11  203.56    8.01   0
   2  -3 -25  144.69    8.34   0
   6  -5 -22  133.75    8.65   0
   3  -4 -20  391.57   10.66   0
   3  -4 -11  350.53    9.00   0
   5  -4  -3  332.36    9.05   0
   6  -5 -10  424.41   10.60   0
   6  -4  -2  803.20   13.05   0
   7  -5  -9  136.08    7.93   0
   8  -5 -11   86.30    8.13   0
   7  -5 -21   52.46    8.00   0
   2  -3  -7 1584.34   17.44   0
   3  -4 -14  647.82   12.01   0
   4  -4 -25  125.13    8.44   0
   6  -5 -19  107.19    8.87   0
   8  -5 -17   85.70    7.93   0
   5  -4 -27   42.69    7.61   0
   6  -5 -13  185.78    8.59   0
   6  -5 -16  321.23    9.54   0
   7  -5 -18  116.39    8.41   0
   7  -5 -12  339.18    9.54   0
   4  -4  -7  294.40    8.31   0
   7  -5 -15  136.84    8.95   0
   2  -3 -22  274.06    9.44   0
   3  -3 -27   65.53    7.84   0
   7  -4  -4  455.47   10.16   0
   8  -4  -6  201.70    8.46   0
   9  -4 -11   58.01    7.41   0
   4  -4 -22  325.49    9.73   0
   4  -3 -29   78.73    8.02   0
   9  -4 -14   53.57    6.94   0
   2  -3 -10 1384.78   16.34   0
   5  -4  -6 1057.10   14.17   0
   2  -3 -19  273.97    9.21   0
   4  -4 -10 1196.63   14.66   0
   6  -4  -5  294.46    8.46   0
   6  -3   0  945.10   14.38   0
   8  -4  -9  154.33    8.10   0
   2  -3 -16 1092.96   14.97   0
   4  -4 -16  434.25   10.18   0
   6  -4 -23   83.49    8.13   0
   3  -3 -24  262.56    9.99   0
   5  -4 -21  186.29    9.24   0
   7  -4 -22   85.65    8.09   0
   7  -4  -7  297.57    8.81   0
   1  -2 -21  277.17    9.73   0
   5  -4  -9  649.88   11.77   0
   5  -3 -28   70.08    8.47   0
   8  -4 -18   95.00    7.47   0
   8  -4 -12  254.03    9.39   0
   8  -4 -15   53.07    7.91   0
   3  -3  -6 1976.90   19.05   0
   4  -3 -26  159.39    9.06   0
   7  -3  -2  537.65   11.34   0
   2  -2 -26  163.32    9.10   0
   5  -4 -18  413.12   10.26   0
   6  -4 -20  198.37    8.41   0
   7  -4 -19   89.67    8.43   0
   7  -4 -10  338.78    9.75   0
   9  -3 -12  139.29    7.67   0
   5  -4 -15  142.99    8.08   0
   5  -4 -12  582.40   11.05   0
   6  -4 -11  303.15    9.53   0
   7  -4 -16  239.99    9.61   0
   1  -2 -18  783.26   13.34   0
   3  -3 -21  203.39    8.10   0
   4  -2 -30   69.70    7.73   0
   6  -4 -17  132.04    7.69   0
   3  -2 -28  150.20    8.93   0
   6  -4 -14  371.46    9.71   0
   8  -3  -7  111.74    7.64   0
   1  -2 -15  532.20   11.24   0
   1  -2 -12 1698.16   18.80   0
   3  -3  -9  494.90   10.14   0
   4  -3 -23   58.70    6.90   0
   6  -3  -3  401.51    9.94   0
   7  -3 -23   41.24    7.85   0
   4  -3  -5 1038.27   14.18   0
   6  -3 -24   98.75    8.34   0
   5  -2 -29   77.09    8.28   0
   7  -3  -5  334.51    9.50   0
   8  -3 -10  179.62    8.46   0
   2  -2 -23  214.53    9.02   0
   3  -3 -15  500.39   10.48   0
   3  -3 -12 1556.69   16.65   0
   5  -3  -4 2010.67   19.26   0
   8  -3 -16  126.49    8.25   0
   8  -3 -13  140.77    8.36   0
   5  -3 -22  192.81    9.37   0
   7  -3 -20  106.96    8.54   0
   4  -2 -27   41.17    8.05   0
  -3  -4  -5  334.00    9.46   0
  -1  -2  -8 1977.19   19.24   0
  -6  -4   1   48.17    6.99   0
  -5  -3 -11  103.18    8.41   0
  -2  -2 -12 1760.45   18.06   0
  -2   0 -14 1007.78   14.95   0
  -1  -4   3  332.58    9.48   0
  -5  -4  -7   61.77    8.22   0
  -6  -3 -12  135.82    9.45   0
  -3  -4  -8  365.24    9.76   0
  -1  -4   0 1326.76   15.93   0
  -1  -3  -7  623.00   11.04   0
  -4  -4  -9  164.09    9.18   0
  -4  -1 -18  408.44   10.85   0
  -4   0 -19  101.68    7.36   0
  -2  -3 -11  256.76    8.80   0
  -5   0 -20  155.80    8.52   0
  -2  -4  -7  235.58    8.26   0
  -5  -3 -14  123.92    9.35   0
  -5  -1 -19  101.44    8.31   0
  -3  -1 -17  437.55   10.17   0
  -3  -5   2  225.20    9.05   0
  -4  -5   1  116.85    8.26   0
  -3  -5  -1  199.81    8.71   0
  -4  -5  -2  101.28    8.51   0
  -6   0 -21  104.36    7.79   0
  -1  -2 -11  420.77    9.58   0
   0  -3   0 2329.74   22.74   0
  -3  -5  -4  401.96   11.11   0
  -3  -4 -11  139.17    7.91   0
  -2  -5   0  537.79   11.44   0
  -2  -5   3  390.14   10.31   0
  -6  -1 -20  158.90    9.38   0
  -3  -3 -15  171.74    8.64   0
  -1  -4  -6  858.09   13.07   0
  -1  -1 -12 1609.27   18.25   0
  -4  -5  -5  106.56    8.32   0
  -2  -5  -3  144.68    8.08   0
  -2  -4 -10  577.01   11.17   0
  -2  -1 -16 1058.91   14.78   0
  -1  -3 -10  859.56   12.74   0
  -5  -5  -3   55.31    7.15   0
  -2   1 -15  494.55   12.24   0
   0  -3  -3  495.49   10.80   0
  -2  -3 -14  345.31    9.94   0
  -5  -3 -17   89.92    8.58   0
  -4  -1 -21  178.61    8.80   0
  -3  -4 -14  305.04    9.77   0
  -1  -5   1  298.05    9.19   0
  -1  -4  -9  347.99    9.04   0
   0  -2  -7  335.37    9.41   0
  -4  -4 -15   71.20    8.46   0
  -4  -2 -20  209.89    9.68   0
  -2   0 -17  241.41    8.86   0
  -1  -5  -2  655.44   11.71   0
   0  -3  -6 2500.72   21.28   0
  -5  -1 -22  109.34    8.07   0
  -3  -5 -10  190.80    9.37   0
  -3  -2 -19   75.35    6.67   0
  -2  -4 -13  329.31    9.53   0
  -1  -5   4  692.96   13.10   0
   0  -4   1 1294.59   16.60   0
  -3  -1 -20  364.64   10.20   0
  -2  -5  -9  336.69   10.30   0
  -5  -2 -21   61.52    7.80   0
  -4  -5 -11   54.17    7.87   0
  -1  -3 -13  587.68   10.95   0
  -1   0 -13 1057.79   16.22   0
   0  -4   4 1315.53   18.01   0
  -2  -2 -18  306.95    8.99   0
   0  -4  -5  366.24    9.03   0
  -3  -6  -3  133.89    8.67   0
  -3  -6   0  236.69    9.29   0
  -1  -4 -12  777.96   12.49   0
  -3  -5 -13  137.97    8.95   0
  -1  -5  -8  587.20   11.24   0
  -1  -1 -15  535.97   11.15   0
   0  -3  -9 1272.76   15.56   0
  -3  -4 -17  139.39    8.07   0
  -2  -6  -2  199.75    8.89   0
  -2  -6   1  179.36    9.03   0
  -2  -5 -12  276.21    9.96   0
  -4  -4 -18   95.07    8.84   0
  -3  -6  -6  112.93    7.99   0
  -2  -4 -16  292.83   10.24   0
  -2  -1 -19  261.68    8.99   0
   0  -2 -10 3341.71   25.27   0
  -4  -5 -14   73.81    7.79   0
   0  -4  -8 1376.95   15.95   0
  -3  -6  -9   71.11    8.32   0
  -1  -3 -16  769.16   12.92   0
   0  -5  -1  289.42    8.44   0
  -4  -2 -23   80.05    7.80   0
  -2  -6  -8  293.82   10.58   0
   0  -5  -4  872.94   13.01   0
  -3  -2 -22  175.33    8.21   0
  -1  -6  -4  591.00   12.07   0
  -1  -4 -15  273.88    9.45   0
  -1  -2 -17  531.97   11.14   0
   0  -5   2 1030.87   15.17   0
  -4  -3 -22  105.00    8.82   0
  -3  -5 -16  168.08    9.08   0
  -1  -6   2  221.74    9.19   0
   0  -3 -12 1012.91   14.14   0
   0  -5  -7  576.54   11.50   0
  -2  -3 -20  356.53   10.55   0
  -1  -6  -7   99.22    7.96   0
  -3  -1 -23   53.48    7.11   0
  -2  -6 -11   87.57    8.58   0
  -2  -4 -19   82.91    8.21   0
  -2  -2 -21  314.79    9.32   0
  -1  -5 -14  346.63   10.29   0
  -1  -6 -10  221.68    9.37   0
   0  -5 -10  602.64   11.69   0
  -1  -1 -18  787.53   13.40   0
  -1   0 -16 1581.83   19.61   0
  -1  -4 -18  281.08    9.66   0
  -1  -3 -19  143.56    7.72   0
   0  -6  -3  219.22    8.70   0
   0  -3 -15  277.91    8.96   0
  -2  -7  -4  171.50    8.46   0
  -2  -1 -22  261.36    9.10   0
   0  -6  -6  360.30    9.53   0
   0  -6   0  794.22   13.58   0
  -2  -7  -7   97.06    8.32   0
   0  -5 -13  194.21    8.79   0
   1  -4  -4 2544.92   21.89   0
  -3  -3 -24  108.95    8.31   0
  -1  -5 -17  176.44    8.31   0
   1  -4  -1  838.43   13.68   0
   1  -3  -5 2023.39   20.28   0
  -1  -2 -20  412.79   10.47   0
   0  -6  -9  292.47    9.03   0
  -3  -4 -23   40.99    8.15   0
  -3  -2 -25  115.40    8.18   0
  -2  -3 -23   46.93    7.70   0
  -1  -7  -6  147.88    8.75   0
  -1  -7  -3  144.58    8.41   0
   1  -4  -7  653.28   11.42   0
  -2  -7 -10   98.04    8.03   0
  -2  -4 -22  172.62    8.89   0
   0  -2 -16  585.40   11.49   0
   1  -5  -3  807.13   13.10   0
   1  -3  -8 2017.59   19.43   0
  -1  -7  -9  115.80    8.37   0
   0  -6 -12  418.73   11.02   0
   1  -5  -6  834.39   12.68   0
  -2  -2 -24  243.06    9.22   0
  -1  -6 -16  208.03    9.86   0
   0  -4 -17  209.24    8.18   0
   0  -1 -14 1190.09   15.90   0
   1  -4 -10  842.91   12.68   0
   1  -5  -9  344.07    9.56   0
   1  -5   0 1290.53   16.20   0
   1  -4   2 1211.48   17.22   0
   0  -3 -18  733.30   12.72   0
  -1  -5 -20  173.84    9.19   0
  -1  -3 -22  233.88    9.00   0
   0  -7  -5  192.39    8.38   0
   0  -7  -2  150.77    8.13   0
   1  -3 -11  434.24    9.77   0
   0  -7  -8  438.29   11.26   0
   0  -6 -15   94.17    8.53   0
   1  -6  -5  417.76   10.42   0
  -1  -1 -21  273.98    9.19   0
   1  -6  -2  685.94   12.58   0
   1  -5 -12  822.67   13.22   0
  -1  -6 -19   28.22    7.90   0
   1  -2  -9 1169.32   15.92   0
  -2  -4 -25   84.02    8.33   0
  -1  -7 -15   46.72    8.14   0
  -1  -2 -23  103.88    7.30   0
   0  -5 -19  154.63    8.06   0
   1  -6 -11  200.29    8.81   0
  -2  -3 -26  105.88    7.95   0
   0  -2 -19  205.07    8.28   0
   1  -6   1  291.62    9.27   0
   1  -3 -14 1242.22   15.61   0
  -1  -4 -24  145.11    9.01   0
   0  -7 -14  103.20    8.62   0
   0  -6 -18  155.87    8.25   0
   0  -1 -17  836.57   13.87   0
   0  -3 -21  259.50    9.14   0
   1  -4 -16  781.97   12.47   0
   1  -7  -7  108.00    7.92   0
   1  -7  -4  543.65   11.86   0
   1  -6 -14  345.13    9.72   0
  -1  -6 -22   71.57    7.98   0
  -1  -3 -25  134.55    8.04   0
   0  -8  -7   81.51    7.64   0
   0  -8  -4  189.63    9.49   0
   0  -7 -17  108.94    8.81   0
   0  -8 -10  103.27    8.38   0
   1  -7 -13  204.67    9.35   0
   1  -5 -18  262.28    8.93   0
   0  -6 -21   98.38    8.38   0
   0  -4 -23  105.84    8.26   0
   1  -6 -17  181.29    9.34   0
   2  -5  -8 1626.36   17.39   0
   0  -8 -13   77.64    7.57   0
   1  -2 -15  524.79   10.97   0
   2  -4  -6  730.51   12.42   0
   0  -2 -22  558.88   11.91   0
   2  -6  -4  763.74   12.94   0
   2  -5 -11  254.28    8.38   0
   2  -4  -9  999.77   13.74   0
   1  -7 -16  197.90    9.41   0
   2  -6 -10  572.71   11.20   0
   2  -5  -2  634.79   11.60   0
   0  -7 -20  129.37    8.52   0
   1  -8  -6  141.72    8.40   0
  -1  -4 -27   39.62    6.99   0
   0  -3 -24  162.70    8.28   0
   1  -8  -9  112.30    8.05   0
   2  -4 -12 1764.38   17.91   0
   0  -1 -20  640.64   12.65   0
   1  -8  -3  144.45    8.90   0
   1  -6 -20  167.25    9.30   0
   2  -6 -13  333.82    9.43   0
   2  -5 -14  362.03    9.42   0
   1  -8 -12  174.79    9.25   0
   2  -7  -6  423.48   10.68   0
   2  -6  -1  538.93   11.41   0
   0  -5 -25   65.90    7.80   0
   1  -3 -20  393.15   10.34   0
   2  -7 -12  254.45    9.59   0
   1  -7 -19   38.41    7.32   0
   2  -7  -3  126.70    7.83   0
   2  -4 -15  182.93    7.92   0
   2  -3  -7 1617.09   17.97   0
   0  -4 -26   96.43    8.33   0
   1  -2 -18  784.12   13.16   0
   2  -6 -16  283.38    9.28   0
   2  -5   1  733.69   13.13   0
   2  -3 -10 1408.49   16.23   0
   2  -5 -17  387.75    9.84   0
   2  -4   0 3987.67   29.43   0
   2  -7 -15   67.72    7.95   0
   2  -3  -4 3357.37   26.30   0
   2  -3 -13  471.63   10.10   0
   1  -5 -24  161.38    8.84   0
   1  -1 -13 1044.59   15.27   0
   2  -8 -11   84.05    8.18   0
   2  -8  -5  145.77    8.47   0
   2  -7   0  525.80   11.59   0
   0  -2 -25  153.73    8.13   0
   2  -6 -19   63.23    6.99   0
   2  -7 -18  201.76    9.39   0
   0  -3 -27   49.93    7.11   0
   1  -3 -23   96.23    7.32   0
   2  -5 -20  334.68    9.66   0
   1  -4 -25  136.04    8.48   0
   3  -6  -9  371.25    9.95   0
   1  -2 -21  287.37    9.21   0
   3  -6 -12  534.71   11.60   0
   2  -8 -17   86.44    8.11   0
   3  -7  -8  351.28   10.05   0
   3  -5 -10  536.35   11.08   0
   1  -1 -16 1537.13   18.57   0
   2  -6 -22  156.17    9.06   0
   3  -7 -11  133.48    7.58   0
   3  -5  -7  334.08    8.92   0
   2  -7 -21   95.23    8.59   0
   2  -4 -21  307.07    9.64   0
   3  -7  -5  334.01    9.95   0
   3  -6 -15  158.18    8.72   0
   3  -5 -13  552.44   11.53   0
   2  -9 -10  103.78    7.65   0
   2  -9  -7   88.51    8.34   0
   3  -7 -14  307.55    9.45   0
   3  -6  -3  424.79   10.27   0
   2  -5 -23   44.11    7.69   0
   2  -5   4 1835.83   21.66   0
   1  -5 -27   35.06    7.59   0
   2  -3 -19  264.99    8.38   0
   2  -2 -11 1821.64   19.13   0
   2  -2  -8 3026.40   24.99   0
   3  -8 -10  170.15    9.10   0
   3  -8  -7  116.46    8.03   0
   3  -5 -16  592.80   11.43   0
   3  -7 -17  140.54    7.96   0
   3  -7  -2  569.00   11.87   0
   3  -6 -18  260.50    9.77   0
   3  -4 -11  346.74    9.58   0
   3  -4  -8 1950.45   19.06   0
   1  -3 -26  197.41    8.90   0
   2  -2 -14  966.24   14.01   0
   3  -8 -16  165.55    9.22   0
   3  -8  -4  377.94   10.53   0
   3  -4 -14  647.22   12.07   0
   2  -6 -25   74.76    7.94   0
   1  -4 -28   89.28    7.54   0
   1  -1 -19  228.89    8.45   0
   3  -5 -19   84.02    7.42   0
   3  -4  -5 1049.32   14.35   0
   2  -4 -24  222.76    8.65   0
   3  -7 -20  120.80    8.63   0
   3  -6   0  954.06   14.58   0
   3  -5  -1  746.67   12.93   0
   3  -9  -9   60.33    7.93   0
   3  -6 -21  133.44    8.52   0
   2  -5 -26   98.50    8.67   0
   2  -3 -22  261.02    8.67   0
   2  -2 -17  255.21    8.66   0
   3  -9 -12  143.66    8.16   0
   3  -8 -19   44.58    7.51   0
   3  -4 -17  447.05   10.16   0
   3  -9  -6  116.06    8.69   0
   3  -7   1  184.09    8.06   0
   3  -5 -22  183.37    9.00   0
   4  -7 -13  117.06    8.35   0
   4  -7 -10  363.78    9.72   0
   3  -7 -23   35.45    7.56   0
   4  -7  -7  293.65    9.72   0
   4  -6 -11  312.36    9.24   0
   3  -4 -20  375.60    9.73   0
   3  -3 -12 1558.54   16.97   0
   4  -8  -9  156.49    8.96   0
   4  -6 -14  378.12   10.08   0
   4  -6  -8  665.76   11.86   0
   3  -6 -24  106.43    8.28   0
   4  -7 -16  242.10    8.97   0
   2  -2 -20  684.72   12.76   0
   4  -8 -15   69.48    8.20   0
   2  -4 -27   25.29    6.69   0
   4  -8  -6  193.22    9.09   0
   4  -6 -17  137.96    8.97   0
   2  -3 -25  127.48    8.00   0
   4  -7  -4  466.16   10.44   0
   4  -5 -12  586.13   11.29   0
   4  -5  -9  664.53   12.00   0
   4  -9 -11   56.05    7.83   0
   4  -8 -18   88.35    8.20   0
   4  -7 -19  102.32    8.04   0
   4  -5 -15  150.83    8.29   0
   2  -5 -29   66.84    7.40   0
   3  -5   2  618.21   12.36   0
   4  -9 -14   66.38    7.41   0
   3  -5 -25  128.13    8.35   0
   3  -3 -18  471.19   10.83   0
   4  -9  -8  261.59    9.70   0
   3  -4 -23   64.34    6.57   0
   4  -8  -3  158.38    8.30   0
   4  -6 -20  195.96    8.54   0
   4  -5  -6 1045.14   14.08   0
   4  -5 -18  403.20   10.83   0
   3  -6 -27   23.86    7.35   0
   4  -9  -5  103.03    8.35   0
   4  -7 -22   91.60    8.26   0
   4  -6  -2  760.15   12.95   0
   4  -7  -1  196.87    8.31   0
   2  -2 -23  204.08    8.42   0
   3  -4   1  802.65   13.53   0
   3  -3  -3 1990.58   19.86   0
   4  -4 -13  655.14   12.05   0
   2  -1 -12 1645.88   18.79   0
   3  -3 -21  195.34    7.76   0
   4  -4 -16  423.28   10.54   0
   2  -1 -15  544.99   11.58   0
   5  -7 -12  353.18    9.78   0
   3  -5 -28   65.16    7.54   0
   3  -4 -26  140.80    8.23   0
   4  -4  -7  286.59    8.37   0
   5  -7 -15  133.25    7.78   0
   5  -8 -17   84.84    8.05   0
   5  -8  -8  344.39   10.40   0
   1   0 -17  804.09   15.23   0
   4  -4 -19  104.73    7.50   0
   5  -9 -13  108.98    7.89   0
   5  -7 -18  124.50    8.78   0
   5  -6 -13  184.75    8.64   0
   5  -9 -10   87.33    8.12   0
   5  -7  -6  347.12   10.12   0
   5  -6 -10  406.77    9.87   0
   2  -1 -18  795.80   13.76   0
   3  -2 -10 1385.07   16.27   0
   4  -5 -24   98.34    8.11   0
   5  -6 -16  305.07    9.33   0
   3  -2 -16 1029.35   14.67   0
   4  -6 -26   73.65    7.41   0
   4  -6   1  527.83   11.26   0
   5  -9  -7   53.75    7.58   0
   5  -8 -20   94.89    7.84   0
   5  -8  -5  164.73    8.25   0
   4  -4  -4 1418.85   16.50   0
   5  -6  -7  337.99    9.14   0
   5  -7 -21   45.23    7.79   0
   5  -6 -19  107.01    8.56   0
   4  -5   0 1291.83   16.36   0
   4  -4 -22  315.90   10.04   0
   3  -2  -7 1620.84   17.73   0
   5  -5 -14  528.54   11.32   0
   5  -5 -11  205.35    8.63   0
   3  -2 -19  269.58    8.89   0
   5  -7  -3  371.12    9.55   0
   5  -6  -4  704.12   12.42   0
   5  -5 -17  217.74    8.87   0
   4  -3 -11  317.28    8.63   0
   5  -8  -2  214.74    8.74   0
   5  -5  -8  615.56   11.23   0
   4  -5 -27   34.36    7.03   0
   4  -3 -17  446.79   10.56   0
   4  -3  -8 1999.43   18.71   0
   6  -8 -13  146.97    8.78   0
   4  -4 -25  107.55    7.81   0
   6  -8 -16  135.68    8.63   0
   3  -2 -22  260.84    8.87   0
   5  -5  -5  618.24   11.55   0
   6  -9 -12  115.86    7.86   0
   6  -7 -14  133.37    8.42   0
   4  -3 -20  379.37   10.17   0
   6  -7 -11  135.97    7.51   0
   3  -4   4 2507.60   24.91   0
   5  -6 -25   50.85    7.69   0
   6  -9  -9  137.66    8.34   0
   6  -8 -19   28.05    7.00   0
   6  -7 -17  119.19    8.12   0
   6  -8  -7   81.97    7.02   0
  -1  -7  -9  115.76    8.82   0
   0  -8  -4  193.61    9.55   0
   2  -7   0  544.88   11.58   0
   2  -5  -2  673.74   11.56   0
   2  -8   7   89.29    7.21   0
   2  -8  10  163.06    8.59   0
   0  -7  -8  442.97   10.94   0
   0  -4 -11  632.37   12.28   0
   2  -8   4  364.59   10.75   0
   1  -8  -3  146.42    8.23   0
   2  -8  13  137.49    8.58   0
   2  -3   2 2999.78   24.99   0
   1  -6  -8  555.59   11.71   0
   2  -8   1  182.04    9.45   0
   2  -6  -4  785.32   12.41   0
   1  -9   1   81.04    7.99   0
   1  -7  -7  104.19    7.34   0
   2  -7  -3  146.82    7.50   0
   0  -8  -7  100.32    8.69   0
   1  -5  -9  334.32    9.03   0
   2  -4  -3  780.93   12.26   0
   3  -6   9  376.88    9.97   0
   2  -8  16  121.33    7.49   0
   2  -5  -5  682.18   11.56   0
   3  -7   4  500.53   11.17   0
   3  -7  10  367.88   10.30   0
   3  -6   3  401.08   10.00   0
   1  -8  -6  125.76    8.72   0
   2  -9   5  138.12    8.08   0
   2  -9  11   29.79    7.41   0
   2  -8  -2  205.86    8.42   0
   3  -6  12  541.86   11.55   0
   3  -5   8 1710.70   17.94   0
   1  -9  -2  138.86    8.43   0
   0  -6 -12  396.23   10.69   0
   3  -7  13  127.95    7.81   0
   3  -5  11  252.40    8.80   0
   0  -7 -11   78.66    7.87   0
   2  -3  -1  666.71   12.32   0
   3  -8   5  145.26    8.53   0
   3  -8   8  343.90    9.48   0
   3  -7   1  194.09    8.75   0
   3  -8  11   94.07    7.57   0
   3  -6   0  994.79   14.05   0
   3  -5   2  641.07   11.45   0
   0  -5 -13  182.83    8.07   0
   1  -4 -10  835.05   13.28   0
   2  -9  -1   56.05    7.49   0
   3  -8   2  213.84    8.45   0
   2  -8  -5  146.74    7.71   0
   0  -3 -12  952.36   15.25   0
   1  -9  -5   70.63    7.48   0
   1  -6 -11  190.16    8.36   0
   3  -8  14  111.46    7.86   0
   3  -7  -2  589.60   11.86   0
   3  -5  14  317.38    9.55   0
   0  -8 -10  106.13    8.39   0
   1  -8  -9   99.99    8.57   0
   2  -4  -6  718.77   11.79   0
   3  -9   9  135.89    8.35   0
   3  -8  -1  210.06    8.32   0
   3  -5  -1  750.63   12.16   0
   3  -4   7  659.80   12.31   0
   3  -9   3   62.12    7.60   0
   3  -6  -3  406.09    9.48   0
   2  -9  -4  149.47    8.64   0
   3  -9  12  113.60    8.09   0
   3  -4  10  849.21   14.10   0
   1  -5 -12  767.05   12.69   0
   3  -9   0  246.38    9.47   0
   2  -7  -9  316.87    9.23   0
   2  -8  -8  294.61    9.22   0
   3  -8  -4  383.30   10.77   0
   3  -7  -5  353.73    9.30   0
   2  -3  -4 3195.14   24.67   0
   3  -4   1  822.57   12.51   0
   2  -6 -10  543.87   10.71   0
   4  -8   6  212.77    9.16   0
   3  -9  -3  139.36    8.50   0
   3  -5  -4 2053.92   18.43   0
   4  -8   9  163.87    8.25   0
   2  -9  -7  104.27    7.92   0
   3  -6  -6  638.77   11.16   0
   4  -8   3  150.43    7.68   0
   4  -7   2  553.37   10.91   0
   4  -7  11  134.18    7.74   0
   1  -7 -13  198.11    8.94   0
   4  -6   7  233.46    7.97   0
   4  -9   7   56.78    7.20   0
   4  -8  12  245.41    9.07   0
   1  -8 -12  179.89    9.02   0
   4  -9   4  310.07    9.42   0
   4  -8   0  455.67   10.28   0
   4  -6  10  548.37   11.43   0
   3  -4  -2 1261.01   15.18   0
   4  -9  10   84.09    7.82   0
   4  -6   1  524.55   10.94   0
   2  -4  -9  938.64   13.60   0
   4  -9   1  125.54    8.40   0
   2  -5 -11  236.10    8.24   0
   3  -9  -6  110.53    8.18   0
   1  -4 -13  562.30   11.76   0
   2  -8 -11   80.46    7.49   0
   2  -7 -12  240.81    9.05   0
   1  -3 -11  415.77   10.22   0
   4  -9  13   96.51    7.00   0
   4  -6  13  311.46    9.45   0
   3  -5  -7  340.11    9.08   0
   4  -9  -2  102.35    8.10   0
   2  -9 -10   97.94    8.11   0
   4 -10   2  101.77    7.62   0
   4  -7  -4  455.42   10.50   0
   4  -6  -2  773.65   12.01   0
   4  -5   6  843.10   12.83   0
   4  -5   9  330.34    9.32   0
   2  -6 -13  310.28    9.34   0
   1  -5 -15  246.80    9.00   0
   2  -3  -7 1435.87   16.60   0
   3  -8 -10  187.81    8.95   0
   3  -4  -5 1075.27   14.01   0
   3  -3   6 2416.56   22.85   0
   3  -9  -9   73.21    7.24   0
   4  -9  -5  110.11    8.37   0
   4  -8  -6  218.14    8.27   0
   4  -5   0 1270.85   14.82   0
   3  -7 -11  122.43    7.74   0
   3  -3   9 1158.21   17.36   0
   4  -6  -5  282.92    8.33   0
   4  -5  12  766.06   13.68   0
   5  -9   5   93.94    7.85   0
   5  -8   7  103.86    7.09   0
   4  -7  -7  295.78    9.53   0
   5  -9   2   93.43    8.06   0
   5  -9   8  260.80    9.05   0
   5  -8   1  180.61    9.00   0
   5  -8  10  174.32    8.51   0
   5  -7   6  414.98   10.52   0
   2  -8 -14  115.78    7.69   0
   3  -3   0 2460.39   21.49   0
   4  -5  -3  327.64    8.49   0
   5  -9  -1  141.50    8.59   0
   5  -9  11   52.98    6.69   0
   5  -7   9  322.66    9.76   0
   2  -7 -15   58.79    7.07   0
   5  -8  -2  211.95    8.79   0
   5  -7   0  515.69   11.00   0
   2  -4 -12 1651.13   17.81   0
   3  -6 -12  511.47   10.95   0
   5 -10   0  166.70    8.37   0
   3  -9 -12  157.18    8.18   0
   5  -7  12  226.70    9.21   0
   3  -4  -8 1927.03   18.42   0
   5  -9  -4  296.35    9.81   0
   5  -6   5  412.05   10.12   0
   4  -4   5  360.43    9.03   0
   5  -7  -3  370.17    9.39   0
   5  -6   8  560.01   11.43   0
   5  -8  -5  156.13    7.82   0
   2  -6 -16  270.77    9.53   0
   3  -7 -14  292.76    9.57   0
   3  -3  -3 1994.13   19.02   0
   4  -5  -6 1024.73   13.32   0
   4  -4   8 1368.90   17.16   0
   5  -6  -1  283.33    8.75   0
   4  -9 -11   51.52    7.01   0
   4  -4  -1 1324.86   15.48   0
   5  -9  -7   57.58    7.74   0
   5  -6  11  184.16    8.06   0
   4  -8 -12  247.23    9.45   0
   5  -7  -6  329.40    9.88   0
   6  -9   3  128.44    7.96   0
   3  -5 -13  514.02   10.77   0
   4  -4  11  577.45   12.23   0
   5  -6  -4  699.45   11.47   0
   6  -9   0  247.78    9.22   0
   6  -8   5  145.99    8.40   0
   6 -10   1   58.64    7.02   0
   6  -9   9   67.55    7.42   0
   6  -8   8  276.11    9.52   0
   3  -8 -16  139.51    8.25   0
   4  -7 -13  121.55    7.96   0
   4  -5  -9  648.33   11.04   0
   4  -4  -4 1387.50   15.32   0
   5  -5   4  880.61   13.32   0
   6  -9  -3   45.41    7.67   0
   6  -8  -1  168.12    7.85   0
   3  -3  -6 1918.68   18.41   0
   5  -5   1  277.92    8.70   0
   5  -5   7  578.60   11.54   0
   6 -10  -2   97.51    7.22   0
   5  -7  -9  134.95    8.05   0
   6  -7   4  541.39   11.57   0
   6  -7   7  102.41    7.46   0
   2  -5 -17  337.46    9.96   0
   2  -4 -15  172.47    7.39   0
   4  -9 -14   59.60    6.91   0
   5  -6  -7  340.96    8.83   0
   6  -8  -4  334.84    9.47   0
   5  -5  -2 1012.88   13.31   0
   3  -7 -17  123.98    7.89   0
   4  -8 -15   65.61    8.30   0
   5  -5  10  571.12   12.15   0
   6  -9  -6  130.80    8.06   0
   6  -7  -2  213.53    8.15   0
   6  -7  10  201.29    8.83   0
   4  -4  -7  283.18    8.05   0
   6  -8  -7   98.75    8.18   0
   4  -6 -14  376.19    9.71   0
   5  -5  -5  610.06   11.36   0
   2  -3 -13  487.77   10.73   0
   5  -9 -13   97.41    7.49   0
   6  -7  -5  181.68    7.87   0
   4  -5 -12  551.30   10.41   0
   5  -6 -10  409.51   10.08   0
   6  -9  -9  144.19    8.37   0
   6  -6   3  200.04    7.70   0
   3  -3  -9  476.82   10.17   0
   4  -7 -16  228.12    8.90   0
   6  -6   0  786.42   12.87   0
   6  -6   6  332.87    9.69   0
   7  -9   4  155.03    8.12   0
   3  -5 -16  559.47   11.40   0
   4  -3   4 2605.71   22.80   0
   5  -8 -14  114.34    7.92   0
   7  -9   7   99.21    7.15   0
   4  -3   1  818.68   12.53   0
   6  -6  -3  318.55    9.23   0
   7  -9  -2  144.79    8.00   0
   3  -4 -14  591.20   11.36   0
   6  -8 -10  142.99    8.56   0
   6  -7  -8  485.82   10.58   0
   6  -6   9  294.34    9.31   0
   7  -8   3  149.26    8.50   0
   5  -5  -8  609.62   10.91   0
   7  -8   6  131.87    7.78   0
   3  -2  -1  662.31   12.29   0
   4  -4 -10 1158.12   14.54   0
   4  -3  -2 1240.03   15.21   0
   4  -3   7  648.04   12.58   0
   5  -4   3  795.93   12.81   0
   7  -9  -5  134.83    8.74   0
   5  -4   0 1304.21   15.51   0
   7  -8  -3   69.41    7.66   0
   5  -4   6  875.09   13.75   0
   6  -6  -6  283.34    9.08   0
   7  -8   9   80.48    7.06   0
   5  -7 -15  127.21    8.29   0
   5  -6 -13  181.63    7.53   0
   4  -6 -17  135.68    7.68   0
   5  -4  -3  322.47    8.52   0
   7  -8  -6  156.14    8.81   0
   7  -7   2  138.93    8.19   0
   4  -5 -15  152.91    7.52   0
   4  -3  -5 1061.01   14.05   0
   6  -7 -11  114.72    7.08   0
   7  -9  -8  119.57    7.97   0
   7  -7  -1  171.88    8.33   0
   7  -7   5  188.46    8.53   0
   3  -2  -4 3223.76   24.68   0
   6  -8 -13  134.05    8.43   0
   6  -5   2  668.79   12.06   0
   5  -5 -11  206.61    8.20   0
   3  -3 -12 1377.69   15.90   0
   5  -8 -17   88.34    7.71   0
   5  -4   9  335.38    9.66   0
   6  -6  -9  223.82    8.84   0
   6  -5  -1  293.24    8.47   0
   6  -5   5  411.62    9.65   0
   7  -7  -4  504.01   11.16   0
   7  -7   8  395.86   11.20   0
   4  -3  10  767.86   14.76   0
   5  -4  -6 1071.99   14.08   0
   7  -8  -9  148.71    8.81   0
   4  -4 -13  657.81   11.70   0
   6  -5  -4  697.79   11.66   0
   6  -5   8  556.64   11.70   0
   7  -9 -11   24.52    6.97   0
   8  -9   2  122.15    8.14   0
   7  -7  -7  101.89    7.45   0
   8  -9   5   49.49    6.74   0
   4  -3  -8 1947.63   18.19   0
   3  -4 -17  428.73   10.37   0
   3  -2  -7 1640.94   17.81   0
   5  -6 -16  285.37    8.84   0
   7  -6   1  279.89    9.24   0
   8  -9  -4  111.89    7.89   0
   5  -7 -18  119.18    7.83   0
   6  -8 -16  131.43    8.27   0
   6  -5  -7  335.40    9.63   0
   7  -6  -2  222.36    8.82   0
   7  -6   4  548.18   11.72   0
   5  -4  -9  648.17   11.16   0
   8  -8   1   86.18    7.87   0
   5  -5 -14  515.33   11.12   0
   8  -8   4  192.45    8.95   0
   1  -2 -15  496.30   12.16   0
   7  -6   7  110.74    8.07   0
   8  -9  -7   60.77    7.38   0
   4  -5 -18  367.75   10.05   0
   7  -6  -5  182.33    7.93   0
   8  -8  -5  110.51    8.42   0
   8  -8   7   73.02    6.92   0
   6  -5 -10  441.00   10.56   0
   7  -6  -8  534.73   11.79   0
   4  -4 -16  388.45    9.95   0
   5  -3  -1  738.46   11.91   0
   5  -3   2  653.82   11.53   0
   8  -8  -8  134.00    8.35   0
   8  -7   0  313.59    9.99   0
   5  -4 -12  566.20   11.00   0
   6  -7 -17  108.30    7.63   0
   6  -6 -15  106.43    8.28   0
   6  -4  -2  803.03   12.84   0
   8  -7   3  138.10    8.18   0
   7  -8 -15   27.96    6.78   0
   7  -7 -13  166.20    8.45   0
   8  -7  -3   68.93    7.08   0
   5  -3  -4 2066.41   18.62   0
   5  -3   5  713.18   12.84   0
   2  -2 -14 1007.85   15.00   0
   4  -2   0 4219.24   28.15   0
   5  -6 -19   96.69    7.61   0
   6  -4  -5  303.00    9.28   0
   8  -7   6  127.93    7.84   0
   5  -5 -17  231.67    8.74   0
   8  -7  -6  148.33    8.19   0
   4  -2  -3  781.25   12.49   0
   4  -2   3  809.02   13.41   0
   6  -5 -13  175.93    8.40   0
   7  -6 -11  111.07    8.15   0
   7  -5  -3  397.52   10.08   0
   7  -5   3  131.56    7.71   0
   8  -8 -11   46.98    7.61   0
   6  -4   7  240.52    8.62   0
   5  -3  -7  348.52    8.72   0
   6  -4  -8  678.23   11.98   0
   7  -5  -6  357.83    9.76   0
   7  -5   6  425.82   10.66   0
   4  -3 -14  597.89   10.96   0
   4  -2  -6  749.50   11.79   0
   5  -3   8 1666.51   19.72   0
   7  -7 -16  186.47    8.96   0
   5  -4 -15  147.05    7.61   0
   8  -6  -1  182.04    8.76   0
   8  -6   2  198.80    8.81   0
   9  -8  -1   55.87    7.07   0
   9  -8   2  130.81    8.61   0
   4  -2   6  752.85   13.75   0
   6  -6 -18  115.20    7.63   0
   8  -6  -4  337.26   10.03   0
   6  -7 -20  138.74    7.71   0
   7  -5  -9  137.28    7.94   0
   3  -2 -13  472.61   10.27   0
   5  -3 -10  516.18   10.21   0
   8  -6   5  158.96    8.21   0
   4  -4 -19   97.77    6.84   0
   6  -4 -11  310.40    9.26   0
   8  -7 -12  163.30    8.75   0
   8  -6  -7   84.59    8.06   0
   3  -3 -18  431.86   10.37   0
   6  -5 -16  293.25    8.78   0
   5  -5 -20  147.53    8.06   0
   7  -5 -12  355.39    9.38   0
   8  -6 -10  140.35    8.39   0
   9  -7  -2  145.79    8.36   0
   9  -7   1   52.05    6.97   0
   9  -7  -5  126.07    8.07   0
   3  -1  -5 2026.08   19.54   0
   6  -3  -3  405.01    9.70   0
   7  -7 -19   14.05    6.86   0
   4  -3 -17  425.44   10.10   0
   7  -6 -17  113.32    8.03   0
   7  -4  -4  478.12   10.27   0
   7  -4   2  592.08   11.60   0
   9  -7   4  151.63    7.92   0
   2  -2 -17  231.07    8.34   0
   6  -3  -6  646.66   11.23   0
   6  -3   3  420.46    9.79   0
   9  -7  -8  115.27    7.51   0
   6  -6 -21   95.64    7.53   0
   7  -4  -7  294.21    8.64   0
   8  -5  -5  158.71    8.65   0
   8  -5   1  196.26    8.75   0
   5  -2  -2  637.00   11.03   0
   6  -5 -19   91.56    7.51   0
   7  -4   5  337.54    9.58   0
   8  -6 -13  137.56    7.88   0
   2  -1 -12 1646.47   18.66   0
   3  -1  -8 1982.47   19.09   0
   3  -2 -16 1008.63   14.34   0
   5  -2  -5  672.87   11.23   0
   6  -3  -9  376.85    9.58   0
   8  -5   4  382.61   10.38   0
   7  -4 -10  353.41    9.75   0
   8  -5  -8  337.67    9.31   0
   9  -7 -11   31.00    6.30   0
   6  -3   6  663.62   12.43   0
   9  -6  -3   50.56    7.33   0
   5  -2   4 2185.86   20.83   0
   9  -6   0  249.66    9.47   0
   5  -3 -16  561.20   11.17   0
   5  -2  -8 1643.48   16.50   0
   6  -4 -17  120.33    7.73   0
   9  -6  -6  131.96    7.94   0
   7  -6 -20  149.71    8.28   0
   8  -5 -11   93.48    8.14   0
   9  -6   3  130.23    7.82   0
   6  -3 -12  514.32   10.39   0
   9  -6  -9  159.06    8.15   0
   4  -2 -15  176.79    7.57   0
   7  -4 -13  119.32    7.05   0
   5  -4 -21  170.29    7.93   0
   7  -5 -18  111.82    7.52   0
   4  -3 -20  369.65    9.63   0
   4  -1  -4 2644.19   21.18   0
   4  -1  -1  841.85   12.77   0
   5  -2 -11  235.22    7.70   0
   6  -5 -22  109.26    7.53   0
   8  -5 -14  130.73    8.27   0
   9  -6 -12  119.59    7.71   0
   4  -1  -7  638.21   10.91   0
   5  -2   7  353.18   10.02   0
   7  -3  -5  343.89    9.46   0
   4  -1   2 1229.37   15.63   0
   7  -3   1  207.86    8.41   0
   8  -4  -6  194.61    8.97   0
   2  -1 -15  532.19   11.46   0
   5  -3 -19   76.96    6.48   0
   6  -4 -20  177.68    8.24   0
   7  -3  -8  343.50    9.13   0
   9  -5  -1  136.64    8.11   0
   3  -2 -19  258.85    8.63   0
   6  -2  -4  764.87   11.93   0
   8  -4  -9  157.87    8.74   0
   8  -4   3  171.80    8.22   0
   4  -1 -10  839.44   12.51   0
   9  -5  -7   63.10    6.93   0
   6  -2  -7  227.33    7.68   0
   4  -5   0 1315.60   15.07   0
   5  -9   5  103.22    8.24   0
   3  -6  -6  636.66   11.95   0
   4  -6  -2  782.38   12.17   0
   5  -7   3  139.52    7.94   0
   5  -6   5  419.28   10.29   0
   3  -3   0 2573.81   22.16   0
   5  -5  13  190.55    8.24   0
   5  -5  10  594.20   11.83   0
   4  -9  -2   91.13    8.30   0
   4  -4   2 1493.32   16.23   0
   5  -8   1  203.28    9.04   0
   5  -5   7  585.25   11.33   0
   2  -7  -9  314.96    9.80   0
   4  -3  10  851.09   14.00   0
   4  -3  13  546.85   12.21   0
   5  -7   0  543.67   11.49   0
   5  -6   2  672.75   11.45   0
   6  -8  11   98.09    7.95   0
   3  -8  -7  104.86    7.70   0
   5 -10   3   57.82    7.34   0
   6  -9  12  167.61    8.39   0
   6  -8  14  123.21    8.00   0
   3  -7  -8  345.46    9.93   0
   6  -7  10  204.10    9.05   0
   6  -7  13  194.07    8.67   0
   2  -6 -10  544.26   11.59   0
   3  -4  -5 1038.50   13.85   0
   4  -5  -3  342.49    8.72   0
   4  -3   7  661.44   12.16   0
   5  -5   4  850.27   12.63   0
   6  -8  17   77.87    7.33   0
   4  -6  -5  295.08    8.49   0
   5  -9  -1  125.86    8.64   0
   6  -9   6  113.46    8.01   0
   6  -8   5  154.66    8.92   0
   6  -7  16  189.15    8.84   0
   4  -9  -5   95.95    8.03   0
   4  -8  -6  203.17    9.33   0
   4  -4  -1 1342.34   15.60   0
   5  -6  -1  289.81    9.18   0
   6  -9   3  134.05    8.39   0
   3  -6  -9  364.84    9.83   0
   5  -7  -3  363.16    9.47   0
   6  -7   4  541.20   10.96   0
   6  -6  12  411.68   10.54   0
   2  -4  -9  960.27   14.19   0
   3  -3  -3 1991.81   19.32   0
   4  -7  -7  305.64    8.83   0
   5  -5   1  290.57    8.86   0
   5  -4  12  794.57   13.68   0
   6  -6   9  291.09    8.79   0
   6  -6   6  349.70    9.80   0
   5  -9  -4  290.75    9.99   0
   5  -4   6  861.65   13.26   0
   6  -9   0  256.80    9.47   0
   5 -10  -3   53.27    7.74   0
   6 -10   1   72.30    7.31   0
   6  -7   1  261.29    8.67   0
   3  -8 -10  165.72    8.21   0
   4  -5  -6 1049.87   14.04   0
   6  -8  -1  170.81    8.72   0
   5  -6  -4  712.19   12.15   0
   6  -6   3  200.66    8.25   0
   7  -9  10  100.11    7.46   0
   4  -9  -8  257.23   10.42   0
   4  -8  -9  164.73    8.64   0
   7  -8   9   86.04    7.90   0
   7  -8  12  205.90    8.95   0
   3  -7 -11  124.79    7.53   0
   4  -4  -4 1440.77   16.04   0
   4  -3   1  820.12   12.78   0
   5  -7  -6  358.26    9.37   0
   5  -5  -2 1039.13   13.50   0
   3  -5 -10  513.28   10.75   0
   6  -9  -3   48.41    6.82   0
   6  -7  -2  228.65    8.73   0
   6  -5   8  578.43   11.56   0
   6  -5  11  186.23    8.13   0
   7  -9   4  155.52    8.27   0
   5  -9  -7   70.79    8.02   0
   6  -6   0  759.97   12.12   0
   7  -7   8  440.87   11.12   0
   7  -7  11   73.39    7.36   0
   6  -5   5  413.77    9.56   0
   7  -9   1   41.96    7.73   0
   7  -7   5  196.56    8.85   0
   3  -6 -12  494.87   11.59   0
   3  -3  -6 1893.53   18.51   0
   3  -2  -1  656.85   12.22   0
   5  -4   0 1263.00   14.79   0
   5  -5  -5  623.59   10.98   0
   6  -7  -5  191.16    8.37   0
   7  -7   2  142.97    8.22   0
   4  -3  -2 1258.65   15.32   0
   5  -7  -9  139.07    7.75   0
   1  -3 -11  409.58   10.70   0
   7  -9  -2  147.74    8.27   0
   4  -6 -11  307.12    9.27   0
   7  -6   7  111.44    7.65   0
   7  -6  10  200.98    8.76   0
   4  -8 -12  262.45    9.58   0
   4  -4  -7  294.97    8.52   0
   2  -4 -12 1648.50   18.70   0
   5  -9 -10   85.59    7.57   0
   4  -2   9  948.77   15.97   0
   5  -3   8 1691.16   19.08   0
   7  -8  -3   77.81    8.15   0
   7  -7  -1  184.68    8.45   0
   7  -6   4  559.64   11.63   0
   5  -4  -3  329.13    9.18   0
   4  -2   6  745.43   13.37   0
   5  -8 -11  107.40    8.05   0
   8  -8   7   87.38    7.57   0
   8  -8  10  102.11    7.45   0
   5  -3   5  722.88   12.50   0
   4  -7 -13  118.27    7.59   0
   6  -4  10  571.08   12.23   0
   7  -9  -5  119.71    7.79   0
   8  -9   2  123.79    7.83   0
   8  -8   4  202.76    9.33   0
   3  -4 -11  311.58    8.89   0
   6  -9  -9  151.97    8.21   0
   6  -7  -8  506.39   11.43   0
   6  -6  -6  290.21    8.78   0
   6  -4   7  241.64    8.54   0
   7  -6   1  289.07    9.43   0
   3  -5 -13  540.16   11.33   0
   5  -5  -8  618.34   11.52   0
   6  -4   4  776.57   12.36   0
   7  -8  -6  156.09    8.96   0
   7  -7  -4  520.85   10.84   0
   8  -8   1   74.75    7.98   0
   3  -2  -4 3279.54   24.86   0
   4  -3  -5 1041.67   13.65   0
   4  -2   3  769.09   12.79   0
   5  -7 -12  350.59   10.11   0
   6  -8 -10  157.19    8.45   0
   6  -5  -4  713.28   12.21   0
   8  -9  -1   68.33    7.17   0
   8  -7   6  141.68    8.36   0
   7  -6  -2  230.87    8.64   0
   4  -5 -12  569.82   11.26   0
   7  -5   6  428.43   10.75   0
   7  -5   9  336.76    9.85   0
   8  -7   3  144.95    8.63   0
   5  -4  -6 1028.74   13.47   0
   8  -8  -2  162.91    8.80   0
   7  -5   3  134.36    7.83   0
   8  -9  -4  109.96    7.92   0
   5  -3  -1  760.65   12.31   0
   7  -7  -7  100.06    8.39   0
   4  -2   0 4094.26   27.69   0
   6  -7 -11  117.38    8.04   0
   8  -7   0  312.28    9.07   0
   5  -8 -14  125.28    7.78   0
   6  -9 -12  121.76    8.25   0
   7  -8  -9  146.87    8.43   0
   6  -5  -7  342.39    9.73   0
   7  -6  -5  187.42    7.85   0
   5  -6 -13  185.90    8.37   0
   6  -4  -2  798.90   12.27   0
   8  -8  -5  113.92    8.74   0
   8  -6   5  140.97    8.58   0
   8  -6   8  276.27    9.65   0
   6  -8 -13  139.45    8.74   0
   8  -7  -3   82.48    8.02   0
   4  -3  -8 1954.77   18.24   0
   8  -9  -7   61.52    7.18   0
   9  -8   5   80.99    7.53   0
   7  -9 -11   22.28    6.73   0
   8  -6   2  190.52    8.72   0
   5  -7 -15  139.40    8.20   0
   5  -4  -9  673.94   11.76   0
   5  -3  -4 2041.09   18.69   0
   9  -8   2  125.42    8.51   0
   3  -2  -7 1614.60   17.34   0
   2  -4 -15  163.85    7.56   0
   3  -4 -14  601.68   11.63   0
   4  -2  -3  797.73   12.63   0
   7  -7 -10  115.30    7.23   0
   2  -3 -13  467.49   10.74   0
   6  -4  -5  301.44    8.46   0
   7  -6  -8  510.05   10.62   0
   7  -8 -12  173.22    9.01   0
   8  -8  -8  126.20    8.22   0
   8  -7  -6  154.23    8.73   0
   4  -5 -15  141.96    7.59   0
   6  -3   6  695.50   12.62   0
   3  -3 -12 1395.79   16.45   0
   4  -4 -13  631.67   11.59   0
   6  -7 -14  125.55    7.43   0
   6  -5 -10  446.92    9.87   0
   6  -3   3  422.02   10.23   0
   7  -4   5  331.10    9.68   0
   7  -4   8  359.20   10.11   0
   9  -7   4  150.03    8.23   0
   9  -7   7   85.46    7.58   0
   7  -5  -6  348.47    9.87   0
   7  -4   2  573.06   11.68   0
   8  -6  -4  364.37   10.32   0
   9  -7   1   53.68    7.79   0
   4  -6 -17  124.96    7.68   0
   5  -5 -14  516.24   10.95   0
   5  -2   7  346.56   10.20   0
   9  -8  -4  107.71    8.18   0
   5  -3  -7  343.08    8.68   0
   5  -2   4 2163.87   21.05   0
   5  -6 -16  294.32    9.58   0
   6  -8 -16  126.48    8.53   0
   6  -4  -8  631.14   11.72   0
   8  -5   4  398.40   10.65   0
   8  -5   7  109.07    7.62   0
   4  -3 -11  317.48    8.93   0
   7  -6 -11  114.62    8.05   0
   8  -7  -9  164.12    9.04   0
   3  -1  -2 3011.61   24.61   0
   5  -4 -12  536.24   10.48   0
   5  -2   1  777.06   12.68   0
   8  -8 -11   41.91    6.66   0
   8  -5   1  186.16    8.62   0
   8  -6  -7   85.63    7.85   0
   6  -6 -15   92.58    7.61   0
   6  -3  -3  404.45    9.82   0
   7  -8 -15   33.65    7.17   0
   7  -5  -9  142.21    7.90   0
   3  -2 -10 1351.11   15.96   0
   7  -4  -4  479.01   10.26   0
   9  -7  -5  124.77    8.10   0
   9  -6   6  108.88    7.92   0
   5  -2  -2  636.05   11.44   0
   6  -7 -17  109.60    8.01   0
   5  -3 -10  532.99   10.62   0
   9  -6   0  248.89    9.05   0
   6  -4 -11  323.91    9.55   0
   3  -4 -17  422.00   10.30   0
   4  -4 -16  377.99    9.82   0
   6  -3  -6  668.45   11.76   0
   8  -5  -5  151.52    7.46   0
   3  -1  -5 2060.22   19.83   0
   4  -1   5 1102.06   16.84   0
   3  -3 -15  491.40   10.58   0
   4  -2  -9  997.32   13.31   0
   4  -1   2 1252.98   16.52   0
   5  -5 -17  210.95    8.65   0
   7  -7 -16  195.68    8.56   0
   7  -4  -7  325.44    8.97   0
   9  -7  -8  115.54    8.37   0
   5  -2  -5  683.67   11.71   0
   7  -5 -12  347.66   10.12   0
   5  -4 -15  147.33    7.70   0
   4  -3 -14  590.74   10.81   0
   2  -3 -16 1019.32   15.42   0
   5  -6 -19   96.52    7.35   0
   7  -3   4  482.93   11.16   0
   8  -5  -8  340.20   10.05   0
   6  -5 -16  314.65    9.64   0
   7  -3   1  208.86    8.39   0
   8  -4   3  156.37    8.09   0
   9  -6  -6  128.59    8.18   0
   6  -6 -18  113.06    7.58   0
   8  -4   0  430.98   10.79   0
   6  -3  -9  388.68    9.74   0
   7  -4 -10  371.35    9.93   0
   7  -3  -2  580.23   11.53   0
   8  -7 -15   27.53    6.32   0
   8  -6 -13  140.32    8.24   0
   9  -7 -11   29.81    7.52   0
   5  -3 -13  525.05   10.36   0
   6  -4 -14  350.57    9.32   0
   6  -2   2  819.13   13.34   0
   8  -4  -3  169.99    8.69   0
   9  -5   2   92.80    7.82   0
   6  -2   5  301.25    9.40   0
   9  -5  -1  131.51    8.39   0
   2  -2 -14  983.46   14.62   0
   4  -1  -4 2663.27   21.72   0
   7  -6 -17  115.68    7.88   0
   9  -6  -9  143.48    8.50   0
   3  -1  -8 1990.56   18.86   0
   6  -2  -1  568.97   10.80   0
   7  -5 -15  136.17    8.40   0
   8  -5 -11   95.79    8.34   0
   4  -2 -12 1737.14   17.37   0
   7  -3  -5  334.20    9.46   0
   7  -7 -19   20.83    6.80   0
   8  -4  -6  187.04    8.97   0
   9  -5  -4  286.78    9.90   0
   4  -4 -19   98.75    6.93   0
   5  -4 -18  382.60   10.09   0
   6  -3 -12  521.58   10.50   0
   5  -5 -20  162.34    8.24   0
   7  -4 -13  107.87    7.16   0
   4  -3 -17  435.35   10.29   0
   4  -1  -7  661.92   11.42   0
   7  -3  -8  370.68    9.81   0
   9  -6 -12  129.93    8.08   0
   9  -5  -7   60.46    7.51   0
   5  -2 -11  262.49    8.02   0
   6  -5 -19   98.99    6.94   0
   3  -3 -18  442.51   10.39   0
   5  -1   0 1403.14   16.56   0
   5  -1   3  360.21    9.69   0
   6  -4 -17  143.62    7.96   0
   8  -4  -9  161.89    7.70   0
   6  -2  -7  244.74    7.97   0
   8  -5 -14  121.51    7.99   0
   3  -1 -11  422.43    9.43   0
   5  -1   6  996.89   16.08   0
   7  -6 -20  142.68    8.40   0
   7  -5 -18  114.16    7.55   0
   9  -5 -10   88.80    7.56   0
   8  -3  -1  188.70    8.53   0
   8  -3   2  227.03    8.77   0
   9  -4   1  128.17    8.17   0
   6  -3 -15  167.28    8.15   0
   9  -4  -2   97.64    8.09   0
   7  -4 -16  235.81    9.12   0
   8  -4 -12  267.63    9.40   0
   4  -1 -10  836.95   12.25   0
   5  -1  -6  856.89   12.72   0
   6  -2 -10  576.13   11.33   0
   8  -3  -4  398.62   10.67   0
   7  -2   0  534.18   10.94   0
   7  -2   3  399.37   10.48   0
   9  -4  -5  100.27    8.00   0
   5  -2 -14  326.84    8.75   0
   7  -2  -3  134.60    7.78   0
  10  -5   0  138.83    7.95   0
   3   0  -3  519.78   10.67   0
   8  -5 -17   85.96    7.44   0
  10  -5  -3   58.86    6.75   0
   2  -2 -17  249.08    8.25   0
   9  -5 -13  113.44    8.26   0
   5  -4 -21  152.15    7.98   0
   6  -5 -22  105.70    8.31   0
   6  -4 -20  194.10    8.55   0
   7  -3 -14  325.35    9.79   0
   2   0  -7  312.73    8.64   0
   4  -3 -20  383.48    9.83   0
   5  -3 -19   76.03    6.17   0
   5  -1  -9  337.77    8.71   0
   6  -2 -13  334.33    9.79   0
   8  -4 -15   63.41    7.80   0
   3   0  -6 2465.66   20.79   0
   7  -5 -21   58.82    7.08   0
   4  -1 -13  588.57   10.66   0
   6  -1  -2  667.99   11.74   0
   6  -1   1  313.33    8.96   0
   8  -3 -10  168.36    7.80   0
   7  -4 -19   89.29    7.26   0
   7  -2  -9  315.90    9.69   0
   4   0   1 1402.96   17.27   0
   9  -4 -11   66.50    7.06   0
   6  -1   4  736.44   13.37   0
   2  -1 -15  533.92   10.82   0
   3  -2 -19  272.29    8.65   0
   4   0  -5  379.48    9.01   0
   5  -1 -12  793.85   12.10   0
   8  -5 -20   99.18    7.75   0
   3   0  -9 1255.76   14.77   0
   6  -1  -8  597.11   11.51   0
   7  -3 -17  144.07    8.15   0
   8  -3 -13  119.06    8.38   0
   2   0 -10 3371.48   24.75   0
   4   0   4 1511.04   19.11   0
   7  -2 -12  258.79    9.20   0
   9  -3  -3  140.94    8.07   0
   9  -3   0  234.84    8.86   0
   6  -2 -16  271.10    8.62   0
   8  -4 -18   79.76    7.78   0
   9  -4 -14   56.95    7.42   0
   9  -3  -6  103.27    7.94   0
   4   0  -8 1357.79   15.20   0
   8  -2  -5  151.74    8.44   0
   8  -2   1  186.95    8.41   0
   6  -4 -23   70.62    6.80   0
   6  -1 -11  188.27    8.02   0
   3  -1 -17  512.69   10.14   0
   6  -3 -21  122.59    8.03   0
   7  -4 -22   96.32    7.93   0
   5  -1 -15  236.65    8.02   0
   5   0  -1  284.68    8.33   0
   8  -3 -16  141.88    8.38   0
   3   0 -12  973.57   13.05   0
   4  -3 -23   63.60    6.63   0
   7  -2 -15   50.60    7.59   0
   7  -1  -1  307.59    9.45   0
   4   0 -11  650.81   11.22   0
   5  -2 -20  332.87    8.96   0
   5   0   2 1084.68   15.18   0
   7  -1  -4  568.85   11.01   0
   4  -2 -21  302.43    9.19   0
   5   0  -7  577.38   10.55   0
   7  -1   2  218.07    8.60   0
   8  -2 -11   82.94    7.38   0
   9  -3 -12  137.56    7.80   0
   6  -1 -14  355.29    9.54   0
   0   4 -13  611.89   11.16   0
   1   3 -14  600.52   11.21   0
  -1   8  -9  144.69    8.18   0
   0   3 -12 1467.13   16.26   0
   1   4 -15  154.12    8.17   0
  -1   7 -11  116.36    7.61   0
   4   1 -15  255.63    9.27   0
   0   5 -14  508.94   10.57   0
   0   8 -11   51.11    7.27   0
   1   2 -13  500.35   10.44   0
   2   3 -16  584.89   11.88   0
   5   3 -16  133.92    8.06   0
  -1   5 -12  546.45   11.08   0
   0   7 -13  155.01    8.29   0
   2   2 -15  187.75    7.70   0
  -2   7  -9  123.05    7.23   0
   1   5 -16  288.89    9.09   0
   2   4 -17  138.78    8.35   0
   2   6 -16  153.09    8.04   0
  -1   6 -13  176.71    8.37   0
   0   2 -11 1870.87   18.70   0
  -1   3 -10 1344.55   16.40   0
   3   3 -18  242.41    9.45   0
   6   1 -16  175.61    8.77   0
  -2   5 -10  525.90   10.97   0
   2   5 -18  115.36    8.32   0
  -2   6 -11  295.31    9.15   0
  -1   8 -12  156.90    7.94   0
   1   6 -17  129.74    8.02   0
   5   1 -17  170.15    8.42   0
   5   2 -18  195.56    8.69   0
   6   2 -17   80.58    7.04   0
   3   4 -19   87.24    7.71   0
  -1   7 -14  114.46    7.88   0
   0   4 -16  386.89    9.63   0
   1   3 -17  421.72   10.43   0
  -2   4  -9  953.94   14.34   0
   0   7 -16  190.64    8.71   0
   5   0 -16  403.97   10.65   0
   0   3 -15  496.07   10.25   0
   0   5 -17  225.75    8.24   0
   4   2 -19   63.45    7.57   0
   5   3 -19   38.49    6.69   0
  -2   7 -12  336.04    9.92   0
   2   3 -19   74.69    7.45   0
   4   1 -18  261.81    9.52   0
   1   2 -16 1105.26   14.75   0
   1   5 -19   90.74    8.26   0
   4   3 -20   96.67    8.02   0
   2   2 -18  323.25    9.17   0
   3  -1 -11  437.89   11.04   0
   3   5 -20  111.25    8.13   0
   4  -1 -13  617.43   13.01   0
  -1   6 -16  303.81    8.90   0
  -1   2  -9 1128.08   15.34   0
  -1   3 -13  485.84   10.47   0
  -1   8 -15   23.73    6.86   0
   0   1 -10 1530.83   17.63   0
   0   2 -14 1059.96   14.15   0
  -2   5 -13  515.55   10.98   0
   1   6 -20  146.54    8.37   0
   2   1 -17  534.26   11.15   0
   2   5 -21   68.70    7.10   0
   5  -1 -15  262.03    9.77   0
   6   1 -19   24.01    6.26   0
  -1   7 -17  117.42    7.67   0
   3   1 -19  130.81    8.06   0
   3   4 -22   89.64    7.97   0
   1   1 -15  591.23   11.70   0
   5   2 -21   91.08    7.41   0
   0   4 -19   91.82    6.86   0
   0   7 -19   22.31    7.07   0
  -2   4 -12 1670.06   17.92   0
  -2   7 -15  141.90    7.95   0
   1   3 -20  359.27    9.72   0
   1   4 -21  167.32    7.94   0
   0   3 -18  454.12   10.84   0
  -1   4 -17  430.66   10.36   0
   1   0 -11  449.11   10.55   0
   2   3 -22  194.92    9.32   0
   4   2 -22  158.99    8.79   0
   1   5 -22   99.47    7.91   0
  -1   6 -19   88.00    7.67   0
   1   2 -19  281.25    8.82   0
   2   2 -21  343.56    9.99   0
   2   4 -23   70.42    7.81   0
   4   1 -21  139.94    8.42   0
   4   3 -23   30.52    7.38   0
  -3   6 -12  489.40   11.19   0
  -2   5 -16  586.48   11.39   0
  -2   6 -17  130.93    7.78   0
  -1   2 -12 1713.53   17.70   0
  -1   3 -16 1048.68   14.18   0
   0   2 -17  263.48    8.82   0
   3  -1 -14 1256.34   16.88   0
   0   1 -13 1166.66   14.99   0
  -1   7 -20  146.36    7.80   0
   4   0 -20  365.74   10.77   0
  -3   5 -11  234.83    8.14   0
  -2   3 -11  416.84    9.76   0
  -2   7 -18  115.38    7.66   0
  -2   4 -15  174.52    7.16   0
   3   1 -22  250.10    9.02   0
   0   5 -23   55.26    7.76   0
   1   3 -23   71.98    7.79   0
   1   4 -24   92.44    7.56   0
   5   1 -23   47.47    6.78   0
   0   3 -21  218.12    9.00   0
  -1   4 -20  366.88    9.51   0
  -1   6 -22  114.02    7.71   0
   1   0 -14 1267.38   15.51   0
   1   5 -25   51.66    7.62   0
   2  -1 -12 1710.88   19.33   0
   2   3 -25  121.37    8.40   0
   4   2 -25   77.89    7.40   0
   1   2 -22  278.88    9.85   0
   4  -2 -12 1680.35   20.92   0
   5   0 -22  136.28    9.12   0
  -3   6 -15  145.10    7.42   0
   2   2 -24  233.86    9.82   0
   2   4 -26   73.11    7.19   0
   4   1 -24  158.92    8.59   0
  -2   5 -19   71.66    7.18   0
  -1   2 -15  546.33   10.89   0
  -2   6 -20  189.17    8.72   0
  -1   3 -19  263.25    9.04   0
   3   0 -21  286.14    9.98   0
  -3   5 -14  328.38    9.31   0
   2   0 -19  229.86    8.79   0
   3  -1 -17  532.41   11.65   0
   3   2 -26   98.86    8.44   0
  -2   7 -21   57.47    7.09   0
   4   0 -23  112.36    8.52   0
   0   5 -26  108.42    8.01   0
   3   1 -25  149.20    9.18   0
  -1   4 -23   50.10    7.47   0
   0   3 -24  265.22    9.44   0
   1   3 -26  155.72    9.00   0
   1   4 -27   32.73    7.00   0
  -3   6 -18  237.57    8.71   0
  -1   6 -25   43.14    6.95   0
   2  -1 -15  530.73   10.73   0
  -3   7 -19   92.55    7.33   0
  -1   2 -18  800.36   12.84   0
   1   2 -25  142.73    8.91   0
   2   3 -28   67.38    7.97   0
  -3   4 -13  563.96   11.22   0
  -3   5 -17  340.98    9.67   0
  -2   5 -22  171.47    8.74   0
  -1   1 -11  450.13    9.78   0
   4  -2 -15  173.08    8.07   0
  -2   6 -23   73.44    7.37   0
  -1   3 -22  277.11    9.44   0
   0   1 -19  239.78    8.04   0
   4   1 -27   39.43    7.52   0
   0   0 -12 4619.59   28.96   0
   3  -1 -20  424.14   11.02   0
   4  -1 -22  239.78    9.40   0
   3   2 -29   63.26    7.81   0
  -1   1 -14 1312.06   15.57   0
   0   4 -28   67.98    7.53   0
  -3   4 -16  763.16   12.65   0
  -3   6 -21  117.17    7.84   0
   1   0 -20  670.30   12.25   0
   3  -2 -13  481.63   11.36   0
   4   0 -26  112.40    8.14   0
  -2   2 -13 1130.82   14.38   0
  -1   4 -26  139.30    8.21   0
   0   3 -27   64.86    8.26   0
   2  -1 -18  829.78   13.57   0
  -3   5 -20  343.97   10.07   0
  -3   7 -22   91.19    7.84   0
  -1   2 -21  283.54    8.73   0
   3   1 -28  101.30    8.70   0
  -2   3 -20  408.55   10.24   0
  -1   3 -25  139.28    8.75   0
   0   1 -22  391.92   10.60   0
   1   2 -28  153.08    9.18   0
   4  -2 -18  327.02    9.97   0
  -2   6 -26   77.32    7.03   0
   0   2 -26  160.40    9.05   0
  -1   1 -17  879.10   12.98   0
  -2   2 -16  582.08   10.66   0
   2   0 -25  166.39    8.28   0
   3  -1 -23  107.99    8.10   0
  -3   3 -12  975.36   13.83   0
  -3   4 -19  134.73    6.98   0
   3  -2 -16 1069.95   15.76   0
   3   0 -27   64.01    8.24   0
  -3   6 -24  104.96    7.49   0
   1   1 -27   94.34    8.49   0
   2  -1 -21  284.84    9.60   0
   2   1 -29   82.95    8.69   0
   4  -1 -25  132.54    8.62   0
  -3   5 -23   40.66    6.74   0
  -1   2 -24  284.40    9.82   0
  -4   5 -15  241.13    8.43   0
  -3   3 -15  270.52    8.64   0
  -2   3 -23  105.70    7.00   0
  -4   6 -19   67.22    6.80   0
   0   3 -30   79.13    7.45   0
  -2   2 -19  214.64    8.34   0
  -1   1 -20  647.98   11.82   0
   4   0 -29   43.40    7.50   0
  -2   5 -28   69.23    7.21   0
  -1   3 -28  139.23    8.90   0
  -3   4 -22  231.49    8.76   0
   1   2 -31   23.98    7.91   0
   0   2 -29   69.83    8.59   0
   3  -2 -19  279.46    9.46   0
  -4   5 -18  249.37    8.71   0
  -3   3 -18  677.15   12.15   0
   0   0 -21  689.26   12.35   0
   2  -2 -11 1741.59   20.33   0
   3  -1 -26  230.20   10.02   0
   2  -1 -24  284.16   10.07   0
  -3   5 -26  108.15    7.95   0
  -3   6 -27   27.81    6.18   0
  -2   3 -26  213.59    9.46   0
  -1   2 -27   85.00    8.30   0
   2  -2 -14 1025.14   15.13   0
   3   0 -30  123.71    8.62   0
  -2   2 -22  588.17   11.40   0
  -1   1 -23   96.28    7.85   0
  -4   4 -14  559.64   11.60   0
   2   1 -32   41.29    8.34   0
  -4   5 -21  131.05    7.96   0
  -3   4 -25  136.11    8.32   0
  -2   1 -12 1706.18   17.90   0
  -1   0 -13 1136.24   14.78   0
   0   1 -28  161.51    8.94   0
  -1   0 -10 1476.80   17.13   0
  -1   3 -31   31.95    7.96   0
   2  -2 -17  264.19    8.93   0
   3  -2 -22  287.14    9.73   0
  -2   1 -15  544.77   10.90   0
  -2   1  -9 1146.05   15.55   0
   0   0 -24  383.82   10.19   0
   1  -1 -22  394.02    9.88   0
  -4   4 -17  208.95    8.31   0
  -1   0 -16 1649.93   16.98   0
   0   2 -32   61.18    8.31   0
  -2   2 -25  169.17    9.00   0
  -4   6 -25   67.60    6.73   0
  -2   1 -18  833.33   12.51   0
  -2   3 -29   91.44    8.30   0
  -1   1 -26  254.54    9.49   0
   0  -1 -14 1332.29   15.80   0
   0  -1 -11  448.43   10.37   0
   2  -1 -27   88.66    8.51   0
   2   0 -31   32.90    8.04   0
   3  -1 -29   84.89    8.72   0
  -3   2 -11  417.28    9.51   0
  -3   5 -29   62.14    6.96   0
  -1   0 -19  244.31    8.50   0
  -1   2 -30  116.18    8.22   0
  -4   4 -20  364.84   10.07   0
  -4   5 -24  139.39    7.97   0
   0  -1 -17  871.38   12.99   0
  -3   4 -28   89.70    7.54   0
   0   1 -31   20.25    7.95   0
   1  -1 -25  221.10    9.41   0
  -2   1 -21  297.91    8.83   0
   0   0 -27   43.33    6.87   0
   3  -2 -25  136.79    8.66   0
  -1   0 -22  390.43    9.76   0
   0  -1 -20  675.64   12.32   0
  -4   4 -23  116.84    8.00   0
  -2   2 -28   78.66    7.39   0
   2  -2 -23  231.61    9.27   0
  -1   1 -29  125.68    9.06   0
  -4   3 -16  761.98   12.98   0
  -4   3 -13  567.58   11.57   0
  -4   5 -27   27.45    7.07   0
  -2   1 -24  272.17    9.08   0
  -2   3 -32   50.48    7.39   0
   1  -2 -15  543.23   11.23   0
   1   0 -32   68.44    8.34   0
  -3   2 -23  103.88    7.59   0
  -4   3 -19  145.98    7.97   0
  -1   0 -25  234.83    9.52   0
   0  -1 -23   93.88    7.09   0
   1  -2 -18  829.64   13.37   0
   1  -2 -12 1617.69   18.18   0
   1  -1 -28  160.95    9.77   0
   3  -1 -32   43.86    7.04   0
   0   0 -30  108.28    8.93   0
   3  -3 -15  496.04   11.91   0
  -4   3 -10  812.96   13.71   0
  -4   4 -26  107.58    7.95   0
   3  -2 -28  145.61    8.93   0
   2  -2 -26  166.48    9.19   0
  -4   3 -22  249.84    9.30   0
  -2   2 -31   48.06    7.65   0
   1  -2 -21  293.75    9.58   0
   3  -3 -12 1403.69   19.87   0
  -2   1 -27   78.89    8.72   0
  -5   5 -22  133.38    8.62   0
  -3   2 -26  225.53    8.81   0
  -1   1 -32   62.01    8.47   0
  -2   0 -17  272.00    8.89   0
   3  -3 -21  215.84    8.75   0
  -2   0 -14 1037.28   13.89   0
  -1   0 -28  158.96    8.52   0
  -3   1 -16 1084.26   14.61   0
   1  -2 -24  275.62   10.01   0
   1  -1 -31   36.54    8.10   0
  -4   3 -25  140.87    8.87   0
  -4   4 -29   33.67    7.02   0
  -3   1 -19  297.11    9.19   0
  -1  -1 -15  569.73   11.29   0
  -3   1 -13  477.53   10.05   0
  -5   4 -18  256.69    9.16   0
  -5   5 -25   47.17    7.16   0
  -2   0 -11 1829.32   18.38   0
   2  -2 -29   62.84    8.06   0
  -3   2 -29   81.73    8.54   0
  -2   0 -23  224.71    9.43   0
  -2   1 -30  115.93    8.50   0
  -1  -1 -21  299.84    9.08   0
  -1  -1 -12 1821.21   18.53   0
  -5   4 -21  136.86    8.17   0
  -4   2 -18  332.84    9.60   0
   2  -3 -16 1105.61   15.91   0
  -4   2 -15  186.03    7.38   0
  -4   3 -28  101.19    8.78   0
  -1   0 -31   18.15    8.36   0
   1  -2 -27   87.88    8.56   0
   2  -3 -19  293.03    9.53   0
  -4   2 -21  326.04   10.03   0
  -3   1 -25  141.14    9.09   0
  -5   4 -24  163.02    9.00   0
   2  -3 -22  282.33    9.88   0
   2  -3 -13  466.43   11.14   0
  -4   2 -12 1747.01   18.37   0
   0  -2 -13 1208.73   15.69   0
  -4   2 -24  229.37    8.79   0
  -3   2 -32   47.75    7.76   0
  -2   0  -8 2848.90   23.87   0
  -1  -1 -27   91.57    8.87   0
  -1  -1  -9 1165.36   15.42   0
   0  -1 -32   52.16    8.30   0
   2  -2 -32   75.80    7.98   0
  -3   1 -28  131.63    8.95   0
   2  -3 -25  144.60    9.31   0
  -5   4 -27   25.37    6.96   0
  -2   0 -29   64.51    8.42   0
   0  -2 -25  180.30    8.45   0
   1  -2 -30  128.60    8.78   0
  -5   3 -20  364.17   10.54   0
  -5   3 -17  370.60   10.24   0
  -5   3 -23   45.26    7.71   0
  -5   3 -14  352.89    9.89   0
  -1  -1 -30  117.67    9.28   0
  -4   2  -9  967.38   14.85   0
  -3   0 -18  503.18   11.21   0
   0  -2 -28   88.57    8.95   0
   1  -3 -20  417.05   10.98   0
   1  -3 -17  537.50   11.44   0
  -3   0 -21  214.82    8.62   0
  -3   1 -31   25.97    8.02   0
  -3   1  -7 1445.60   17.73   0
  -2  -1 -19  276.90    8.98   0
   2  -3 -28  147.26    8.69   0
  -3   0 -15  498.94   10.95   0
  -2  -1 -22  283.28    9.43   0
  -2  -1 -16 1122.75   14.61   0
   1  -3 -23  121.84    8.15   0
  -5   3 -26  107.06    8.56   0
  -3   0 -24  270.36    9.42   0
  -2  -3 -14  342.29   10.01   0
  -2  -2 -15  179.73    7.96   0
  -3  -6   6  138.25    8.92   0
  -2  -6   4  370.57   10.85   0
  -1  -5  -5  399.28    9.74   0
   0  -3  -6 2536.84   22.14   0
  -2  -6   1  180.22    8.36   0
  -4  -6  -1   56.15    7.31   0
  -3  -6  -3  146.78    8.99   0
  -3  -4 -14  337.31   10.93   0
  -2  -6   7   92.63    8.06   0
  -2  -5  -9  348.61   10.60   0
  -3  -6   9  130.35    8.00   0
  -2  -6  -2  210.04    9.82   0
   0  -4  10 1112.51   16.10   0
  -4  -5 -11   65.70    8.22   0
  -4  -4 -15   72.42    9.32   0
  -2  -4 -13  341.68   10.08   0
   0  -4  -5  379.88    9.19   0
   0  -5   5  646.78   12.04   0
  -1  -6   5  196.21    8.92   0
   0  -5  -1  286.88    8.64   0
  -3  -6  -6  118.30    8.39   0
  -2  -6  -5  136.02    8.54   0
  -2  -6  10  157.91    8.56   0
  -1  -6  -1  293.77    9.73   0
  -1  -5  -8  592.85   11.41   0
  -1  -3 -13  569.93   11.67   0
   0  -5   8  612.34   12.04   0
  -1  -6   8  534.77   11.80   0
   0  -5  -4  883.53   13.03   0
  -3  -5 -13  136.01    9.33   0
  -2  -5 -12  270.33    9.95   0
  -1  -6  -4  564.76   11.37   0
  -1  -4 -12  787.93   12.79   0
  -2  -6  -8  312.19   10.80   0
   0  -4  -8 1371.67   15.88   0
  -3  -6  -9   74.11    8.41   0
  -4  -5 -14   72.75    7.94   0
  -1  -2 -14 1186.76   16.69   0
   0  -6   3  330.44    9.81   0
  -3  -4 -17  152.39    8.73   0
  -2  -7   2  131.07    8.56   0
  -2  -3 -17  348.05   10.69   0
  -1  -6  -7  115.60    7.59   0
  -1  -6  11  118.21    7.84   0
   0  -6   0  787.02   12.64   0
   0  -5  -7  583.45   11.57   0
   0  -5  11  208.64    8.65   0
  -2  -7  -1   52.63    7.74   0
  -2  -4 -16  294.15    9.38   0
   0  -6  -3  219.00    8.78   0
   0  -6   6  304.53    9.02   0
   1  -4   2 1189.96   15.25   0
  -2  -7  -4  166.29    9.32   0
  -1  -7   0  315.32   10.33   0
  -1  -7   3   84.46    7.90   0
   1  -4  -1  843.45   13.16   0
   1  -3   1  630.53   12.19   0
  -3  -6 -12  155.33    9.38   0
  -2  -7   8  109.69    8.07   0
   1  -4   5 1035.73   14.94   0
  -3  -5 -16  155.79    9.10   0
  -2  -5 -15   59.44    7.62   0
  -1  -7   6  154.52    8.44   0
  -1  -6 -10  219.98    9.80   0
   0  -6   9  225.19    9.35   0
   0  -6  -6  352.50    9.57   0
   1  -5   0 1303.13   15.70   0
   1  -3  -2 2922.16   24.35   0
  -2  -7  -7  110.39    8.27   0
  -1  -4 -15  267.41    9.30   0
   0  -5 -10  600.88   11.93   0
   1  -4  -4 2611.30   21.46   0
  -1  -7  -6  145.02    8.88   0
  -1  -3 -16  750.20   13.37   0
   0  -3 -12  972.04   14.48   0
   1  -5  -3  807.19   12.35   0
   1  -5   6 1042.38   14.85   0
  -1  -7   9  156.32    8.65   0
   0  -7  -2  139.08    8.66   0
   0  -7   4  539.90   12.17   0
   1  -4   8 1876.81   20.76   0
   0  -6  -9  313.42    9.29   0
  -2  -7 -10   99.80    8.36   0
   1  -3  -5 2054.19   20.19   0
  -1  -6 -13  217.18    9.50   0
   0  -7  -5  190.80    9.31   0
   0  -7   7  114.72    7.95   0
   1  -6  -2  674.66   11.72   0
   1  -6   4  710.07   12.11   0
   1  -5  -6  851.54   12.70   0
   1  -4  -7  671.89   11.95   0
   1  -5   9  658.05   12.47   0
  -1  -8   1   77.17    8.10   0
   0  -5 -13  194.44    8.54   0
   1  -6  -5  411.19   10.39   0
  -2  -5 -18  199.87    9.57   0
  -1  -8  -2  135.58    8.57   0
   0  -4 -14  559.70   11.64   0
   1  -6   7  348.13    9.88   0
  -1  -8   4  105.92    8.26   0
   0  -7  -8  416.02   11.34   0
  -1  -8  -5   71.14    8.02   0
  -1  -5 -17  168.22    8.70   0
   1  -7   2  212.65    8.70   0
   1  -5  -9  343.47    9.11   0
  -1  -4 -18  266.65    9.28   0
   1  -6  -8  602.01   11.94   0
   1  -3  -8 1984.22   19.86   0
  -2  -6 -17   75.24    8.41   0
   0  -8   2  147.44    8.94   0
   1  -7  -4  562.10   11.84   0
   1  -7   5  186.96    8.76   0
   1  -4  11  288.12    9.77   0
  -1  -6 -16  207.35    9.29   0
   0  -8   5  122.96    7.95   0
   0  -7 -11   79.31    8.32   0
   1  -6  10  417.16   10.56   0
   0  -3 -15  278.46    8.85   0
   1  -7  -7  104.99    7.96   0
   0  -8  -7   84.60    8.12   0
   1  -7   8  527.83   11.75   0
   0  -8   8  139.32    8.84   0
   0  -5 -16  385.80   10.55   0
   1  -6 -11  194.11    8.53   0
   0  -6 -15   93.75    7.34   0
   2  -5   1  740.11   12.31   0
  -1  -7 -15   47.68    7.37   0
   2  -6  -1  548.58   11.20   0
   2  -5  -2  645.76   11.30   0
   1  -8   3   95.05    8.13   0
   0  -8 -10  107.51    8.58   0
   0  -4 -17  199.78    8.33   0
   1  -7 -10  215.73    8.53   0
   2  -6  -4  795.30   12.97   0
   2  -5   4 2047.15   19.64   0
   0  -7 -14   82.72    7.72   0
   1  -8  -6  139.35    8.99   0
   1  -3 -11  416.43   10.13   0
   2  -5  -5  679.96   11.60   0
   1  -8   6  155.48    8.32   0
   1  -4 -13  567.14   11.34   0
   2  -6   5  306.81    9.26   0
   2  -4   0 4071.58   27.43   0
   2  -7  -3  134.51    8.18   0
   2  -4  -3  785.09   12.43   0
  -1  -6 -19   32.57    7.60   0
   2  -7   3  395.17    9.71   0
   2  -6  -7  246.12    9.05   0
   1  -6 -14  359.77   10.45   0
   1  -8  -9   98.97    8.73   0
   2  -7  -6  443.77   10.35   0
   1  -5 -15  251.01    9.08   0
   0  -6 -18  148.17    8.94   0
   2  -7   6  345.37    9.45   0
   2  -6   8  641.86   12.35   0
   1  -9   1   78.54    7.57   0
   2  -8  -2  198.53    9.06   0
   2  -8   1  180.67    8.92   0
   0  -5 -19  144.68    8.02   0
   0  -7 -17  120.99    8.81   0
   1  -9  -5   76.25    7.85   0
   1  -9   4  112.94    8.50   0
   2  -8  -5  142.03    9.07   0
   2  -7  -9  329.18    9.52   0
   2  -4   6  731.00   13.26   0
   0  -2 -16  568.54   12.58   0
   1  -8 -12  177.76    9.10   0
   2  -8   4  365.83    9.99   0
   2  -8  -8  297.64   10.59   0
   2  -5 -11  244.81    8.11   0
   2  -4  -9 1010.55   14.19   0
   1  -4 -16  768.48   13.16   0
   1  -3 -14 1192.40   15.96   0
   2  -7   9  127.31    7.61   0
   1  -7 -16  196.37    9.49   0
   1  -6 -17  154.70    8.89   0
   2  -8   7   79.39    8.34   0
   2  -3  -1  671.87   12.34   0
   2  -7 -12  263.57    9.91   0
   2  -9  -4  162.26    9.06   0
   2  -9  -1   50.43    7.18   0
   2  -5  10  490.81   11.54   0
   2  -3  -4 3333.10   25.52   0
   2  -9   2  140.03    8.62   0
   1  -8 -15   46.79    7.41   0
   1  -5 -18  244.78    9.12   0
   2  -8 -11   79.07    7.87   0
   3  -7  -2  553.10   11.11   0
   3  -6  -3  404.37   10.08   0
   3  -6   0  964.03   13.52   0
   2  -9  -7  110.47    8.08   0
   3  -7  -5  325.78    9.70   0
   2  -9   5  131.37    8.34   0
   3  -6   3  403.81   10.09   0
   2  -5 -14  349.65    9.70   0
   2  -4 -12 1635.72   17.70   0
   2  -3  -7 1592.36   17.82   0
   3  -8  -4  386.22   10.97   0
   3  -7   4  479.16   11.10   0
   2  -4   9  924.15   15.96   0
   3  -8   2  231.66    9.47   0
   3  -5  -1  760.57   12.52   0
   1  -2 -12 1688.00   19.82   0
   2  -9 -10  110.26    8.13   0
   2  -7 -15   56.77    7.65   0
   3  -7  -8  353.74    9.80   0
   3  -5  -4 2106.78   19.34   0
   3  -8  -7  111.91    8.76   0
   2  -6 -16  292.50    9.70   0
   3  -6  -9  381.68    9.52   0
   1  -7 -19   36.21    7.45   0
   3  -8   5  167.92    8.47   0
   3  -6   6  650.60   12.29   0
   1  -6 -20  160.39    8.57   0
   3  -9  -3  131.76    8.58   0
   3  -9   0  243.77    9.52   0
   3  -5  -7  335.16    8.89   0
   3  -9  -6  101.81    8.74   0
   3  -8 -10  183.16    9.20   0
   3  -7 -11  134.33    7.69   0
   3  -7   7  311.60    9.65   0
   1  -4 -19  139.11    7.60   0
   1  -3 -17  512.32   11.31   0
   3  -9   3   63.80    7.75   0
   3  -5   5  702.17   12.60   0
   3  -6 -12  520.37   11.32   0
   2  -5 -17  376.39   10.30   0
   3  -9  -9   66.36    8.04   0
   2  -8 -17   75.77    8.26   0
   2  -7 -18  191.61    9.27   0
   2  -4 -15  165.29    7.08   0
   3  -8   8  313.92    9.93   0
   3  -9   6  131.04    8.66   0
   3  -8 -13  135.35    8.53   0
   3  -4  -2 1257.69   15.37   0
   3  -4  -5 1078.43   14.53   0
   3  -6   9  340.49    9.85   0
   3  -4   1  843.61   13.45   0
   2  -6 -19   61.24    7.12   0
   3  -9 -12  156.34    8.70   0
   4  -8  -3  164.29    8.65   0
   4  -7  -4  483.38   10.99   0
   4  -7  -1  192.61    8.39   0
   4  -8  -6  196.33    9.23   0
   4  -8   0  446.20   10.41   0
   3  -6 -15  143.27    8.18   0
   3  -4  -8 2009.11   18.98   0
   2  -3 -13  466.54   10.53   0
   4  -7   2  574.04   11.14   0
   1  -2 -15  538.44   12.10   0
   3  -5   8 1637.90   19.25   0
   4  -8  -9  161.73    9.15   0
   4  -8   3  164.25    8.42   0
   4  -6  -2  802.74   13.01   0
   3  -8 -16  152.63    8.62   0
   3  -4   4 2598.90   23.26   0
   4  -9   1  143.71    8.46   0
   4  -6  -5  299.78    8.70   0
   4  -9  -8  270.77    9.73   0
   4  -7 -10  358.08   10.16   0
   3  -7 -17  135.12    8.56   0
   4  -6  -8  663.29   12.28   0
   4  -9   4  286.15    9.94   0
   4  -7   5  318.46    9.56   0
   2  -7 -21   98.87    7.91   0
   2  -5 -20  332.36    9.95   0
   2  -4 -18  319.05    9.45   0
   4  -8 -12  268.82    9.80   0
   4  -8   6  185.92    8.54   0
   4  -9 -11   53.72    7.41   0
   4  -6   4  765.51   12.55   0
   3  -5 -16  595.35   11.87   0
   4  -7 -13  108.92    8.03   0
   4  -6 -11  323.30    9.57   0
   3  -6 -18  231.78    9.26   0
   4  -5  -3  328.39    8.69   0
   4  -5  -6 1030.33   13.77   0
   3  -8 -19   40.64    7.55   0
   4  -5   0 1321.90   15.54   0
   4  -9 -14   52.39    7.57   0
   4  -7   8  358.01   10.36   0
   2  -3 -16 1052.68   15.14   0
   3  -4 -14  620.79   11.79   0
   3  -4   7  636.48   12.78   0
   4  -5  -9  679.05   11.96   0
   3  -7 -20  115.56    8.27   0
   3  -3  -3 2012.94   19.55   0
   5  -9  -4  304.07   10.01   0
   5  -8  -5  146.00    7.96   0
   3  -3  -6 1967.60   19.29   0
   4  -6   7  243.06    8.62   0
   4  -5   3  792.05   13.09   0
   5  -9  -7   70.37    8.08   0
   5  -9  -1  123.07    8.43   0
   4  -7 -16  215.40    8.36   0
   5  -8  -8  332.27    9.89   0
   5  -8   1  170.85    8.91   0
   5  -7  -3  382.77   10.40   0
   3  -3   0 2538.12   22.46   0
   5  -7  -6  355.53   10.18   0
   5 -10  -3   52.34    7.14   0
   5  -9 -10   95.56    8.34   0
   5  -9   2   92.75    7.93   0
   5 -10   0  149.99    8.53   0
   5  -8 -11   91.50    8.39   0
   3  -5 -19   80.77    6.62   0
   3  -3  -9  476.93   10.11   0
   4  -8 -18   78.57    8.15   0
   5  -7  -9  120.85    7.42   0
   3  -6 -21  117.00    8.04   0
   5  -8   4  377.13    9.85   0
   5  -7   3  127.20    7.44   0
   4  -6 -17  151.81    8.13   0
   5 -10   3   59.79    7.01   0
   5  -9 -13  115.19    7.92   0
   5  -9   5   96.04    7.42   0
   5  -6  -4  703.79   12.29   0
   3  -4 -17  420.60   10.40   0
   4  -5   6  831.28   13.67   0
   4  -4  -4 1414.42   16.07   0
   5  -7 -12  346.22   10.46   0
   5  -6  -7  346.66    9.72   0
   5  -6  -1  272.46    9.26   0
   4  -7 -19  100.02    7.60   0
   5  -8 -14  123.71    8.44   0
   4  -4  -7  288.76    8.22   0
   4  -4  -1 1287.35   15.39   0
   3  -3 -12 1375.51   16.03   0
   4  -5 -15  146.55    7.17   0
   5  -6 -10  433.54   10.76   0
   5  -8   7  110.90    7.53   0
   5  -6   2  654.94   12.10   0
   2  -3 -19  251.86    8.90   0
   4  -4 -10 1195.83   15.04   0
   5  -7   6  416.59   10.47   0
   2  -2 -14  986.12   15.12   0
   6  -9  -6  143.53    8.12   0
   5  -8 -17   94.08    7.62   0
   6  -8  -4  350.36   10.45   0
   3  -4  10  756.33   15.05   0
   6  -9  -9  139.60    8.13   0
   6  -9   0  236.91    8.91   0
   6  -8  -7   97.30    7.24   0
   4  -6 -20  201.91    8.72   0
   5  -6   5  395.69   10.23   0
   5  -5  -5  621.07   11.23   0
   4  -5 -18  386.55   10.30   0
   4  -4 -13  642.85   11.33   0
   5  -5  -8  602.09   11.45   0
   5  -5  -2 1047.50   13.88   0
   6  -9 -12  131.49    8.15   0
   4  -7 -22   92.74    7.19   0
   6  -9   3  134.47    7.94   0
   6  -8   2  200.99    8.96   0
   6  -7  -5  180.64    7.90   0
   3  -4 -20  361.82    9.98   0
   3  -3   6 2420.98   24.36   0
   4  -5   9  331.49    9.84   0
   5  -7 -18  112.55    8.16   0
   6  -7  -8  520.39   11.53   0
   6  -7  -2  212.47    8.18   0
   6  -8 -13  128.82    8.62   0
   4  -4   5  397.32   10.07   0
   5  -6 -16  286.14    8.86   0
   5  -5 -11  191.38    7.62   0
   6  -7 -11  123.83    8.12   0
   6  -7   1  266.98    8.69   0
   6  -8   5  138.72    7.81   0
   4  -4 -16  405.75   10.18   0
   3  -2  -4 3332.83   25.72   0
   5  -6   8  525.58   11.42   0
   5  -5 -14  493.23   10.45   0
   5  -5   4  867.76   13.59   0
   6  -8 -16  134.40    7.72   0
   6  -7   4  554.90   11.84   0
   6  -6  -3  317.40    9.63   0
   2  -2 -17  229.44    8.42   0
   3  -2  -7 1526.02   17.25   0
   4  -3  -5 1037.93   13.81   0
   6  -6  -9  219.53    8.84   0
   7  -9  -5  121.93    8.62   0
   4  -3  -8 1977.59   18.50   0
   7  -9  -8  122.24    8.14   0
   3  -3 -18  437.12   10.49   0
   4  -5 -21  166.01    8.22   0
   5  -7 -21   49.11    7.35   0
   5  -6 -19   99.58    7.73   0
   7  -9  -2  155.08    8.12   0
   3  -2  -1  645.31   12.13   0
   5  -4  -6 1050.48   13.96   0
   6  -6 -12  468.16   11.07   0
   7  -8  -6  152.11    8.31   0
   5  -4  -3  334.44    8.71   0
  -5   4 -15  244.39    8.97   0
  -4   7 -23   32.23    8.01   0
   0   2 -17  244.46    9.14   0
  -7   5  -9  320.39   10.17   0
  -6   4 -10  546.63   11.97   0
  -4   5 -21  131.54    9.37   0
  -5   5 -19  159.05    9.35   0
   0   1 -13 1045.94   16.13   0
  -8   7 -12  183.93    9.34   0
  -2   1  -9 1149.21   16.02   0
  -3   6 -24   89.65    8.41   0
  -3   5 -23   34.67    7.05   0
  -4   3 -16  780.16   14.01   0
  -6   5 -17  170.14    9.75   0
  -7   6 -16  191.71    9.58   0
  -4   4 -20  331.35   10.60   0
  -1   2 -18  835.61   14.35   0
  -1   4 -23   47.00    7.50   0
  -7   5 -12  256.06    9.96   0
  -6   4 -13  309.88   10.05   0
   0   3 -21  200.27    9.04   0
  -6   7 -22   70.97    8.65   0
  -5   4 -18  269.65    9.74   0
  -5   6 -23   54.03    7.66   0
  -8   6 -11   87.52    8.13   0
  -8   7 -15   54.63    7.83   0
  -6   6 -21  106.19    8.58   0
  -2   5 -25  125.08    8.97   0
  -1   1 -14 1284.70   17.00   0
  -2   1 -12 1854.94   19.79   0
  -1   3 -22  273.81   10.36   0
  -5   3 -14  351.74    9.69   0
  -5   5 -22  136.85    9.80   0
  -4   2 -12 1705.23   18.60   0
  -4   5 -24  139.67    9.45   0
  -3   1  -7 1498.58   17.99   0
  -2   4 -24  215.00    9.40   0
   1   1 -15  508.28   12.05   0
  -7   5 -15   66.65    8.32   0
  -6   3  -6  632.82   12.68   0
  -3   3 -21  273.74    9.92   0
  -6   5 -20  154.74    9.79   0
  -4   3 -19  130.49    8.32   0
  -3   2 -17  522.95   11.57   0
  -2   2 -19  212.78    8.77   0
   0   1 -16 1562.02   18.84   0
   0   2 -20  674.95   13.29   0
  -8   6 -14  119.50    8.80   0
  -7   4  -8  333.64   10.25   0
  -3   5 -26  101.75    9.17   0
  -3   6 -27   23.25    6.98   0
  -6   3  -9  357.89   10.24   0
  -5   2  -4 1991.84   21.46   0
  -3   1 -10 1346.77   16.80   0
  -2   3 -23  102.62    7.96   0
  -5   4 -21  149.20    8.69   0
  -5   2  -7  338.24    9.84   0
  -5   3 -17  396.80   10.44   0
  -3   4 -25  126.29    9.26   0
  -1   2 -21  278.45   10.00   0
  -7   4 -11  125.17    8.12   0
  -6   6 -24   87.04    8.46   0
  -2   1 -15  565.36   11.54   0
  -6   3 -12  524.32   11.69   0
  -8   6 -17   75.60    8.41   0
  -6   4 -19   74.73    8.37   0
  -5   2 -10  506.08   11.19   0
  -5   5 -25   53.94    8.55   0
  -7   6 -22   76.57    8.19   0
  -6   5 -23   37.89    8.55   0
  -4   3 -22  247.80    9.76   0
  -4   5 -27   29.55    8.01   0
  -3   2 -20  429.75   11.08   0
  -2   5 -28   62.20    8.57   0
  -7   4 -14  282.68   10.42   0
  -2   4 -27   21.74    7.89   0
  -1   3 -25  129.37    8.78   0
  -8   5 -13  118.38    8.49   0
  -5   3 -20  375.16   11.28   0
  -4   2 -18  329.96    9.92   0
  -6   3 -15  157.23    8.02   0
  -5   4 -24  150.43   10.35   0
  -4   4 -26  123.99    9.43   0
  -1   0 -10 1444.37   17.94   0
   0   1 -19  215.43    8.74   0
  -4   1  -5 1007.69   15.44   0
  -3   5 -29   66.66    8.20   0
  -2   3 -26  215.22   10.05   0
   0   2 -23  205.26    8.97   0
  -4   1  -8 1861.60   19.36   0
  -8   5 -16  148.58    8.93   0
  -7   4 -17  126.90    8.96   0
  -6   4 -22  177.85    9.73   0
  -3   4 -28   87.48    8.69   0
  -1   1 -20  652.89   13.03   0
  -1   2 -24  269.71   10.28   0
  -5   2 -16  609.96   12.71   0
  -1   0 -13 1114.78   15.57   0
  -4   3 -25  152.44   10.09   0
  -3   2 -23  105.24    8.28   0
  -2   0  -8 2880.84   24.98   0
  -5   3 -23   42.18    8.76   0
  -4   1 -14  629.28   12.39   0
  -3   3 -27   70.68    8.46   0
  -2   0 -11 1820.10   19.16   0
  -2   2 -25  165.07    9.34   0
   0   0 -15  147.45    6.89   0
  -7   3 -10  349.08   10.43   0
  -5   4 -27   39.45    8.91   0
  -3   1 -19  299.02   10.11   0
  -8   5 -19   46.48    7.98   0
   1   0 -14 1182.32   17.60   0
  -5   2 -19   76.91    8.09   0
  -4   4 -29   32.17    8.22   0
  -1   3 -28  125.38    8.33   0
  -7   3 -13  117.33    8.19   0
  -6   2  -8  660.51   12.87   0
  -6   4 -25   78.45    9.12   0
  -1   0 -16 1577.45   17.65   0
  -6   2 -11  310.50    9.88   0
  -6   3 -21  134.04    8.32   0
  -2   0 -14 1068.51   14.77   0
  -4   1 -17  451.37   11.31   0
  -1   1 -23  108.10    8.18   0
  -2   3 -29   85.07    8.98   0
  -8   4 -15   61.08    8.58   0
  -6   2 -14  384.19   10.81   0
  -7   3 -16  236.57    9.99   0
  -5   3 -26   95.54    9.51   0
  -1   2 -27   66.60    8.27   0
   0   0 -18  538.39   11.72   0
  -3   0  -9  474.72   10.97   0
  -3   1 -22  286.30   10.77   0
  -5   2 -22  192.20    9.78   0
  -2   0 -17  262.26    8.84   0
  -5   1  -9  655.10   12.57   0
  -3   0 -12 1514.80   17.27   0
   1   0 -17  817.63   14.45   0
  -6   3 -24  110.53    9.12   0
  -5   1 -12  601.51   11.75   0
  -3   3 -30  115.47    9.16   0
  -2   2 -28   70.29    8.75   0
  -8   4 -18   84.54    7.94   0
  -5   1  -6 1036.02   15.63   0
  -7   3 -19  107.71    8.28   0
   0   1 -25  220.58    9.39   0
  -4   2 -27   15.46    9.23   0
  -2   0 -20  693.92   12.70   0
  -1   1 -26  249.56   10.33   0
  -3   1 -25  151.44   10.33   0
   0   0 -21  632.45   12.70   0
  -5   1 -18  406.17   11.49   0
  -5   3 -29   83.04    9.04   0
  -3   0 -18  507.39   12.03   0
  -3   2 -29   89.91    9.56   0
  -7   3 -22   85.68    9.17   0
  -4   1 -23   60.68    7.92   0
  -1   0 -22  390.70   10.26   0
  -2   1 -27   82.01    9.34   0
  -2   3 -32   36.62    6.97   0
  -6   3 -27   35.06    8.97   0
  -4   0 -10 1168.72   15.90   0
  -7   2 -12  362.95   11.03   0
  -6   2 -23   73.35    8.22   0
  -5   1 -21  172.08    9.76   0
  -3   0 -21  229.43    9.82   0
  -2   0 -23  208.54    9.04   0
  -2   2 -31   38.96    8.47   0
  -7   2 -15  143.76    9.02   0
  -4   0 -16  427.15   10.57   0
  -4   0  -7  272.98    9.06   0
  -1  -1 -12 1721.55   18.51   0
  -1  -1 -15  571.08   11.79   0
  -1  -1  -9 1138.24   15.82   0
  -8   3 -17   87.84    8.72   0
  -5   2 -28   74.94    9.33   0
  -4   1 -26  171.20   10.45   0
  -4   2 -30   69.93    9.58   0
   0   0 -24  367.32   10.85   0
  -6   1 -13  192.47    9.10   0
  -1   0 -25  237.34    9.62   0
  -1   1 -29  122.77    9.21   0
  -7   2 -18  120.90    8.86   0
  -6   1 -10  429.55   11.08   0
  -4   0 -19  107.19    7.98   0
  -2  -1 -13  494.50   11.27   0
   0  -1 -17  827.59   13.77   0
  -6   1 -16  332.48   10.72   0
  -3   2 -32   50.16    9.19   0
  -2  -1 -10 1377.06   16.97   0
  -1  -1 -18  819.71   13.70   0
  -6   2 -26   84.96    9.39   0
  -5   1 -24  117.36    9.83   0
  -3   0 -24  276.61   11.14   0
  -2  -1 -16 1140.22   15.66   0
   1   0 -23   83.63    7.22   0
  -8   3 -20   90.18    7.75   0
  -2   1 -30  108.69    9.11   0
   1  -1 -13 1026.73   16.10   0
  -6   1  -7  342.66   10.37   0
  -6   1 -19   97.83    7.82   0
  -4   0 -22  325.60   11.40   0
  -4   0  -4 1376.42   18.36   0
   1  -1 -16 1553.54   19.08   0
  -2  -1 -19  293.29    9.65   0
  -2  -1  -7 1512.77   18.33   0
   0  -1 -20  677.19   12.97   0
  -5   0 -14  557.13   12.39   0
  -4   1 -29   94.52   10.15   0
  -5   0 -11  201.43    8.96   0
  -3  -1 -14  641.64   12.56   0
  -3  -1 -11  362.37   10.06   0
  -3   1 -31   40.15    8.75   0
  -1   0 -28  161.52    9.67   0
   0   0 -27   30.40    7.01   0
  -5   1 -27   37.29    8.35   0
  -3   0 -27   60.50    9.69   0
   1  -1 -19  218.38    8.79   0
  -5   0 -20  161.33    9.75   0
  -5   0  -8  617.02   12.56   0
  -4   0 -25  128.94    8.99   0
  -2   0 -29   71.23    8.99   0
  -1  -1 -24  279.56   10.64   0
   0  -1 -23  105.00    8.14   0
  -5   0 -23   82.32    8.96   0
  -7   1 -14  122.62    8.47   0
  -3  -1 -23   66.73    9.00   0
  -2  -1 -25  144.40    8.81   0
  -7   1 -17  135.28    9.38   0
  -4  -1 -12  570.21   12.34   0
  -4   0 -28   65.34    9.13   0
  -4  -1 -18  407.73   10.95   0
  -7   1 -20  154.90    9.64   0
  -5   0  -5  624.30   13.03   0
  -1  -1 -27   84.76    9.02   0
  -1   0 -31   27.34    8.21   0
   0  -1 -26  243.17   10.01   0
  -1  -2 -14 1245.63   16.44   0
  -6   0 -15  100.65    8.66   0
  -5   0 -26  148.62    9.87   0
  -4  -1 -21  190.61    9.23   0
  -4  -1  -9  658.72   12.86   0
  -3  -1  -5 1022.86   15.61   0
  -1  -2 -17  527.97   11.42   0
   2  -1 -15  491.71   12.71   0
  -6   0 -18  111.41    8.71   0
  -6   0 -12  497.58   12.20   0
  -3  -1 -26  167.98   10.44   0
  -2   0 -32   71.19    9.59   0
   0  -2 -13 1193.25   16.30   0
  -2  -2 -15  191.14    9.22   0
  -1  -2 -20  383.81   10.98   0
  -1  -2 -11  432.02   10.84   0
  -6   0 -21  103.75    9.41   0
  -2  -2 -18  324.39   10.72   0
  -4  -1 -24  116.24    9.86   0
  -2  -2 -12 1732.54   18.84   0
  -6   0  -9  222.19    9.24   0
   0  -2 -22  555.42   12.45   0
   0  -2 -10 3207.29   25.84   0
   0  -1 -29  112.40    9.87   0
   1  -2 -18  790.24   14.23   0
   1  -2 -15  510.67   11.67   0
  -6   0 -24  101.64    9.61   0
  -5  -1 -19   90.60    9.40   0
  -5  -1 -13  207.80    9.43   0
  -1  -1 -30  106.46    9.78   0
  -4  -1  -6  997.96   15.68   0
  -3  -2 -16  627.89   12.75   0
  -3  -1 -29   85.37    9.09   0
  -2  -2  -9  967.90   14.88   0
  -1  -2  -8 1952.79   20.48   0
  -4  -1 -27   48.59    9.28   0
  -3  -2 -19   78.93    8.09   0
  -3  -2 -13  553.17   12.54   0
  -2  -2 -24  244.94   11.06   0
   1  -2 -12 1679.66   19.87   0
  -2  -1 -31   23.87    8.63   0
   1  -2 -21  264.80    9.34   0
  -5  -1 -10  445.29   11.67   0
  -1  -2 -26  202.68   10.68   0
  -5  -1 -25   64.13    9.40   0
  -3  -2 -25  131.32   10.77   0
  -2  -2 -27   35.07    9.30   0
   1  -2 -24  275.76   10.30   0
  -7   0 -19   15.07    8.03   0
  -7   0 -16  188.75    9.45   0
   0  -2  -7  314.62    9.58   0
  -4  -2 -20  209.31   10.66   0
  -4  -2 -14  383.82   11.52   0
  -1  -2 -29   77.12    9.87   0
   0  -2 -28   87.00    8.59   0
  -5  -1  -7  337.45   11.26   0
  -4  -2 -23   72.79    9.32   0
  -1  -3 -19  135.40    9.24   0
  -1  -3 -16  792.72   14.27   0
   2  -2 -17  242.69    9.90   0
  -6  -1 -20  168.85    9.88   0
  -4  -2 -11  317.91   10.73   0
  -3  -2  -7  351.88   10.47   0
  -1  -2  -5 1944.52   21.40   0
   0  -3 -18  701.20   13.15   0
  -6  -1 -14  116.56    8.93   0
  -1  -3 -22  252.57   10.88   0
   0  -3 -15  289.27    9.37   0
   1  -2 -27   84.46    8.58   0
  -4  -1  -3  319.20   10.46   0
  -2  -3 -17  400.36   11.11   0
  -1  -3 -13  599.08   12.05   0
   2  -2 -14  981.85   17.00   0
  -2  -3 -14  356.87   11.34   0
   0  -3 -12 1017.33   15.45   0
  -6  -1 -11  124.81    8.92   0
  -2  -3 -23   45.04    7.97   0
   0  -3 -24  172.04    9.07   0
   1  -3 -17  519.24   12.31   0
  -5  -2 -18  133.31   10.17   0
  -1  -2 -32   35.75    9.09   0
   0  -2 -31   39.58    8.13   0
   1  -3 -20  397.19   10.89   0
  -5  -2 -21   64.99    9.25   0
  -4  -2  -8  645.66   13.36   0
  -3  -3 -18  267.84   11.20   0
  -1  -3 -10  870.39   14.52   0
  -5  -2 -15  143.66    9.23   0
  -3  -3 -21  133.47   10.29   0
  -2  -3 -11  263.44    9.32   0
   1  -3 -23   95.67    8.74   0
  -3  -3 -15  161.03    9.01   0
  -2  -3 -26   99.81   10.40   0
   0  -3 -27   67.40    8.97   0
  -5  -2 -12  358.54   11.79   0
  -1  -3 -28   96.44    9.44   0
   0  -3  -9 1247.21   16.69   0
   1  -3 -26  194.91   10.56   0
  -3  -2  -4 2034.87   22.32   0
  -2  -3 -29   76.83   10.41   0
  -3  -3 -27   29.63    9.36   0
  -2  -3  -8 1641.55   19.44   0
   2  -3 -19  264.05   10.28   0
  -4  -3 -22  111.20    9.99   0
  -1  -3  -7  648.52   12.67   0
   0  -3 -30  112.53    9.54   0
  -5  -2  -9  133.31    8.99   0
  -1  -4 -18  260.28   11.18   0
   0  -4 -20  339.23   12.11   0
   2  -3 -22  268.79   10.56   0
   2  -3 -16 1033.20   16.72   0
  -4  -2  -5  297.82   10.39   0
  -3  -3  -9  372.85   10.66   0
  -4  -3 -13  118.54    8.74   0
  -1  -4 -15  257.28   10.11   0
   1  -3 -29   86.55    9.27   0
  -6  -2 -16  136.76   10.58   0
  -2  -4 -19   67.05   10.05   0
  -1  -4 -24  167.67   11.32   0
   0  -4 -14  578.84   13.26   0
  -2  -4 -22  189.80   11.44   0
  -2  -4 -16  299.85   11.66   0
   1  -4 -19  140.62    9.44   0
   1  -4 -22  255.96   11.32   0
   2  -3 -13  479.64   12.41   0
  -1  -4 -12  806.59   14.99   0
   0  -4 -26  108.88   10.62   0
  -2  -4 -25   92.80    9.90   0
  -2  -4 -13  345.34   12.02   0
   0  -3  -6 2443.32   23.55   0
   1  -3  -8 1938.55   21.44   0
   0  -4 -11  664.51   13.14   0
   1  -4 -25  147.33    9.33   0
  -7   6 -22   75.81    7.88   0
  -6   3 -15  161.32    8.93   0
  -6   6 -24   69.64    7.98   0
  -5   2 -13  573.44   11.31   0
  -9   5  -5   96.79    7.63   0
  -6   2  -2  763.63   13.07   0
  -3   1 -13  514.95   10.79   0
  -8   4  -9  159.63    8.90   0
  -8   5 -16  168.86    9.13   0
  -6   2  -5  300.80    9.33   0
  -9   5  -8  246.84    9.30   0
  -7   3 -10  348.48    9.60   0
  -7   4 -17  145.54    9.32   0
  -6   2   1  508.77   11.68   0
  -7   5 -21  103.60    8.58   0
  -6   2  -8  629.03   12.01   0
  -5   3 -20  361.16   11.17   0
  -5   5 -25   44.57    7.97   0
  -4   2 -18  326.98   10.21   0
  -2   3 -23   92.58    7.36   0
  -4   1 -11  333.13    9.00   0
  -4   3 -22  239.13   10.21   0
  -3   2 -20  423.70   10.66   0
  -9   5 -11   52.83    7.13   0
  -7   3 -13  124.10    8.31   0
  -6   3 -18  250.28    9.26   0
  -6   4 -22  173.93    9.48   0
  -5   4 -24  166.27    9.49   0
  -1   1 -17  840.94   13.91   0
  -6   2 -11  314.71    9.06   0
  -2   0  -8 2921.50   23.95   0
  -8   5 -19   38.89    7.67   0
  -3   1 -16 1113.54   14.92   0
  -3   3 -24  151.69    8.93   0
  -1   2 -21  271.25    9.61   0
  -5   1  -3  336.90    9.32   0
  -8   4 -15   67.67    7.86   0
  -7   4 -20  126.14    8.82   0
  -5   1  -6 1037.75   14.02   0
  -4   1 -14  661.20   11.76   0
  -9   5 -14   67.69    7.82   0
  -4   4 -26  115.44    8.15   0
  -2   1 -18  812.33   13.38   0
  -2   2 -22  571.69   12.27   0
  -6   2 -14  387.22   10.70   0
  -5   1  -9  651.22   11.81   0
  -7   3 -16  230.36    9.72   0
  -5   1   0 1262.40   16.64   0
  -2   0 -11 1892.31   18.93   0
  -3   0  -6 1918.52   19.08   0
  -6   3 -21  132.36    9.47   0
  -8   3  -5  164.11    8.42   0
  -9   4  -7   57.01    6.90   0
  -8   3  -8  333.38   10.25   0
  -8   4 -18   80.58    8.22   0
  -5   1 -12  590.26   11.18   0
  -4   3 -25  142.40    9.42   0
  -3   0  -9  499.02   10.26   0
  -3   2 -23  114.48    8.27   0
  -6   4 -25   82.87    8.15   0
  -9   4 -10   89.47    7.73   0
  -8   3 -11   95.30    8.12   0
  -7   2  -6  350.07   10.02   0
  -6   2 -17  147.28    8.90   0
  -7   2  -9  127.05    7.88   0
  -7   2  -3  354.77    9.92   0
  -7   4 -23   49.66    7.69   0
  -5   4 -27   35.99    7.90   0
  -7   3 -19   97.12    8.07   0
  -3   0 -12 1552.12   16.99   0
  -2   0 -14 1066.90   14.27   0
  -5   1 -15  153.98    8.46   0
  -1   1 -20  616.84   12.30   0
  -9   4 -13   99.75    7.46   0
  -8   3 -14  119.28    8.38   0
  -5   2 -22  201.13    9.86   0
  -2   1 -21  270.59    9.34   0
  -4   0  -7  283.50    8.80   0
  -6   1  -7  357.11    9.87   0
  -6   3 -24  115.60    8.65   0
  -5   3 -26  113.93    9.30   0
  -4   2 -24  234.98    9.42   0
  -6   1  -4  703.30   12.49   0
  -6   2 -20  205.67    9.82   0
  -4   0 -10 1168.74   15.12   0
  -4   0  -4 1383.23   16.22   0
  -1   0 -16 1519.40   17.53   0
  -7   2 -15  147.86    8.64   0
  -3   0 -15  513.79   10.58   0
  -2   2 -25  154.03    8.15   0
  -7   3 -22  106.50    8.74   0
  -5   1 -18  401.77   10.95   0
  -3   1 -22  288.62   10.10   0
  -8   3 -17  104.25    7.79   0
  -6   1 -13  197.71    8.06   0
  -4   0 -13  679.30   11.78   0
  -4   3 -28   95.60    9.14   0
  -6   1  -1  278.83    8.97   0
  -4   0  -1 1283.79   16.64   0
  -3   2 -26  213.14    9.65   0
   0   0 -15  154.87    7.36   0
  -6   1 -16  318.13   10.33   0
  -3   0 -18  480.45   11.11   0
  -8   3 -20  109.37    8.76   0
  -6   2 -23   80.59    8.39   0
  -4   0 -16  408.37   10.75   0
  -5   1 -21  179.70    9.40   0
  -2   1 -24  255.78    9.49   0
  -1   1 -23   87.08    7.38   0
  -8   2 -10  143.13    8.28   0
  -8   2  -7   78.96    7.37   0
  -6   3 -27   27.58    7.21   0
  -5   0 -11  202.36    8.55   0
  -4   2 -27   33.63    7.92   0
  -1   0 -19  216.93    8.35   0
  -9   3 -12  119.15    8.18   0
  -5   0  -5  638.47   11.81   0
  -2   0 -20  686.94   12.59   0
  -8   2 -13  152.99    8.64   0
  -5   3 -29   75.94    7.58   0
  -7   2 -21   63.40    7.97   0
  -6   1 -19  100.95    9.07   0
  -5   0 -14  550.87   11.74   0
  -3   1 -25  142.54    8.99   0
  -7   1  -8  539.83   11.70   0
  -2  -1 -10 1403.13   16.30   0
  -7   1 -11  125.39    8.27   0
  -4   0 -19  108.83    7.54   0
  -2  -1  -7 1494.29   16.80   0
  -1  -1  -9 1142.37   15.52   0
  -8   2 -16  137.72    8.44   0
  -7   1  -5  180.20    8.19   0
  -5   0  -2 1055.38   14.90   0
   0   0 -18  523.47   11.48   0
  -7   1 -14  118.62    8.33   0
  -2  -1 -13  491.73   10.19   0
  -1  -1 -12 1710.44   18.31   0
  -5   1 -24  102.29    9.01   0
  -4   0   2 1330.71   18.55   0
  -3  -1 -11  350.25    9.51   0
  -3  -1  -8 1912.56   18.48   0
  -5   2 -28   75.75    8.56   0
  -2  -1  -4 3118.42   25.21   0
  -4   1 -26  155.22    9.73   0
  -7   1 -17  136.70    8.69   0
  -6   1 -22  141.25    8.81   0
  -3  -1 -14  634.35   11.49   0
  -6   0  -9  213.40    8.66   0
  -2  -1 -16 1034.85   14.02   0
  -2   0 -23  211.12    8.35   0
  -6   0  -6  304.56    9.20   0
  -4   2 -30   75.49    8.54   0
  -6   0 -15   95.84    8.20   0
  -4  -1  -9  671.27   11.67   0
  -3  -1 -17  477.43   11.03   0
  -3   0 -24  282.81   10.22   0
  -3   1 -28  123.68    8.69   0
  -7   1 -20  160.07    9.50   0
  -4  -1  -6 1050.04   14.54   0
  -4  -1 -15  153.44    7.74   0
  -1  -1 -18  795.00   13.19   0
  -6   0  -3  315.04    9.58   0
  -6   1 -25   44.74    8.34   0
  -3  -1  -2 1195.95   16.02   0
   0  -1 -14 1188.59   16.22   0
  -8   1 -12  164.40    8.53   0
  -8   1  -9  155.28    8.55   0
  -5   0 -23   68.12    8.72   0
  -4  -1 -18  435.02   10.69   0
  -4   1 -29   85.74    8.32   0
  -8   1 -15   23.64    7.06   0
  -4  -1  -3  341.22    9.44   0
  -2   0 -26  162.26    8.78   0
  -5  -1 -13  204.62    9.10   0
   0  -1 -17  830.27   13.77   0
  -7   0 -13  168.28    9.26   0
  -7   0 -10  117.35    8.34   0
  -5  -1 -16  317.27   10.53   0
  -5  -1  -7  352.83    9.30   0
  -3   0 -27   72.65    8.23   0
  -2  -1 -22  279.48    9.08   0
  -1  -1 -21  282.25    9.35   0
  -7   0 -16  206.52    9.85   0
  -7   0  -7  101.74    7.79   0
  -5  -1 -19  111.39    8.89   0
  -5   0 -26  113.14    8.70   0
  -2  -2 -12 1791.69   18.29   0
  -5  -1  -4  698.45   12.76   0
  -4   0 -28   68.43    9.12   0
  -7   0 -19   22.87    7.57   0
  -6   0 -24  114.43    9.57   0
  -3  -2 -13  583.72   11.96   0
  -2  -2 -15  167.61    7.62   0
  -2  -2  -9  982.97   13.61   0
  -3  -2 -10  513.23   10.62   0
  -1  -2 -11  442.07    9.91   0
   0  -1 -20  622.72   12.37   0
  -6  -1 -11  125.26    8.66   0
  -4  -1 -24  110.89    9.17   0
  -1  -2 -14 1209.03   15.16   0
  -4  -1   0 1296.35   17.21   0
  -3  -1   1  798.39   14.36   0
  -2  -1 -25  134.52    7.93   0
  -5  -1 -22  133.12    9.16   0
  -3  -2  -7  336.45    8.97   0
  -2  -2  -6  726.34   12.39   0
  -1  -2  -8 1966.19   19.22   0
  -1  -1 -24  272.56    9.66   0
  -6  -1 -17  133.94    9.16   0
  -3  -1 -26  155.31    9.31   0
  -4  -2 -11  330.51    9.51   0
  -3  -2 -19   79.53    8.26   0
  -3   0 -30   75.23    8.01   0
  -4  -2 -17  135.80    8.21   0
  -6  -1  -5  189.79    8.54   0
  -5  -1  -1  291.67    9.41   0
  -8   0 -11   40.21    6.81   0
  -5  -1 -25   45.26    8.95   0
  -1  -2 -20  389.94    9.86   0
  -4  -1 -27   29.26    8.43   0
  -3  -2 -22  206.85    9.80   0
  -3  -2  -4 2011.60   19.54   0
   0  -1 -23   94.75    7.08   0
  -1  -2  -5 1913.13   19.60   0
   0  -2 -16  580.33   11.29   0
   0  -2 -10 3177.51   25.07   0
  -5  -2 -15  159.14    9.55   0
  -4  -2  -5  300.13    9.45   0
  -2  -1 -28  142.76    8.98   0
   1  -1 -16 1501.49   20.19   0
  -7  -1 -15   28.03    7.90   0
  -7  -1 -12  177.88    9.02   0
  -5  -2  -9  141.72    8.54   0
  -3  -1 -29   73.60    8.76   0
  -2  -2 -24  256.25   10.51   0
  -1  -1 -27   68.84    7.55   0
  -5  -2 -18  128.31    8.53   0
  -1  -2 -23  121.11    8.20   0
   0  -2 -19  203.37    8.44   0
  -7  -1  -9  162.48    8.81   0
  -4  -2 -23   85.66    8.39   0
  -3  -2 -25  134.85    9.46   0
   0  -2  -7  312.25    9.43   0
  -5  -2 -21   62.16    8.64   0
  -5  -2  -6  340.53   10.26   0
  -2  -3 -14  359.41    9.75   0
  -3  -3 -15  160.08    9.37   0
  -2  -3 -17  403.11   11.10   0
  -2  -3 -11  257.98    8.55   0
  -1  -3 -13  621.48   11.98   0
  -6  -2 -13  155.97    8.96   0
  -4  -2  -2  792.47   13.72   0
  -3  -2  -1  748.54   12.90   0
  -1  -3 -16  781.51   12.94   0
   0  -2 -22  566.31   12.29   0
  -3  -3  -9  393.40   10.45   0
  -2  -3 -20  359.98   10.98   0
  -2  -3  -8 1623.81   17.72   0
  -2  -2 -27   32.38    7.63   0
  -1  -3 -10  849.44   13.44   0
  -1  -2 -26  218.46    9.57   0
  -4  -3 -16  246.70   10.54   0
  -4  -3 -13  126.52    8.98   0
  -3  -2 -28   83.02    9.09   0
  -1  -2  -2 2880.73   25.23   0
  -3  -3 -21  124.12    8.35   0
  -5  -2  -3  395.60   10.72   0
  -6  -2  -7   87.03    7.77   0
   1  -2 -15  520.62   11.65   0
  -2  -2   0 3939.52   29.61   0
  -1  -3 -22  245.15    9.96   0
  -1  -3  -7  626.79   11.59   0
   0  -3 -12 1029.04   14.81   0
   1  -2 -12 1606.04   19.60   0
  -2  -3  -5  658.68   12.27   0
   0  -3 -18  696.15   13.05   0
   0  -2 -25  171.68    9.19   0
   1  -2 -18  795.77   14.62   0
  -4  -3  -7  312.91   10.47   0
  -3  -3 -24  107.30    9.14   0
  -5  -3 -14  115.66    8.86   0
  -5  -3 -17   92.73    9.37   0
  -2  -2 -30   70.81    8.27   0
   0  -3  -9 1289.93   16.24   0
  -5  -3 -11  105.73    8.36   0
   0  -3 -21  274.41    9.82   0
  -5  -3 -20   94.88    8.95   0
  -2  -3 -26   93.71    8.84   0
  -1  -3 -25  143.03    9.36   0
  -7  -2 -11   36.16    7.33   0
   1  -2 -21  272.82    9.58   0
  -5  -3  -8  344.85   11.12   0
  -4  -2   1  534.47   12.50   0
  -3  -3 -27   23.33    8.47   0
  -3  -3  -3  396.99    9.97   0
  -2  -4 -16  302.66    9.93   0
  -1  -3  -4 2575.25   22.48   0
  -4  -3  -4  492.82   11.72   0
  -3  -4 -14  331.33   11.38   0
  -2  -4 -19   74.84    8.74   0
  -1  -4 -15  275.99   10.11   0
  -3  -4 -17  148.62    8.76   0
   0  -3 -24  162.48    9.02   0
  -3  -4 -11  138.29    8.74   0
  -3  -2   2  600.67   12.77   0
  -2  -4 -10  568.48   11.70   0
  -2  -3  -2  642.62   11.93   0
   0  -3  -6 2504.95   22.19   0
  -2  -4 -22  186.80    9.53   0
  -2  -3 -29   73.62    9.50   0
   1  -3 -17  522.26   11.78   0
  -5  -3  -5  154.92    8.80   0
  -4  -4 -15   69.95    8.71   0
  -1  -4  -9  350.05    9.57   0
  -1  -3 -28   91.81    8.28   0
   0  -4 -14  578.34   11.69   0
  -3  -4 -23   44.73    7.76   0
  -2  -4  -7  250.13    8.80   0
   1  -3 -20  411.91   11.02   0
  -6  -3  -9  131.20    8.43   0
   0  -4 -11  644.29   12.52   0
  -2  -4 -25   82.79    8.84   0
  -1  -4 -24  152.32    9.73   0
  -4  -4  -9  162.70    9.60   0
  -4  -3  -1  196.63    8.87   0
  -3  -3   0  973.06   15.24   0
  -1  -4  -6  854.59   13.34   0
   0  -4 -23  111.74    8.85   0
   1  -3 -23   93.02    7.62   0
  -5  -4 -13  112.84    8.35   0
   0  -4  -8 1384.25   16.42   0
   1  -3  -8 1945.34   20.58   0
  -2  -4  -4  770.57   13.62   0
  -5  -4 -10  102.01    8.86   0
  -4  -4  -6  204.53    9.85   0
  -2  -5 -15   59.73    8.73   0
  -1  -4 -27   36.70    8.32   0
   0  -3  -3  518.92   11.18   0
   1  -4 -16  800.65   13.94   0
  -2  -5 -18  194.31    9.74   0
  -1  -5 -17  179.91    9.03   0
  -1  -5 -14  374.75   11.21   0
  -2  -5 -12  263.63    9.64   0
  -1  -5 -20  168.64   10.13   0
   1  -4 -19  153.06    8.57   0
  -3  -5 -19   33.36    8.97   0
  -3  -5 -16  156.83    9.54   0
  -1  -5 -11  189.53    9.59   0
   0  -4 -26  103.49    8.87   0
  -2  -3   1  725.54   13.12   0
  -2  -5  -9  339.48   10.93   0
   1  -4 -22  229.72    9.79   0
  -5  -4  -7   59.88    7.75   0
  -1  -5 -23   49.05    8.30   0
  -1  -4  -3  787.31   12.95   0
   0  -5 -13  188.62    8.48   0
   1  -4 -10  858.49   13.59   0
   0  -4  -5  370.76    9.66   0
  -4  -5 -14   70.27    9.02   0
  -3  -4  -2  579.74   12.67   0
  -1  -5  -8  585.23   12.33   0
  -4  -4  -3  175.43    8.86   0
   0  -5 -22  142.85    9.77   0
   0  -5 -10  628.90   12.61   0
  -4  -5 -11   67.81    8.41   0
  -2  -4  -1  550.43   12.18   0
   1  -3  -5 1944.38   20.67   0
   2  -3 -16 1047.99   16.47   0
  -3  -5  -7  111.81    9.26   0
   2  -3 -19  264.38   10.03   0
   1  -5 -18  271.38   10.41   0
   1  -4  -7  648.40   12.52   0
   2  -3 -13  470.56   11.69   0
   4   0  -5  392.88    9.84   0
   4   2   5  319.25    9.67   0
   5   0  -4  914.08   13.54   0
   6  -5 -10  415.16   10.86   0
   7  -3  -8  367.03    9.70   0
   8   0   8  140.30    8.91   0
   7   0   1  192.39    9.10   0
   9  -5  -7   55.26    7.50   0
   5  -3 -10  512.63   10.56   0
   7  -1  -4  565.51   11.22   0
   6   0  -3  209.56    8.20   0
   9  -2  -1   50.06    7.87   0
   6   1   2  229.36    8.92   0
   7  -4 -10  354.48   10.36   0
   8  -2  -5  152.66    9.03   0
   8  -4  -9  142.40    8.84   0
   8   0   5  130.02    8.42   0
   9  -1   4  107.64    7.65   0
   3   0  -6 2532.48   21.60   0
   3  -1  -8 1989.89   19.94   0
   8  -6 -10  140.61    8.44   0
   5   1  -2  675.41   11.86   0
   7   0  -2  133.25    8.82   0
   8  -1  -3  152.76    8.62   0
   9  -6  -9  143.92    8.83   0
   9  -3  -6  106.64    8.19   0
   3   2   1  762.89   13.44   0
   4   2   2  837.21   13.96   0
   6  -2 -10  547.49   11.71   0
   6  -1  -8  562.92   11.12   0
   8   0   2  156.86    8.50   0
   9  -1   1   68.73    8.28   0
   3   1  -4 2579.79   21.86   0
   5  -1  -9  335.35    9.00   0
   7  -2  -9  331.91    9.55   0
   9  -2  -4  163.61    9.00   0
   4  -3 -11  322.67    9.69   0
   8  -5 -11   96.68    7.79   0
   5   0  -7  581.30   11.14   0
   7  -1  -7  113.02    7.61   0
   5  -4 -12  565.07   12.24   0
   5   2   3  406.63   10.69   0
   6   0  -6  355.99    9.95   0
   7  -5 -12  340.77   10.27   0
   7   1   3   71.40    7.78   0
   9  -5 -10   94.58    7.82   0
   6  -3 -12  505.62   11.27   0
   8  -3 -10  194.05    9.03   0
   8  -2  -8  287.59   10.26   0
   4   0  -8 1436.65   16.46   0
   2   2   0 4114.70   30.69   0
   4  -1 -10  858.61   12.91   0
   8   0  -1   77.88    8.47   0
   4   2  -1  562.82   11.72   0
   8  -4 -12  245.11   10.09   0
   9  -3  -9   74.50    7.75   0
   4   1  -6  871.19   13.47   0
   7  -4 -13  115.94    7.57   0
   7   1   0  320.54   10.42   0
   2   0  -7  325.00    9.10   0
   5  -3 -13  538.18   11.76   0
   5   2   0  552.02   11.94   0
   9  -4 -11   68.21    8.08   0
   3   2  -2  660.91   12.22   0
   4  -2 -12 1639.76   18.05   0
   6   1  -4  566.17   12.21   0
   2   1  -5 1985.07   20.05   0
   6  -1 -11  197.15    8.09   0
   7  -2 -12  251.62    9.75   0
   7  -1 -10  207.33    9.73   0
   3   0  -9 1261.26   15.35   0
   6  -4 -14  360.28   10.57   0
   8   0  -4  187.19    9.20   0
   6  -2 -13  305.85    9.21   0
   6   0  -9  304.48    9.91   0
   8  -2 -11   91.86    8.56   0
   3   1  -7  654.81   11.56   0
   5  -1 -12  809.68   12.78   0
   5   0 -10  585.14   11.32   0
   6   2   1  192.73    8.59   0
   7  -3 -14  303.29   10.38   0
   7   1  -3  146.21    8.57   0
   8  -5 -14  109.91    9.16   0
   9  -5 -13  101.21    8.26   0
   3  -1 -11  425.44   10.27   0
   7   0  -8  426.60   10.59   0
   8  -1  -9   99.39    7.79   0
   4   2  -4  772.90   12.67   0
   5   2  -3  128.50    7.95   0
   4   0 -11  666.43   11.70   0
   5   1  -8  597.05   11.40   0
   9  -3 -12  157.37    8.12   0
   2   2  -3  759.21   12.90   0
   6  -3 -15  148.46    7.74   0
   3   2  -5  699.88   12.39   0
   4  -1 -13  580.35   11.11   0
   4   1  -9  342.76    9.15   0
   6   2  -2  204.93    9.24   0
   8  -4 -15   72.97    8.31   0
   3  -3 -12 1412.72   19.06   0
   9  -4 -14   64.81    8.05   0
   5  -4 -15  144.09    8.49   0
   7   1  -6  141.50    8.63   0
   8   1  -2  134.53    8.38   0
   6  -1 -14  332.73   10.20   0
   7  -4 -16  211.70    9.51   0
   7  -1 -13  218.95    8.74   0
   4   3   1  185.78    8.76   0
   6   0 -12  406.84   11.04   0
   7  -2 -15   54.51    7.90   0
   7   0 -11   73.44    8.05   0
   8  -2 -14  119.28    8.20   0
   8  -1 -12  195.31    9.29   0
   2   3   2  595.53   13.39   0
   3  -2 -13  471.47   11.11   0
   3   3   0  991.52   15.33   0
   5   0 -13  194.51    8.69   0
   5   2  -6  447.24   11.13   0
   2   1  -8 1993.14   19.42   0
   4   2  -7  243.96    8.66   0
   5  -3 -16  577.97   12.40   0
   3   0 -12 1028.03   14.32   0
   3   1 -10  841.24   12.78   0
   4  -2 -15  174.00    8.05   0
   5  -1 -15  248.04    8.73   0
   8  -3 -16  137.62    8.55   0
   2   0 -10 3328.25   25.20   0
   5   1 -11  183.58    8.61   0
   6   1 -10  196.33    8.43   0
   6   2  -5  158.68    8.86   0
   7  -3 -17  133.05    8.94   0
   8   0 -10  101.57    7.81   0
   8   1  -5   63.54    7.25   0
   6  -4 -17  127.92    8.41   0
   4   3  -2  588.85   12.31   0
   7   1  -9   96.22    8.55   0
   4   0 -14  565.84   11.75   0
   4   1 -12  778.59   12.58   0
   2   3  -1  738.47   13.54   0
   3   3  -3  397.27   10.36   0
   5  -2 -17  341.11    9.64   0
   5   2  -9  348.78   10.51   0
   6  -3 -18  226.03    9.80   0
   7  -1 -16  191.00    9.34   0
   8  -4 -18   87.45    8.11   0
   6   0 -15   88.70    8.24   0
   7   0 -14   89.93    8.47   0
   8  -1 -15   41.94    8.00   0
   6  -1 -17  173.46    9.39   0
   6   2  -8  298.18   10.38   0
   2  -1 -12 1653.14   18.71   0
   7  -2 -18  195.78    9.29   0
   4   3  -5  346.63   10.14   0
   6   1 -13  198.77    9.38   0
   8   0 -13   80.61    7.89   0
   5   0 -16  391.35   10.25   0
   5   3  -4  396.52   11.04   0
   7  -4 -19   96.86    8.22   0
   5   1 -14  331.75    9.69   0
   2   1 -11  448.31   10.21   0
   3   1 -13  601.45   11.19   0
   6  -2 -19   74.27    8.26   0
   7   2  -7   97.17    7.79   0
   8  -3 -19   40.00    7.77   0
   4  -3 -17  436.39   11.18   0
   2   3  -4 2116.32   20.65   0
   3   0 -15  286.49    8.97   0
   2   2  -9  964.72   13.66   0
   3   2 -11  251.22    8.35   0
   2   0 -13 1202.60   15.70   0
   4   1 -15  263.17    9.51   0
   5  -3 -19   77.14    7.29   0
   6   2 -11   79.46    8.07   0
   7  -3 -20  113.33    8.85   0
   3  -3 -15  480.50   12.06   0
   4  -2 -18  326.19    9.94   0
   4   0 -17  225.13    8.81   0
   5   3  -7  113.13    8.20   0
   7   0 -17  120.06    8.51   0
   4   2 -13  318.98    9.81   0
   6   0 -18  151.90    8.93   0
   7  -1 -19   28.76    7.87   0
   1   1  -9 1180.93   15.90   0
   5  -2 -20  347.74   10.49   0
   6   1 -16  196.99    8.81   0
   6   3  -6  114.37    7.90   0
   3  -1 -17  534.24   11.49   0
   7   1 -15   49.01    8.08   0
   1   2  -7 1498.06   17.42   0
   2   3  -7  352.14    9.68   0
   3   3  -9  377.16    9.55   0
   4  -1 -19  145.88    8.19   0
   5   1 -17  183.72    8.90   0
   6  -3 -21  112.11    8.40   0
   7  -2 -21   96.79    8.29   0
   1   3  -2 1220.60   17.46   0
   5   0 -19  153.17    8.09   0
   3   1 -16  752.56   12.45   0
   5   3 -10  182.50    8.42   0
   2   1 -14 1255.07   15.68   0
   2   2 -12 1706.02   17.85   0
   3   2 -14  363.86    9.49   0
   4   3 -11  141.33    8.54   0
   5   2 -15   63.96    7.07   0
   2  -1 -15  528.30   11.33   0
   6   3  -9   70.26    7.51   0
   1   0 -11  434.45   10.24   0
   4   1 -18  244.50    9.41   0
   5  -1 -21  125.79    7.70   0
   6  -2 -22  156.61    9.27   0
   3   0 -18  694.49   12.84   0
   3   4  -4  493.37   11.55   0
   4   2 -16  284.63    9.09   0
   7   0 -20  125.12    8.33   0
   1   3  -5 1027.08   14.80   0
   4   0 -20  345.91   10.37   0
   4   4  -6  201.51    9.12   0
   6   1 -19   48.36    8.16   0
   7  -3 -23   38.51    7.53   0
   1   2 -10 1405.38   16.53   0
   2   4  -2  783.57   14.10   0
   5   3 -13  131.04    8.85   0
   4  -3 -20  367.55   10.79   0
   4  -2 -21  323.03   10.14   0
   1   1 -12 1786.07   18.36   0
   3   4  -7  317.01    9.65   0
   5   1 -20  171.28    9.44   0
   6   3 -12  143.25    8.39   0
   6  -1 -23   49.11    8.29   0
   2   4  -5  304.35    9.43   0
   3  -2 -19  263.24    9.47   0
   5  -2 -23   32.78    7.58   0
   5   0 -22  139.47    9.25   0
   5   2 -18  203.38    9.69   0
   2   2 -15  183.62    7.63   0
   3   1 -19  145.69    8.48   0
   3   2 -17  368.53    9.81   0
   3  -1 -20  391.90   10.01   0
   4  -1 -22  238.69    9.53   0
   4   4  -9  160.05    8.75   0
   2   1 -17  544.49   10.82   0
   2   3 -13  557.03   11.61   0
   3   3 -15  151.47    8.34   0
   4   1 -21  140.34    8.92   0
   2   4  -8  681.73   12.12   0
   5  -1 -24  144.48    8.78   0
   5   3 -16  156.34    9.03   0
   1   2 -13  486.69   10.62   0
   6  -2 -25   82.68    8.22   0
   6   1 -22   75.47    7.93   0
   1  -1 -13 1062.24   16.26   0
   2  -1 -18  771.77   12.92   0
   4   3 -17  123.35    8.63   0
   4   4 -12  264.16   10.05   0
   5   4 -11   53.78    7.10   0
   1   3 -11  333.77    8.85   0
   1   1 -15  561.98   10.85   0
   1   4  -3  338.76    9.94   0
   2  -2 -17  236.46    8.87   0
   5   1 -23   56.67    7.41   0
   5   2 -21  111.72    8.38   0
   2   4 -11  318.01    9.79   0
   3   2 -20  359.88   10.50   0
   3   4 -13  135.43    8.53   0
   1   4  -6 1076.71   15.42   0
   2   2 -18  305.49    9.04   0
   2   3 -16  628.65   11.54   0
   3   3 -18  252.82    9.70   0
   4  -2 -24  231.86    9.49   0
   0   2  -8 2873.04   23.95   0
   2   1 -20  391.88    9.93   0
   4   2 -22  177.28    9.14   0
   5   4 -14   56.26    7.61   0
   4   4 -15   72.14    7.49   0
   1   2 -16 1098.29   14.38   0
   1   3 -14  647.91   12.02   0
   1   4  -9  672.26   12.31   0
   3  -2 -22  272.98    9.54   0
   3  -1 -23  103.00    7.84   0
   4  -1 -25  122.55    8.65   0
   4   1 -24  158.70    8.22   0
   5  -2 -26   91.85    7.88   0
   4   3 -20  119.00    7.85   0
   0   1 -10 1476.49   17.61   0
   2   4 -14  367.65    9.75   0
   3   4 -16  234.86    9.75   0
   1   0 -17  806.85   12.94   0
   3   0 -24  172.86    8.99   0
   5  -1 -27   36.11    7.32   0
   0   2 -11 1801.86   18.30   0
   1   1 -18  812.46   12.75   0
   4   0 -26  108.77    8.37   0
   0   3  -9  499.77   10.70   0
   1  -1 -16 1585.94   18.89   0
   1   4 -12  578.23   11.65   0
   2  -1 -21  283.58    9.38   0
   2   0 -22  575.01   12.05   0
   2   2 -21  311.84   10.21   0
   2   3 -19   75.76    7.00   0
   3   2 -23   26.57    7.61   0
   3   3 -21  124.87    7.65   0
   4   4 -18   91.50    7.80   0
   2   5  -9  131.37    7.54   0
   3   5 -11   90.22    7.75   0
   1   3 -17  453.43   10.69   0
   1   2 -19  275.47    9.34   0
   4   2 -25   82.90    8.18   0
   0   1 -13 1119.47   14.77   0
   4   3 -23   24.46    7.57   0
   0   3 -12 1504.18   16.72   0
   0   2 -14 1027.09   13.87   0
   3   5 -14  121.14    8.25   0
   0   4  -7  282.26    8.82   0
   0   4  -4 1438.44   18.18   0
   1   5  -7  343.12    9.91   0
   1   0 -20  613.21   11.62   0
   2   3 -22  186.37    8.45   0
   4  -1 -28   90.91    7.88   0
   0   4 -10 1166.49   15.24   0
   1   5 -10  419.00   10.51   0
   2   2 -24  240.90   10.06   0
   3   3 -24  118.19    8.35   0
   1   3 -20  398.11   10.67   0
   2   4 -20  196.89    9.25   0
   2   5 -15  144.91    8.35   0
   3   0 -27   53.65    7.34   0
   3   2 -26   96.17    8.14   0
   0   3 -15  512.84   10.34   0
   0   1 -16 1569.61   17.03   0
   1  -1 -19  220.58    8.42   0
   1   4 -18  406.92   10.51   0
   2   0 -25  165.59    8.62   0
   3   4 -22   90.06    8.01   0
   3   5 -17   89.44    7.77   0
   4   0 -29   48.14    7.19   0
   0   2 -17  267.45    8.63   0
   1  -2 -15  508.08   12.56   0
   1   2 -22  280.56    9.68   0
   1   5 -13  208.87    8.39   0
   2  -1 -24  263.02    9.31   0
   2   1 -26  212.09    9.70   0
   3   1 -28   97.24    7.94   0
   0   0 -15  153.22    7.19   0
   2   5 -18  109.54    8.13   0
   0   3 -18  483.24   10.56   0
   1   5 -16  327.42   10.29   0
   2   3 -25  137.66    8.63   0
   0   4 -16  405.50   10.30   0
   2   4 -23   69.56    7.74   0
   1   0 -23   99.23    7.31   0
   1   1 -24  270.72    9.43   0
   1   3 -23   58.46    7.66   0
   1   4 -21  172.76    8.80   0
   0   5  -8  624.19   12.06   0
   2   2 -27   16.51    7.19   0
   3   3 -27   35.59    6.58   0
   0   2 -20  679.66   11.70   0
   0   5 -11  198.22    8.37   0
   1   1  -9 1181.95   15.99   0
   1   2 -10 1416.60   16.21   0
   4   5 -10   85.86    8.07   0
   5   2 -15   68.08    6.94   0
   0   6  -3  319.53   10.06   0
   2   6  -7   86.10    7.43   0
   7   1 -15   54.40    7.16   0
  -1   4  -2 1178.43   17.01   0
   2   3 -13  526.87   11.05   0
   3   4 -13  134.28    7.57   0
   3   5 -11   92.92    8.19   0
   5  -1 -15  262.10    9.46   0
   1   3 -11  336.50    9.32   0
   4  -2 -12 1722.37   21.61   0
   4   2 -16  271.43    9.09   0
   3   3 -15  160.96    8.66   0
   3   6  -9  139.50    8.26   0
   7  -1 -16  180.45    8.53   0
   5  -2 -14  355.99   11.00   0
   5   1 -17  166.61    8.82   0
   5   4 -14   69.03    7.69   0
   5   3 -16  176.32    9.17   0
   1   6  -8  513.62   11.04   0
   2   7  -5  122.92    8.00   0
   0   5  -8  603.25   11.70   0
   1   4 -12  574.34   11.56   0
   4   4 -15   63.07    7.78   0
   4   5 -13   93.83    8.34   0
  -1   5  -3  326.01    9.46   0
   0   3  -9  486.52   10.55   0
   0   6  -6  298.26    9.38   0
   2   4 -14  375.49   10.39   0
   2   6 -10  149.15    8.40   0
   6   2 -17   82.74    8.02   0
   0   2  -8 2890.56   24.01   0
   2   1 -14 1288.31   16.06   0
   3   0 -15  281.69    9.28   0
   6  -1 -17  159.86    8.70   0
   2   2 -15  177.58    8.35   0
   4   3 -17  141.07    9.10   0
   6   0 -18  151.63    8.78   0
   3   5 -14  116.59    8.33   0
   4   0 -17  205.80    8.99   0
   1   7  -6  155.18    8.25   0
   3   2 -17  367.55    9.71   0
   3   4 -16  219.52    9.69   0
   4   1 -18  256.83    9.60   0
  -1   4  -5 1010.35   14.70   0
   1   2 -13  479.93   10.20   0
   3   6 -12  119.95    7.94   0
   2   3 -16  596.95   11.36   0
   2   7  -8  104.88    7.99   0
   4  -1 -16  798.69   14.20   0
   6   1 -19   35.98    7.32   0
   1   3 -14  630.86   11.41   0
   1   1 -12 1794.92   18.58   0
   1   6 -11  126.80    7.37   0
   3  -1 -14 1275.93   17.43   0
   2   5 -15  155.46    8.59   0
   3   3 -18  248.41    8.81   0
  -1   5  -6 1020.56   14.83   0
  -1   6  -4  675.20   12.81   0
   0   6  -9  225.68    8.78   0
   2   6 -13  154.39    8.40   0
   5  -1 -18  265.65    9.92   0
   0   5 -11  198.08    7.74   0
   4   4 -18   96.69    8.25   0
   5   3 -19   33.67    6.64   0
   1   4 -15  149.29    7.91   0
   1   7  -9  151.74    8.54   0
   5   1 -20  146.94    8.54   0
   2   4 -17  134.16    7.74   0
   0   3 -12 1476.67   16.72   0
   0   7  -7  102.11    7.55   0
   3   5 -17   92.01    8.56   0
   2   7 -11   37.69    7.09   0
   4   3 -20   95.91    8.29   0
  -1   4  -8 1868.34   19.07   0
   0   2 -11 1837.58   18.54   0
   0   4 -13  629.25   11.31   0
   2   2 -18  330.35   10.02   0
   3   1 -19  135.72    7.47   0
   3   4 -19  109.35    8.58   0
   5   2 -21   96.00    7.98   0
   3   2 -20  372.97   10.62   0
   4  -2 -15  192.51    8.81   0
  -1   6  -7  336.21    9.63   0
   1   6 -14  122.43    8.35   0
   3   0 -18  719.73   13.40   0
   6   0 -21   96.31    7.75   0
   0   6 -12  481.32   11.23   0
   1   5 -16  305.50    9.95   0
   2  -1 -12 1749.13   20.76   0
   2   3 -19   74.51    7.53   0
   4   1 -21  129.25    8.59   0
  -1   5  -9  629.21   11.45   0
   1   2 -16 1086.94   14.34   0
   1   3 -17  445.16   10.65   0
   2   6 -16  141.22    8.51   0
   4   0 -20  357.10   10.68   0
   1   7 -12  163.37    8.22   0
   2   5 -18  129.63    7.84   0
   0   7 -10  107.96    7.40   0
   3   3 -21  140.23    8.59   0
   6   1 -22   80.31    7.65   0
   2   0 -16  614.20   11.64   0
   4   2 -22  169.51    9.29   0
   1   1 -15  569.70   10.94   0
   2   4 -20  207.21    9.24   0
   4  -1 -19  148.23    8.22   0
   3   5 -20  107.20    7.95   0
   5   0 -22  136.53    8.75   0
  -1   6 -10  414.80   10.42   0
   0   1 -10 1563.05   18.02   0
   0   3 -15  500.38   10.27   0
   3  -2 -13  498.08   12.61   0
   5   1 -23   37.35    7.31   0
   0   4 -16  431.56   10.36   0
   5  -1 -21  131.72    9.09   0
  -1   7  -8  489.68   11.42   0
   1   6 -17  115.90    8.12   0
   3   4 -22  102.05    8.33   0
  -1   3 -10 1354.48   16.27   0
  -1   5 -12  556.91   11.48   0
   0   2 -14 1048.63   14.40   0
   0   6 -15  100.82    8.07   0
   0   7 -13  165.09    8.78   0
   1   5 -19  104.18    8.06   0
   1   7 -15   23.04    6.67   0
   2   2 -21  324.63    9.99   0
   0   5 -17  225.74    9.11   0
   2   3 -22  169.29    9.11   0
   2   5 -21   66.60    7.59   0
   1   2 -19  277.23    9.34   0
   1   3 -20  375.87    9.92   0
   3   0 -21  268.62    9.68   0
  -1   6 -13  184.75    8.19   0
   4   1 -24  160.18    9.07   0
  -1   7 -11  112.13    7.62   0
   1   4 -21  157.31    9.02   0
   3   3 -24   96.41    7.79   0
   4   0 -23   99.08    7.93   0
  -1   4 -14  609.61   11.57   0
   2  -1 -15  574.83   12.19   0
   2   4 -23   63.93    7.82   0
   4   2 -25   75.45    7.86   0
   0   3 -18  489.26   11.01   0
   1   1 -18  817.91   12.86   0
   2   0 -19  208.42    8.68   0
  -2   5  -7  338.82    9.59   0
   0   1 -13 1185.40   15.48   0
   0   4 -19  114.50    7.73   0
  -1   2  -9 1150.34   15.37   0
  -1   3 -13  488.58   10.07   0
   0   6 -18  109.22    7.58   0
   0   7 -16  189.87    8.57   0
  -2   6  -8  633.45   12.16   0
   0   2 -17  268.57    8.33   0
   1   5 -22  127.98    8.28   0
   4  -1 -22  238.19    9.77   0
   5   0 -25   53.43    7.71   0
  -2   4  -6  708.01   12.88   0
   0   5 -20  159.01    8.68   0
  -1   6 -16  298.78    9.95   0
  -1   7 -14  107.87    7.74   0
  -2   5 -10  509.73   10.40   0
   1   3 -23   60.04    7.74   0
   2   3 -25  130.42    8.53   0
   1   2 -22  270.46    9.04   0
   2   1 -23  102.24    7.14   0
   3  -2 -16 1051.04   16.68   0
   3   1 -25  131.60    7.83   0
   3   2 -26   87.23    7.99   0
  -2   6 -11  307.83    9.28   0
  -1   4 -17  440.46   10.03   0
  -2   4  -9  973.62   13.76   0
  -1   2 -12 1772.76   17.91   0
   1   0 -17  864.81   13.72   0
   1   4 -24   97.11    8.66   0
  -1   3 -16 1053.58   14.39   0
   0   3 -21  217.11    8.93   0
   0   7 -19   19.98    6.38   0
   0   4 -22  324.41   10.21   0
   2   4 -26   65.72    7.24   0
   3   0 -24  178.85    8.97   0
   4   1 -27   36.93    7.29   0
  -2   5 -13  516.12   10.48   0
  -1   7 -17  116.05    7.72   0
   2  -1 -18  816.34   14.02   0
   2   0 -22  603.90   12.66   0
   4   0 -26  118.73    8.53   0
  -2   7 -12  335.76    9.92   0
  -1   6 -19   91.49    7.89   0
   0   2 -20  682.58   11.92   0
   1   5 -25   46.43    7.62   0
  -2   6 -14  365.75   10.06   0
   0   5 -23   50.75    6.92   0
  -1   2 -15  566.53   11.11   0
  -1   4 -20  369.72    9.59   0
  -1   5 -21  172.78    8.66   0
   1   3 -26  134.89    8.78   0
   2   2 -27   23.44    6.97   0
  -2   5 -16  591.77   11.66   0
  -1   3 -19  264.68    9.04   0
   1  -1 -13 1076.22   15.88   0
   3  -1 -23  106.61    7.91   0
  -2   7 -15  147.25    7.89   0
   0   0 -12 4445.82   29.56   0
   2   1 -26  213.28    9.36   0
  -2   4 -15  177.34    7.79   0
  -1   7 -20  145.79    8.06   0
   0   3 -24  243.10    9.52   0
   1   0 -20  673.82   12.63   0
   1   4 -27   34.65    6.90   0
   3   1 -28   98.21    8.01   0
   3   2 -29   72.47    7.96   0
  -2   6 -17  150.17    7.43   0
   0   1 -19  234.92    8.11   0
   0   4 -25  122.41    7.64   0
  -2   3 -11  430.80    9.52   0
   1   1 -24  280.85    8.96   0
   0   2 -23  202.16    8.24   0
   0   5 -26  127.26    8.34   0
   3   0 -27   62.33    7.82   0
  -1   2 -18  832.63   13.11   0
   2  -1 -21  303.93    9.61   0
  -2   7 -18  127.78    8.27   0
  -1   1 -11  469.14   10.10   0
  -1   4 -23   52.50    7.21   0
   2   0 -25  170.97    8.83   0
  -2   3 -14 1225.37   15.19   0
   2  -2 -14 1008.52   16.45   0
  -3   6  -9  371.56    9.91   0
  -2   4 -18  323.13    8.85   0
  -1   3 -22  270.47    9.42   0
  -1   5 -24  106.77    7.47   0
  -2   6 -20  195.90    8.99   0
   1  -1 -16 1588.68   18.44   0
   1   3 -29   66.71    7.66   0
  -3   5  -8 1627.11   18.29   0
  -3   6 -12  502.57   10.99   0
  -1   1 -14 1337.12   15.94   0
   2   2 -30   71.06    7.48   0
   0   3 -27   59.08    7.77   0
   1   0 -23  105.07    7.74   0
  -3   5 -11  240.82    7.74   0
   0   4 -28   54.77    7.21   0
   2   1 -29   72.16    7.91   0
  -3   7 -13  113.96    7.27   0
  -2   3 -17  542.73   10.40   0
  -1   2 -21  297.82    9.26   0
  -3   6 -15  143.56    7.57   0
  -2   5 -22  176.35    8.73   0
  -2   7 -21   68.22    7.38   0
   0   2 -26  161.48    8.74   0
   1   1 -27   70.70    8.09   0
  -3   5 -14  357.82    9.57   0
  -2   4 -21  305.98    9.07   0
  -1   4 -26  154.73    8.88   0
  -3   7 -16  223.83    8.80   0
  -2   2 -10 3342.20   24.67   0
  -2   6 -23   71.23    7.08   0
  -1   1 -17  878.32   13.18   0
  -1   3 -25  127.12    8.34   0
  -1   5 -27   41.63    7.07   0
   2  -2 -17  252.33    8.94   0
   1  -1 -19  239.58    8.54   0
   2  -1 -24  280.24    9.78   0
  -3   4 -10  839.87   13.12   0
  -2   2  -7  308.63    8.70   0
   2   0 -28   79.78    7.85   0
  -3   5 -17  357.19    9.72   0
  -3   6 -18  257.25    8.59   0
  -2   2 -13 1188.68   14.61   0
  -2   3 -20  412.76    9.81   0
  -3   4  -7  618.27   11.96   0
   0   1 -25  229.81    9.00   0
  -3   7 -19   95.77    7.40   0
  -2   5 -25  129.42    8.23   0
  -1   2 -24  282.62    9.04   0
   0   3 -30   69.66    7.59   0
   1   2 -31   18.51    7.09   0
  -2   2 -16  616.45   11.01   0
  -1   1 -20  652.73   12.04   0
   0   0 -21  651.39   11.76   0
   1   0 -26  259.59    9.14   0
  -3   6 -21  131.00    8.04   0
  -1   4 -29   79.10    7.82   0
   1   1 -30  122.51    8.95   0
   2   1 -32   51.94    6.90   0
  -2   3 -23   98.84    7.05   0
  -1   3 -28  136.60    8.26   0
   1  -1 -22  391.96   10.28   0
   2  -2 -20  672.02   13.11   0
  -2   2 -19  212.31    8.47   0
  -3   4 -19  134.78    6.99   0
  -3   7 -22  100.81    7.33   0
   2  -1 -27   80.93    7.48   0
  -1   2 -27   80.02    8.15   0
   0   1 -28  175.80    8.87   0
  -3   3 -12  941.91   13.10   0
  -3   5 -23   38.44    7.44   0
  -2   4 -27   34.75    6.66   0
  -2   5 -28   70.19    7.12   0
   0   0 -24  381.76   10.37   0
  -3   3 -15  273.90    8.84   0
  -4   6 -13  318.79    9.38   0
  -1   0 -13 1154.68   14.76   0
   0  -1 -14 1279.47   16.42   0
   0  -1 -11  429.09   10.47   0
  -4   6 -10  551.73   11.60   0
  -2   2 -22  600.85   11.36   0
  -2   3 -26  216.00    9.46   0
  -1   0 -10 1484.03   17.55   0
   1   0 -29  128.61    8.31   0
  -4   6 -16  266.11    9.20   0
  -3   3 -18  729.39   12.44   0
  -4   7 -17  143.76    7.63   0
   0   2 -32   81.47    7.60   0
   1  -1 -25  240.87    9.20   0
  -1   3 -31   22.69    6.73   0
   0  -1 -17  845.01   13.08   0
  -4   5 -15  261.40    8.91   0
  -4   5 -12  785.58   12.93   0
  -4   6 -19   63.62    7.37   0
  -3   3  -6 2383.36   22.11   0
  -3   5 -26  105.27    7.69   0
  -2   1 -15  560.96   10.52   0
  -2   1 -12 1847.55   17.99   0
  -4   7 -20  106.76    7.48   0
  -3   3 -21  259.35    9.00   0
  -3   6 -27   27.91    6.68   0
  -2   4 -30   68.38    7.99   0
  -4   5 -18  266.14    8.43   0
  -4   5  -9  339.82    9.35   0
  -3   4 -25  136.47    7.51   0
  -2   2 -25  165.00    8.82   0
   0   0 -27   36.13    7.00   0
   1  -2 -15  555.84   11.96   0
  -2   1 -18  820.31   12.37   0
  -2   1  -9 1195.42   15.47   0
   0  -1 -20  684.18   12.47   0
   0   1 -31   19.47    7.55   0
  -4   6 -22  163.93    8.60   0
  -2   3 -29   74.89    7.71   0
  -1   0 -22  370.03   10.07   0
   1  -2 -18  811.08   14.01   0
  -4   4 -14  545.13   11.09   0
  -4   7 -23   36.18    6.95   0
  -3   3 -24  169.19    8.77   0
  -2   1 -21  302.65    9.18   0
  -3   2 -14 1211.28   14.50   0
  -3   5 -29   77.03    7.39   0
   1  -1 -28  171.80    9.35   0
   1   0 -32   67.12    7.36   0
  -4   4 -11  620.01   11.09   0
  -3   4 -28  106.41    8.33   0
  -3   2 -11  426.53    9.32   0
  -2   2 -28   93.93    8.01   0
   0  -1 -23  108.51    7.31   0
  -4   4 -20  364.59   10.19   0
  -4   6 -25   64.88    7.75   0
  -3   2 -20  404.86    9.70   0
   1  -2 -21  285.06    9.41   0
  -2   1 -24  289.25    9.59   0
  -1   0 -25  233.29    8.98   0
   0   0 -30  119.17    8.87   0
  -4   4  -8 1349.10   16.35   0
  -2   3 -32   46.20    7.22   0
  -4   4 -23  108.61    7.95   0
  -3   2 -23  120.41    7.81   0
  -3   2  -8 1990.25   19.34   0
   0   3 -15  499.20   10.49   0
   3   1 -16  765.71   13.94   0
  -3   7 -10  349.70    9.91   0
  -1   6 -16  304.78    9.83   0
  -2   9 -11   25.40    6.26   0
  -3   4  -4 2515.79   23.10   0
  -3   5  -8 1628.61   17.55   0
  -2   5 -13  556.06   11.24   0
  -1   8 -15   16.71    6.99   0
   0   6 -18   98.28    8.10   0
  -2   6 -14  351.01    9.26   0
   2   3 -19   74.40    7.22   0
  -4   7  -5  324.42    9.39   0
  -3   9  -9  135.53    8.09   0
   1   2 -16 1045.25   14.54   0
  -3   8 -11   86.80    7.40   0
  -2   3  -8 1963.76   19.29   0
  -1   3 -13  488.15   10.14   0
   3   5 -20   88.14    7.03   0
  -4   8  -6  194.49    8.35   0
  -2   7 -15  135.49    8.16   0
  -1   7 -17  131.57    8.49   0
   2   2 -18  320.27    9.89   0
  -2   4 -12 1690.13   17.06   0
  -4   6  -4  743.67   12.81   0
   0   1 -10 1525.02   18.35   0
   0   7 -19   24.96    6.91   0
   2   5 -21   53.57    6.83   0
  -3   7 -13  117.33    7.38   0
   0   4 -19  103.51    7.84   0
  -1   5 -18  370.10    9.74   0
   0   5 -20  144.90    8.49   0
   3   3 -21  115.56    8.10   0
  -4   7  -8  342.37    9.56   0
  -3   4  -7  610.40   11.17   0
  -3   9 -12  121.00    7.61   0
  -1   4 -17  475.59   10.83   0
   3   2 -20  333.94   10.18   0
  -4   8  -9  143.12    7.98   0
  -1   6 -19  101.31    7.47   0
   1   4 -21  162.96    8.60   0
  -3   8 -14  111.74    7.93   0
  -2   5 -16  592.84   11.50   0
  -2   6 -17  132.29    8.07   0
   0   3 -18  473.09   10.36   0
   1   3 -20  362.01   10.23   0
   3   4 -22   80.83    7.59   0
   0   6 -21  103.83    7.77   0
   1   1 -15  557.13   11.62   0
   1   5 -22  100.81    8.12   0
  -2   3 -11  446.24   10.01   0
  -2   7 -18  112.26    7.89   0
  -1   2 -12 1813.24   18.11   0
  -1   3 -16 1136.57   14.84   0
  -1   7 -20  159.16    7.94   0
  -2   4 -15  189.60    7.30   0
   2   3 -22  184.83    9.00   0
   3   1 -19  141.13    8.00   0
  -4   7 -11  128.71    7.62   0
   1   2 -19  287.14    9.54   0
   2   4 -23   62.32    7.08   0
   0   2 -17  272.82    9.20   0
  -4   6 -10  542.74   10.89   0
  -3   5 -14  345.73    9.44   0
  -2   8 -19   24.40    6.56   0
   2   2 -21  320.41   10.03   0
  -1   5 -21  169.81    8.72   0
   0   1 -13 1163.52   15.45   0
  -3   8 -17   84.61    7.23   0
  -2   6 -20  187.98    8.96   0
  -1   4 -20  373.77    9.83   0
  -1   6 -22  115.03    8.26   0
  -4   9 -13   98.23    7.40   0
  -2   5 -19   79.41    6.62   0
  -2   2  -7  329.27    9.31   0
  -2   3 -14 1259.51   15.28   0
  -2   7 -21   48.96    7.36   0
   0   6 -24  100.15    7.44   0
   1   4 -24   92.33    8.07   0
  -4   7 -14  276.58    8.73   0
   1   3 -23   71.42    7.74   0
  -4   5  -9  331.11    9.22   0
  -4   8 -15   64.01    7.12   0
  -3   6 -18  241.02    8.90   0
  -1   2 -15  570.86   10.73   0
   1   5 -25   44.41    7.03   0
  -4   6 -13  312.66    9.37   0
  -3   4 -13  544.92   10.49   0
  -3   7 -19   93.84    7.62   0
  -1   3 -19  278.17    8.82   0
   1   1 -18  832.22   13.96   0
   2   1 -20  429.80   11.19   0
  -3   5 -17  334.65    9.47   0
  -5   8 -10  157.98    7.92   0
   2   3 -25  116.88    8.29   0
   2   4 -26   65.76    6.86   0
  -2   2 -10 3319.14   24.16   0
  -1   5 -24   92.24    7.62   0
  -4   5 -12  768.48   12.63   0
  -4   7 -17  141.48    7.92   0
  -2   5 -22  179.68    8.62   0
  -2   6 -23   72.55    8.00   0
  -1   4 -23   53.56    7.59   0
  -1   6 -25   51.03    7.27   0
   1   0 -14 1280.72   16.92   0
  -2   3 -17  534.49   11.02   0
   0   4 -25  112.30    8.33   0
   2   2 -24  248.57    9.29   0
  -4   6 -16  273.22    9.31   0
  -4   8 -18   77.33    7.06   0
  -3   4 -16  770.42   12.06   0
  -5   8 -13  122.78    7.29   0
  -3   7 -22   92.60    7.45   0
  -2   4 -21  307.02    9.64   0
  -1   1 -11  471.75   10.01   0
  -1   2 -18  855.75   13.39   0
   0   3 -24  241.82    9.30   0
   1   4 -27   32.02    7.34   0
  -3   5 -20  346.58    9.46   0
  -1   3 -22  273.84    9.59   0
   1   3 -26  142.47    8.38   0
  -4   4  -8 1337.75   16.07   0
  -3   3 -12  957.52   13.08   0
  -2   2 -13 1181.99   14.39   0
   1   1 -21  291.81    9.72   0
  -4   7 -20  100.46    7.87   0
   2   0 -19  229.84    8.64   0
   2   1 -23  106.20    7.61   0
  -5   8 -16  149.67    8.53   0
  -5   7 -15   61.55    7.03   0
  -3   4 -19  142.57    7.96   0
  -2   3 -20  411.62   10.23   0
  -2   5 -25  138.97    8.70   0
  -2   6 -26   75.69    7.72   0
   0   1 -19  226.90    8.60   0
   0   2 -23  224.17    9.34   0
   1   2 -25  134.89    8.63   0
  -4   4 -11  606.01   11.15   0
  -1   1 -14 1339.57   15.56   0
  -1   4 -26  138.65    8.20   0
   1   0 -17  892.38   14.14   0
  -3   6 -24  102.19    7.56   0
   0   4 -28   52.20    7.42   0
  -3   3 -15  276.05    8.03   0
  -2   2 -16  628.90   11.49   0
  -2   4 -24  234.03    9.69   0
  -1   2 -21  279.32    9.22   0
  -5   6 -14  314.66    9.32   0
  -3   5 -23   36.01    6.42   0
   0   3 -27   59.45    7.96   0
   2   2 -27   28.10    6.48   0
  -5   7 -18  186.06    8.27   0
  -5   8 -19   38.38    6.40   0
  -5   5  -7  557.14   11.55   0
  -4   6 -22  158.23    8.50   0
  -3   4 -22  251.50    9.25   0
  -2   3 -23  110.86    7.89   0
   1   1 -24  294.00   10.06   0
   1   3 -29   80.76    7.80   0
  -5   6 -17  162.44    8.34   0
  -3   3 -18  732.06   11.92   0
  -2   2 -19  216.19    8.54   0
  -2   5 -28   65.60    7.49   0
   0   1 -22  408.23    9.96   0
   0   2 -26  176.61    9.25   0
  -4   4 -17  211.85    7.80   0
  -3   6 -27   16.15    6.87   0
   2   0 -22  579.88   12.45   0
  -5   5 -13  180.06    7.90   0
  -1   4 -29   78.27    7.58   0
   1   0 -20  670.62   12.65   0
   2  -1 -15  531.76   11.93   0
  -5   7 -21   91.68    7.76   0
  -3   5 -26  106.37    7.40   0
  -2   4 -27   20.82    7.74   0
   1   2 -28  131.25    8.81   0
  -3   2  -8 1964.16   19.26   0
  -6   7 -13  180.60    8.17   0
  -5   6 -20  161.55    8.22   0
  -4   6 -25   64.64    7.57   0
  -3   2 -11  417.24    9.20   0
  -1   3 -28  148.93    8.98   0
  -5   5 -16  386.60   10.09   0
  -3   3 -21  258.89    9.34   0
  -2   1  -9 1149.61   14.92   0
  -1   1 -20  664.24   11.51   0
  -4   3 -10  842.69   12.82   0
  -4   4 -20  330.67    9.80   0
  -3   4 -25  142.95    7.74   0
   0   3 -30   89.89    7.68   0
  -4   3  -7  640.77   11.60   0
  -4   5 -24  146.18    8.38   0
  -3   2 -14 1244.19   14.95   0
  -2   1 -12 1776.70   17.64   0
  -2   3 -26  231.51    9.68   0
   0   0 -18  559.44   11.29   0
  -6   7 -16  182.55    8.99   0
  -2   2 -22  585.81   11.46   0
   1   1 -27   85.14    7.62   0
  -5   5 -19  158.17    8.15   0
  -2   1 -15  562.59   10.49   0
   2  -1 -18  789.11   13.99   0
  -6   6 -12  401.99   10.15   0
  -5   6 -23   43.32    7.30   0
  -3   5 -29   80.07    7.56   0
  -1   2 -27   78.32    8.45   0
   0   2 -29   80.03    7.97   0
   1  -1 -13 1102.80   16.07   0
   1   0 -23  107.25    7.54   0
  -4   3 -16  748.28   11.93   0
  -3   2 -17  525.22   10.30   0
  -2   4 -30   75.56    7.70   0
  -6   7 -19   36.56    6.80   0
  -5   4  -9  325.45    8.98   0
  -4   4 -23   95.18    8.20   0
  -3   3 -24  169.14    9.06   0
  -6   6 -15   81.17    6.88   0
  -5   4 -12  783.01   12.27   0
  -1   0 -10 1475.56   17.00   0
  -3   4 -28   92.90    7.98   0
  -1   0 -13 1149.49   14.66   0
   0   0 -21  685.17   12.51   0
  -5   4 -15  263.28    8.71   0
  -4   5 -27   35.02    7.33   0
  -2   1 -18  832.78   12.50   0
  -2   2 -25  181.77    8.67   0
  -5   4  -6  811.76   13.30   0
  -4   3 -19  155.03    7.52   0
  -1   3 -31   28.61    7.71   0
   1  -1 -16 1596.15   18.53   0
  -3   2 -20  373.02    9.39   0
  -6   6 -18  144.80    8.35   0
  -1   0 -16 1662.39   17.10   0
  -6   7 -22   76.35    7.28   0
   0   1 -28  174.01    8.86   0
  -4   4 -26  119.27    8.25   0
  -3   3 -27   72.58    8.19   0
  -2   1 -21  287.80    9.28   0
  -1   1 -26  250.19    9.80   0
   1   0 -26  259.93    9.79   0
  -6   6 -21   97.81    7.52   0
  -4   3 -22  233.57    8.54   0
  -1   2 -30  112.57    8.40   0
  -5   5 -25   63.41    7.46   0
  -3   2 -23  108.15    7.90   0
   0   2 -32   71.48    7.59   0
   1  -1 -19  228.73    8.33   0
  -6   5 -17  176.30    8.24   0
  -4   2 -15  172.63    7.68   0
  -4   2 -12 1626.52   16.60   0
  -2   1 -24  284.72    9.61   0
  -2   3 -32   42.95    6.93   0
  -6   6 -24   80.94    7.03   0
  -4   3 -25  135.57    8.73   0
  -4   4 -29   40.43    7.73   0
  -3   1 -13  490.40    9.85   0
  -1   0 -22  391.63   10.25   0
   0  -1 -14 1222.33   15.70   0
  -6   5 -20  160.32    8.54   0
  -5   4 -24  165.17    8.92   0
  -3   1 -16 1117.97   14.35   0
  -3   1 -10 1352.34   15.58   0
  -5   3 -14  335.09    9.38   0
  -3   2 -26  216.54    9.72   0
  -3   3 -30  119.18    7.96   0
   1  -1 -22  382.21   10.42   0
  -5   3 -11  254.40    7.82   0
  -1   1 -29  109.66    8.56   0
   0  -1 -17  860.34   13.30   0
   0   1 -31   26.12    7.33   0
  -3   1 -19  301.46    9.15   0
   0   0 -27   41.11    7.00   0
  -6   5 -23   34.23    7.24   0
  -4   2 -21  328.78    9.95   0
  -2   0 -14 1045.15   13.65   0
  -2   2 -31   32.81    7.70   0
  -5   3 -20  373.87   10.02   0
  -5   3  -8 1616.75   17.58   0
  -3   1  -7 1493.86   16.96   0
  -2   0 -17  270.21    8.64   0
  -2   0 -11 1859.32   18.19   0
  -4   2  -6  692.86   12.09   0
  -4   3 -28  108.58    8.10   0
  -1   0 -25  230.04    9.09   0
   0  -1 -20  672.80   12.29   0
  -6   4 -16  294.70    9.38   0
  -5   4 -27   36.55    7.36   0
  -3   1 -22  269.14    9.23   0
  -7   6 -19   41.77    6.20   0
  -3   2 -29   72.49    7.64   0
   1  -1 -25  231.92    9.13   0
  -6   4 -19   63.73    6.43   0
  -6   4 -10  533.24   11.09   0
  -5   3 -23   44.57    7.35   0
  -4   2 -24  237.01    9.51   0
  -2   0  -8 2864.52   23.03   0
  -7   6 -16  185.14    8.74   0
  -6   5 -17  167.49    7.95   0
  -3   4 -22  245.02    9.78   0
  -6   4 -13  324.15    9.90   0
  -6   7 -22   73.01    7.94   0
  -3   1  -4 3077.27   25.21   0
  -8   6 -11   69.86    7.77   0
  -6   6 -21  101.39    8.00   0
  -1   1 -14 1251.45   16.27   0
  -4   6 -25   74.55    7.43   0
  -1   3 -22  260.37    9.35   0
  -5   3 -14  357.59    9.25   0
  -5   5 -22  138.05    8.96   0
  -4   2 -12 1788.35   17.62   0
  -6   3  -3  389.45    9.79   0
  -4   5 -24  156.77    8.64   0
  -3   1  -7 1590.82   17.37   0
  -2   4 -24  216.21    9.15   0
  -7   4  -5  337.20    9.52   0
  -6   3  -6  648.17   11.82   0
  -7   5 -15   58.32    6.56   0
  -7   6 -19   35.82    7.64   0
  -3   3 -21  273.81    9.83   0
  -6   4 -16  278.85    9.04   0
  -6   5 -20  162.06    9.28   0
  -4   3 -19  141.55    7.74   0
  -2   2 -19  210.54    8.11   0
  -9   7 -10  104.08    7.73   0
  -8   6 -14  106.04    7.71   0
  -7   4  -8  334.07    9.06   0
   0   1 -16 1511.27   18.54   0
  -6   3  -9  361.59    9.49   0
  -3   5 -26  100.44    7.71   0
  -8   5  -7  108.24    7.54   0
  -5   2  -4 2027.45   19.34   0
  -3   1 -10 1386.68   15.78   0
  -2   3 -23  101.69    7.90   0
  -5   2  -7  326.59    9.08   0
  -5   2  -1  711.18   12.79   0
  -5   4 -21  135.01    7.97   0
  -7   4 -11  130.62    7.64   0
  -5   3 -17  382.21    9.86   0
  -4   2 -15  172.19    7.54   0
  -6   6 -24   73.48    7.48   0
  -3   4 -25  119.42    7.66   0
  -2   1 -15  585.76   11.52   0
  -1   2 -21  276.55    9.31   0
  -8   5 -10  179.36    8.43   0
  -7   5 -18  195.29    8.90   0
  -1   1 -17  866.23   13.64   0
  -6   4 -19   71.36    7.34   0
  -7   6 -22   79.22    7.99   0
  -6   5 -23   41.26    7.78   0
  -4   3 -22  244.49    9.68   0
  -9   6  -9   59.18    7.52   0
  -8   5 -13  126.69    8.12   0
  -4   5 -27   31.09    7.61   0
  -3   3 -24  164.56    8.33   0
  -6   3 -15  151.12    7.49   0
  -5   2 -13  569.98   10.79   0
  -5   3 -20  387.77   10.73   0
  -4   2 -18  331.82    9.35   0
  -2   2 -22  602.06   12.28   0
  -5   4 -24  167.97    9.18   0
  -9   6 -12  151.50    8.14   0
  -7   5 -21   96.96    8.23   0
  -4   1  -8 1949.83   18.73   0
  -4   4 -26  113.72    8.34   0
  -1   0 -10 1391.00   16.98   0
  -7   4 -17  147.13    7.56   0
  -6   4 -22  173.88    9.54   0
  -4   1  -2 1194.52   16.09   0
   0   1 -19  212.83    8.24   0
  -5   2 -16  611.31   12.07   0
  -4   1 -11  324.19    8.47   0
  -6   3 -18  249.74    9.48   0
  -3   4 -28   87.73    8.62   0
  -1   1 -20  650.59   12.32   0
  -7   3  -7  296.00    9.23   0
  -7   3  -4  456.21   10.99   0
  -2   0  -8 2886.63   23.45   0
  -8   4  -9  160.37    8.19   0
  -7   3 -10  348.99    9.74   0
  -3   2 -23  120.62    8.19   0
  -1   2 -24  254.10    9.20   0
  -5   3 -23   41.54    7.93   0
  -7   4 -20  109.62    8.49   0
  -6   2  -8  662.91   11.99   0
  -4   1 -14  627.56   11.24   0
  -2   0 -11 1891.64   18.77   0
  -8   4 -12  252.52    9.14   0
  -6   2  -5  283.30    8.85   0
  -7   3 -13  130.63    7.20   0
  -6   2 -11  314.85    9.17   0
  -3   3 -27   59.99    7.65   0
  -5   2 -19   85.36    7.05   0
  -5   4 -27   31.29    6.96   0
  -2   1 -21  294.75    9.33   0
  -2   2 -25  170.32    8.60   0
  -9   5 -11   58.09    7.33   0
  -6   3 -21  117.69    8.55   0
  -6   4 -25   89.84    8.40   0
   0   0 -15  151.19    6.94   0
  -8   4 -15   76.90    7.53   0
  -4   1 -17  472.48   10.97   0
  -2   0 -14 1038.67   13.89   0
  -1   0 -16 1513.28   17.16   0
  -9   5 -14   56.50    6.60   0
  -7   4 -23   46.17    7.66   0
  -5   1  -6 1044.83   14.36   0
  -3   0  -9  492.38   10.00   0
  -5   1 -12  611.18   11.43   0
  -3   0  -6 1888.34   18.72   0
  -1   1 -23   92.98    6.96   0
  -8   4 -18   90.77    7.80   0
  -6   2 -17  138.83    8.37   0
  -5   2 -22  197.73    9.18   0
  -4   3 -28   89.98    8.35   0
  -3   0 -12 1548.08   16.51   0
  -3   2 -26  215.03    9.18   0
  -7   3 -19   97.48    8.38   0
  -2   0 -17  260.53    8.73   0
  -6   3 -24  118.73    8.69   0
  -5   1  -3  316.66    9.00   0
  -2   1 -24  271.80    9.79   0
  -1   0 -19  232.05    8.38   0
   0   0 -18  505.72   11.08   0
  -6   2 -20  200.97    9.26   0
  -3   3 -30  105.69    7.78   0
  -2   2 -28   73.58    7.73   0
  -8   3 -11   85.81    7.43   0
  -8   3  -8  323.38    9.81   0
  -5   1 -18  408.16   10.71   0
  -7   2 -12  354.47   10.27   0
  -7   2  -9  136.15    7.78   0
  -7   3 -22   96.00    7.99   0
  -4   2 -27   26.03    8.18   0
  -8   3 -14  123.91    7.85   0
  -4   0 -10 1180.78   14.88   0
  -3   0 -18  496.56   10.52   0
  -9   4 -13  100.57    8.08   0
  -7   2  -6  337.12    9.59   0
  -5   3 -29   62.22    8.06   0
  -4   0 -13  681.63   12.03   0
  -4   1 -23   73.88    7.29   0
  -3   1 -25  138.02    8.98   0
  -7   2 -15  153.63    8.44   0
  -6   3 -27   39.53    7.60   0
  -3   2 -29   82.83    8.09   0
  -1   1 -26  236.31    9.33   0
  -8   3 -17   88.25    8.08   0
  -6   1 -10  426.71   10.52   0
  -6   2 -23   85.83    7.95   0
  -4   0 -16  405.55    9.74   0
   0   0 -21  614.52   12.28   0
  -6   1  -7  360.94    9.31   0
  -2   1 -27   79.23    7.87   0
  -4   0  -4 1378.13   16.28   0
  -3   0 -21  232.56    8.75   0
  -6   1 -16  300.85    9.22   0
  -2   0 -23  214.98    9.11   0
  -1  -1 -12 1713.95   17.76   0
  -1  -1  -9 1139.31   15.35   0
  -8   3 -20  108.15    7.70   0
  -4   0 -19  107.27    7.44   0
  -6   1  -4  686.42   12.52   0
  -4   2 -30   85.40    8.40   0
  -2  -1 -13  501.64   10.17   0
  -2  -1 -10 1388.10   15.83   0
  -7   2 -21   60.66    7.53   0
  -6   1 -19   98.62    8.66   0
  -6   2 -26   73.38    8.53   0
  -5   1 -24  110.32    9.26   0
  -3   1 -28  137.07    9.33   0
   0  -1 -14 1208.04   15.98   0
  -5   0 -14  567.44   11.31   0
  -2  -1 -16 1069.43   14.13   0
  -2  -1  -7 1536.39   17.00   0
  -5   0  -8  599.73   11.10   0
  -1  -1 -18  790.99   13.04   0
  -5   0 -17  232.47    9.47   0
  -6   1 -22  111.32    9.05   0
  -3  -1 -11  348.01    8.92   0
   0  -1 -17  852.68   13.72   0
  -8   2 -13  148.66    8.31   0
  -2  -1 -19  284.90    9.46   0
  -2   0 -26  151.57    8.88   0
  -8   2 -10  143.01    8.33   0
  -3  -1  -8 1961.16   18.89   0
  -8   2 -16  134.33    8.09   0
  -5   0  -5  641.73   11.88   0
  -5   1 -27   33.65    8.41   0
  -4   1 -29   87.14    9.08   0
  -3  -1 -17  458.70   10.34   0
  -7   1 -14  127.62    8.56   0
  -7   1 -11  122.58    8.09   0
  -5   0 -20  163.59    8.35   0
  -1  -1 -21  283.66    9.32   0
  -7   1 -17  123.42    8.45   0
  -7   1  -8  502.09   11.53   0
  -4   0 -25  141.02    9.16   0
  -2  -1  -4 3134.80   25.08   0
  -6   1 -25   45.66    8.51   0
  -3   0 -27   60.20    8.06   0
   0  -1 -20  653.18   12.35   0
  -4  -1 -12  596.65   11.61   0
  -3   1 -31   28.62    7.86   0
  -2  -1 -22  280.12    9.13   0
  -5   0 -23   71.19    8.40   0
  -4  -1 -15  166.56    7.76   0
  -6   0 -12  502.16   10.83   0
  -4  -1 -18  430.24   11.08   0
   1  -1 -16 1510.10   19.21   0
  -6   0 -18  114.23    8.48   0
  -6   0  -9  236.29    8.18   0
  -5   0  -2 1033.71   15.20   0
  -3  -1 -23   68.71    8.12   0
  -2   0 -29   61.45    8.16   0
  -1  -1 -24  267.65    9.36   0
  -4   0 -28   69.77    8.62   0
  -2  -1 -25  142.60    8.77   0
   0  -1 -23   88.29    6.96   0
  -6   0 -21  102.50    8.58   0
  -5   0 -26  146.77    9.30   0
  -4  -1  -6 1053.47   14.19   0
  -6   0  -6  292.34    9.31   0
  -3   0 -30   86.65    8.88   0
   1  -1 -19  214.15    8.47   0
  -1  -2 -14 1261.40   15.65   0
  -5  -1 -16  328.54   10.81   0
  -2  -2 -15  178.22    8.42   0
  -2  -2 -12 1786.40   18.18   0
  -5  -1 -10  441.35   10.82   0
  -3  -1 -26  163.66    9.37   0
  -1  -2 -11  423.78    9.63   0
  -8   1 -15   32.08    6.74   0
  -6   0 -24  109.38    8.79   0
  -4  -1 -24  118.04    8.42   0
  -3  -1  -2 1213.23   16.33   0
  -2  -2 -18  329.98    9.36   0
  -8   1 -12  150.67    8.55   0
  -3  -2 -16  597.10   12.23   0
  -3  -2 -13  581.63   11.88   0
  -2  -2  -9 1005.82   13.70   0
  -1  -2 -20  415.37   10.63   0
  -1  -1 -27   88.84    7.89   0
   0  -2 -16  570.58   11.55   0
  -7   0 -13  160.32    9.05   0
  -2  -1 -28  139.94    8.88   0
  -5  -1 -22  130.65    9.00   0
  -5  -1  -7  357.16    9.96   0
  -1  -2  -8 2007.95   19.31   0
  -7   0 -19   22.35    7.69   0
  -4  -1  -3  345.58    9.12   0
  -3  -2 -19   83.84    7.37   0
  -3  -2 -10  528.84   10.71   0
   0  -2 -19  223.25    8.61   0
  -7   0 -10  116.64    8.02   0
  -3  -1 -29   68.01    8.41   0
  -1  -2 -23   94.92    7.25   0
  -6  -1 -14  134.73    8.92   0
  -4  -2 -17  149.36    9.30   0
  -4  -2 -14  397.64   10.82   0
  -2  -2 -24  223.72    9.88   0
  -2  -2  -6  726.34   12.45   0
   0  -2 -22  575.29   12.18   0
  -6  -1 -11  131.53    8.46   0
  -6  -1 -20  158.20    9.26   0
  -4  -2 -20  212.53    9.16   0
  -5  -1  -4  728.21   13.01   0
  -2  -1 -31   22.99    7.03   0
  -1  -2  -5 1983.83   20.09   0
   1  -2 -15  517.25   11.60   0
  -1  -2 -26  203.07    9.52   0
   0  -2  -7  323.07    9.03   0
   1  -2 -18  789.44   13.90   0
  -6  -1  -8  516.83   11.87   0
  -4  -2 -23   84.78    8.48   0
  -4  -2  -8  658.70   11.89   0
  -2  -2 -27   30.76    8.07   0
   0  -2 -25  162.71    9.01   0
   1  -2 -12 1592.22   19.15   0
  -5  -2 -18  131.61    8.82   0
  -2  -3 -17  391.03   10.94   0
  -5  -2 -12  356.85    9.99   0
  -2  -3 -14  366.87    9.52   0
   5   3  -1  203.87    9.45   0
   8  -4  -9  151.09    8.61   0
   3   4   2  585.94   12.33   0
   4   4   3  166.64    8.61   0
   9  -4  -8  251.43    9.58   0
   9  -1  -5   58.98    7.69   0
   5  -3 -10  515.24   12.14   0
   6   0  -9  298.90   10.08   0
   6   1  -7  113.51    8.22   0
   9  -2  -7   96.39    8.08   0
   5   1  -8  554.73   11.14   0
   7   0  -8  418.74   11.55   0
   2   0  -7  338.59    9.43   0
   5   0 -10  601.86   12.03   0
   5   2  -6  436.45   10.37   0
   6   3   0  248.98    9.53   0
   7   1  -6  138.28    8.68   0
   8  -3 -10  177.97    8.99   0
   5  -2 -11  247.25    9.06   0
   6   2  -5  139.30    8.71   0
   7  -3 -11  120.31    8.14   0
   3   0  -9 1244.73   15.54   0
   4   2  -7  255.68    8.85   0
   8   0  -7   99.96    8.45   0
   9  -3  -9   80.09    7.72   0
   4   1  -9  346.56    9.26   0
   2   2  -6  712.45   12.25   0
   4   4   0  473.17   11.51   0
   5   3  -4  378.46   10.82   0
   8   1  -5   65.93    7.74   0
   1   2  -4 3142.30   25.98   0
   1   3  -2 1258.49   16.74   0
   2   3  -4 2102.03   19.75   0
   3   4  -1  198.31    8.43   0
   8  -2 -11   83.70    8.03   0
   4   0 -11  642.33   12.05   0
   5   4   1  131.18    8.31   0
   6  -3 -12  507.53   11.92   0
   7  -2 -12  253.12    9.70   0
   6   3  -3  126.68    8.31   0
   3   2  -8 1638.07   17.12   0
   9  -2 -10  101.22    8.45   0
   2   1  -8 2004.08   19.42   0
   6   1 -10  200.43    8.50   0
   7   1  -9   93.00    8.47   0
   3   1 -10  833.43   12.99   0
   5   1 -11  192.75    8.98   0
   5   2  -9  339.61   10.37   0
   6  -2 -13  309.85    9.56   0
   6   0 -12  416.61   10.29   0
   6   2  -8  293.59   10.04   0
   2   4  -2  793.86   13.41   0
   4   4  -3  173.40    8.67   0
   8   0 -10  105.72    7.58   0
   1   4   0 1279.89   17.31   0
   7  -1 -13  186.84    9.20   0
   5   0 -13  186.19    8.72   0
   5   4  -2   96.61    8.23   0
   8  -3 -13  123.12    8.23   0
   3  -2 -10 1367.72   18.68   0
   3   4  -4  500.59   11.26   0
   9  -3 -12  148.31    8.59   0
   4   1 -12  778.58   13.09   0
   6  -1 -14  324.86   10.30   0
   6   3  -6   97.50    7.99   0
   4  -3 -11  333.01   10.54   0
   4  -1 -13  547.46   11.15   0
   7  -3 -14  272.60    9.74   0
   3   0 -12  973.25   14.13   0
   5  -3 -13  540.66   12.48   0
   5  -2 -14  324.41   10.00   0
   8  -2 -14  115.62    8.08   0
   2   2  -9  979.75   13.55   0
   1   3  -5  995.26   14.43   0
   2   0 -10 3363.68   25.91   0
   3   3  -9  384.11   10.05   0
   6   1 -13  197.90    8.51   0
   6   2 -11   80.24    8.09   0
   7  -2 -15   59.30    7.43   0
   7   1 -12  184.06    8.92   0
   3   2 -11  258.93    8.43   0
   5   2 -12  262.95    9.82   0
   5   4  -5  113.41    8.18   0
   7   0 -14   95.32    8.16   0
   2   4  -5  304.91    8.66   0
   4   0 -14  544.35   11.47   0
   5  -1 -15  243.99    9.24   0
   7   2 -10  104.29    8.26   0
   1   2  -7 1600.55   17.92   0
   5   1 -14  345.58   10.47   0
   6   0 -15   96.30    7.77   0
   1   4  -3  329.76    9.60   0
   5   3 -10  177.76    9.03   0
   3   4  -7  325.04    9.79   0
   6  -3 -15  156.88    8.34   0
   2   1 -11  443.08   10.32   0
   3   1 -13  613.37   11.55   0
   3   5  -2  215.51    8.95   0
   8  -1 -15   40.09    7.35   0
   4   3 -11  132.12    8.56   0
   6  -2 -16  275.06   10.01   0
   7  -1 -16  193.25    9.29   0
   4   1 -15  251.46    8.78   0
   5   4  -8  265.63   10.17   0
   6  -1 -17  172.96    9.15   0
   2   3 -10  517.85   10.51   0
   2   5  -3  367.19   10.30   0
   4   4  -9  168.86    8.04   0
   4   5  -4  291.22   10.56   0
   6   2 -14  128.38    8.25   0
   2   4  -8  649.66   12.30   0
   3   3 -12  532.42   10.98   0
   3   5  -5  170.77    8.98   0
   6   1 -16  192.90    8.70   0
   8  -2 -17   84.11    7.94   0
   1   1  -9 1151.47   15.75   0
   2   2 -12 1739.25   17.91   0
   5   2 -15   51.19    7.27   0
   3  -1 -14 1223.80   16.36   0
   3   2 -14  347.84    9.44   0
   4  -2 -15  181.82    8.28   0
   4  -1 -16  766.62   13.38   0
   5   3 -13  130.69    8.99   0
   6   3 -12  156.37    8.07   0
   1   4  -6 1035.72   14.42   0
   3   4 -10  350.75    9.54   0
   5   1 -17  180.38    9.43   0
   7  -2 -18  194.64    9.22   0
   0   4  -1 1248.91   18.13   0
   5  -2 -17  352.60   10.51   0
   4   3 -14  300.87    9.35   0
   5  -1 -18  250.35    9.66   0
   1   2 -10 1380.11   16.10   0
   2   5  -6  353.56   10.13   0
   3  -2 -13  477.21   11.58   0
   4   2 -16  296.25    9.40   0
   4   5  -7   69.95    7.18   0
   5   4 -11   61.44    7.36   0
   2   0 -13 1176.07   15.28   0
   3   1 -16  762.32   12.56   0
   4   4 -12  261.15    9.51   0
   7  -1 -19   31.20    7.21   0
   1   5  -4  717.79   13.52   0
   2   1 -14 1241.38   15.61   0
   3   5  -8  349.55   10.56   0
   2  -1 -12 1670.85   19.54   0
   6  -2 -19   66.50    8.53   0
   6   2 -17   94.13    8.43   0
   2   3 -13  559.86   10.96   0
   2   4 -11  306.62    9.07   0
   4   1 -18  263.69    9.59   0
   3   3 -15  156.72    8.32   0
   5   2 -18  209.13    9.51   0
   5   3 -16  173.04    8.95   0
   6  -1 -20  152.91    9.30   0
   6   1 -19   25.69    7.98   0
   0   4  -4 1416.32   17.94   0
   1   3 -11  342.08    9.46   0
   1   4  -9  646.80   11.63   0
   2   2 -15  172.79    8.06   0
   3   2 -17  377.93   10.79   0
   4   5 -10   88.39    7.72   0
   7   0 -20  122.33    8.71   0
   2   5  -9  126.57    7.82   0
   4   3 -17  147.61    8.81   0
   5   4 -14   56.40    8.05   0
   1   1 -12 1795.50   18.82   0
   5   1 -20  177.79    8.82   0
   1   5  -7  345.86    9.52   0
   3   5 -11   87.39    8.33   0
   4  -1 -19  137.64    8.31   0
   6   0 -21   87.60    8.24   0
   1   2 -13  501.95   10.38   0
   3  -1 -17  527.33   11.73   0
   4   0 -20  350.70   10.66   0
   7  -2 -21   88.77    8.09   0
   1   0 -11  437.20   10.33   0
   4  -2 -18  324.80   10.19   0
   0   2  -8 2885.05   24.19   0
   3   1 -19  153.29    8.46   0
   5  -2 -20  336.51   10.82   0
   5  -1 -21  141.23    8.72   0
   0   4  -7  287.75    8.95   0
   2   3 -16  583.52   11.51   0
   7  -1 -22   91.35    8.12   0
   2   1 -17  514.93   11.15   0
   3   3 -18  228.09    9.73   0
   3   4 -16  220.76    8.56   0
   4   5 -13  115.06    7.82   0
   5   3 -19   40.03    7.92   0
   2   5 -12  368.55   10.80   0
   4   1 -21  146.03    8.61   0
   5   0 -22  147.34    9.17   0
   0   3  -9  480.30   10.25   0
   1   3 -14  628.36   11.93   0
   5   2 -21  104.32    8.46   0
   1   5 -10  430.52   10.77   0
   3  -2 -16 1095.34   16.60   0
   0   5  -5  639.65   12.49   0
   2   2 -18  338.71   10.21   0
   3   2 -20  366.09   10.89   0
   3   5 -14  129.15    8.14   0
   2  -1 -15  541.35   11.71   0
   4   3 -20  112.64    8.47   0
   4   4 -18   98.03    8.53   0
   6  -1 -23   56.33    7.93   0
   4   2 -22  178.45    9.71   0
   0   4 -10 1196.67   15.53   0
   1   1 -15  559.58   10.96   0
   2   4 -17  149.90    8.58   0
   2   6 -10  156.87    8.54   0
   1   2 -16 1085.85   14.49   0
   6   0 -24   86.98    7.69   0
   0   2 -11 1818.72   18.53   0
   0   5  -8  611.24   12.13   0
   1   4 -15  149.43    7.48   0
   1   6  -8  485.01   11.89   0
   2   3 -19   70.72    7.56   0
   2   5 -15  137.25    8.71   0
   3   4 -19   93.34    8.17   0
   1   5 -13  194.43    8.63   0
   3   6 -12  105.38    8.53   0
   4   0 -23   98.15    8.66   0
   0   3 -12 1439.62   16.26   0
   3   3 -21  134.45    8.24   0
   1   3 -17  453.07   10.77   0
   3  -1 -20  407.68   10.85   0
   3   5 -17  100.07    7.92   0
   0   1 -10 1527.81   18.15   0
   2   1 -20  385.25   10.53   0
   5  -1 -24  157.96    8.84   0
   2   0 -19  215.11    8.06   0
   4  -2 -21  334.20   10.96   0
   2   6 -13  154.10    9.22   0
   5   0 -25   43.61    7.82   0
   1   6 -11  112.09    8.46   0
   2   2 -21  312.95   10.15   0
   3   2 -23   43.74    7.82   0
   4   3 -23   54.02    7.61   0
   0   5 -11  207.24    8.46   0
   2   4 -20  195.66    9.42   0
   2   5 -18  115.84    8.39   0
   0   2 -14 1055.55   14.45   0
   1   1 -18  797.26   13.27   0
   1   2 -19  277.10    9.17   0
   1   4 -18  401.90   10.09   0
   1   5 -16  314.30    9.22   0
   2  -2 -14 1029.14   16.62   0
   2  -1 -18  826.63   13.95   0
   3  -2 -19  282.12   10.15   0
   4   2 -25   76.67    7.81   0
   0   3 -15  497.90   10.88   0
   3   4 -22   96.96    8.16   0
  -1   4  -5 1042.64   15.65   0
   2   3 -22  184.98    8.35   0
   0   6  -9  226.19    9.17   0
   3   5 -20   97.46    8.31   0
   1   3 -20  382.83   10.56   0
   1   6 -14  110.05    7.90   0
   2   6 -16  132.26    8.45   0
   3   3 -24  115.84    8.05   0
   0   1 -13 1167.13   15.06   0
   0   5 -14  532.21   11.26   0
   3   0 -24  155.44    9.07   0
  -1   4  -8 1937.76   19.64   0
   0   4 -16  412.92    9.72   0
   1  -1 -13 1090.54   16.23   0
   3   1 -25  142.97    9.08   0
   4   0 -26  112.08    8.10   0
   4  -1 -25  139.23    8.61   0
   3  -1 -23   92.52    7.70   0
  -1   5  -6 1015.64   15.16   0
   0   6 -12  491.46   11.22   0
   2   2 -24  254.45    9.65   0
   4   1 -27   34.47    7.82   0
   1   4 -21  183.41    9.01   0
   2   4 -23   69.18    8.10   0
   3   2 -26   90.68    8.33   0
   5  -1 -27   36.02    7.37   0
  -1   3 -10 1370.02   16.21   0
   0   2 -17  250.63    8.11   0
   0   3 -18  454.89   10.51   0
  -1   5  -9  651.94   12.19   0
   1   2 -22  264.46    8.96   0
   1   6 -17  120.60    8.45   0
   0   5 -17  213.07    8.19   0
   2   3 -25  132.89    8.52   0
   0   1 -16 1652.09   17.60   0
   0   4 -19  109.99    7.64   0
   0   6 -15  105.04    7.79   0
   1   3 -23   64.23    6.95   0
   2  -1 -21  284.65    9.58   0
  -1   2  -9 1168.27   15.54   0
  -1   5 -12  552.28   11.17   0
   2  -2 -17  238.58    8.71   0
   3   3 -27   23.22    6.45   0
  -1   3 -13  476.47    9.80   0
  -1   4 -14  613.98   11.40   0
   3  -2 -22  262.92    9.47   0
   1  -1 -16 1615.07   18.71   0
   1   0 -20  654.49   11.78   0
   3   0 -27   58.62    7.32   0
   3   1 -28   91.12    7.83   0
   2   1 -26  208.47    8.40   0
   7  -4  -4  479.23   10.81   0
   7  -1   8  532.68   11.86   0
   9  -8  -1   41.87    6.53   0
   9  -4   4  324.60   10.00   0
   6  -5  -7  332.27    9.82   0
   7  -3  -2  568.16   10.98   0
   8  -6  -4  357.52   10.44   0
   8  -3   2  236.94    8.37   0
   6   0   9  235.79    9.41   0
   8  -2   7   94.94    7.77   0
   9  -7  -2  151.30    9.04   0
   9  -3   9  145.09    8.29   0
   5  -5  -8  595.19   12.14   0
   7  -5  -6  340.67    9.99   0
   4  -2  -6  717.51   11.89   0
   4   1   6 1079.24   15.84   0
   5  -2  -5  716.90   12.15   0
   7  -2   0  548.44   11.50   0
   9  -5  -1  137.57    8.45   0
   5  -3  -7  334.56    9.36   0
   7  -1   5  209.71    8.53   0
   9  -3   6  130.38    8.55   0
   4  -1  -4 2644.97   21.44   0
   5   0   2 1113.05   14.57   0
   8  -4  -3  168.12    8.06   0
   6   0   6  314.29    9.61   0
   8  -2   4  371.74   10.75   0
   8  -7  -6  160.93    8.88   0
   8  -3  -1  188.21    9.17   0
  10  -5   3   53.87    6.98   0
   3  -1  -5 1991.69   19.76   0
   5  -1  -3  821.95   12.39   0
   6  -4  -8  644.95   12.02   0
   7  -6  -8  483.19   11.48   0
   3   1   2 1291.72   16.82   0
   5  -4  -9  640.02   12.26   0
   7  -3  -5  353.83    9.41   0
   6  -6  -9  223.10    8.84   0
   7  -4  -7  304.03    9.74   0
   8  -6  -7   83.29    8.04   0
   9  -7  -5  124.06    8.09   0
   9  -2  11   29.03    7.54   0
   4   0  -2 1525.85   16.91   0
   7  -1   2  234.40    8.37   0
   3   0  -3  534.92   11.06   0
   6  -1  -2  674.78   11.62   0
   7  -2  -3  146.00    8.21   0
   8  -1   9  169.83    8.65   0
   9  -5  -4  286.20    9.95   0
   4   1   3  355.78    9.65   0
   5   1   7  355.85   10.39   0
   6   0   3  348.24    9.60   0
  10  -5   0  161.46    8.13   0
   9  -2   8  117.30    7.74   0
   8  -4  -6  197.06    9.11   0
   8  -3  -4  375.84   10.62   0
   9  -6  -6  124.74    8.48   0
   9  -3   0  241.35    9.21   0
   3  -3  -9  465.24   11.08   0
   4  -4 -10 1129.18   16.18   0
   8  -5  -8  339.74   10.50   0
   7   0   7  112.31    8.26   0
   9  -2   5  126.39    8.53   0
   6  -2  -7  248.60    8.79   0
   6  -3  -9  348.69    9.28   0
   8  -2  -2  187.90    9.09   0
   5  -1  -6  820.16   12.41   0
   5   1   4  725.76   12.99   0
  10  -5  -3   53.90    7.94   0
   4  -2  -9 1018.97   14.28   0
   4  -1  -7  658.45   11.38   0
   6   0   0  793.31   13.10   0
   7  -3  -8  357.00   10.21   0
   8  -1   3   81.95    7.89   0
   9  -4  -5  108.63    8.21   0
   5  -5 -11  193.31    8.34   0
   9  -7  -8  106.97    8.19   0
  10  -4  -1   56.55    7.45   0
   6  -1  -5  430.57    9.76   0
   7  -2  -6  441.55   10.30   0
   7   0   4  551.02   11.95   0
   9  -2   2  145.93    8.40   0
   3   1  -1  830.75   13.46   0
   4   1   0 1385.06   16.64   0
   6  -4 -11  301.64    9.36   0
   8  -6 -10  133.91    8.52   0
   9  -3  -3  143.79    7.97   0
   7  -6 -11  111.07    7.91   0
   4   0  -5  376.89    9.56   0
   8  -3  -7  109.32    8.36   0
   5   0  -4  876.66   12.83   0
   8  -4  -9  151.26    7.80   0
   9  -6  -9  144.07    8.85   0
   3  -1  -8 1967.74   19.22   0
   4  -3 -11  324.18    8.95   0
   5   1   1  323.89    9.47   0
   7  -1  -4  568.46   11.26   0
   8  -1   0  332.09   10.40   0
   5  -4 -12  547.39   11.76   0
   8  -2  -5  146.35    7.75   0
   3   0  -6 2554.78   21.73   0
   6   1   5  204.06    8.66   0
   7   0   1  197.19    8.73   0
   8  -5 -11   81.94    8.11   0
   9  -4  -8  252.86    9.95   0
   6  -2 -10  567.02   11.05   0
   9  -3  -6  111.06    8.02   0
   3   2   4 1986.94   22.63   0
   5  -2 -11  250.68    8.87   0
   5  -1  -9  359.49    9.65   0
   9  -5 -10   88.21    7.86   0
   6  -5 -13  191.32    8.67   0
   6  -1  -8  557.69   10.91   0
   7  -3 -11  133.11    7.57   0
   7  -2  -9  326.42    9.43   0
   9  -1   4  104.23    7.38   0
   8  -1  -3  137.26    8.62   0
   4   1  -3  804.11   12.67   0
   6   1   2  229.85    8.92   0
   7   0  -2  140.52    8.28   0
   9  -2  -4  164.81    8.76   0
   4  -1 -10  843.36   12.74   0
   5   1  -2  673.05   11.90   0
   7  -4 -13  122.76    8.29   0
   7  -1  -7  110.69    8.26   0
   3   1  -4 2624.58   22.05   0
   5  -3 -13  531.71   10.95   0
   5   0  -7  598.58   11.15   0
   8  -6 -13  132.06    8.68   0
   9  -6 -12  126.41    8.49   0
   9  -1   1   77.04    7.93   0
   4   0  -8 1383.08   15.75   0
   4  -4 -13  630.02   13.31   0
   9  -3  -9   70.28    7.50   0
   2   0  -7  338.67    9.61   0
   3   2   1  781.44   13.84   0
   4   2   2  823.04   14.59   0
   6   1  -1  297.48    9.28   0
   8  -5 -14  118.88    8.86   0
   8  -1  -6  132.39    8.46   0
   3  -3 -12 1438.50   18.67   0
   7   0  -5  193.03    9.28   0
   9  -2  -7   96.61    8.39   0
   9  -1  -2  128.00    8.76   0
   2   2 -12 1702.74   17.51   0
   2   3  -4 2105.76   20.75   0
   3   2 -14  327.37    9.01   0
   4   3  -8  374.56   10.24   0
   6   0 -21   97.94    8.57   0
   7   0 -20  126.09    8.64   0
   5   3  -7  104.06    7.81   0
   2  -1 -18  772.94   13.20   0
   1   1 -12 1707.11   17.68   0
   3   3  -9  369.39    9.48   0
   6   2 -14  125.51    8.68   0
   2   3  -7  343.41    9.40   0
   4   2 -16  299.43    9.10   0
   5   0 -22  137.89    8.01   0
   6   1 -19   45.82    7.57   0
   5   1 -20  165.75    8.93   0
   6  -2 -25   74.56    8.32   0
   5  -1 -24  156.04    8.77   0
   1   2 -10 1389.40   16.33   0
   2   1 -17  518.23   10.92   0
   3   1 -19  143.58    7.47   0
   5   3 -10  190.47    8.60   0
   4  -2 -24  215.88    9.26   0
   2   0 -19  198.94    7.67   0
   2   2 -15  165.37    7.52   0
   3   2 -17  372.87    9.62   0
   4   1 -21  136.12    8.38   0
   5   2 -18  197.73    9.64   0
   6   3  -9   62.25    7.66   0
   4   3 -14  312.23   10.38   0
   5   3 -13  135.04    8.51   0
   6   0 -24   84.23    7.87   0
   1   1 -15  566.11   11.32   0
   4   2 -19   67.40    7.09   0
   5  -2 -26   89.84    8.30   0
   1   3  -5 1057.37   15.22   0
   1   3  -2 1247.10   17.59   0
   3  -1 -23  103.12    7.09   0
   1  -1 -16 1556.73   18.82   0
   1   2 -13  494.39   10.27   0
   4  -1 -25  135.59    8.45   0
   6   3 -12  149.79    9.08   0
   2  -2 -20  658.29   13.53   0
   2   3 -13  555.43   11.57   0
   5   1 -23   36.87    7.68   0
   1   0 -17  829.68   13.51   0
   2  -1 -21  269.06    9.32   0
   2   1 -20  386.53   10.25   0
   3   1 -22  228.38    8.66   0
   3   4  -4  486.20   11.96   0
   1  -2 -15  516.24   12.88   0
   2   2 -18  325.62    9.24   0
   3   2 -20  374.99   11.03   0
   5   3 -16  160.00    8.75   0
   5  -1 -27   32.76    7.79   0
   5   2 -21  113.46    8.09   0
   3   0 -24  160.79    9.03   0
   4   1 -24  159.07    8.95   0
   1   3 -11  329.97    8.82   0
   4   4  -9  152.65    8.68   0
   0   1 -10 1430.28   17.43   0
   2   0 -22  577.65   12.03   0
   2   4  -5  305.09    9.61   0
   4   2 -22  177.09    9.09   0
   1   1 -18  810.69   13.25   0
   1   2 -16 1119.61   14.42   0
   2   3 -16  620.62   11.62   0
   3   3 -18  231.44    9.43   0
   4   0 -26   99.14    8.09   0
   0   2  -8 2947.23   24.42   0
   2   4  -8  678.85   12.18   0
   2   4  -2  771.09   14.55   0
   4   4 -12  274.32    9.72   0
   1   3 -14  646.52   11.91   0
   3   4 -13  127.00    7.44   0
   4   3 -20  122.71    8.60   0
   0   0 -12 4309.02   31.07   0
   2   2 -21  324.02   10.19   0
   3  -1 -26  205.41    9.26   0
   0   1 -13 1102.73   15.09   0
   0   2 -11 1841.18   18.37   0
   1  -1 -19  223.80    8.46   0
   3   2 -23   37.70    7.12   0
   1   0 -20  651.08   12.31   0
   4  -1 -28  101.61    8.32   0
   4   4 -15   66.30    8.07   0
   2   3 -19   84.05    6.83   0
   1   2 -19  285.23    9.22   0
   2  -1 -24  257.55    9.32   0
   3   3 -21  127.70    8.43   0
   3   4 -16  214.63    9.62   0
   5   4 -14   48.01    6.92   0
   1   4  -9  679.38   12.18   0
   1   4  -6 1073.02   14.68   0
   4   2 -25   83.73    7.71   0
  -3  -3 -15  165.59    8.90   0
  -2  -1 -22  265.04    9.75   0
  -5  -2 -21   69.01    8.72   0
  -4  -3   2  552.19   12.75   0
  -5  -1 -25   54.23    9.06   0
  -4  -3 -16  245.78   10.72   0
  -2  -3 -14  333.25    9.77   0
  -6  -3  -9  156.11    9.48   0
  -6  -3  -6  123.20    8.84   0
  -1  -3  -7  633.92   12.10   0
  -2  -3   1  756.81   13.66   0
  -1  -2 -17  515.09   11.75   0
  -6  -3  -3   46.85    7.90   0
  -3  -3   3  401.19   10.94   0
  -3  -2 -22  174.22    8.77   0
  -1  -3 -10  860.88   13.44   0
  -1  -3  -4 2578.79   22.72   0
  -4  -2 -23   73.86    9.39   0
  -3  -3 -18  246.90   10.89   0
   0  -2  -7  322.75    9.54   0
;
_shelx_hkl_checksum              27658
loop_
_space_group_symop_operation_xyz
'x, y, z'
'-y, x-y, z'
'-x+y, -x, z'
'y, x, -z'
'x-y, -y, -z'
'-x, -x+y, -z'
'x+2/3, y+1/3, z+1/3'
'-y+2/3, x-y+1/3, z+1/3'
'-x+y+2/3, -x+1/3, z+1/3'
'y+2/3, x+1/3, -z+1/3'
'x-y+2/3, -y+1/3, -z+1/3'
'-x+2/3, -x+y+1/3, -z+1/3'
'x+1/3, y+2/3, z+2/3'
'-y+1/3, x-y+2/3, z+2/3'
'-x+y+1/3, -x+2/3, z+2/3'
'y+1/3, x+2/3, -z+2/3'
'x-y+1/3, -y+2/3, -z+2/3'
'-x+1/3, -x+y+2/3, -z+2/3'
'-x, -y, -z'
'y, -x+y, -z'
'x-y, x, -z'
'-y, -x, z'
'-x+y, y, z'
'x, x-y, z'
'-x+2/3, -y+1/3, -z+1/3'
'y+2/3, -x+y+1/3, -z+1/3'
'x-y+2/3, x+1/3, -z+1/3'
'-y+2/3, -x+1/3, z+1/3'
'-x+y+2/3, y+1/3, z+1/3'
'x+2/3, x-y+1/3, z+1/3'
'-x+1/3, -y+2/3, -z+2/3'
'y+1/3, -x+y+2/3, -z+2/3'
'x-y+1/3, x+2/3, -z+2/3'
'-y+1/3, -x+2/3, z+2/3'
'-x+y+1/3, y+2/3, z+2/3'
'x+1/3, x-y+2/3, z+2/3'
loop_
_atom_site_label
_atom_site_type_symbol
_atom_site_fract_x
_atom_site_fract_y
_atom_site_fract_z
_atom_site_U_iso_or_equiv
_atom_site_adp_type
_atom_site_occupancy
_atom_site_site_symmetry_order
_atom_site_calc_flag
_atom_site_refinement_flags_posn
_atom_site_refinement_flags_adp
_atom_site_refinement_flags_occupancy
Ba1 Ba 0.0000 0.0000 0.5000 0.01337(4) Uani 1 12 d S T P
Mg2 Mg 0.0000 0.0000 0.0000 0.01058(14) Uani 1 12 d S T P
O3 O 0.85362(12) 0.7072(2) 0.25778(7) 0.0268(2) Uani 1 2 d S T P
C4 C 0.0000 0.0000 0.26077(10) 0.0109(2) Uani 1 6 d S T P
loop_
_atom_site_aniso_label
_atom_site_aniso_U_11
_atom_site_aniso_U_22
_atom_site_aniso_U_33
_atom_site_aniso_U_23
_atom_site_aniso_U_13
_atom_site_aniso_U_12
Ba1 0.01179(4) 0.01179(4) 0.01654(6) 0.000 0.000 0.00590(2)
Mg2 0.0090(2) 0.0090(2) 0.0137(3) 0.000 0.000 0.00450(10)
O3 0.0356(5) 0.0100(3) 0.0263(4) 0.0042(3) 0.00209(15) 0.00499(16)
C4 0.0107(3) 0.0107(3) 0.0113(5) 0.000 0.000 0.00533(16)
loop_
_atom_type_symbol
_atom_type_description
_atom_type_scat_dispersion_real
_atom_type_scat_dispersion_imag
_atom_type_scat_source
C C 0.0033 0.0016 'International Tables Vol C Tables 4.2.6.8 and 6.1.1.4'
O O 0.0106 0.0060 'International Tables Vol C Tables 4.2.6.8 and 6.1.1.4'
Mg Mg 0.0486 0.0363 'International Tables Vol C Tables 4.2.6.8 and 6.1.1.4'
Ba Ba -0.3244 2.2819 'International Tables Vol C Tables 4.2.6.8 and 6.1.1.4'
loop_
_geom_angle_atom_site_label_1
_geom_angle_atom_site_label_2
_geom_angle_atom_site_label_3
_geom_angle
_geom_angle_site_symmetry_1
_geom_angle_site_symmetry_3
O3 Ba1 O3 180.0 33_435 9_565
O3 Ba1 O3 43.96(4) 33_435 31
O3 Ba1 O3 136.04(4) 9_565 31
O3 Ba1 O3 136.04(4) 33_435 7_445
O3 Ba1 O3 43.96(4) 9_565 7_445
O3 Ba1 O3 180.0 31 7_445
O3 Ba1 O3 57.12(4) 33_435 32_445
O3 Ba1 O3 122.88(4) 9_565 32_445
O3 Ba1 O3 95.46(3) 31 32_445
O3 Ba1 O3 84.54(3) 7_445 32_445
O3 Ba1 O3 122.88(4) 33_435 8
O3 Ba1 O3 57.12(4) 9_565 8
O3 Ba1 O3 84.54(3) 31 8
O3 Ba1 O3 95.46(3) 7_445 8
O3 Ba1 O3 180.00(4) 32_445 8
O3 Ba1 O3 116.94(4) 33_435 33_545
O3 Ba1 O3 63.06(4) 9_565 33_545
O3 Ba1 O3 95.46(3) 31 33_545
O3 Ba1 O3 84.54(3) 7_445 33_545
O3 Ba1 O3 95.46(3) 32_445 33_545
O3 Ba1 O3 84.54(3) 8 33_545
O3 Ba1 O3 63.06(4) 33_435 9_455
O3 Ba1 O3 116.94(4) 9_565 9_455
O3 Ba1 O3 84.54(3) 31 9_455
O3 Ba1 O3 95.46(3) 7_445 9_455
O3 Ba1 O3 84.54(3) 32_445 9_455
O3 Ba1 O3 95.46(3) 8 9_455
O3 Ba1 O3 180.0 33_545 9_455
O3 Ba1 O3 84.54(3) 33_435 7_345
O3 Ba1 O3 95.46(3) 9_565 7_345
O3 Ba1 O3 63.06(4) 31 7_345
O3 Ba1 O3 116.94(4) 7_445 7_345
O3 Ba1 O3 136.04(4) 32_445 7_345
O3 Ba1 O3 43.96(4) 8 7_345
O3 Ba1 O3 122.88(4) 33_545 7_345
O3 Ba1 O3 57.12(4) 9_455 7_345
O3 Ba1 O3 95.46(3) 33_435 32_455
O3 Ba1 O3 84.54(3) 9_565 32_455
O3 Ba1 O3 57.12(4) 31 32_455
O3 Ba1 O3 122.88(4) 7_445 32_455
O3 Ba1 O3 116.94(4) 32_445 32_455
O3 Ba1 O3 63.06(4) 8 32_455
O3 Ba1 O3 43.96(4) 33_545 32_455
O3 Ba1 O3 136.04(4) 9_455 32_455
O3 Ba1 O3 84.54(3) 7_345 32_455
O3 Ba1 O3 95.46(3) 33_435 31_655
O3 Ba1 O3 84.54(3) 9_565 31_655
O3 Ba1 O3 116.94(4) 31 31_655
O3 Ba1 O3 63.06(4) 7_445 31_655
O3 Ba1 O3 43.96(4) 32_445 31_655
O3 Ba1 O3 136.04(4) 8 31_655
O3 Ba1 O3 57.12(4) 33_545 31_655
O3 Ba1 O3 122.88(4) 9_455 31_655
O3 Ba1 O3 180.0 7_345 31_655
O3 Ba1 O3 95.46(3) 32_455 31_655
O3 Ba1 O3 84.54(3) 33_435 8_545
O3 Ba1 O3 95.46(3) 9_565 8_545
O3 Ba1 O3 122.88(4) 31 8_545
O3 Ba1 O3 57.12(4) 7_445 8_545
O3 Ba1 O3 63.06(4) 32_445 8_545
O3 Ba1 O3 116.94(4) 8 8_545
O3 Ba1 O3 136.04(4) 33_545 8_545
O3 Ba1 O3 43.96(4) 9_455 8_545
O3 Ba1 O3 95.46(3) 7_345 8_545
O3 Ba1 O3 180.0 32_455 8_545
O3 Ba1 O3 84.54(3) 31_655 8_545
O3 Mg2 O3 180.00(5) 26_455 14_544
O3 Mg2 O3 86.12(5) 26_455 25
O3 Mg2 O3 93.88(5) 14_544 25
O3 Mg2 O3 93.88(5) 26_455 13_444
O3 Mg2 O3 86.12(5) 14_544 13_444
O3 Mg2 O3 180.00(7) 25 13_444
O3 Mg2 O3 86.12(5) 26_455 27_445
O3 Mg2 O3 93.88(5) 14_544 27_445
O3 Mg2 O3 86.12(5) 25 27_445
O3 Mg2 O3 93.88(5) 13_444 27_445
O3 Mg2 O3 93.88(5) 26_455 15_554
O3 Mg2 O3 86.12(5) 14_544 15_554
O3 Mg2 O3 93.88(5) 25 15_554
O3 Mg2 O3 86.12(5) 13_444 15_554
O3 Mg2 O3 180.00(5) 27_445 15_554
O3 Mg2 Ba1 44.692(15) 26_455 13_554
O3 Mg2 Ba1 135.308(15) 14_544 13_554
O3 Mg2 Ba1 98.04(3) 25 13_554
O3 Mg2 Ba1 81.96(3) 13_444 13_554
O3 Mg2 Ba1 44.694(15) 27_445 13_554
O3 Mg2 Ba1 135.306(15) 15_554 13_554
O3 Mg2 Ba1 135.308(15) 26_455 7_444
O3 Mg2 Ba1 44.692(15) 14_544 7_444
O3 Mg2 Ba1 81.96(3) 25 7_444
O3 Mg2 Ba1 98.04(3) 13_444 7_444
O3 Mg2 Ba1 135.306(15) 27_445 7_444
O3 Mg2 Ba1 44.694(15) 15_554 7_444
Ba1 Mg2 Ba1 180.0 13_554 7_444
O3 Mg2 Ba1 98.04(3) 26_455 13_444
O3 Mg2 Ba1 81.96(3) 14_544 13_444
O3 Mg2 Ba1 44.692(15) 25 13_444
O3 Mg2 Ba1 135.308(15) 13_444 13_444
O3 Mg2 Ba1 44.694(15) 27_445 13_444
O3 Mg2 Ba1 135.306(15) 15_554 13_444
Ba1 Mg2 Ba1 77.079(2) 13_554 13_444
Ba1 Mg2 Ba1 102.921(2) 7_444 13_444
O3 Mg2 Ba1 81.96(3) 26_455 7_554
O3 Mg2 Ba1 98.04(3) 14_544 7_554
O3 Mg2 Ba1 135.308(15) 25 7_554
O3 Mg2 Ba1 44.692(15) 13_444 7_554
O3 Mg2 Ba1 135.306(15) 27_445 7_554
O3 Mg2 Ba1 44.694(15) 15_554 7_554
Ba1 Mg2 Ba1 102.921(2) 13_554 7_554
Ba1 Mg2 Ba1 77.079(2) 7_444 7_554
Ba1 Mg2 Ba1 180.0 13_444 7_554
O3 Mg2 Ba1 44.695(15) 26_455 13_544
O3 Mg2 Ba1 135.305(15) 14_544 13_544
O3 Mg2 Ba1 44.695(15) 25 13_544
O3 Mg2 Ba1 135.305(15) 13_444 13_544
O3 Mg2 Ba1 98.04(3) 27_445 13_544
O3 Mg2 Ba1 81.96(3) 15_554 13_544
Ba1 Mg2 Ba1 77.079(2) 13_554 13_544
Ba1 Mg2 Ba1 102.921(2) 7_444 13_544
Ba1 Mg2 Ba1 77.079(2) 13_444 13_544
Ba1 Mg2 Ba1 102.921(2) 7_554 13_544
O3 Mg2 Ba1 135.305(15) 26_455 7_454
O3 Mg2 Ba1 44.695(15) 14_544 7_454
O3 Mg2 Ba1 135.305(15) 25 7_454
O3 Mg2 Ba1 44.695(15) 13_444 7_454
O3 Mg2 Ba1 81.96(3) 27_445 7_454
O3 Mg2 Ba1 98.04(3) 15_554 7_454
Ba1 Mg2 Ba1 102.921(2) 13_554 7_454
Ba1 Mg2 Ba1 77.079(2) 7_444 7_454
Ba1 Mg2 Ba1 102.921(2) 13_444 7_454
Ba1 Mg2 Ba1 77.079(2) 7_554 7_454
Ba1 Mg2 Ba1 180.0 13_544 7_454
C4 O3 Mg2 139.78(11) 1_665 7
C4 O3 Ba1 94.61(5) 1_665 13_554
Mg2 O3 Ba1 105.80(3) 7 13_554
C4 O3 Ba1 94.61(5) 1_665 13_654
Mg2 O3 Ba1 105.80(3) 7 13_654
Ba1 O3 Ba1 116.94(4) 13_554 13_654
O3 C4 O3 119.847(13) 3_565 1_445
O3 C4 O3 119.847(13) 3_565 2_655
O3 C4 O3 119.844(13) 1_445 2_655
O3 C4 Ba1 62.77(4) 3_565 13_444
O3 C4 Ba1 62.77(4) 1_445 13_444
O3 C4 Ba1 149.14(11) 2_655 13_444
O3 C4 Ba1 62.77(4) 3_565 13_554
O3 C4 Ba1 149.14(11) 1_445 13_554
O3 C4 Ba1 62.77(4) 2_655 13_554
Ba1 C4 Ba1 99.00(3) 13_444 13_554
O3 C4 Ba1 149.14(11) 3_565 13_544
O3 C4 Ba1 62.77(4) 1_445 13_544
O3 C4 Ba1 62.77(4) 2_655 13_544
Ba1 C4 Ba1 99.00(3) 13_444 13_544
Ba1 C4 Ba1 99.00(3) 13_554 13_544
loop_
_geom_bond_atom_site_label_1
_geom_bond_atom_site_label_2
_geom_bond_distance
_geom_bond_site_symmetry_2
Ba1 O3 2.9455(6) 33_435
Ba1 O3 2.9455(6) 9_565
Ba1 O3 2.9455(6) 31
Ba1 O3 2.9455(6) 7_445
Ba1 O3 2.9455(6) 32_445
Ba1 O3 2.9455(6) 8
Ba1 O3 2.9455(6) 33_545
Ba1 O3 2.9455(6) 9_455
Ba1 O3 2.9455(6) 7_345
Ba1 O3 2.9455(6) 32_455
Ba1 O3 2.9455(6) 31_655
Ba1 O3 2.9455(6) 8_545
Mg2 O3 2.0624(10) 26_455
Mg2 O3 2.0624(10) 14_544
Mg2 O3 2.0624(10) 25
Mg2 O3 2.0624(10) 13_444
Mg2 O3 2.0625(10) 27_445
Mg2 O3 2.0625(10) 15_554
Mg2 Ba1 4.02965(10) 13_554
Mg2 Ba1 4.02965(10) 7_444
Mg2 Ba1 4.02965(11) 13_444
Mg2 Ba1 4.02965(11) 7_554
Mg2 Ba1 4.02967(11) 13_544
Mg2 Ba1 4.02967(11) 7_454
O3 C4 1.2741(11) 1_665
O3 Mg2 2.0624(10) 7
O3 Ba1 2.9455(6) 13_554
O3 Ba1 2.9456(6) 13_654
C4 O3 1.2741(11) 3_565
C4 O3 1.2741(11) 1_445
C4 O3 1.2741(11) 2_655
C4 Ba1 3.3019(8) 13_444
C4 Ba1 3.3019(8) 13_554
C4 Ba1 3.3019(8) 13_544
