#------------------------------------------------------------------------------
#$Date: 2019-12-26 20:40:52 +0200 (Thu, 26 Dec 2019) $
#$Revision: 246067 $
#$URL: file:///home/coder/svn-repositories/cod/cif/2/31/16/2311640.cif $
#------------------------------------------------------------------------------
#
# This file is available in the Crystallography Open Database (COD),
# http://www.crystallography.net/. The original data for this entry
# were provided by IUCr Journals, http://journals.iucr.org/.
#
# The file may be used within the scientific community so long as
# proper attribution is given to the journal article from which the
# data were obtained.
#
data_2311640
loop_
_publ_author_name
'Tawfiq, Kinaan M.'
'Miller, Gary J.'
'Al-Jeboori, Mohamad J'
'Fennell, Paul S.'
'Coles, Simon J.'
'Tizzard, Graham J.'
'Wilson, Claire'
'Potgieter, Herman'
_publ_section_title
;
 Comparison of the structural motifs and packing arrangements of six novel
 derivatives and one polymorph of
 2-(1-phenyl-1H-1,2,3-triazol-4-yl)pyridine.
;
_journal_issue                   'Pt 2'
_journal_name_full
'Acta crystallographica Section B, Structural science, crystal engineering and materials'
_journal_page_first              379
_journal_page_last               389
_journal_paper_doi               10.1107/S2052520614001152
_journal_volume                  70
_journal_year                    2014
_chemical_formula_moiety         'C14 H12 N4 O'
_chemical_formula_sum            'C14 H12 N4 O'
_chemical_formula_weight         252.28
_chemical_name_common
;
'2-(1-(4-Methoxy-phenyl)-1H-1,2,3-triazol-4-yl)pyridine'
;
_space_group_crystal_system      triclinic
_space_group_IT_number           1
_space_group_name_Hall           'P 1'
_space_group_name_H-M_alt        'P 1'
_atom_sites_solution_hydrogens   geom
_atom_sites_solution_primary     direct
_atom_sites_solution_secondary   difmap
_audit_creation_method
;
  Olex2 1.1
  (compiled 2011.09.07 svn.r1971, GUI svn.r3853)
;
_cell_angle_alpha                109.226(11)
_cell_angle_beta                 97.056(6)
_cell_angle_gamma                91.514(9)
_cell_formula_units_Z            2
_cell_length_a                   3.7837(4)
_cell_length_b                   10.8502(16)
_cell_length_c                   15.2200(17)
_cell_measurement_reflns_used    5805
_cell_measurement_temperature    100
_cell_measurement_theta_max      27.5
_cell_measurement_theta_min      3.4
_cell_volume                     584.03(13)
_computing_cell_refinement
;
CrystalClear-SM Expert 2.0 r7 (Rigaku, 2011)
;
_computing_data_collection
;
CrystalClear-SM Expert 2.0 r7 (Rigaku, 2011)
;
_computing_data_reduction
;
CrystalClear-SM Expert 2.0 r7 (Rigaku, 2011)
;
_computing_molecular_graphics
;
O. V. Dolomanov, L. J. Bourhis, R. J. Gildea, J. A. K. Howard and H. Puschmann,
OLEX2: a complete structure solution, refinement and analysis program.
J. Appl. Cryst. (2009). 42, 339-341.
;
_computing_publication_material
;
O. V. Dolomanov, L. J. Bourhis, R. J. Gildea, J. A. K. Howard and H. Puschmann,
OLEX2: a complete structure solution, refinement and analysis program.
J. Appl. Cryst. (2009). 42, 339-341.
;
_computing_structure_refinement
;
SHELXL, G.M. Sheldrick, Acta Cryst.
2008). A64, 112-122
;
_computing_structure_solution
;
SHELXD, G.M. Sheldrick, Acta Cryst.
(2008). A64, 112-122
;
_diffrn_ambient_temperature      100(2)
_diffrn_detector_area_resol_mean 28.5714
_diffrn_measured_fraction_theta_full 0.983
_diffrn_measured_fraction_theta_max 0.983
_diffrn_measurement_device       'four-circle \k goniometer'
_diffrn_measurement_device_type  'Rigaku AFC12 (Right)'
_diffrn_measurement_method       'profile data from \w-scans'
_diffrn_radiation_type           MoK\a
_diffrn_radiation_wavelength     0.71075
_diffrn_reflns_av_R_equivalents  0.0617
_diffrn_reflns_limit_h_max       4
_diffrn_reflns_limit_h_min       -4
_diffrn_reflns_limit_k_max       14
_diffrn_reflns_limit_k_min       -11
_diffrn_reflns_limit_l_max       19
_diffrn_reflns_limit_l_min       -19
_diffrn_reflns_number            6395
_diffrn_reflns_theta_full        27.48
_diffrn_reflns_theta_max         27.48
_diffrn_reflns_theta_min         3.76
_exptl_absorpt_coefficient_mu    0.096
_exptl_absorpt_correction_T_max  1.000
_exptl_absorpt_correction_T_min  0.624
_exptl_absorpt_correction_type   multi-scan
_exptl_absorpt_process_details
;
CrystalClear-SM Expert 2.0 r7 (Rigaku, 2011)
;
_exptl_crystal_colour            Colourless
_exptl_crystal_density_diffrn    1.435
_exptl_crystal_density_method    'not measured'
_exptl_crystal_description       lath
_exptl_crystal_F_000             264
_exptl_crystal_size_max          0.16
_exptl_crystal_size_mid          0.04
_exptl_crystal_size_min          0.01
_refine_diff_density_max         0.246
_refine_diff_density_min         -0.291
_refine_ls_extinction_method     none
_refine_ls_goodness_of_fit_ref   1.079
_refine_ls_hydrogen_treatment    constr
_refine_ls_matrix_type           full
_refine_ls_number_parameters     345
_refine_ls_number_reflns         2617
_refine_ls_number_restraints     3
_refine_ls_restrained_S_all      1.078
_refine_ls_R_factor_all          0.0734
_refine_ls_R_factor_gt           0.0534
_refine_ls_shift/su_max          0.000
_refine_ls_shift/su_mean         0.000
_refine_ls_structure_factor_coef Fsqd
_refine_ls_weighting_details
'calc w=1/[\s^2^(Fo^2^)+(0.0483P)^2^+0.0584P] where P=(Fo^2^+2Fc^2^)/3'
_refine_ls_weighting_scheme      calc
_refine_ls_wR_factor_gt          0.1074
_refine_ls_wR_factor_ref         0.1161
_reflns_number_gt                2049
_reflns_number_total             2617
_reflns_threshold_expression     >2\(I)
_cod_data_source_file            eb5029sup1.cif
_cod_data_source_block           L8
_cod_original_cell_volume        584.03(12)
_cod_database_code               2311640
_shelx_res_file
;
TITL 2011ncs0216 in P1 #1
CELL 0.71075 3.7837 10.8502 15.22 109.226 97.056 91.514
ZERR 2 0.0004 0.0016 0.0017 0.011 0.006 0.009
LATT -1
SFAC C H N O
UNIT 28 24 8 2
L.S. 4 0 0 511
PLAN  5
TEMP -173.15
REM TRY 70 FINAL CC 80.03 TIME 4 SECS
REM Fragments: 17 12 1 1
REM reset to P1 #1
BOND $h
conf
fmap 2
acta 55
MERG 4
OMIT 0 -5 -8
REM <HKL>C:/NCS/mmu/2011ncs0216/2011ncs0216.hkl</HKL>
WGHT    0.048300    0.058400
FVAR       0.39252
O18   4    0.771206    0.365009    0.324893    11.00000    0.03084    0.02117 =
         0.02206    0.00779    0.00597    0.00180
N1    3    0.914669    1.017813    0.902974    11.00000    0.03060    0.01884 =
         0.02401    0.00827    0.00588    0.00665
N8    3    1.145147    0.680110    0.852201    11.00000    0.02608    0.01860 =
         0.02041    0.00631   -0.00130    0.00119
N9    3    1.113914    0.590338    0.769554    11.00000    0.03025    0.01699 =
         0.01959    0.00644   -0.00083    0.00287
N10   3    0.983135    0.646841    0.706250    11.00000    0.01944    0.01787 =
         0.02067    0.01156    0.00094    0.00327
C2    1    0.901765    1.127557    0.975255    11.00000    0.02989    0.02361 =
         0.02822    0.01429    0.00558    0.00843
AFIX  43
H2    2    0.824937    1.202947    0.961900    11.00000   -1.20000
AFIX   0
C3    1    0.992957    1.137981    1.067799    11.00000    0.02758    0.01975 =
         0.01950    0.00161    0.00480    0.00053
AFIX  43
H3    2    0.980048    1.218558    1.116640    11.00000   -1.20000
AFIX   0
C4    1    1.103269    1.029564    1.088383    11.00000    0.02675    0.02953 =
         0.01743    0.00930    0.00158   -0.00340
AFIX  43
H4    2    1.165880    1.033226    1.151626    11.00000   -1.20000
AFIX   0
C5    1    1.120595    0.915006    1.014489    11.00000    0.02222    0.02124 =
         0.02508    0.01170    0.00182    0.00063
AFIX  43
H5    2    1.198258    0.838587    1.026162    11.00000   -1.20000
AFIX   0
C6    1    1.023248    0.913230    0.923317    11.00000    0.01682    0.01827 =
         0.01961    0.00625    0.00376    0.00132
C7    1    1.030744    0.794007    0.842894    11.00000    0.01399    0.02115 =
         0.02705    0.01455    0.00194    0.00271
C11   1    0.927741    0.773493    0.749945    11.00000    0.01953    0.01545 =
         0.02229    0.01053    0.00311    0.00347
AFIX  43
H11   2    0.836990    0.834767    0.722039    11.00000   -1.20000
AFIX   0
C12   1    0.917187    0.573824    0.608569    11.00000    0.01999    0.01573 =
         0.01914    0.00751    0.00058    0.00546
C13   1    0.760822    0.448163    0.579171    11.00000    0.02002    0.01869 =
         0.02439    0.01070    0.00494    0.00573
AFIX  43
H13   2    0.690675    0.412069    0.623929    11.00000   -1.20000
AFIX   0
C14   1    0.705408    0.373916    0.483838    11.00000    0.01813    0.01723 =
         0.02414    0.01034    0.00499    0.00395
AFIX  43
H14   2    0.600228    0.286915    0.463338    11.00000   -1.20000
AFIX   0
C15   1    0.805146    0.428301    0.419627    11.00000    0.01843    0.02124 =
         0.01818    0.00620    0.00351    0.00455
C16   1    0.955840    0.556454    0.449848    11.00000    0.01934    0.02105 =
         0.02109    0.01025    0.00387    0.00447
AFIX  43
H16   2    1.017888    0.593795    0.404968    11.00000   -1.20000
AFIX   0
C17   1    1.015652    0.629350    0.543708    11.00000    0.02094    0.01384 =
         0.02544    0.00632    0.00631    0.00285
AFIX  43
H17   2    1.122290    0.716140    0.564151    11.00000   -1.20000
AFIX   0
C19   1    0.622133    0.233591    0.293000    11.00000    0.02765    0.02587 =
         0.02888    0.00645    0.00910    0.00031
AFIX 137
H19D  2    0.609771    0.196887    0.224534    11.00000   -1.50000
H19E  2    0.381381    0.231732    0.310249    11.00000   -1.50000
H19F  2    0.772491    0.181570    0.322233    11.00000   -1.50000
AFIX   0
O18A  4    0.659083    0.435506    0.007490    11.00000    0.02906    0.01524 =
         0.01752    0.00102    0.00856    0.00437
N1A   3    0.398683    0.968702    0.620720    11.00000    0.01765    0.01868 =
         0.02244    0.00974    0.00078    0.00045
N8A   3    0.271184    1.034978    0.398868    11.00000    0.02950    0.01506 =
         0.01902    0.00585    0.00565    0.00447
N9A   3    0.320787    0.957472    0.315809    11.00000    0.02607    0.01393 =
         0.02043    0.00384    0.00126    0.00358
N10A  3    0.441913    0.845711    0.326756    11.00000    0.02092    0.01330 =
         0.02102    0.00609    0.00349    0.00159
C2A   1    0.370415    1.028263    0.711658    11.00000    0.02262    0.02425 =
         0.02076    0.01076    0.00317    0.00095
AFIX  43
H2A   2    0.420016    0.980335    0.753391    11.00000   -1.20000
AFIX   0
C3A   1    0.273976    1.154586    0.748409    11.00000    0.01828    0.02375 =
         0.02331    0.00906    0.00453    0.00380
AFIX  43
H3A   2    0.258795    1.192348    0.813575    11.00000   -1.20000
AFIX   0
C4A   1    0.199768    1.225208    0.688386    11.00000    0.02091    0.01612 =
         0.03106    0.01116    0.00753    0.00595
AFIX  43
H4A   2    0.134666    1.312866    0.711569    11.00000   -1.20000
AFIX   0
C5A   1    0.222009    1.166102    0.594435    11.00000    0.02094    0.02081 =
         0.02249    0.01187    0.00646    0.00516
AFIX  43
H5A   2    0.168993    1.212057    0.551544    11.00000   -1.20000
AFIX   0
C6A   1    0.322981    1.038310    0.562943    11.00000    0.01066    0.01590 =
         0.01943    0.00802    0.00170    0.00104
C7A   1    0.353644    0.974178    0.463582    11.00000    0.01365    0.02014 =
         0.02202    0.00971    0.00138    0.00088
C11A  1    0.464598    0.853440    0.417239    11.00000    0.01536    0.02010 =
         0.01908    0.00959    0.00399    0.00198
AFIX  43
H11A  2    0.541307    0.788900    0.443587    11.00000   -1.20000
AFIX   0
C12A  1    0.512256    0.741323    0.245844    11.00000    0.01235    0.01825 =
         0.01942    0.00613    0.00128    0.00268
C13A  1    0.464328    0.612819    0.241681    11.00000    0.02321    0.01767 =
         0.01739    0.00895    0.00434    0.00165
AFIX  43
H13A  2    0.392619    0.593183    0.293548    11.00000   -1.20000
AFIX   0
C14A  1    0.521347    0.512499    0.161426    11.00000    0.02051    0.01411 =
         0.02796    0.00798    0.00413   -0.00095
AFIX  43
H14A  2    0.494639    0.424127    0.159097    11.00000   -1.20000
AFIX   0
C15A  1    0.617220    0.540505    0.084488    11.00000    0.01604    0.01704 =
         0.01550    0.00226    0.00224    0.00146
C16A  1    0.666792    0.670184    0.089491    11.00000    0.02316    0.01568 =
         0.01880    0.00622    0.00219    0.00111
AFIX  43
H16A  2    0.735849    0.690131    0.037477    11.00000   -1.20000
AFIX   0
C17A  1    0.615752    0.770053    0.170002    11.00000    0.02209    0.01273 =
         0.01671    0.00470   -0.00080    0.00260
AFIX  43
H17A  2    0.651595    0.858606    0.173448    11.00000   -1.20000
AFIX   0
C19A  1    0.769200    0.462577   -0.070725    11.00000    0.02574    0.02577 =
         0.02471    0.01082    0.01032    0.00650
AFIX 137
H19A  2    0.803942    0.380245   -0.119541    11.00000   -1.50000
H19B  2    0.994059    0.517367   -0.050655    11.00000   -1.50000
H19C  2    0.585476    0.508774   -0.095874    11.00000   -1.50000
HKLF 4
REM  2011ncs0216 in P1 #1
REM R1 =  0.0534 for   2049 Fo > 4sig(Fo)  and  0.0734 for all   2617 data
REM    345 parameters refined using      3 restraints
END
WGHT      0.0496      0.0898
REM Highest difference peak  0.246,  deepest hole -0.291,  1-sigma level  0.061
Q1    1   0.8845  0.6837 -0.0207  11.00000  0.05    0.25
Q2    1   0.1728  0.6722  0.1974  11.00000  0.05    0.23
Q3    1  -0.1292  1.0885  0.5799  11.00000  0.05    0.22
Q4    1   0.7705  1.0281  0.6233  11.00000  0.05    0.20
Q5    1   0.1574  0.4858  0.1404  11.00000  0.05    0.20
;
loop_
_space_group_symop_id
_space_group_symop_operation_xyz
1 'x, y, z'
loop_
_atom_site_type_symbol
_atom_site_label
_atom_site_fract_x
_atom_site_fract_y
_atom_site_fract_z
_atom_site_U_iso_or_equiv
_atom_site_adp_type
_atom_site_calc_flag
_atom_site_refinement_flags
_atom_site_occupancy
_atom_site_symmetry_multiplicity
O O18 0.7712(8) 0.3650(2) 0.32489(18) 0.0244(7) Uani d . 1 1
N N1 0.9147(10) 1.0178(3) 0.9030(2) 0.0239(8) Uani d . 1 1
N N8 1.1451(9) 0.6801(3) 0.8522(2) 0.0222(8) Uani d . 1 1
N N9 1.1139(9) 0.5903(3) 0.7696(2) 0.0226(8) Uani d . 1 1
N N10 0.9831(9) 0.6468(3) 0.7063(2) 0.0182(7) Uani d . 1 1
C C2 0.9018(12) 1.1276(4) 0.9753(3) 0.0256(10) Uani d . 1 1
H H2 0.8249 1.2029 0.9619 0.031 Uiso calc R 1 1
C C3 0.9930(11) 1.1380(4) 1.0678(3) 0.0234(9) Uani d . 1 1
H H3 0.9800 1.2186 1.1166 0.028 Uiso calc R 1 1
C C4 1.1033(11) 1.0296(4) 1.0884(3) 0.0244(9) Uani d . 1 1
H H4 1.1659 1.0332 1.1516 0.029 Uiso calc R 1 1
C C5 1.1206(11) 0.9150(4) 1.0145(3) 0.0220(9) Uani d . 1 1
H H5 1.1983 0.8386 1.0262 0.026 Uiso calc R 1 1
C C6 1.0232(11) 0.9132(4) 0.9233(3) 0.0181(8) Uani d . 1 1
C C7 1.0307(11) 0.7940(4) 0.8429(3) 0.0192(9) Uani d . 1 1
C C11 0.9277(10) 0.7735(4) 0.7499(3) 0.0180(8) Uani d . 1 1
H H11 0.8370 0.8348 0.7220 0.022 Uiso calc R 1 1
C C12 0.9172(11) 0.5738(4) 0.6086(3) 0.0180(9) Uani d . 1 1
C C13 0.7608(11) 0.4482(4) 0.5792(3) 0.0199(9) Uani d . 1 1
H H13 0.6907 0.4121 0.6239 0.024 Uiso calc R 1 1
C C14 0.7054(10) 0.3739(4) 0.4838(3) 0.0188(9) Uani d . 1 1
H H14 0.6002 0.2869 0.4633 0.023 Uiso calc R 1 1
C C15 0.8051(11) 0.4283(4) 0.4196(3) 0.0192(9) Uani d . 1 1
C C16 0.9558(11) 0.5565(4) 0.4498(3) 0.0195(9) Uani d . 1 1
H H16 1.0179 0.5938 0.4050 0.023 Uiso calc R 1 1
C C17 1.0157(11) 0.6294(4) 0.5437(3) 0.0198(9) Uani d . 1 1
H H17 1.1223 0.7161 0.5642 0.024 Uiso calc R 1 1
C C19 0.6221(12) 0.2336(4) 0.2930(3) 0.0277(10) Uani d . 1 1
H H19D 0.6098 0.1969 0.2245 0.042 Uiso calc R 1 1
H H19E 0.3814 0.2317 0.3102 0.042 Uiso calc R 1 1
H H19F 0.7725 0.1816 0.3222 0.042 Uiso calc R 1 1
O O18A 0.6591(7) 0.4355(2) 0.00749(18) 0.0212(6) Uani d . 1 1
N N1A 0.3987(9) 0.9687(3) 0.6207(2) 0.0191(7) Uani d . 1 1
N N8A 0.2712(9) 1.0350(3) 0.3989(2) 0.0209(8) Uani d . 1 1
N N9A 0.3208(9) 0.9575(3) 0.3158(2) 0.0208(8) Uani d . 1 1
N N10A 0.4419(9) 0.8457(3) 0.3268(2) 0.0183(7) Uani d . 1 1
C C2A 0.3704(11) 1.0283(4) 0.7117(3) 0.0217(9) Uani d . 1 1
H H2A 0.4200 0.9803 0.7534 0.026 Uiso calc R 1 1
C C3A 0.2740(10) 1.1546(4) 0.7484(3) 0.0213(9) Uani d . 1 1
H H3A 0.2588 1.1923 0.8136 0.026 Uiso calc R 1 1
C C4A 0.1998(11) 1.2252(4) 0.6884(3) 0.0215(9) Uani d . 1 1
H H4A 0.1347 1.3129 0.7116 0.026 Uiso calc R 1 1
C C5A 0.2220(11) 1.1661(4) 0.5944(3) 0.0199(9) Uani d . 1 1
H H5A 0.1690 1.2121 0.5515 0.024 Uiso calc R 1 1
C C6A 0.3230(10) 1.0383(4) 0.5629(3) 0.0148(8) Uani d . 1 1
C C7A 0.3536(11) 0.9742(4) 0.4636(3) 0.0180(8) Uani d . 1 1
C C11A 0.4646(10) 0.8534(4) 0.4172(3) 0.0173(8) Uani d . 1 1
H H11A 0.5413 0.7889 0.4436 0.021 Uiso calc R 1 1
C C12A 0.5123(10) 0.7413(4) 0.2458(3) 0.0168(8) Uani d . 1 1
C C13A 0.4643(10) 0.6128(3) 0.2417(3) 0.0185(8) Uani d . 1 1
H H13A 0.3926 0.5932 0.2935 0.022 Uiso calc R 1 1
C C14A 0.5213(11) 0.5125(4) 0.1614(3) 0.0206(9) Uani d . 1 1
H H14A 0.4946 0.4241 0.1591 0.025 Uiso calc R 1 1
C C15A 0.6172(10) 0.5405(4) 0.0845(3) 0.0170(8) Uani d . 1 1
C C16A 0.6668(11) 0.6702(4) 0.0895(3) 0.0192(8) Uani d . 1 1
H H16A 0.7358 0.6901 0.0375 0.023 Uiso calc R 1 1
C C17A 0.6158(10) 0.7701(4) 0.1700(3) 0.0175(8) Uani d . 1 1
H H17A 0.6516 0.8586 0.1734 0.021 Uiso calc R 1 1
C C19A 0.7692(11) 0.4626(4) -0.0707(3) 0.0241(9) Uani d . 1 1
H H19A 0.8039 0.3802 -0.1195 0.036 Uiso calc R 1 1
H H19B 0.9941 0.5174 -0.0507 0.036 Uiso calc R 1 1
H H19C 0.5855 0.5088 -0.0959 0.036 Uiso calc R 1 1
loop_
_atom_site_aniso_label
_atom_site_aniso_U_11
_atom_site_aniso_U_22
_atom_site_aniso_U_33
_atom_site_aniso_U_12
_atom_site_aniso_U_13
_atom_site_aniso_U_23
O18 0.0308(18) 0.0212(15) 0.0221(15) 0.0018(12) 0.0060(13) 0.0078(13)
N1 0.031(2) 0.0188(18) 0.0240(19) 0.0067(15) 0.0059(16) 0.0083(15)
N8 0.026(2) 0.0186(18) 0.0204(19) 0.0012(14) -0.0013(15) 0.0063(15)
N9 0.030(2) 0.0170(17) 0.0196(18) 0.0029(14) -0.0008(15) 0.0064(15)
N10 0.0194(18) 0.0179(17) 0.0207(17) 0.0033(14) 0.0009(14) 0.0116(14)
C2 0.030(3) 0.024(2) 0.028(2) 0.0084(18) 0.0056(19) 0.014(2)
C3 0.028(2) 0.020(2) 0.020(2) 0.0005(18) 0.0048(18) 0.0016(17)
C4 0.027(2) 0.030(2) 0.017(2) -0.0034(18) 0.0016(18) 0.0093(18)
C5 0.022(2) 0.021(2) 0.025(2) 0.0006(16) 0.0018(18) 0.0117(17)
C6 0.017(2) 0.018(2) 0.0196(19) 0.0013(16) 0.0038(16) 0.0063(16)
C7 0.014(2) 0.021(2) 0.027(2) 0.0027(16) 0.0019(17) 0.0145(18)
C11 0.020(2) 0.015(2) 0.022(2) 0.0035(16) 0.0031(17) 0.0105(17)
C12 0.020(2) 0.016(2) 0.019(2) 0.0055(16) 0.0006(17) 0.0075(17)
C13 0.020(2) 0.019(2) 0.024(2) 0.0057(16) 0.0049(17) 0.0107(17)
C14 0.018(2) 0.017(2) 0.024(2) 0.0040(16) 0.0050(17) 0.0103(17)
C15 0.018(2) 0.021(2) 0.018(2) 0.0045(16) 0.0035(16) 0.0062(17)
C16 0.019(2) 0.021(2) 0.021(2) 0.0045(17) 0.0039(17) 0.0103(17)
C17 0.021(2) 0.014(2) 0.025(2) 0.0029(16) 0.0063(18) 0.0063(17)
C19 0.028(2) 0.026(2) 0.029(2) 0.0003(18) 0.0091(19) 0.0064(18)
O18A 0.0291(17) 0.0152(14) 0.0175(14) 0.0044(12) 0.0086(12) 0.0010(11)
N1A 0.0177(18) 0.0187(18) 0.0224(18) 0.0004(14) 0.0008(14) 0.0097(14)
N8A 0.030(2) 0.0151(17) 0.0190(18) 0.0045(15) 0.0057(15) 0.0058(14)
N9A 0.026(2) 0.0139(17) 0.0204(19) 0.0036(14) 0.0013(15) 0.0038(14)
N10A 0.0209(19) 0.0133(16) 0.0210(18) 0.0016(13) 0.0035(15) 0.0061(14)
C2A 0.023(2) 0.024(2) 0.021(2) 0.0009(17) 0.0032(18) 0.0108(18)
C3A 0.018(2) 0.024(2) 0.023(2) 0.0038(17) 0.0045(18) 0.0091(18)
C4A 0.021(2) 0.016(2) 0.031(2) 0.0059(16) 0.0075(18) 0.0112(18)
C5A 0.021(2) 0.021(2) 0.022(2) 0.0052(17) 0.0065(18) 0.0119(18)
C6A 0.0107(19) 0.016(2) 0.019(2) 0.0010(15) 0.0017(16) 0.0080(16)
C7A 0.0136(19) 0.020(2) 0.022(2) 0.0009(15) 0.0014(16) 0.0097(17)
C11A 0.015(2) 0.020(2) 0.019(2) 0.0020(16) 0.0040(16) 0.0096(17)
C12A 0.012(2) 0.018(2) 0.019(2) 0.0027(15) 0.0013(16) 0.0061(16)
C13A 0.023(2) 0.018(2) 0.017(2) 0.0016(16) 0.0043(17) 0.0089(16)
C14A 0.021(2) 0.014(2) 0.028(2) -0.0010(16) 0.0041(17) 0.0080(17)
C15A 0.016(2) 0.017(2) 0.0155(19) 0.0015(15) 0.0022(15) 0.0023(16)
C16A 0.023(2) 0.016(2) 0.019(2) 0.0011(16) 0.0022(17) 0.0062(16)
C17A 0.022(2) 0.0127(19) 0.0167(19) 0.0026(15) -0.0008(17) 0.0047(15)
C19A 0.026(2) 0.026(2) 0.025(2) 0.0065(18) 0.0103(18) 0.0108(18)
loop_
_atom_type_symbol
_atom_type_description
_atom_type_scat_dispersion_real
_atom_type_scat_dispersion_imag
_atom_type_scat_source
C C 0.0033 0.0000 'International Tables Vol C Tables 4.2.6.8 and 6.1.1.4'
H H 0.0000 0.0000 'International Tables Vol C Tables 4.2.6.8 and 6.1.1.4'
N N 0.0061 0.0000 'International Tables Vol C Tables 4.2.6.8 and 6.1.1.4'
O O 0.0106 0.0000 'International Tables Vol C Tables 4.2.6.8 and 6.1.1.4'
loop_
_geom_angle_atom_site_label_1
_geom_angle_atom_site_label_2
_geom_angle_atom_site_label_3
_geom_angle
C15 O18 C19 115.7(3)
C6 N1 C2 117.0(3)
N9 N8 C7 109.2(3)
N8 N9 N10 107.0(3)
N9 N10 C12 121.0(3)
C11 N10 N9 110.6(3)
C11 N10 C12 128.4(3)
N1 C2 H2 118.0
N1 C2 C3 123.9(4)
C3 C2 H2 118.0
C2 C3 H3 120.6
C2 C3 C4 118.8(4)
C4 C3 H3 120.6
C3 C4 H4 120.9
C3 C4 C5 118.2(4)
C5 C4 H4 120.9
C4 C5 H5 120.4
C4 C5 C6 119.1(4)
C6 C5 H5 120.4
N1 C6 C5 122.9(3)
N1 C6 C7 115.9(3)
C5 C6 C7 121.2(3)
N8 C7 C6 122.7(3)
C11 C7 N8 108.4(4)
C11 C7 C6 128.8(3)
N10 C11 C7 104.7(3)
N10 C11 H11 127.6
C7 C11 H11 127.6
C13 C12 N10 119.5(3)
C13 C12 C17 120.7(3)
C17 C12 N10 119.7(3)
C12 C13 H13 119.9
C12 C13 C14 120.1(3)
C14 C13 H13 119.9
C13 C14 H14 120.4
C15 C14 C13 119.2(4)
C15 C14 H14 120.4
O18 C15 C14 124.8(3)
O18 C15 C16 115.0(3)
C14 C15 C16 120.2(3)
C15 C16 H16 119.6
C17 C16 C15 120.8(3)
C17 C16 H16 119.6
C12 C17 H17 120.6
C16 C17 C12 118.9(4)
C16 C17 H17 120.6
O18 C19 H19D 109.5
O18 C19 H19E 109.5
O18 C19 H19F 109.5
H19D C19 H19E 109.5
H19D C19 H19F 109.5
H19E C19 H19F 109.5
C15A O18A C19A 117.1(3)
C2A N1A C6A 116.7(3)
N9A N8A C7A 109.6(3)
N8A N9A N10A 107.0(3)
N9A N10A C12A 119.1(3)
C11A N10A N9A 110.3(3)
C11A N10A C12A 130.6(3)
N1A C2A H2A 117.9
N1A C2A C3A 124.1(4)
C3A C2A H2A 117.9
C2A C3A H3A 120.7
C2A C3A C4A 118.5(4)
C4A C3A H3A 120.7
C3A C4A H4A 120.6
C5A C4A C3A 118.7(3)
C5A C4A H4A 120.6
C4A C5A H5A 120.4
C4A C5A C6A 119.2(3)
C6A C5A H5A 120.4
N1A C6A C5A 122.7(3)
N1A C6A C7A 117.1(3)
C5A C6A C7A 120.2(3)
N8A C7A C6A 121.6(3)
N8A C7A C11A 107.6(3)
C11A C7A C6A 130.8(3)
N10A C11A C7A 105.5(3)
N10A C11A H11A 127.2
C7A C11A H11A 127.2
C13A C12A N10A 120.4(3)
C13A C12A C17A 120.2(3)
C17A C12A N10A 119.4(3)
C12A C13A H13A 120.1
C12A C13A C14A 119.7(3)
C14A C13A H13A 120.1
C13A C14A H14A 119.8
C13A C14A C15A 120.4(3)
C15A C14A H14A 119.8
O18A C15A C14A 116.4(3)
O18A C15A C16A 124.1(3)
C14A C15A C16A 119.5(3)
C15A C16A H16A 120.0
C17A C16A C15A 120.1(3)
C17A C16A H16A 120.0
C12A C17A H17A 119.9
C16A C17A C12A 120.1(3)
C16A C17A H17A 119.9
O18A C19A H19A 109.5
O18A C19A H19B 109.5
O18A C19A H19C 109.5
H19A C19A H19B 109.5
H19A C19A H19C 109.5
H19B C19A H19C 109.5
loop_
_geom_bond_atom_site_label_1
_geom_bond_atom_site_label_2
_geom_bond_distance
O18 C15 1.366(4)
O18 C19 1.422(5)
N1 C2 1.336(5)
N1 C6 1.333(5)
N8 N9 1.302(4)
N8 C7 1.365(5)
N9 N10 1.355(4)
N10 C11 1.350(5)
N10 C12 1.422(5)
C2 H2 0.9500
C2 C3 1.375(5)
C3 H3 0.9500
C3 C4 1.376(6)
C4 H4 0.9500
C4 C5 1.384(6)
C5 H5 0.9500
C5 C6 1.385(5)
C6 C7 1.463(5)
C7 C11 1.362(6)
C11 H11 0.9500
C12 C13 1.378(5)
C12 C17 1.395(5)
C13 H13 0.9500
C13 C14 1.395(5)
C14 H14 0.9500
C14 C15 1.380(5)
C15 C16 1.394(5)
C16 H16 0.9500
C16 C17 1.373(5)
C17 H17 0.9500
C19 H19D 0.9800
C19 H19E 0.9800
C19 H19F 0.9800
O18A C15A 1.368(4)
O18A C19A 1.422(4)
N1A C2A 1.340(5)
N1A C6A 1.346(4)
N8A N9A 1.307(4)
N8A C7A 1.366(5)
N9A N10A 1.361(4)
N10A C11A 1.344(5)
N10A C12A 1.431(5)
C2A H2A 0.9500
C2A C3A 1.377(5)
C3A H3A 0.9500
C3A C4A 1.382(5)
C4A H4A 0.9500
C4A C5A 1.375(5)
C5A H5A 0.9500
C5A C6A 1.391(5)
C6A C7A 1.463(5)
C7A C11A 1.372(6)
C11A H11A 0.9500
C12A C13A 1.381(5)
C12A C17A 1.387(5)
C13A H13A 0.9500
C13A C14A 1.387(5)
C14A H14A 0.9500
C14A C15A 1.389(5)
C15A C16A 1.390(5)
C16A H16A 0.9500
C16A C17A 1.381(5)
C17A H17A 0.9500
C19A H19A 0.9800
C19A H19B 0.9800
C19A H19C 0.9800
loop_
_geom_torsion_atom_site_label_1
_geom_torsion_atom_site_label_2
_geom_torsion_atom_site_label_3
_geom_torsion_atom_site_label_4
_geom_torsion
O18 C15 C16 C17 -177.8(4)
N1 C2 C3 C4 -0.3(7)
N1 C6 C7 N8 178.1(4)
N1 C6 C7 C11 -3.0(6)
N8 N9 N10 C11 -0.7(4)
N8 N9 N10 C12 -179.9(3)
N8 C7 C11 N10 0.2(4)
N9 N8 C7 C6 178.4(3)
N9 N8 C7 C11 -0.6(5)
N9 N10 C11 C7 0.3(4)
N9 N10 C12 C13 42.1(5)
N9 N10 C12 C17 -137.0(4)
N10 C12 C13 C14 -177.9(4)
N10 C12 C17 C16 178.8(3)
C2 N1 C6 C5 -0.1(6)
C2 N1 C6 C7 179.3(4)
C2 C3 C4 C5 0.6(6)
C3 C4 C5 C6 -0.7(6)
C4 C5 C6 N1 0.4(6)
C4 C5 C6 C7 -178.9(4)
C5 C6 C7 N8 -2.5(6)
C5 C6 C7 C11 176.4(4)
C6 N1 C2 C3 0.0(6)
C6 C7 C11 N10 -178.8(4)
C7 N8 N9 N10 0.8(4)
C11 N10 C12 C13 -136.9(4)
C11 N10 C12 C17 44.0(6)
C12 N10 C11 C7 179.4(4)
C12 C13 C14 C15 -0.7(5)
C13 C12 C17 C16 -0.3(6)
C13 C14 C15 O18 178.7(4)
C13 C14 C15 C16 -0.7(6)
C14 C15 C16 C17 1.6(6)
C15 C16 C17 C12 -1.1(6)
C17 C12 C13 C14 1.2(5)
C19 O18 C15 C14 -0.2(5)
C19 O18 C15 C16 179.2(3)
O18A C15A C16A C17A 179.5(4)
N1A C2A C3A C4A 0.2(6)
N1A C6A C7A N8A 177.8(4)
N1A C6A C7A C11A -3.4(6)
N8A N9A N10A C11A 0.6(4)
N8A N9A N10A C12A 178.7(3)
N8A C7A C11A N10A -0.5(4)
N9A N8A C7A C6A 180.0(3)
N9A N8A C7A C11A 0.9(5)
N9A N10A C11A C7A 0.0(4)
N9A N10A C12A C13A -148.3(4)
N9A N10A C12A C17A 29.2(5)
N10A C12A C13A C14A 177.7(4)
N10A C12A C17A C16A -176.7(4)
C2A N1A C6A C5A 0.4(5)
C2A N1A C6A C7A 179.9(3)
C2A C3A C4A C5A 0.6(6)
C3A C4A C5A C6A -0.9(6)
C4A C5A C6A N1A 0.4(6)
C4A C5A C6A C7A -179.1(4)
C5A C6A C7A N8A -2.7(5)
C5A C6A C7A C11A 176.2(4)
C6A N1A C2A C3A -0.7(6)
C6A C7A C11A N10A -179.5(4)
C7A N8A N9A N10A -0.9(4)
C11A N10A C12A C13A 29.4(6)
C11A N10A C12A C17A -153.1(4)
C12A N10A C11A C7A -177.9(4)
C12A C13A C14A C15A -1.7(6)
C13A C12A C17A C16A 0.9(6)
C13A C14A C15A O18A -178.4(4)
C13A C14A C15A C16A 2.0(6)
C14A C15A C16A C17A -0.9(6)
C15A C16A C17A C12A -0.5(6)
C17A C12A C13A C14A 0.2(6)
C19A O18A C15A C14A -177.9(4)
C19A O18A C15A C16A 1.7(5)
loop_
_refln_index_h
_refln_index_k
_refln_index_l
_refln_F_squared_meas
0 -2 1 123.860
0 2 -1 134.540
0 2 -1 118.960
0 -2 1 120.290
0 -2 0 169.100
0 2 0 172.780
0 -2 0 165.420
0 1 2 10.0000
0 -1 -2 9.05000
0 -1 -2 8.49000
0 -1 -2 8.72000
0 1 2 9.51000
0 -2 2 1061.99
0 -2 2 999.590
0 2 -2 960.110
0 2 -2 1014.62
0 1 -3 111.390
0 -1 3 114.740
0 1 -3 109.670
0 -1 3 112.640
0 0 -3 52.0900
0 0 -3 52.3800
0 0 3 55.2300
0 0 3 58.3700
0 -2 -1 60.2600
0 2 1 66.3600
0 2 1 62.3000
0 -2 3 57.4800
0 -2 3 55.0700
0 2 -3 54.2100
0 2 -3 57.1500
0 1 3 130.990
0 -1 -3 146.020
0 -1 -3 137.630
0 -1 -3 126.220
0 1 3 133.720
0 1 -4 13.3500
0 1 -4 12.7600
0 -1 4 12.3400
0 -1 4 13.4200
1 0 -1 137.720
-1 0 1 139.090
-1 0 1 121.490
-1 0 1 136.660
1 0 -1 137.060
1 0 -1 142.520
1 0 0 8.08000
1 0 0 8.61000
1 0 0 7.72000
-1 0 0 8.38000
-1 0 0 6.37000
-1 0 0 6.01000
0 -2 -2 22.3800
0 2 2 22.6200
0 2 2 26.5900
0 -2 -2 21.0000
-1 1 0 538.840
-1 1 0 506.380
-1 1 0 559.340
1 -1 0 532.350
1 -1 0 526.250
1 -1 0 539.140
0 -3 1 77.4000
0 3 -1 77.4200
0 3 -1 76.3900
0 -3 1 83.4300
0 3 -2 43.7900
0 3 -2 43.3200
0 -3 2 44.4900
0 -3 2 42.5100
0 0 -4 5.44000
0 0 4 5.73000
0 0 4 6.02000
0 0 -4 6.40000
0 0 -4 7.04000
-1 -1 1 1509.11
-1 -1 1 1549.18
-1 -1 1 957.280
1 1 -1 1574.65
1 1 -1 1477.03
1 1 -1 1526.05
0 2 -4 49.3100
0 -2 4 50.6700
0 -2 4 50.5700
0 2 -4 52.0200
1 0 -2 80.5300
-1 0 2 77.5900
1 0 -2 80.4900
-1 0 2 78.2700
1 0 -2 76.5700
-1 0 2 76.4000
-1 1 1 172.510
1 -1 -1 177.990
1 -1 -1 171.040
1 -1 -1 169.040
-1 1 1 174.010
-1 1 1 174.760
1 0 1 843.400
-1 0 -1 824.850
1 0 1 833.110
1 0 1 829.940
-1 0 -1 859.960
-1 0 -1 785.780
1 -1 1 839.880
-1 1 -1 896.220
-1 1 -1 881.260
-1 1 -1 892.030
1 -1 1 876.240
1 -1 1 802.360
-1 -1 0 396.190
1 1 0 443.670
1 1 0 429.430
1 1 0 379.010
-1 -1 0 463.600
-1 -1 0 478.140
-1 -1 2 448.040
-1 -1 2 480.830
-1 -1 2 454.400
1 1 -2 458.220
1 1 -2 447.360
1 1 -2 425.350
0 3 0 4.20000
0 -3 0 2.26000
0 -3 0 3.85000
0 -3 3 9.05000
0 3 -3 8.86000
0 3 -3 9.93000
0 -3 3 8.04000
1 -1 -2 36.9300
1 -1 -2 40.5200
1 -1 -2 38.3100
-1 1 2 38.2600
-1 1 2 34.2500
-1 1 2 37.8500
1 -1 2 382.940
-1 1 -2 406.320
-1 1 -2 386.890
1 -1 2 364.680
1 -1 2 362.990
-1 -1 -1 32.6800
1 1 1 25.7500
-1 -1 -1 28.3600
-1 -1 -1 26.7100
1 1 1 29.5100
1 1 1 27.8800
1 1 -3 250.940
-1 -1 3 264.710
1 1 -3 262.230
-1 -1 3 243.890
-1 -1 3 268.090
1 1 -3 261.020
-1 0 3 12.5900
-1 0 3 10.6800
1 0 -3 11.2500
1 0 -3 10.5600
1 0 -3 11.0700
-1 0 3 12.2800
-1 0 -2 147.470
-1 0 -2 146.750
1 0 2 141.790
1 0 2 146.030
1 0 2 156.220
-1 0 -2 149.110
1 -2 0 122.990
1 -2 0 132.600
-1 2 0 119.960
-1 2 0 124.840
-1 2 0 123.480
1 -2 1 229.470
-1 2 -1 219.170
-1 2 -1 215.960
-1 2 -1 216.300
1 -2 1 226.450
0 3 1 46.9200
0 3 1 51.5700
0 -3 -1 48.6700
0 -3 -1 50.3700
0 3 1 51.7300
0 -1 -4 18.2400
0 -1 -4 17.9000
0 -1 -4 12.8700
0 1 4 16.7500
0 1 4 18.0600
-1 -2 1 520.970
-1 -2 1 508.500
1 2 -1 502.290
1 2 -1 525.860
1 2 -1 556.740
-1 -2 1 534.970
-1 -2 2 39.9200
1 2 -2 38.3000
-1 -2 2 44.9600
1 2 -2 45.3400
1 2 -2 39.8300
-1 -2 2 38.4800
0 3 -4 14.7800
0 -3 4 14.2000
0 -3 4 13.2400
0 3 -4 14.0100
0 -1 5 34.9500
0 1 -5 32.8200
0 1 -5 34.6300
0 -1 5 34.1900
0 -2 -3 20.5700
0 -2 -3 20.9000
0 -2 -3 21.8800
0 2 3 21.3100
0 2 3 21.7400
-1 2 1 21.5900
-1 2 1 21.1200
-1 2 1 18.6800
1 -2 -1 21.4200
1 -2 -1 22.3500
-1 2 -2 192.330
-1 2 -2 189.020
-1 2 -2 199.080
1 -2 2 195.620
1 -2 2 202.210
0 2 -5 14.7600
0 -2 5 14.1300
0 2 -5 15.6000
0 -2 5 14.4600
1 2 0 206.390
-1 -2 0 219.870
1 2 0 219.680
1 2 0 215.470
-1 -2 0 226.980
-1 -2 0 218.080
-1 -2 3 142.490
1 2 -3 156.490
1 2 -3 159.730
-1 -2 3 148.720
-1 -2 3 150.730
-1 1 3 2.19000
-1 1 3 1.75000
1 -1 -3 1.72000
1 -1 -3 1.36000
1 -1 -3 2.28000
-1 1 -3 74.4900
1 -1 3 68.4300
1 -1 3 74.8700
1 -1 3 77.7900
-1 1 -3 80.4200
-1 1 -3 78.6800
0 0 5 13.7300
0 0 -5 14.8100
0 0 -5 15.7600
0 0 5 13.9600
0 0 -5 13.2700
1 1 2 5.52000
1 1 2 5.99000
-1 -1 -2 6.33000
-1 -1 -2 6.87000
-1 -1 -2 6.82000
1 1 2 6.23000
1 1 -4 92.9900
1 1 -4 91.0900
-1 -1 4 84.5300
-1 -1 4 89.4800
-1 -1 4 83.4000
1 1 -4 94.4100
-1 0 4 3.37000
1 0 -4 3.94000
1 0 -4 3.70000
-1 0 4 4.13000
1 0 -4 2.37000
-1 0 4 3.49000
1 -2 -2 0.40000
1 -2 -2 0.85000
-1 2 2 1.00000
-1 2 2 0.72000
-1 2 2 0.69000
-1 0 -3 23.7200
-1 0 -3 23.1100
-1 0 -3 20.4400
1 0 3 20.8300
1 0 3 18.1500
1 0 3 23.0100
0 3 2 6.13000
0 -3 -2 6.23000
0 3 2 6.15000
-1 2 -3 27.5400
-1 2 -3 29.8000
1 -2 3 26.0500
-1 2 -3 28.2300
1 -2 3 24.9600
0 -4 2 100.860
0 -4 2 97.1900
0 4 -2 102.300
0 4 -2 98.0800
1 2 1 7.37000
-1 -2 -1 6.56000
-1 -2 -1 6.04000
1 2 1 4.28000
1 2 1 5.66000
-1 -2 -1 5.90000
-1 -2 4 19.0300
-1 -2 4 15.8900
1 2 -4 14.1800
-1 -2 4 16.3200
1 2 -4 16.3800
1 2 -4 13.8100
0 -4 1 39.1300
0 4 -1 39.1600
0 -4 1 37.8200
0 -4 1 37.0400
0 3 -5 137.830
0 3 -5 138.550
0 -3 5 143.780
0 -3 5 135.170
0 -4 3 17.5400
0 -4 3 18.6000
0 4 -3 18.1400
0 4 -3 18.7200
1 -3 1 18.8400
-1 3 -1 18.5700
-1 3 -1 19.0300
1 -3 1 18.4500
1 -3 0 116.580
1 -3 0 120.490
-1 3 0 114.690
-1 3 0 118.630
1 -3 2 72.8900
-1 3 -2 77.1900
-1 3 -2 80.8700
1 -3 2 76.9900
1 3 -2 23.6200
1 3 -2 22.4600
-1 -3 2 25.6000
-1 -3 2 25.6000
-1 -3 2 24.6500
1 3 -2 26.6800
0 4 0 19.5100
0 4 0 23.1800
0 -4 0 20.8700
0 -4 0 20.3200
-1 1 4 18.1200
-1 1 4 19.0900
-1 1 4 18.5900
1 -1 -4 13.9500
1 -1 -4 18.2400
1 -1 -4 18.9600
0 2 4 56.3000
0 -2 -4 58.1100
0 -2 -4 54.6400
0 2 4 56.5600
0 -2 -4 53.7500
1 3 -1 32.4400
1 3 -1 32.4400
1 3 -1 29.6300
-1 -3 1 33.9600
-1 -3 1 35.3900
-1 -3 1 35.2100
1 3 -3 4.18000
1 3 -3 7.85000
1 3 -3 6.13000
-1 -3 3 5.37000
-1 -3 3 6.47000
-1 -3 3 5.34000
0 -1 -5 10.4200
0 1 5 10.9400
0 1 5 9.15000
0 -1 -5 7.43000
0 -1 -5 9.26000
0 -4 4 62.0000
0 4 -4 58.6000
0 4 -4 59.9600
0 -4 4 59.2900
-1 2 3 5.53000
1 -2 -3 4.72000
1 -2 -3 5.82000
-1 2 3 6.82000
-1 2 3 5.38000
-1 -1 -3 8.06000
1 1 3 7.03000
-1 -1 -3 8.30000
-1 -1 -3 7.63000
1 1 3 7.87000
1 1 3 8.39000
-1 1 -4 34.4900
1 -1 4 33.5000
-1 1 -4 37.7200
-1 -1 5 4.85000
-1 -1 5 6.86000
-1 -1 5 6.05000
1 1 -5 6.46000
1 1 -5 5.97000
1 1 -5 7.35000
0 -1 6 24.7700
0 1 -6 27.0900
0 1 -6 24.8700
0 1 -6 25.2100
0 1 -6 25.4100
0 -1 6 23.8000
-1 3 1 16.2200
-1 3 1 15.5500
1 -3 -1 16.6100
1 -3 -1 16.6100
0 -2 6 73.5900
0 2 -6 65.4200
0 2 -6 73.0000
0 -2 6 76.1300
1 -3 3 10.8400
1 -3 3 10.0000
-1 3 -3 12.2500
-1 3 -3 11.0200
-1 2 -4 4.73000
-1 2 -4 4.56000
-1 2 -4 2.78000
1 -2 4 2.99000
1 2 2 9.13000
1 2 2 9.25000
-1 -2 -2 8.84000
1 2 2 9.56000
-1 -2 -2 12.1200
-1 -2 -2 9.52000
-1 -2 5 60.2500
1 2 -5 54.9600
-1 -2 5 64.8000
-1 -2 5 63.6400
1 2 -5 62.4300
1 2 -5 61.3100
1 0 -5 23.1100
1 0 -5 21.2100
1 0 -5 19.5500
-1 0 5 23.0200
-1 0 5 21.6700
-1 0 5 19.8000
1 3 0 123.260
1 3 0 121.490
-1 -3 0 121.790
-1 -3 0 112.230
1 3 0 125.250
-1 -3 0 119.690
-1 0 -4 6.31000
-1 0 -4 12.2700
-1 0 -4 8.83000
1 0 4 10.3000
1 0 4 10.3600
1 3 -4 10.0300
1 3 -4 11.3900
1 3 -4 10.2800
-1 -3 4 11.9400
-1 -3 4 8.47000
-1 -3 4 11.0700
0 3 3 24.2500
0 -3 -3 23.1300
0 3 3 20.6200
0 4 1 13.4600
0 -4 -1 13.3900
0 4 1 13.9500
0 4 1 13.7100
0 -4 -1 13.2700
0 0 6 66.2900
0 0 -6 67.8500
0 0 6 68.9400
0 0 -6 61.8800
0 0 -6 63.4200
0 3 -6 55.9100
0 3 -6 56.6400
0 -3 6 56.4700
0 -3 6 55.8100
1 -3 -2 24.0900
-1 3 2 23.3800
-1 3 2 24.4000
1 -3 -2 22.7100
0 -4 5 17.9500
0 -4 5 18.0800
0 4 -5 17.4900
0 4 -5 18.9400
-1 3 -4 11.3600
-1 3 -4 10.4900
-1 3 -4 10.9300
1 -3 4 10.2900
-1 3 -4 11.3400
-1 -3 -1 11.9100
1 3 1 12.4900
1 3 1 12.2200
1 3 1 10.0800
-1 -3 -1 14.6500
-1 -3 -1 11.1000
-1 -3 5 31.9600
-1 -3 5 38.7800
-1 -3 5 34.5000
1 3 -5 34.2300
1 3 -5 36.5500
1 3 -5 31.7200
-1 2 4 24.1000
-1 2 4 22.1600
-1 2 4 20.7200
1 -2 -4 19.2200
1 -2 -4 19.5000
-1 1 5 22.0000
-1 1 5 16.3600
-1 1 5 17.7000
1 -1 -5 16.5400
1 -1 -5 17.8200
1 -4 1 11.4200
-1 4 -1 9.84000
-1 4 -1 10.4100
1 -4 2 24.4300
-1 4 -2 22.9400
-1 4 -2 25.0600
-1 -1 -4 1.29000
-1 -1 -4 1.63000
1 1 4 1.24000
1 1 4 0.42000
-1 -1 -4 2.19000
1 1 -6 18.8500
-1 -1 6 20.0900
-1 -1 6 21.1800
-1 -1 6 20.8000
1 1 -6 23.8500
1 1 -6 20.8600
-1 1 -5 0.25000
1 -1 5 0.17000
-1 1 -5 0.82000
-1 1 -5 -0.5200
-1 -2 -3 19.5800
-1 -2 -3 18.2100
-1 -2 -3 20.3500
1 2 3 20.5500
1 2 3 16.7500
1 2 3 18.4200
1 -2 5 17.4100
-1 2 -5 15.5300
-1 2 -5 14.6400
-1 2 -5 17.2300
0 -2 -5 10.4600
0 2 5 9.82000
0 2 5 10.6800
0 -2 -5 10.0900
0 -2 -5 8.87000
1 2 -6 108.700
-1 -2 6 103.470
1 2 -6 108.650
1 2 -6 111.070
-1 -2 6 109.380
-1 -2 6 112.870
1 -4 0 40.7700
-1 4 0 37.3300
-1 4 0 39.9200
1 -4 0 38.5500
1 -4 0 38.5500
0 -4 -2 5.21000
0 4 2 5.52000
0 4 2 5.07000
0 -4 -2 5.53000
1 4 -2 50.3300
1 4 -2 54.5300
1 4 -2 50.6500
-1 -4 2 54.0800
-1 -4 2 55.0400
-1 -4 2 49.7300
-1 -4 3 8.52000
-1 -4 3 9.34000
1 4 -3 9.25000
1 4 -3 8.48000
1 4 -3 7.23000
0 5 -2 55.6900
0 5 -2 59.4400
0 5 -2 55.1500
0 -5 2 52.1600
0 -5 2 58.3200
-1 4 -3 51.3100
-1 4 -3 50.6400
-1 4 -3 57.3600
0 5 -3 2.67000
0 5 -3 2.00000
0 -5 3 2.09000
0 -5 3 2.36000
0 5 -3 2.22000
0 -1 -6 9.83000
0 1 6 11.4900
0 -1 -6 9.88000
0 2 -7 145.350
0 2 -7 147.300
0 -2 7 146.200
0 -2 7 136.050
0 2 -7 145.910
1 -3 -3 44.0700
1 -3 -3 45.2500
1 -3 -3 43.3100
-1 3 3 45.3100
-1 3 3 48.1500
1 0 -6 22.8100
1 0 -6 22.3400
-1 0 6 22.1700
-1 0 6 21.7000
-1 0 6 22.5000
0 1 -7 4.93000
0 -1 7 3.25000
0 -1 7 3.36000
0 1 -7 5.42000
0 1 -7 4.37000
0 1 -7 4.02000
0 4 -6 5.95000
0 4 -6 6.22000
0 -4 6 4.38000
0 -4 6 4.97000
0 3 4 0.25000
0 -3 -4 0.86000
0 -3 -4 0.13000
0 -3 -4 0.53000
0 3 4 0.65000
1 4 -1 18.6500
-1 -4 1 17.8500
-1 -4 1 16.5700
-1 -4 1 20.1900
1 4 -1 19.0700
1 4 -1 16.8500
1 0 5 5.95000
1 0 5 5.32000
-1 0 -5 4.97000
-1 0 -5 5.08000
-1 0 -5 5.33000
0 5 -1 121.460
0 -5 1 125.380
0 -5 1 121.390
0 5 -1 127.680
1 4 -4 3.19000
1 4 -4 2.63000
-1 -4 4 3.45000
1 4 -4 4.63000
-1 -4 4 3.94000
0 -5 4 19.3800
0 5 -4 19.6100
0 -5 4 17.9500
0 5 -4 19.9800
-1 -3 -2 14.5100
1 3 2 14.7700
1 3 2 16.3500
1 3 2 15.9700
-1 -3 -2 19.2800
-1 -3 -2 16.4500
-1 3 -5 15.1600
-1 3 -5 12.6600
-1 3 -5 15.6700
-1 3 -5 16.8500
-1 4 1 70.8500
-1 4 1 69.7200
1 -4 -1 69.0900
1 -4 -1 67.5600
1 -4 -1 68.7100
0 -3 7 45.6800
0 -3 7 43.7000
0 3 -7 42.2000
0 3 -7 45.0100
1 3 -6 33.4400
-1 -3 6 32.8200
-1 -3 6 41.0000
1 3 -6 36.3400
-1 -3 6 35.2900
-1 4 -4 13.2800
-1 4 -4 8.66000
-1 4 -4 7.62000
-1 4 -4 8.97000
0 -5 0 135.050
0 5 0 145.610
0 -5 0 135.410
0 5 0 127.500
-1 -4 0 55.7900
-1 -4 0 66.1300
1 4 0 61.5700
1 4 0 62.5500
1 4 0 60.6900
0 0 7 127.050
0 0 7 128.240
0 0 -7 122.500
0 0 -7 121.830
1 4 -5 18.6900
1 4 -5 16.5500
1 4 -5 14.6500
-1 -4 5 22.3900
-1 -4 5 18.6800
1 -2 -5 0.42000
-1 2 5 1.21000
-1 2 5 1.41000
1 -2 -5 0.96000
0 5 -5 4.15000
0 -5 5 4.28000
0 -5 5 3.95000
0 5 -5 3.20000
0 5 -5 4.18000
-1 1 6 53.8800
1 -1 -6 52.6300
-1 1 6 51.6200
0 4 3 124.970
0 4 3 120.250
0 -4 -3 118.960
-1 -2 -4 9.49000
-1 -2 -4 7.11000
1 2 4 7.91000
1 -4 -2 68.6200
-1 4 2 69.0700
-1 4 2 69.4300
1 -4 -2 72.6700
1 -4 -2 70.6900
-1 2 -6 26.7100
1 -2 6 29.4100
-1 2 -6 27.9300
-1 2 -6 30.0500
-1 -1 -5 28.5200
-1 -1 -5 30.6500
1 1 5 30.5600
-1 -1 7 5.65000
1 1 -7 3.53000
-1 -1 7 4.10000
-1 -2 7 15.7700
-1 -2 7 15.6600
1 2 -7 15.1000
1 -1 6 41.0600
1 -1 6 37.5400
-1 1 -6 41.8300
-1 1 -6 46.7900
1 -3 -4 138.840
1 -3 -4 140.780
1 -3 -4 139.850
-1 3 4 156.750
-1 3 4 153.760
0 -4 7 7.93000
0 -4 7 7.33000
0 4 -7 7.61000
0 4 -7 7.84000
-1 4 -5 28.1600
-1 4 -5 29.4700
-1 4 -5 28.6600
-1 4 -5 29.3600
-1 4 -5 27.5500
0 -5 -1 46.1500
0 -5 -1 48.8900
0 5 1 49.4700
0 5 1 50.8200
0 5 1 52.2800
1 4 1 55.5000
1 4 1 51.7800
-1 -4 -1 52.5300
-1 -4 -1 55.6700
1 4 1 51.7800
1 3 3 4.12000
1 3 3 3.88000
-1 -3 -3 4.99000
-1 -3 -3 4.20000
0 -2 -6 223.330
0 2 6 232.070
0 -2 -6 232.310
-1 3 -6 31.1900
-1 3 -6 31.8900
-1 3 -6 35.6100
-1 3 -6 33.5700
-1 -4 6 43.5400
-1 -4 6 46.8500
1 4 -6 44.9500
1 4 -6 47.9500
-1 5 -2 8.25000
-1 5 -2 9.67000
1 0 -7 20.2900
-1 0 7 22.1900
-1 0 7 23.3500
1 0 -7 22.7100
1 3 -7 11.3200
-1 -3 7 9.80000
-1 -3 7 13.0000
0 3 5 59.0500
0 -3 -5 65.7700
0 -3 -5 69.2500
0 -5 6 63.9900
0 -5 6 60.1200
0 5 -6 60.2200
0 5 -6 61.4800
1 -5 1 5.46000
-1 5 -1 5.82000
-1 5 -1 6.32000
2 0 -1 104.250
-2 0 1 98.0400
-2 0 1 93.2100
-2 0 1 102.240
1 0 6 46.3700
-1 0 -6 46.1100
-1 0 -6 50.6700
0 -2 8 24.5200
0 2 -8 24.8400
0 2 -8 22.7400
0 -2 8 23.5100
-1 5 -3 189.170
-1 5 -3 190.810
-1 5 -3 194.560
-1 5 -3 191.460
0 1 7 3.05000
0 -1 -7 3.47000
0 1 7 3.60000
0 -1 -7 2.89000
-2 0 2 1.82000
-2 0 2 3.90000
2 0 -2 4.00000
-2 0 0 4.33000
-2 0 0 3.53000
-2 0 0 3.43000
2 0 0 2.87000
-2 1 1 31.3300
-2 1 1 27.6000
2 -1 -1 27.5300
-2 1 1 24.0500
-2 1 0 14.6400
2 -1 0 15.1800
-2 1 0 19.1000
-2 1 0 14.4500
0 -1 8 5.70000
0 1 -8 5.02000
0 -1 8 4.08000
1 5 -3 19.7900
1 5 -3 17.9900
1 5 -3 17.5900
-1 -5 3 22.8300
-1 -5 3 19.0500
0 -3 8 19.4200
0 3 -8 17.8500
0 3 -8 18.8700
0 -3 8 19.3700
-2 -1 2 120.730
2 1 -2 103.390
-2 -1 2 114.200
-2 -1 1 211.350
-2 -1 1 231.630
2 1 -1 228.640
-2 -1 1 247.630
-1 5 0 6.43000
-1 5 0 7.15000
1 -5 0 7.46000
1 5 -2 64.7300
1 5 -2 63.7500
1 5 -2 63.9500
-1 -5 2 61.6900
-1 -5 2 68.5000
-1 4 3 3.93000
1 -4 -3 3.32000
1 -4 -3 3.04000
1 -4 -3 3.76000
-1 4 3 3.56000
-1 -5 4 24.0400
1 5 -4 24.1100
1 5 -4 23.4100
1 5 -4 26.4600
-1 -5 4 24.8800
-2 1 2 2.02000
2 -1 -2 0.92000
-2 1 2 1.77000
-2 1 -1 31.8700
-2 1 -1 33.9700
2 -1 1 31.7600
-2 1 -1 36.2900
-2 0 3 11.9700
-2 0 3 11.6000
2 0 -3 11.3000
-1 5 -4 55.5600
-1 5 -4 56.6900
-1 5 -4 55.9200
-1 5 -4 50.6300
2 0 1 103.970
-2 0 -1 93.9300
-2 0 -1 97.9900
-2 0 -1 94.6700
-2 -1 3 2.18000
-2 -1 3 2.10000
2 1 -3 2.44000
-2 -1 0 288.290
-2 -1 0 305.350
-2 -1 0 307.800
2 1 0 320.490
-1 2 6 31.4900
-1 2 6 32.5900
1 -2 -6 32.5100
0 5 2 6.35000
0 5 2 6.20000
0 -5 -2 5.81000
0 -5 -2 5.69000
0 4 4 43.0400
1 5 -1 15.4000
-1 -5 1 13.0800
1 5 -1 14.6800
-1 -5 1 15.4300
1 5 -1 14.4300
0 6 -3 12.6700
0 6 -3 12.6900
0 6 -3 13.4000
0 -6 3 12.8600
1 4 2 17.2700
-1 -4 -2 14.2800
-1 -4 -2 19.3700
1 4 2 18.0700
-1 4 -6 133.690
-1 4 -6 128.540
-1 4 -6 133.600
-1 4 -6 133.900
2 -2 0 99.3700
2 -2 0 93.0100
-2 2 0 95.6100
-2 2 0 98.8100
-2 2 0 93.1900
0 -6 2 4.92000
0 -6 2 4.87000
0 6 -2 5.41000
0 6 -2 6.19000
1 5 -5 4.54000
1 5 -5 5.01000
-1 -5 5 6.23000
-1 -5 5 5.13000
-2 2 1 62.3900
2 -2 -1 57.3800
-2 2 1 59.9900
1 -3 -5 77.6900
1 -3 -5 75.5600
-1 3 5 71.7500
-1 3 5 75.4500
-1 -2 -5 10.2100
1 2 5 10.0300
-1 -2 -5 8.55000
0 6 -4 93.7600
0 6 -4 97.1700
0 -6 4 99.0400
0 6 -4 91.8400
2 -1 -3 15.7100
-2 1 3 18.9700
-2 1 3 14.9900
-2 2 -1 38.1700
-2 2 -1 41.7200
2 -2 1 33.4600
2 -2 1 43.7300
-2 2 -1 41.0400
-1 1 7 108.680
1 -1 -7 100.690
-1 1 7 121.500
1 -5 -1 6.64000
-1 5 1 7.77000
1 -5 -1 6.43000
-1 5 1 7.14000
-1 -4 7 35.2000
1 4 -7 36.1900
-1 -4 7 35.4000
0 0 -8 43.2600
0 0 -8 36.6300
0 0 8 43.2500
0 0 8 43.2400
-1 2 -7 0.21000
-1 2 -7 0.54000
1 2 -8 32.4700
-1 -2 8 35.3400
-1 -2 8 33.2400
-2 1 -2 46.0000
2 -1 2 45.3000
-2 1 -2 52.6600
-2 1 -2 45.0500
2 2 -2 37.8200
-2 -2 2 41.0800
-2 -2 2 40.5600
0 5 -7 94.5900
0 -5 7 90.8400
0 5 -7 97.3000
0 -5 7 94.8100
2 1 -4 31.5800
-2 -1 4 30.7500
-2 -1 4 32.8900
-1 -1 -6 67.3300
1 1 6 64.4900
0 4 -8 9.37000
0 4 -8 12.4200
0 -4 8 12.4100
0 -4 8 10.7300
1 1 -8 45.2900
-1 -1 8 39.7500
-1 -1 8 43.4600
0 6 -1 14.7400
0 -6 1 15.4600
0 -6 1 15.5100
0 6 -1 16.4800
-2 -1 -1 41.8400
-2 -1 -1 34.4900
-2 -1 -1 41.1200
2 1 1 38.7800
2 0 -4 42.3200
-2 0 4 38.4100
-2 0 4 37.4000
1 -1 7 79.9600
-1 1 -7 71.6400
-1 1 -7 82.1100
1 -1 7 83.2000
-2 -2 1 78.4000
2 2 -1 88.8800
-2 -2 1 95.9100
-2 -2 3 41.9200
-2 -2 3 44.9400
2 2 -3 41.7000
-1 -3 -4 23.4300
1 3 4 26.3300
-1 -3 -4 30.1600
-2 2 2 19.8300
-2 2 2 22.0500
-2 0 -2 49.1000
2 0 2 46.1700
-2 0 -2 40.5300
-2 0 -2 40.4300
-1 5 -5 1.99000
-1 5 -5 2.52000
-1 5 -5 2.15000
-1 5 -5 3.02000
-1 5 -5 3.26000
-1 3 -7 13.1300
-1 3 -7 15.3800
-1 3 -7 13.3400
1 5 0 0.43000
-1 -5 0 0.62000
-1 -5 0 0.65000
1 5 0 0.25000
0 -6 5 36.1200
0 6 -5 36.4800
0 6 -5 34.5500
-2 2 -2 10.7000
-2 2 -2 9.59000
-2 2 -2 11.1000
-1 -3 8 79.9400
1 3 -8 76.5000
-1 -3 8 81.1200
-1 -5 6 17.2300
-1 -5 6 17.1800
1 5 -6 15.5400
1 5 -6 14.3900
-2 -2 0 8.25000
2 2 0 13.5100
-2 -2 0 14.0200
-2 -2 4 173.770
-2 -2 4 160.200
2 2 -4 169.140
-1 4 4 8.04000
1 -4 -4 9.02000
-1 4 4 8.05000
1 -4 -4 6.45000
1 -4 -4 7.33000
-2 1 4 4.00000
2 -1 -4 4.47000
-2 1 4 5.68000
0 6 0 2.17000
0 -6 0 1.73000
0 -6 0 3.04000
0 6 0 3.05000
0 -2 -7 39.5800
0 2 7 35.3900
0 -2 -7 34.2100
-1 0 8 5.99000
-1 0 8 8.79000
1 0 -8 9.77000
0 3 6 28.1500
0 -3 -6 28.2400
0 -3 -6 29.0500
1 -5 -2 10.8800
1 -5 -2 11.2800
1 -5 -2 12.1700
-1 5 2 12.1000
-1 5 2 11.5600
-2 3 0 23.1100
-2 3 0 24.2300
2 -3 0 19.3700
-2 3 0 21.2100
2 -1 3 58.1000
-2 1 -3 58.2700
-2 1 -3 58.0200
-2 1 -3 60.0200
-2 2 3 13.1600
-2 2 3 14.6600
1 0 7 3.73000
-1 0 -7 3.39000
-1 0 -7 3.18000
2 1 -5 9.60000
-2 -1 5 10.7700
-2 -1 5 11.0800
-2 3 -1 30.4300
2 -3 1 28.4400
-2 3 -1 33.3200
-2 3 -1 37.3400
-2 -1 -2 3.68000
-2 -1 -2 3.88000
-2 -1 -2 4.09000
2 1 2 3.52000
0 -5 -3 5.67000
0 -5 -3 8.19000
0 5 3 7.83000
-1 -4 -3 15.9700
1 4 3 14.6900
1 4 3 12.8600
-1 -4 -3 17.8900
0 -2 9 23.8800
0 -2 9 23.7200
0 2 -9 28.4300
0 2 -9 25.0500
2 0 -5 8.94000
-2 0 5 11.4700
-2 0 5 10.7200
0 -6 6 12.2300
0 6 -6 13.3300
0 6 -6 11.8100
-2 2 -3 64.8100
-2 2 -3 72.9800
-2 2 -3 68.2400
2 -3 -1 2.72000
-2 3 1 2.06000
-2 3 1 3.49000
-1 4 -7 24.7500
-1 4 -7 26.6800
-1 4 -7 27.9900
-1 4 -7 27.3600
-2 0 -3 50.4600
-2 0 -3 58.8300
-2 0 -3 50.5200
2 0 3 51.7500
0 -3 9 10.7800
0 3 -9 8.92000
0 -3 9 8.91000
-2 3 -2 121.660
2 -3 2 109.620
-2 3 -2 111.370
-2 3 -2 125.160
0 -1 -8 2.69000
0 1 8 3.23000
0 1 8 2.49000
0 -1 -8 2.56000
-1 -5 -1 29.8400
-1 -5 -1 27.8800
1 5 1 24.7000
1 5 1 31.5200
-1 5 -6 16.1600
-1 5 -6 14.3200
-1 5 -6 15.9100
2 2 1 3.85000
-2 -2 -1 4.59000
-2 -2 -1 2.92000
-2 -2 -1 2.38000
-2 -2 5 1.96000
2 2 -5 1.66000
-2 -2 5 1.58000
2 3 -2 42.3700
-2 -3 2 40.6900
-2 -3 2 46.0900
-2 -3 3 42.2100
2 3 -3 37.6400
-2 -3 3 34.0800
-1 -4 8 41.3800
1 4 -8 40.9400
-1 -4 8 42.6100
0 1 -9 4.36000
0 -1 9 4.10000
0 -1 9 4.34000
-1 6 -2 5.82000
-1 6 -2 4.55000
0 -4 -5 0.59000
0 4 5 1.21000
-1 6 -3 17.2600
-1 6 -3 15.6600
0 5 -8 40.6200
0 5 -8 39.6800
0 -5 8 37.5300
0 -5 8 38.6000
-1 2 7 23.8600
-1 2 7 26.3800
1 -2 -7 25.9200
1 -2 -7 19.8600
-1 -5 7 66.4000
1 5 -7 59.9700
-1 -5 7 63.0700
2 3 -1 185.310
-2 -3 1 163.410
-2 -3 1 186.330
-2 3 2 9.73000
-2 3 2 9.98000
-2 -3 4 72.2100
-2 -3 4 85.8500
2 3 -4 71.9700
1 -3 -6 22.5800
-1 3 6 23.9100
-1 3 6 22.9800
1 -3 -6 19.3000
-1 6 -1 66.7200
-1 6 -1 69.1600
1 -6 1 65.8900
0 -6 -1 27.2900
0 6 1 25.6400
0 6 1 21.2000
0 6 1 24.8500
0 -6 -1 25.0500
-2 1 5 12.0700
-2 1 5 15.0500
2 -1 -5 12.0700
-1 -2 -6 1.35000
1 2 6 1.88000
-1 -2 -6 2.55000
-2 2 4 14.5700
-2 2 4 17.5500
-1 6 -4 5.38000
-1 6 -4 6.05000
-2 3 -3 53.5300
-2 3 -3 49.1600
-2 3 -3 46.6100
2 -3 3 44.6100
1 6 -3 22.5800
1 6 -3 21.6900
1 6 -3 20.3500
-1 -6 3 25.1600
-1 -6 3 25.2200
-1 -6 4 43.7100
-1 -6 4 38.7700
1 6 -4 35.8200
1 6 -4 35.6800
-1 2 -8 26.4800
-1 2 -8 31.3300
-1 -2 9 13.8300
-1 -2 9 14.6600
1 2 -9 12.9200
0 4 -9 37.9000
0 -4 9 36.9500
0 -4 9 33.3800
-1 -3 -5 29.4400
1 3 5 30.1600
-1 -3 -5 27.6200
-1 1 8 9.25000
-1 1 8 6.61000
-2 -1 6 0.89000
2 1 -6 1.32000
-2 -1 6 0.21000
-2 1 -4 6.51000
2 -1 4 5.54000
-2 1 -4 6.64000
-2 1 -4 6.11000
-1 5 3 2.63000
-1 5 3 2.30000
1 -5 -3 2.00000
1 -5 -3 1.56000
1 -5 -3 3.42000
-2 -1 -3 14.3400
-2 -1 -3 10.3000
-2 -1 -3 12.5100
1 6 -2 16.5600
1 6 -2 19.5200
-1 -6 2 20.2600
-1 -6 2 20.2000
1 6 -2 18.8900
-2 2 -4 47.7800
-2 2 -4 48.9900
-2 2 -4 55.2200
0 6 -7 5.49000
0 -6 7 5.17000
0 6 -7 5.03000
-1 3 -8 25.4800
-1 3 -8 22.5800
-1 6 0 38.2600
-1 6 0 37.8300
1 -6 0 36.7100
-2 -3 0 47.6500
2 3 0 54.9600
-2 -3 0 53.8100
-1 -1 -7 16.2500
1 1 7 15.1000
-1 -1 -7 16.3800
-2 -3 5 8.16000
-2 -3 5 9.40000
2 3 -5 8.54000
1 1 -9 7.91000
-1 -1 9 8.21000
-1 -1 9 9.02000
-1 -3 9 17.2100
-1 -3 9 19.1700
1 3 -9 20.0700
-1 -6 5 7.06000
1 6 -5 8.03000
-1 -6 5 7.68000
1 6 -5 7.56000
-2 -2 -2 37.7500
2 2 2 41.0100
-2 -2 -2 41.6900
-2 -2 -2 38.2800
2 2 -6 27.8600
-2 -2 6 30.3900
-2 -2 6 33.7700
-1 1 -8 15.0800
-1 1 -8 14.4500
1 -1 8 17.5500
1 -1 8 16.4100
-1 4 5 12.8500
1 -4 -5 11.5900
-1 4 5 14.3700
1 -4 -5 12.0700
0 0 -9 6.97000
0 0 9 5.65000
0 0 9 5.26000
-2 0 6 9.19000
-2 0 6 7.23000
2 0 -6 7.38000
-2 3 3 28.5000
-2 3 3 27.7900
-1 6 -5 30.1700
-1 6 -5 27.0300
-1 6 -5 31.5200
-2 4 -1 49.7000
-2 4 -1 48.7800
2 -4 1 48.9200
1 5 2 29.3500
-1 -5 -2 29.3600
-1 -5 -2 26.6400
-2 0 -4 13.3700
2 0 4 10.3700
-2 0 -4 10.4200
-2 0 -4 10.9500
-2 4 0 62.2400
-2 4 0 61.0100
2 -4 0 55.4600
-1 5 -7 15.9400
-1 5 -7 14.9000
-1 5 -7 15.4300
-1 5 -7 13.8700
1 6 -1 53.1800
-1 -6 1 54.7700
-1 -6 1 44.1400
1 6 -1 51.0100
0 -5 -4 7.99000
0 5 4 8.02000
2 -4 2 29.7300
-2 4 -2 28.1100
-2 4 -2 33.2400
-2 4 -2 33.8600
1 4 4 16.0100
-1 -4 -4 14.0800
-1 -4 -4 16.2700
-2 3 -4 6.22000
-2 3 -4 7.15000
-2 3 -4 9.81000
2 -3 4 5.59000
0 7 -3 9.88000
0 7 -3 8.30000
0 -7 3 10.6500
0 -7 3 8.40000
-1 -6 6 1.02000
-1 -6 6 0.67000
1 6 -6 0.62000
1 6 -6 0.75000
-1 -5 8 10.2600
1 5 -8 9.68000
-1 -5 8 12.1600
0 7 -4 15.2900
0 -7 4 15.4500
0 7 -4 17.1300
0 7 -4 15.3700
0 -6 -2 1.89000
0 -6 -2 2.17000
0 6 2 2.04000
-1 4 -8 20.0600
-1 4 -8 20.4600
-1 4 -8 18.6200
-1 4 -8 19.7000
1 -6 -1 4.34000
-1 6 1 4.02000
-1 6 1 4.55000
-2 4 1 33.0200
2 -4 -1 26.2400
-2 4 1 32.2100
-2 -3 -1 9.79000
2 3 1 11.7300
-2 -3 -1 12.4500
-1 0 9 0.68000
-1 0 9 0.17000
0 -7 2 38.6500
0 7 -2 37.5200
0 -7 2 38.5600
0 7 -2 38.8700
0 -3 -7 0.72000
0 -3 -7 0.32000
0 3 7 0.96000
2 3 -6 60.4700
-2 -3 6 60.3600
-2 -3 6 61.0800
-2 2 5 57.8300
-2 2 5 60.0500
2 4 -3 10.9800
-2 -4 3 10.7800
-2 -4 3 9.33000
-1 -4 9 6.21000
1 4 -9 5.90000
-1 -4 9 3.96000
0 -2 -8 17.5500
0 -2 -8 16.1600
0 2 8 20.1200
-2 4 -3 37.6900
-2 4 -3 30.9200
-2 4 -3 34.3400
2 -4 3 31.0400
2 -4 3 29.6800
1 0 8 0.41000
1 0 8 0.85000
-1 0 -8 0.57000
-1 0 -8 0.69000
-2 1 6 0.70000
2 -1 -6 0.81000
-2 1 6 0.43000
2 4 -2 0.76000
-2 -4 2 1.82000
-2 -4 2 1.32000
0 -7 5 4.48000
0 7 -5 5.20000
0 7 -5 4.23000
2 4 -4 18.3300
-2 -4 4 17.1700
-2 -4 4 17.6400
0 -5 9 15.4500
0 -5 9 16.3500
0 5 -9 17.3400
0 5 -9 14.6300
-1 6 -6 59.5800
-1 6 -6 56.0800
-1 6 -6 56.2600
-1 6 -6 60.1200
-2 2 -5 8.09000
-2 2 -5 9.85000
-2 2 -5 9.34000
1 6 0 10.4900
1 6 0 8.09000
-1 -6 0 9.97000
-1 -6 0 10.9900
2 1 -7 41.1100
-2 -1 7 38.9900
-2 -1 7 39.4600
0 6 -8 17.0700
0 6 -8 15.6000
0 -6 8 16.1500
0 2 -10 16.8800
0 -2 10 16.9600
0 2 -10 19.1800
0 -2 10 16.2400
-2 1 -5 23.0700
-2 1 -5 23.4000
-2 1 -5 20.3100
2 -1 5 24.1200
-2 3 4 3.14000
-2 3 4 2.03000
-2 -1 -4 11.2700
-2 -1 -4 13.2100
-2 -1 -4 14.2400
2 1 4 12.6000
0 4 6 8.55000
0 -4 -6 6.93000
0 -3 10 6.34000
0 -3 10 5.48000
0 3 -10 7.46000
0 3 -10 7.42000
2 2 3 5.72000
-2 -2 -3 6.19000
-2 -2 -3 10.1300
-2 -2 -3 6.58000
0 7 -1 13.7900
0 -7 1 13.0400
0 7 -1 14.4300
0 -7 1 13.5300
1 -5 -4 5.38000
1 -5 -4 4.63000
-1 5 4 5.45000
-1 5 4 4.70000
2 2 -7 30.5900
-2 -2 7 30.2600
-2 -2 7 34.4400
2 4 -1 31.1600
-2 -4 1 31.1300
-2 -4 1 32.8100
-2 4 2 10.6000
-2 4 2 10.4000
-2 -4 5 4.21000
2 4 -5 4.37000
-2 -4 5 3.13000
1 -3 -7 31.8300
-1 3 7 35.5200
1 -3 -7 36.3600
-1 3 7 40.3900
-1 2 8 2.30000
1 -2 -8 1.58000
1 -2 -8 2.65000
-1 2 8 3.24000
1 6 -7 6.46000
-1 -6 7 6.30000
0 -1 -9 9.64000
0 1 9 9.75000
0 7 -6 35.1200
0 -7 6 36.0200
0 7 -6 33.5500
-2 0 7 21.7200
2 0 -7 20.3600
-2 0 7 21.0300
-2 3 -5 25.4100
2 -3 5 23.6100
-2 3 -5 23.8600
-2 3 -5 29.9300
2 -4 4 -0.2100
-2 4 -4 -0.2100
-2 4 -4 -0.3900
-2 4 -4 -0.0900
2 -4 4 0.11000
0 1 -10 11.0400
0 -1 10 8.61000
0 -1 10 10.0800
1 -6 -2 5.03000
-1 6 2 6.49000
-1 6 2 7.08000
1 5 3 8.79000
-1 -5 -3 8.38000
-1 -5 -3 9.88000
-1 -2 -7 52.1300
1 2 7 45.8000
-1 -2 -7 43.1700
-1 -3 -6 25.2900
-1 -3 -6 21.8000
1 3 6 26.3300
-2 0 -5 16.1900
-2 0 -5 17.2600
-2 0 -5 17.4200
2 0 5 16.3800
-2 -3 -2 2.65000
-2 -3 -2 4.79000
2 3 2 4.08000
0 -4 10 5.45000
0 4 -10 4.91000
0 -4 10 4.31000
-1 5 -8 3.92000
-1 5 -8 4.38000
-1 5 -8 3.67000
2 3 -7 14.4600
-2 -3 7 14.2600
-2 -3 7 14.3300
1 -2 9 5.27000
-1 2 -9 6.38000
-1 2 -9 5.73000
-1 -2 10 0.04000
-1 -2 10 0.23000
1 2 -10 -0.2200
1 -4 -6 6.31000
-1 4 6 4.67000
-1 4 6 4.61000
1 -4 -6 3.16000
2 4 0 27.0300
-2 -4 0 24.3400
-2 -4 0 26.2500
-1 3 -9 34.8100
-1 3 -9 38.0600
0 -7 0 4.91000
0 -7 0 5.42000
0 7 0 5.02000
0 7 0 4.18000
0 7 0 4.11000
0 7 0 5.33000
-1 1 9 14.4400
1 -1 -9 13.6800
-1 1 9 18.1200
-1 -3 10 19.1300
1 3 -10 16.2500
0 -6 -3 12.1300
0 6 3 11.5600
2 4 -6 1.11000
-2 -4 6 0.62000
-2 -4 6 1.48000
-1 -5 9 10.3500
1 5 -9 10.2600
1 6 1 1.32000
1 6 1 0.58000
-1 -6 -1 0.69000
-1 -6 -1 1.76000
-2 4 3 22.5100
-2 4 3 23.5400
-1 7 -3 7.64000
-1 7 -3 8.31000
-1 6 -7 60.7800
-1 6 -7 57.3800
-1 6 -7 59.9800
-1 6 -7 58.1000
-2 2 6 3.05000
-2 2 6 1.93000
-1 -1 -8 31.0400
-1 -1 -8 23.8300
1 1 8 26.4500
-2 5 -1 4.85000
-2 5 -1 5.60000
2 -5 1 3.46000
-1 -1 10 23.3600
1 1 -10 24.6100
-1 -1 10 25.1300
-1 7 -2 13.4800
-1 7 -2 15.1700
-1 -4 -5 27.4200
1 4 5 30.3600
-1 -4 -5 27.3700
2 -5 2 19.4600
-2 5 -2 19.7500
-2 5 -2 24.6400
2 -5 2 19.3900
1 -1 9 8.71000
1 -1 9 8.99000
-1 1 -9 9.39000
-1 1 -9 10.9000
-1 7 -4 17.8900
-1 7 -4 18.4000
0 7 -7 11.7500
0 -7 7 12.6900
0 7 -7 13.3600
-2 5 0 3.49000
-2 5 0 3.30000
2 -5 0 2.55000
-2 1 7 21.1300
-2 1 7 16.3200
2 -1 -7 15.1000
-2 3 5 0.28000
-2 3 5 0.34000
-1 4 -9 8.62000
-1 4 -9 11.7000
1 6 -8 41.6100
-1 -6 8 40.4700
-2 4 -5 3.80000
-2 4 -5 3.63000
-2 4 -5 7.03000
2 -4 5 3.22000
1 -7 1 3.84000
-1 7 -1 6.22000
-1 7 -1 3.82000
1 -7 1 4.11000
-2 2 -6 14.0900
-2 2 -6 13.4100
0 0 -10 10.0200
0 0 10 9.62000
-2 5 -3 5.62000
2 -5 3 7.23000
-2 5 -3 6.60000
-2 5 -3 7.40000
2 -5 3 6.94000
1 7 -4 0.52000
-1 -7 4 0.46000
1 7 -4 -0.3400
0 6 -9 15.4200
0 -6 9 15.6400
0 6 -9 14.8400
-2 -2 -4 0.57000
-2 -2 -4 2.09000
-2 -2 -4 0.54000
2 2 4 0.73000
1 4 -10 3.72000
-1 -4 10 4.09000
2 2 -8 4.07000
-2 -2 8 6.15000
-2 -2 8 6.14000
2 1 -8 0.89000
-2 -1 8 0.63000
-2 -1 8 1.26000
1 7 -3 12.1200
-1 -7 3 17.1200
1 7 -3 12.8900
2 -1 6 21.7500
-2 1 -6 20.8900
-2 1 -6 17.0100
2 1 5 9.70000
-2 -1 -5 11.8900
-2 -1 -5 7.69000
-2 -1 -5 7.86000
-2 -4 -1 3.11000
-2 -4 -1 4.60000
2 4 1 3.04000
1 7 -5 60.6400
1 7 -5 54.5100
-1 -7 5 58.2700
-1 7 -5 2.20000
-1 7 -5 2.61000
0 -5 10 30.7000
0 -5 10 26.4400
0 5 -10 30.1000
-1 5 5 23.5500
1 -5 -5 23.3000
1 -5 -5 16.1800
-1 5 5 22.2400
-2 5 1 29.0100
2 -5 -1 25.0200
-2 5 1 28.6000
1 -6 -3 8.97000
-1 6 3 10.0000
-1 6 3 9.84000
-2 -5 3 6.85000
2 5 -3 7.69000
-2 -5 3 6.70000
0 7 1 3.06000
0 -7 -1 2.27000
0 -7 -1 2.27000
-2 3 -6 8.08000
-2 3 -6 9.58000
-2 -5 4 13.8600
-2 -5 4 9.54000
2 5 -4 11.9100
-2 -4 7 6.53000
2 4 -7 7.72000
-2 -4 7 8.30000
-2 -3 -3 7.80000
2 3 3 6.85000
-2 -3 -3 7.18000
-1 -7 2 2.46000
1 7 -2 1.03000
1 7 -2 2.99000
-1 0 10 1.33000
-1 0 10 2.25000
0 -3 -8 4.29000
0 3 8 5.68000
0 -3 -8 4.54000
-1 7 0 5.34000
1 -7 0 3.91000
-1 7 0 4.21000
2 5 -2 19.0400
-2 -5 2 22.1500
-2 -5 2 18.6800
-2 -3 8 4.63000
-2 -3 8 6.55000
2 3 -8 3.79000
2 -5 4 25.7700
-2 5 -4 34.0400
-2 5 -4 24.1800
2 -5 4 22.3300
-2 5 -4 26.4000
2 0 -8 6.97000
-2 0 8 5.25000
-2 0 8 8.67000
2 5 -5 15.0900
-2 -5 5 17.7400
-2 -5 5 14.9300
1 0 9 0.61000
1 0 9 0.70000
-1 0 -9 1.03000
-1 0 -9 0.87000
1 7 -6 13.4400
-1 -7 6 13.4900
-2 4 4 1.11000
-2 4 4 2.69000
0 2 9 10.2400
0 -2 -9 8.85000
0 -2 -9 6.54000
-1 -5 -4 0.75000
1 5 4 1.06000
-1 -5 -4 0.47000
1 6 2 7.49000
-1 -6 -2 13.2800
0 4 7 6.39000
0 -4 -7 6.46000
-2 0 -6 16.6900
-2 0 -6 19.4400
2 0 6 21.7000
0 7 -8 55.5300
0 7 -8 52.6000
0 -7 8 58.8500
-1 7 -6 38.1500
-1 7 -6 36.6500
-1 7 -6 42.3500
-1 6 -8 0.75000
-1 6 -8 0.55000
-1 6 -8 0.74000
-1 6 -8 0.91000
-1 3 8 5.27000
1 -3 -8 6.53000
1 -3 -8 3.18000
-1 3 8 5.89000
0 3 -11 8.45000
0 -3 11 8.58000
0 -3 11 10.7700
0 3 -11 9.04000
-1 5 -9 6.19000
-1 5 -9 4.36000
-1 5 -9 4.76000
-2 5 2 8.31000
-2 5 2 6.55000
-2 -5 1 3.73000
2 5 -1 1.60000
-2 -5 1 2.07000
1 7 -1 13.2900
-1 -7 1 12.0000
1 7 -1 10.5000
0 -2 11 2.26000
0 -2 11 2.56000
0 2 -11 2.59000
0 6 4 25.4900
0 -6 -4 23.1100
-1 2 9 10.7700
1 -2 -9 13.1000
-1 2 9 13.7400
2 -4 6 10.5600
-2 4 -6 10.1400
-2 4 -6 13.2500
-2 4 -6 11.1300
2 5 -6 15.2900
-2 -5 6 15.5900
-2 -5 6 11.7400
-1 -5 10 3.59000
1 5 -10 3.71000
-2 2 7 48.6800
-2 2 7 49.8200
-1 -6 9 2.57000
1 6 -9 2.25000
1 -4 -7 40.5800
1 -4 -7 37.8100
-1 4 7 42.7200
-1 4 7 43.4900
-1 -3 -7 31.9500
-1 -3 -7 40.6500
1 3 7 35.5200
0 8 -4 4.55000
0 -8 4 3.46000
0 -8 4 3.45000
2 4 2 3.50000
-2 -4 -2 2.65000
-2 -4 -2 1.76000
1 7 -7 116.900
-1 -7 7 117.480
-1 7 1 23.6400
1 -7 -1 17.3300
-1 7 1 22.1000
0 8 -3 17.5600
0 -8 3 18.8200
0 -8 3 20.5400
0 8 -3 19.2000
-2 3 6 9.56000
-2 3 6 11.5800
-2 5 -5 56.1000
-2 5 -5 71.0100
-2 5 -5 64.9500
-2 5 -5 62.4100
2 -5 5 54.1300
2 -5 5 61.1100
0 -4 11 4.17000
0 4 -11 3.46000
0 4 -11 4.31000
0 -4 11 3.45000
-1 -2 -8 0.73000
-1 -2 -8 1.75000
1 2 8 1.03000
0 1 10 45.4800
0 -1 -10 44.1400
0 -8 5 31.4300
0 8 -5 34.9400
0 8 -5 32.7800
2 4 -8 9.08000
-2 -4 8 9.27000
-2 -4 8 8.90000
0 7 2 6.11000
0 -7 -2 11.4500
-1 3 -10 2.54000
-1 3 -10 2.84000
0 5 6 52.3800
1 2 -11 8.38000
-1 -2 11 9.39000
1 -2 10 1.51000
1 -2 10 1.49000
-1 2 -10 1.85000
-1 2 -10 1.80000
0 -1 11 11.1400
0 1 -11 12.7500
1 3 -11 1.68000
-1 -3 11 1.96000
2 -1 -8 1.65000
-2 1 8 2.14000
-2 1 8 2.54000
0 8 -2 7.76000
0 -8 2 6.04000
-2 2 -7 6.30000
-2 2 -7 1.90000
1 4 6 24.4300
-1 -4 -6 23.5900
-2 -2 -5 3.32000
2 2 5 2.85000
-2 -2 -5 2.37000
-2 -2 -5 1.85000
-2 -2 9 1.92000
2 2 -9 2.16000
-2 -2 9 3.41000
-2 -5 0 21.3800
-2 -5 0 22.2700
2 5 0 19.1500
0 -6 10 12.2800
0 6 -10 13.3900
-1 6 4 10.2000
1 -6 -4 7.57000
1 -1 -10 68.5900
-1 1 10 67.2200
-1 1 10 67.4800
-2 -1 9 0.01000
-2 -1 9 1.27000
2 1 -9 0.09000
-1 -7 0 13.4600
1 7 0 11.8900
1 7 0 14.9200
-1 7 -7 2.16000
-1 7 -7 1.68000
-1 7 -7 1.48000
-1 7 -7 3.24000
-2 3 -7 3.13000
-2 3 -7 2.20000
-2 -5 7 4.25000
-2 -5 7 3.34000
2 5 -7 3.97000
0 8 -6 62.3800
0 -8 6 57.0500
0 8 -6 62.1100
2 -5 -3 0.92000
-2 5 3 1.67000
-2 5 3 1.34000
-2 -3 -4 3.43000
-2 -3 -4 2.89000
2 3 4 3.35000
-2 1 -7 22.0900
-2 1 -7 26.3700
-2 -1 -6 2.66000
-2 -1 -6 2.06000
2 1 6 1.60000
2 -6 2 1.71000
-2 6 -2 1.88000
-2 6 -2 1.98000
-1 4 -10 23.9300
-1 4 -10 12.3800
-2 4 5 3.94000
-2 4 5 4.42000
2 -6 1 2.16000
-2 6 -1 3.06000
-2 6 -1 1.80000
-1 -1 -9 5.30000
-1 -1 -9 5.68000
1 1 9 5.22000
-1 -1 11 15.3700
1 1 -11 17.3700
-2 -3 9 19.3400
-2 -3 9 22.0200
2 3 -9 20.1100
1 4 -11 6.67000
-1 -4 11 7.71000
1 -5 -6 29.4900
-1 5 6 26.7600
1 -5 -6 20.7700
-1 5 6 23.3900
-1 1 -10 3.59000
1 -1 10 4.77000
1 -1 10 4.37000
-1 1 -10 5.31000
-2 6 -3 0.55000
-2 6 -3 -0.6800
2 -6 3 1.78000
0 7 -9 49.5200
0 7 -9 47.2000
0 -7 9 54.9000
0 8 -1 15.3500
0 8 -1 12.8400
0 8 -1 13.6000
0 -8 1 15.6400
0 -8 1 14.2000
1 6 3 12.5900
-1 -6 -3 14.1400
-1 -7 8 3.04000
1 7 -8 3.64000
0 5 -11 0.67000
0 -5 11 1.58000
2 -6 0 1.37000
-2 6 0 1.42000
2 -6 0 1.34000
-2 6 0 1.37000
-1 7 2 68.9600
-1 7 2 67.5700
1 -7 -2 60.3900
-2 5 -6 20.8200
-2 5 -6 21.4300
-2 5 -6 18.9900
-2 5 -6 18.9400
-2 5 -6 25.0500
2 0 -9 0.34000
-2 0 9 1.14000
-2 0 9 1.78000
-1 6 -9 4.75000
-1 6 -9 4.16000
-1 6 -9 5.95000
-1 6 -9 5.11000
-1 -5 -5 16.0100
1 5 5 13.7900
-1 -5 -5 12.9800
-2 4 -7 10.1500
-2 4 -7 9.42000
2 -6 4 18.1800
-2 6 -4 19.4300
-2 6 -4 19.9300
0 8 -7 30.5900
0 -8 7 30.5600
0 8 -7 31.0900
0 0 -11 3.77000
0 0 11 2.61000
-2 -4 -3 3.81000
-2 -4 -3 3.46000
2 4 3 2.54000
-2 -5 -1 8.48000
2 5 1 7.62000
-2 -5 -1 7.68000
-2 0 -7 10.1800
-2 0 -7 10.8400
-2 -6 4 10.2700
2 6 -4 7.32000
-2 -6 4 8.12000
1 6 -10 1.57000
-1 -6 10 1.46000
-1 8 -3 4.23000
-1 8 -3 4.78000
-2 -6 3 13.4800
-2 -6 3 10.0000
2 6 -3 12.5400
0 -6 -5 34.8600
0 6 5 39.9900
-1 8 -4 13.8800
-1 8 -4 17.5000
-2 6 1 9.29000
2 -6 -1 9.10000
-2 6 1 10.1000
2 -6 -1 8.14000
-2 -6 5 15.1100
-2 -6 5 15.2000
2 6 -5 13.8500
-1 5 -10 7.63000
-1 5 -10 8.27000
-1 5 -10 8.09000
2 4 -9 6.07000
-2 -4 9 5.02000
-2 -4 9 7.63000
1 7 1 0.30000
-1 -7 -1 0.77000
1 7 1 -0.2400
2 5 -8 3.35000
-2 -5 8 2.72000
-2 -5 8 3.26000
0 7 3 14.9800
0 -7 -3 14.9800
0 3 9 4.34000
0 -3 -9 3.71000
0 -3 -9 4.80000
-1 8 -2 16.5900
-1 8 -2 13.2800
-1 0 11 21.7200
1 0 -11 19.6000
0 -8 0 7.31000
0 8 0 7.25000
0 -8 0 7.40000
0 8 0 8.78000
0 8 0 6.82000
-1 7 -8 17.7400
-1 7 -8 18.7600
-1 7 -8 18.0700
-1 7 -8 17.6500
-2 3 7 0.90000
-2 3 7 2.01000
-2 2 8 17.4800
-2 2 8 14.3300
1 5 -11 0.40000
-1 -5 11 0.55000
-2 5 4 5.31000
-2 5 4 5.84000
2 -5 -4 5.67000
0 4 8 2.50000
0 -4 -8 2.01000
1 0 10 3.60000
-1 0 -10 4.29000
-1 0 -10 6.02000
1 0 10 4.11000
-2 -6 2 5.72000
-2 -6 2 7.45000
2 6 -2 6.26000
-1 8 -5 3.13000
-1 8 -5 4.06000
-2 6 -5 20.9200
-2 6 -5 23.7000
-2 6 -5 20.0200
-2 6 -5 26.4600
-2 6 -5 25.7400
1 -3 -9 8.44000
-1 3 9 7.01000
-1 3 9 9.05000
2 6 -6 47.0400
-2 -6 6 68.5100
-2 -6 6 64.5400
0 -2 -10 71.9300
0 2 10 76.2400
1 8 -4 0.05000
-1 -8 4 0.38000
-1 -8 5 0.64000
1 8 -5 1.73000
1 -8 1 8.27000
-1 8 -1 9.86000
-1 8 -1 10.0100
1 7 -9 25.6700
-1 -7 9 25.7200
1 -6 -5 1.48000
-1 6 5 2.38000
-1 6 5 2.54000
1 -6 -5 2.54000
-3 0 2 1.71000
3 0 -2 1.46000
-3 0 2 0.71000
-3 0 1 -0.2200
-3 0 1 -0.3400
3 0 -1 0.27000
0 -3 12 112.590
0 3 -12 115.480
0 3 -12 110.520
-1 4 8 33.6000
-1 4 8 35.0800
1 -4 -8 24.4400
1 -4 -8 33.4800
1 8 -3 3.76000
-1 -8 3 5.89000
1 8 -3 6.37000
3 -1 -1 11.0800
-3 1 1 13.6700
-3 1 1 12.3200
0 8 -8 2.00000
0 -8 8 1.60000
0 8 -8 1.43000
-2 4 6 54.9400
-2 4 6 60.0400
2 2 6 4.03000
-2 -2 -6 5.52000
-2 -2 -6 3.65000
-2 2 -8 24.6600
-2 2 -8 21.9500
-2 1 9 17.9000
-2 1 9 14.8800
2 2 -10 0.76000
-2 -2 10 1.73000
-2 -2 10 0.69000
1 -2 -10 1.15000
-1 2 10 0.76000
1 3 8 6.45000
-1 -3 -8 4.71000
-1 -3 -8 5.29000
-3 1 2 4.81000
-3 1 2 5.49000
3 -1 -2 6.59000
0 6 -11 1.37000
0 -6 11 2.16000
-2 3 -8 15.7900
-2 3 -8 14.9500
2 3 5 25.0000
-2 -3 -5 27.7100
-2 -3 -5 26.6500
0 -2 12 5.22000
0 2 -12 3.62000
-3 0 3 1.98000
-3 0 3 1.87000
3 0 -3 3.49000
1 8 -6 17.4900
-1 -8 6 16.4400
-2 6 2 11.3700
2 -6 -2 9.94000
-2 6 2 7.80000
-3 1 0 0.76000
3 -1 0 0.85000
-3 1 0 -0.0300
-1 7 3 24.1000
-1 7 3 24.1300
0 7 -10 3.56000
0 -7 10 2.90000
0 7 -10 2.34000
-2 5 -7 21.4600
-2 5 -7 18.1800
2 6 -1 1.44000
-2 -6 1 1.34000
-2 -6 1 1.70000
-3 -1 2 6.56000
3 1 -2 8.06000
-3 -1 2 9.50000
3 0 0 12.8600
-3 0 0 9.22000
-3 0 0 12.2400
-1 8 -6 7.01000
-1 8 -6 11.0200
0 5 7 96.7000
0 -4 12 7.32000
0 4 -12 8.00000
0 4 -12 8.15000
-2 -3 10 7.79000
2 3 -10 6.53000
-2 -3 10 7.96000
2 1 -10 5.36000
-2 -1 10 3.68000
-2 -1 10 3.37000
3 1 -3 11.0100
-3 -1 3 11.2400
-3 -1 3 13.1100
3 1 -1 5.58000
-3 -1 1 4.13000
-3 -1 1 3.76000
1 2 9 31.8200
-1 -2 -9 27.5900
-1 -2 -9 24.8300
-1 -4 -7 13.9800
-1 -4 -7 14.8500
1 4 7 12.0700
-2 -5 -2 11.0700
-2 -5 -2 8.83000
2 5 2 9.45000
-1 -6 -4 10.6200
1 6 4 9.09000
-1 3 -11 1.88000
-1 3 -11 3.61000
1 8 -2 -0.1100
1 8 -2 0.53000
-1 -8 2 -0.0200
-2 -1 -7 6.15000
2 1 7 5.82000
-2 -1 -7 10.8000
2 6 -7 19.1000
-2 -6 7 17.0700
-2 -6 7 18.8500
-2 1 -8 2.97000
-2 1 -8 1.50000
-1 -3 12 5.91000
1 3 -12 6.54000
-3 1 3 2.95000
3 -1 -3 2.02000
-3 1 3 1.37000
1 -8 0 24.4400
1 -8 0 27.4900
-1 8 0 29.8100
-1 8 0 31.1700
0 -8 -1 57.5800
0 8 1 50.3900
-1 -2 12 49.6600
1 2 -12 45.5800
1 -2 11 37.6400
-1 2 -11 21.5400
-1 2 -11 36.3200
3 -2 -1 13.0300
-3 2 1 8.74000
-3 2 1 13.4800
3 -1 1 0.70000
-3 1 -1 1.39000
-3 1 -1 0.77000
-3 2 0 10.8500
3 -2 0 11.0300
-3 2 0 13.9000
0 -1 -11 0.03000
0 1 11 -0.0100
-3 0 4 16.8600
-3 0 4 14.2900
3 0 -4 13.3500
1 -5 -7 2.22000
-1 5 7 4.76000
-1 5 7 5.05000
1 -5 -7 6.58000
-2 6 -6 0.74000
-2 6 -6 2.25000
-2 6 -6 1.19000
-2 6 -6 3.05000
-2 6 -6 1.55000
-3 -1 4 0.21000
3 1 -4 0.59000
-3 -1 4 0.03000
-2 -5 9 4.72000
2 5 -9 7.07000
-2 -5 9 5.16000
-2 4 -8 2.51000
-2 4 -8 3.60000
1 8 -7 16.3300
-1 -8 7 15.5600
1 7 2 4.28000
-1 -7 -2 4.85000
-1 4 -11 2.70000
-1 4 -11 4.06000
3 0 1 7.64000
-3 0 -1 6.29000
-3 0 -1 4.63000
3 1 0 14.3800
-3 -1 0 12.5200
-3 -1 0 14.7700
-2 -4 -4 0.28000
2 4 4 0.33000
-1 6 -10 13.2400
-1 6 -10 12.1700
-1 6 -10 15.9900
3 -2 -2 5.35000
-3 2 2 8.56000
-3 2 2 10.7700
0 -1 12 20.3900
0 1 -12 19.8000
1 4 -12 12.6600
-1 -4 12 12.1900
-1 1 11 99.1000
1 -1 -11 100.190
-3 2 -1 9.88000
-3 2 -1 5.60000
3 -2 1 5.83000
-1 7 -9 15.0300
-1 7 -9 14.3900
-1 7 -9 12.0800
-1 7 -9 12.9700
3 2 -3 73.0600
-3 -2 3 77.8600
-3 -2 3 76.4100
-3 -2 2 48.0300
3 2 -2 50.3000
-3 -2 2 52.3300
-2 -4 10 1.44000
-2 -4 10 2.22000
2 4 -10 1.45000
2 -5 -5 1.93000
-2 5 5 3.54000
-2 5 5 3.17000
0 5 -12 0.35000
0 -5 12 0.52000
1 6 -11 8.82000
-1 -6 11 9.39000
-2 0 10 59.3100
-2 0 10 57.5600
2 0 -10 59.6700
2 6 0 27.0300
-2 -6 0 26.6100
-2 -6 0 26.2800
3 -1 -4 10.2200
-3 1 4 10.4400
-3 1 4 8.21000
-1 8 -7 15.7800
-1 8 -7 14.8200
1 1 10 7.71000
1 1 10 8.06000
-1 -1 -10 8.56000
-1 -1 -10 6.08000
1 5 6 29.0200
-1 -5 -6 34.5400
-1 -5 -6 29.6100
-1 -8 1 2.56000
1 8 -1 1.37000
1 8 -1 2.34000
0 7 4 7.29000
0 -7 -4 7.75000
-1 -1 12 59.7200
-2 7 -2 -0.4100
2 -7 2 0.83000
-2 7 -2 0.45000
0 -8 9 13.3200
0 8 -9 10.5800
0 8 -9 14.6400
-2 7 -3 5.44000
2 -7 3 5.04000
-2 7 -3 7.21000
2 -6 -3 27.0900
-2 6 3 26.3300
-2 6 3 26.5100
1 -1 11 4.83000
1 -1 11 3.96000
-1 1 -11 5.77000
-1 1 -11 3.85000
-3 -2 4 2.39000
-3 -2 4 1.50000
3 2 -4 3.31000
-3 1 -2 43.5500
-3 1 -2 47.1900
3 -1 2 49.5000
3 2 -1 27.2000
-3 -2 1 24.5300
-3 -2 1 27.4700
-3 2 3 10.5400
3 -2 -3 12.9900
-3 2 3 13.1400
-3 -1 5 34.8200
-3 -1 5 30.5300
3 1 -5 32.2600
-2 0 -8 3.21000
2 0 8 3.33000
-2 0 -8 1.43000
-2 7 -1 16.7800
2 -7 1 16.9900
-2 7 -1 20.7200
-1 -7 10 15.2300
1 7 -10 16.5500
-2 -6 8 40.5400
-2 -6 8 43.8600
2 6 -8 42.1000
-3 0 5 6.74000
-3 0 5 7.34000
3 0 -5 6.33000
3 1 1 9.14000
-3 -1 -1 11.6300
-3 -1 -1 8.07000
0 6 6 1.94000
0 -6 -6 4.54000
0 9 -4 3.12000
0 -9 4 2.95000
0 -9 4 3.09000
-3 2 -2 10.1300
3 -2 2 10.5500
-3 2 -2 13.5200
-1 8 1 8.27000
1 -8 -1 6.92000
1 -8 -1 10.4300
-1 8 1 6.65000
0 9 -5 15.5300
0 -9 5 11.8300
-2 3 8 6.69000
-2 3 8 6.92000
-3 0 -2 26.4100
-3 0 -2 25.3300
3 0 2 24.8500
-1 -8 8 6.30000
1 8 -8 4.16000
-1 5 -11 19.1700
-1 5 -11 21.4100
-1 5 -11 23.3300
-2 7 -4 3.67000
-2 7 -4 3.01000
-2 7 -4 3.00000
-3 3 0 17.1200
-3 3 0 19.3300
0 9 -3 1.24000
0 -9 3 1.37000
0 -9 3 1.83000
-3 3 1 24.9300
-3 3 1 24.6300
-2 2 9 12.1800
-2 2 9 13.4900
-3 3 -1 43.5800
-3 3 -1 48.6100
1 5 -12 27.7400
-1 -5 12 27.4800
3 2 -5 8.25000
-3 -2 5 9.61000
-3 -2 5 7.57000
-1 7 4 2.86000
-2 7 0 11.2300
-2 7 0 9.71000
2 -7 0 8.06000
3 2 0 60.9600
-3 -2 0 60.6300
-3 -2 0 63.7100
-2 5 -8 10.6000
-2 5 -8 13.8700
0 -9 6 4.00000
0 9 -6 4.68000
1 -6 -6 50.2300
-1 6 6 42.2300
-1 6 6 50.0600
-2 4 7 84.4700
2 -4 -7 81.1500
-2 4 7 80.4000
0 8 2 31.0500
0 -8 -2 37.6300
-2 6 -7 21.7800
-2 6 -7 21.0500
-2 6 -7 23.2500
-2 6 -7 30.8000
-2 6 -7 25.1700
-2 -5 -3 12.2000
-2 -5 -3 14.1000
2 5 3 12.0800
-3 1 5 0.21000
-3 1 5 0.79000
3 -1 -5 0.15000
-3 3 2 17.9200
-3 3 2 20.0800
-3 2 4 9.03000
-3 2 4 12.5600
0 0 -12 49.3100
0 0 12 51.1100
0 7 -11 6.84000
0 -7 11 7.22000
0 -9 2 0.49000
0 9 -2 0.68000
0 9 -2 0.61000
0 9 -2 0.82000
0 -9 2 1.35000
1 8 0 14.3200
-1 -8 0 13.6300
-2 -7 4 4.63000
-2 -7 4 3.69000
2 7 -4 4.82000
-2 -7 5 33.8000
-2 -7 5 36.7100
2 7 -5 39.9200
-2 7 -5 38.3200
-2 7 -5 31.7800
-2 7 -5 35.5600
-2 7 -5 43.1500
-1 8 -8 3.81000
-1 8 -8 3.69000
2 3 6 42.4800
-2 -3 -6 46.1700
-2 -3 -6 39.9300
-3 -3 3 14.0700
-3 -3 3 12.5700
3 3 -3 12.5000
-3 1 -3 19.6900
-3 1 -3 13.7200
3 -1 3 18.3300
-3 3 -2 2.42000
-3 3 -2 2.44000
-2 -6 -1 2.35000
-2 -6 -1 1.17000
2 6 1 3.09000
-2 -2 -7 1.90000
2 2 7 3.84000
-2 -2 -7 4.24000
0 -3 -10 11.7600
0 3 10 9.75000
-3 -1 6 10.6000
-3 -1 6 8.86000
3 1 -6 8.07000
-2 3 -9 17.9000
-2 3 -9 22.1500
0 4 9 3.63000
0 -4 -9 1.14000
2 2 -11 6.99000
-2 -2 11 7.17000
-2 -2 11 7.53000
1 0 -12 29.1600
-1 0 12 25.7000
-2 2 -9 16.7500
-2 2 -9 12.7800
-2 -5 10 2.50000
2 5 -10 2.82000
-2 -5 10 2.37000
-3 2 -3 7.28000
-3 2 -3 7.10000
-3 -3 2 29.9800
3 3 -2 30.6400
-3 -3 2 27.5000
3 3 -4 36.0400
-3 -3 4 38.8200
-3 -3 4 47.1300
-2 1 10 57.0600
-2 1 10 64.0000
3 1 2 22.9400
-3 -1 -2 19.1900
-3 -1 -2 17.0200
2 7 -3 0.91000
-2 -7 3 0.87000
-2 -7 3 1.03000
-1 -7 -3 34.5400
1 7 3 33.6000
0 6 -12 10.7200
0 -6 12 11.2400
-2 -3 11 12.9600
2 3 -11 9.38000
-2 -3 11 11.6700
3 0 -6 3.04000
-3 0 6 1.12000
-3 0 6 2.20000
-1 3 10 0.30000
1 -3 -10 0.93000
-1 0 -11 1.93000
1 0 11 2.14000
-1 0 -11 5.09000
1 0 11 1.16000
-1 -6 -5 80.7300
1 6 5 80.8000
0 -9 7 7.63000
0 9 -7 7.12000
0 9 -7 6.87000
-2 -7 6 1.24000
-2 -7 6 0.83000
2 7 -6 0.80000
-1 4 9 14.9600
1 -4 -9 12.1500
2 -7 -1 24.2000
-2 7 1 29.7300
-2 7 1 29.6200
3 2 -6 7.38000
-3 -2 6 9.05000
-3 -2 6 9.43000
2 6 -9 2.89000
-2 -6 9 3.02000
-2 -6 9 3.02000
-3 -2 -1 15.1100
-3 -2 -1 14.9400
3 2 1 14.4800
-2 6 4 5.77000
-2 6 4 5.64000
2 -6 -4 4.77000
-3 3 3 0.38000
-3 3 3 0.24000
-3 0 -3 4.20000
3 0 3 4.42000
-3 0 -3 5.10000
-2 -1 11 0.45000
2 1 -11 0.26000
-2 -1 11 0.70000
1 8 -9 33.7500
-1 -8 9 35.3800
2 4 5 1.24000
-2 -4 -5 1.95000
-2 -4 -5 1.76000
-2 4 -9 17.8100
-2 4 -9 11.9200
-3 -3 1 18.3800
-3 -3 1 23.4700
3 3 -1 21.8300
-3 -3 5 39.3100
-3 -3 5 41.7100
3 3 -5 34.8900
0 2 11 30.7600
0 -2 -11 28.4100
-1 8 2 60.8900
-1 8 2 69.1300
1 -8 -2 65.1600
-1 7 -10 100.830
-1 7 -10 109.870
-1 7 -10 106.500
0 8 -10 19.1700
0 -8 10 19.9500
-2 -1 -8 17.0100
-2 -1 -8 7.45000
0 -9 1 25.9700
0 -9 1 32.7300
0 9 -1 27.4400
0 9 -1 30.4300
0 -5 -8 3.73000
-2 1 -9 2.28000
-2 1 -9 3.42000
-1 -3 -9 50.2800
-1 -3 -9 69.1300
1 3 9 56.3500
-2 5 6 1.20000
-2 5 6 0.77000
2 -5 -6 1.22000
-2 -7 2 1.59000
-2 -7 2 1.83000
2 7 -2 1.34000
0 -3 13 89.1200
0 3 -13 83.4200
-1 2 11 1.98000
1 -2 -11 2.23000
-3 3 -3 2.49000
-3 3 -3 2.16000
-1 6 -11 2.17000
-1 6 -11 1.64000
-1 6 -11 0.92000
-1 -4 -8 24.4200
1 4 8 26.9400
-1 -4 -8 34.1000
-1 9 -4 7.45000
-1 9 -4 11.7500
-2 -4 11 19.3500
-2 -4 11 18.7100
2 4 -11 18.5700
0 4 -13 2.87000
0 4 -13 3.24000
0 -4 13 1.79000
-3 2 5 1.23000
-3 2 5 2.49000
-1 9 -3 8.62000
-1 9 -3 5.67000
-2 7 -6 42.9200
-2 7 -6 49.9900
-2 7 -6 44.5200
2 7 -7 10.5200
-2 -7 7 8.71000
-2 -7 7 9.53000
-3 4 0 8.92000
-3 4 0 10.3900
1 -5 -8 5.17000
-1 5 8 4.26000
1 -5 -8 1.59000
3 -1 -6 8.88000
-3 1 6 10.7300
-3 1 6 12.3600
-1 -7 11 7.71000
1 7 -11 7.17000
-3 4 -1 8.51000
-3 4 -1 9.86000
0 2 -13 0.69000
0 -2 13 0.74000
0 7 5 88.4200
0 -7 -5 79.6600
-1 3 -12 17.7500
-1 3 -12 23.1800
1 6 -12 8.08000
-1 -6 12 8.44000
-1 -2 -10 6.94000
1 2 10 10.4600
-1 -2 -10 10.2700
-1 -3 13 5.30000
1 3 -13 6.36000
-1 9 -5 14.8800
-1 9 -5 13.9900
-3 4 1 5.30000
-3 4 1 7.09000
0 -9 8 4.99000
0 9 -8 5.24000
-1 9 -2 15.2100
-1 9 -2 14.1900
1 8 1 5.26000
-1 -8 -1 3.09000
3 3 0 12.3100
-3 -3 0 13.7400
-3 -3 0 12.1700
3 3 -6 3.55000
-3 -3 6 4.50000
-3 -3 6 3.53000
-1 4 -12 43.9800
-1 4 -12 58.6600
3 1 -7 3.86000
-3 -1 7 4.54000
-3 -1 7 2.98000
-3 2 -4 20.9200
-3 2 -4 18.5700
-3 1 -4 15.1300
-3 1 -4 26.9900
3 -1 4 21.5600
-2 6 -8 7.05000
-2 6 -8 8.24000
1 2 -13 15.8700
-1 -2 13 15.5400
-3 4 -2 43.4800
-3 4 -2 53.2400
-1 2 -12 40.1300
1 -2 12 33.4200
-1 2 -12 41.6400
-2 7 2 8.49000
-2 7 2 9.01000
-3 3 4 2.72000
-3 3 4 2.98000
1 4 -13 30.6800
-1 -4 13 33.1300
-2 0 11 73.4500
2 0 -11 71.1300
-2 0 11 69.4100
3 1 3 4.25000
-3 -1 -3 8.76000
-3 -1 -3 2.96000
0 8 3 22.3500
0 -8 -3 25.9200
-2 -7 1 0.82000
-2 -7 1 0.34000
2 7 -1 0.46000
1 5 7 10.9400
-1 -5 -7 11.8900
-1 -5 -7 9.52000
-1 8 -9 2.66000
-1 8 -9 1.42000
-1 8 -9 1.97000
3 2 -7 4.97000
-3 -2 7 1.96000
-3 -2 7 2.16000
1 9 -5 4.78000
-1 -9 5 5.02000
2 6 2 0.35000
-2 -6 -2 0.80000
-2 -6 -2 0.27000
-3 -2 -2 4.49000
-3 -2 -2 4.53000
3 2 2 5.06000
1 9 -4 5.11000
-1 -9 4 4.27000
-1 7 5 1.47000
-1 7 5 0.53000
-1 9 -6 88.9400
-1 9 -6 99.2400
-3 0 7 8.36000
3 0 -7 8.14000
-3 0 7 8.65000
-2 5 -9 24.4000
-2 5 -9 21.8700
0 -5 13 31.6300
0 5 -13 27.0600
0 5 -13 28.3900
2 5 4 8.48000
-2 -5 -4 8.29000
-2 -5 -4 5.64000
-3 4 2 14.6700
-3 4 2 19.1400
0 9 0 10.1600
0 -9 0 11.0900
0 9 0 7.77000
0 -1 -12 19.1400
0 1 12 23.3500
-1 -9 6 40.1600
1 9 -6 35.9500
-2 0 -9 0.32000
-2 0 -9 0.60000
2 0 9 0.23000
-2 3 9 12.8400
-2 3 9 14.4900
0 -6 -7 -0.2200
0 6 7 0.14000
-3 3 -4 11.6500
-3 3 -4 8.80000
1 -1 -12 32.2700
-1 1 12 36.5700
-2 -7 8 20.3000
2 7 -8 21.8300
-2 -7 8 20.9600
3 4 -3 0.61000
-3 -4 3 1.73000
-3 -4 3 2.34000
-3 -4 4 10.2800
3 4 -4 8.72000
-3 -4 4 5.77000
-1 9 -1 29.2200
-1 9 -1 30.2600
-3 0 -4 -0.0300
-3 0 -4 0.82000
3 0 4 2.34000
0 -1 13 18.4000
0 1 -13 19.1100
1 9 -3 6.01000
-1 -9 3 6.33000
-3 4 -3 19.9900
-3 4 -3 16.5400
-1 -8 10 34.2500
1 8 -10 43.2000
2 6 -10 7.17000
-2 -6 10 5.73000
-2 -6 10 4.63000
-2 4 8 9.01000
2 -4 -8 10.7700
-2 4 8 10.5500
-1 5 -12 -1.0300
-1 5 -12 1.28000
-2 2 10 1.37000
-2 2 10 1.26000
-1 -1 -11 16.1800
1 1 11 10.7400
-1 -1 -11 9.29000
2 5 -11 5.37000
-2 -5 11 6.55000
-2 -5 11 4.92000
3 4 -2 31.6800
-3 -4 2 38.2200
-3 -4 2 33.2300
-1 -1 13 32.3400
1 1 -13 36.7800
-2 7 -7 29.4500
-2 7 -7 32.2500
-2 7 -7 31.3700
-3 -4 5 25.0500
-3 -4 5 27.3300
3 4 -5 28.9200
1 -6 -7 112.480
-1 6 7 103.630
0 -7 12 10.9200
0 7 -12 10.4600
-1 8 3 25.7800
-1 8 3 24.8400
-1 8 3 19.6200
2 -6 -5 4.11000
-2 6 5 4.72000
-2 6 5 3.84000
1 9 -7 43.2400
-1 -9 7 41.9300
-1 1 -12 10.3500
1 -1 12 9.89000
-1 1 -12 11.1100
-1 -7 -4 38.2500
1 7 4 29.3800
-3 -3 -1 2.46000
3 3 1 0.91000
-3 -3 -1 1.10000
1 5 -13 40.0900
-1 -5 13 36.5600
-3 2 6 10.9900
-3 2 6 7.14000
-3 -3 7 3.77000
3 3 -7 5.97000
-3 -3 7 8.69000
-1 9 -7 57.9500
-1 9 -7 59.0800
0 9 -9 0.54000
0 -9 9 0.11000
-3 4 3 6.00000
-3 4 3 3.81000
-2 8 -3 8.17000
-2 8 -3 8.32000
3 -1 -7 7.63000
-3 1 7 6.72000
-3 1 7 6.91000
0 -8 11 68.2100
0 8 -11 69.6600
-2 8 -2 7.23000
-2 8 -2 5.40000
-2 -3 -7 16.5600
-2 -3 -7 23.1800
2 3 7 20.4500
-2 -7 0 10.3600
-2 -7 0 9.57000
2 7 0 9.41000
1 9 -2 21.0000
-1 -9 2 20.3000
-3 3 5 9.49000
-3 3 5 5.77000
-2 3 -10 0.15000
-2 3 -10 2.01000
-3 -4 1 33.8700
-3 -4 1 28.7300
3 4 -1 34.3400
-2 8 -4 10.3000
-2 8 -4 10.2300
-2 -2 -8 7.58000
-2 -2 -8 9.08000
2 2 8 7.33000
2 -7 -3 19.3700
-2 7 3 18.4100
-2 7 3 19.1800
-3 -4 6 2.04000
3 4 -6 1.50000
-3 -4 6 1.27000
-3 2 -5 6.76000
-3 2 -5 12.0900
-2 -2 12 9.78000
-2 -2 12 9.76000
2 2 -12 10.3700
2 3 -12 0.64000
-2 -3 12 3.23000
-2 -3 12 1.04000
1 -9 0 108.060
-1 9 0 114.650
-1 9 0 112.190
1 6 6 21.5000
-1 -6 -6 18.6800
-1 7 -11 24.0800
-1 7 -11 22.9500
-1 7 -11 22.9100
-2 2 -10 4.97000
-2 2 -10 0.87000
-3 -1 8 10.6700
-3 -1 8 7.42000
3 1 -8 7.86000
-2 8 -1 6.64000
-2 8 -1 6.81000
-2 5 7 9.95000
-2 5 7 12.0200
2 -5 -7 12.5300
1 8 2 12.3200
-1 -8 -2 15.5600
-3 4 -4 13.1600
-3 4 -4 11.8800
-3 1 -5 16.4500
-3 1 -5 17.6700
3 -1 5 18.6100
3 2 -8 2.05000
-3 -2 8 2.54000
-3 -2 8 3.00000
-2 -4 -6 11.3600
-2 -4 -6 16.1500
2 4 6 15.3500
0 6 -13 8.09000
0 -6 13 8.84000
-2 1 11 18.4100
-2 1 11 15.5700
3 2 3 1.54000
-3 -2 -3 0.38000
-3 -2 -3 0.21000
-2 -7 9 15.3700
2 7 -9 15.7900
-2 -7 9 12.7400
0 9 1 31.0300
0 -9 -1 35.4800
-2 4 -10 2.64000
-2 4 -10 3.29000
-3 -1 -4 6.14000
3 1 4 8.23000
-3 -1 -4 8.36000
-3 5 -1 5.84000
-3 5 -1 8.36000
1 9 -8 18.5100
-1 -9 8 21.1600
-3 5 0 24.8800
-3 5 0 23.1300
-3 3 -5 18.8100
-3 3 -5 14.5600
-1 -7 12 5.95000
1 7 -12 2.68000
-2 8 -5 30.6900
-2 8 -5 28.3400
-3 5 -2 10.6100
-3 5 -2 8.13000
-2 6 -9 38.0900
-2 6 -9 35.3200
0 4 10 11.6700
-1 8 -10 26.4700
-1 8 -10 23.3500
-1 8 -10 23.6700
-3 0 8 9.65000
-3 0 8 10.7300
3 0 -8 9.20000
-2 -1 12 36.5100
2 1 -12 53.5100
-2 -1 12 54.1000
2 4 -12 27.6700
-2 -4 12 28.0300
-2 -4 12 29.4400
-2 -6 -3 1.70000
2 6 3 1.52000
-2 -6 -3 1.27000
0 0 13 76.8200
0 0 -13 83.0800
1 -4 -10 3.96000
-1 4 10 3.92000
-1 6 -12 2.49000
-1 6 -12 2.06000
-1 6 -12 2.15000
0 3 11 0.78000
0 -3 -11 0.19000
-3 5 1 3.46000
-3 5 1 3.80000
-2 -1 -9 10.3800
2 1 9 9.41000
-2 -1 -9 11.4400
-1 0 13 32.3400
1 0 -13 38.0600
-2 8 0 32.1000
-2 8 0 37.1600
1 -3 -11 10.8100
-1 3 11 12.3800
1 9 -1 7.43000
-1 -9 1 7.85000
-1 9 -8 2.41000
-1 9 -8 2.29000
0 -8 -4 17.1900
0 8 4 20.1700
-2 1 -10 1.76000
-2 1 -10 6.32000
-3 -4 0 11.5600
-3 -4 0 14.9700
3 4 0 9.80000
-3 4 4 4.20000
-3 4 4 2.16000
-3 -3 -2 20.6700
-3 -3 -2 14.8000
3 3 2 19.8600
0 -7 -6 106.380
0 7 6 108.970
3 3 -8 2.90000
-3 -3 8 3.02000
-3 -3 8 2.31000
-3 -4 7 2.03000
-3 -4 7 2.18000
3 4 -7 1.51000
-3 0 -5 19.4700
-3 0 -5 19.3800
3 0 5 16.9000
-2 7 -8 0.30000
-2 7 -8 0.40000
-2 7 -8 0.36000
-2 -8 5 0.91000
2 8 -5 0.99000
-2 -8 5 1.06000
-1 0 -12 4.75000
-1 0 -12 3.41000
1 0 12 3.88000
1 6 -13 1.35000
-1 -6 13 1.84000
0 5 9 1.91000
0 -5 -9 0.09000
2 8 -4 2.51000
-2 -8 4 0.90000
-2 -8 4 2.11000
-3 5 -3 27.4000
-3 5 -3 28.7200
1 8 -11 20.9100
-1 -8 11 21.8600
0 10 -5 4.92000
-2 -8 6 30.0100
2 8 -6 31.1500
-2 -8 6 31.0900
0 10 -4 11.1100
-1 5 9 6.09000
1 -5 -9 8.23000
-1 -4 -9 4.54000
1 4 9 3.36000
-1 -4 -9 3.16000
2 5 5 15.4900
-2 -5 -5 13.5700
-2 -5 -5 15.4400
2 6 -11 5.03000
-2 -6 11 4.48000
-2 -6 11 3.91000
-1 -3 -10 4.93000
-1 -3 -10 7.75000
1 3 10 7.15000
-3 2 7 2.64000
-3 2 7 5.31000
-2 -7 -1 9.68000
-2 -7 -1 9.63000
2 7 1 14.2400
-1 7 6 12.2600
0 -9 10 8.31000
-1 9 1 5.41000
-1 9 1 4.40000
1 -9 -1 2.67000
-2 5 -10 8.70000
-2 5 -10 7.20000
-2 8 -6 7.60000
-2 8 -6 9.54000
0 10 -6 43.0700
-3 5 2 1.42000
-3 5 2 1.78000
-3 4 -5 2.66000
-3 4 -5 2.06000
-1 8 4 7.25000
0 -2 -12 14.6500
0 2 12 19.7300
-1 -9 9 6.62000
1 9 -9 6.34000
-2 -8 3 1.92000
2 8 -3 1.38000
-2 -8 3 0.29000
0 3 -14 11.9600
0 -3 14 14.6300
-3 3 6 10.9000
-3 3 6 12.1800
3 5 -4 15.5500
-3 -5 4 13.2600
-3 -5 4 14.1300
-1 2 12 1.51000
1 -2 -12 1.59000
0 -4 14 21.1200
0 4 -14 19.7100
0 4 -14 22.0300
0 -10 3 25.9800
0 10 -3 28.6900
3 5 -3 4.98000
-3 -5 3 9.08000
-3 -5 3 4.33000
-2 6 6 16.5200
-2 6 6 15.7700
2 -6 -6 17.3100
-3 -5 5 2.59000
3 5 -5 2.22000
3 -1 -8 30.3400
-3 1 8 29.2700
-3 1 8 28.2900
2 8 -7 24.5500
-2 -8 7 27.4500
-2 -8 7 26.5200
-2 7 4 3.65000
2 -7 -4 3.85000
-2 7 4 2.48000
-1 3 -13 25.0200
-1 3 -13 24.9400
1 3 -14 6.39000
-1 -3 14 5.61000
-2 8 1 111.310
-2 8 1 113.530
-2 0 12 14.4900
-2 0 12 16.7000
-2 -5 12 0.67000
-2 -5 12 -0.2400
2 5 -12 -0.0100
-1 -5 -8 3.94000
-1 -5 -8 3.81000
1 5 8 4.21000
-1 4 -13 71.9000
-1 4 -13 78.0000
-2 -7 10 2.88000
-2 -7 10 2.30000
2 7 -10 3.25000
-1 -2 -11 21.6700
-1 -2 -11 24.2400
1 2 11 25.6200
-3 2 -6 12.1800
-3 2 -6 10.5600
-3 5 -4 1.31000
-3 5 -4 0.58000
-1 -4 14 42.3900
1 4 -14 43.0400
-2 3 10 6.93000
2 -3 -10 6.91000
-2 3 10 8.27000
0 10 -7 67.1800
0 2 -14 6.09000
0 -2 14 7.23000
-1 -7 -5 13.3600
1 7 5 20.7000
3 2 -9 4.45000
-3 -2 9 4.96000
-3 -2 9 4.65000
0 -9 -2 15.1000
0 9 2 16.5100
-3 -4 -1 5.22000
-3 -4 -1 5.37000
3 4 1 6.59000
3 5 -2 8.66000
-3 -5 2 9.13000
-3 -5 2 6.52000
-3 -1 9 2.08000
-3 -1 9 1.50000
3 1 -9 2.28000
-2 4 9 6.53000
2 -4 -9 4.35000
-2 4 9 5.20000
1 9 0 7.65000
-1 -9 0 8.42000
3 2 4 1.30000
-3 -2 -4 1.64000
-3 -2 -4 0.88000
0 -8 12 47.4700
0 8 -12 46.6600
0 6 8 22.0100
0 -6 -8 26.0000
3 5 -6 49.8200
-3 -5 6 43.0800
-3 -5 6 51.1500
-3 -4 8 14.5200
-3 -4 8 12.3000
3 4 -8 10.2100
-1 -2 14 33.3200
1 2 -14 32.6400
2 8 -2 3.46000
-2 -8 2 1.26000
-2 -8 2 3.00000
-3 3 -6 17.0100
-3 3 -6 16.4100
-2 0 -10 4.14000
-2 0 -10 4.52000
-3 1 -6 3.31000
3 -1 6 2.13000
-3 1 -6 0.54000
0 7 -13 3.38000
0 -7 13 3.31000
0 -5 14 70.9900
0 5 -14 69.9200
0 5 -14 70.5400
1 -2 13 11.4100
-1 2 -13 14.5400
-1 2 -13 16.2100
-1 -8 -3 23.9700
1 8 3 19.4200
0 10 -2 4.21000
0 10 -2 6.91000
0 -10 2 5.65000
-1 9 -9 7.79000
-1 9 -9 5.34000
-3 4 5 0.35000
-3 4 5 0.21000
3 1 5 10.7400
-3 -1 -5 10.8200
-3 -1 -5 11.9300
-1 6 8 4.64000
1 -6 -8 3.51000
-3 5 3 4.03000
-3 5 3 2.77000
-2 2 11 8.43000
-2 2 11 9.87000
3 3 3 3.08000
-3 -3 -3 3.22000
-3 -3 -3 3.28000
-1 5 -13 6.57000
-1 5 -13 4.49000
-2 -8 8 72.1100
2 8 -8 69.1200
-2 -8 8 61.7100
-2 8 -7 0.80000
-3 -3 9 2.31000
-3 -3 9 -0.1700
3 3 -9 2.38000
-3 0 9 7.79000
3 0 -9 4.01000
-3 0 9 5.09000
-1 7 -12 7.58000
-1 7 -12 6.74000
-1 7 -12 7.62000
-1 -5 14 9.03000
1 5 -14 10.3800
-3 -5 1 0.40000
3 5 -1 1.56000
-3 -5 1 0.76000
1 -1 -13 32.4100
-1 1 13 33.1300
-1 8 -11 18.3600
-1 8 -11 17.2500
-1 8 -11 15.3500
0 1 13 10.9400
0 -1 -13 11.7200
2 -5 -8 22.0600
-2 5 8 19.5600
-2 5 8 22.0300
2 3 8 17.0100
-2 -3 -8 14.2200
-2 -3 -8 16.7000
0 10 -8 60.5300
-1 9 2 6.67000
1 -9 -2 4.81000
-2 7 -9 12.4400
-2 7 -9 13.6300
-2 -6 -4 15.5600
-2 -6 -4 16.8400
2 6 4 18.8600
-2 6 -10 20.6400
-2 6 -10 13.8800
-1 -9 10 24.1000
1 9 -10 21.9800
-1 10 -4 12.2800
-1 10 -4 11.8700
3 5 -7 1.10000
-3 -5 7 0.91000
-3 -5 7 0.88000
-2 3 -11 7.68000
-2 3 -11 8.14000
1 6 7 31.3500
-1 -6 -7 33.4200
-1 10 -5 7.14000
-1 10 -5 6.36000
-2 8 2 21.6100
-2 8 2 19.6600
-3 4 -6 20.8100
-3 4 -6 23.5200
-3 5 -5 2.90000
-3 5 -5 5.76000
-2 -7 -2 13.4000
-2 -7 -2 13.4500
2 7 2 12.7300
-3 6 -1 1.51000
-3 6 -1 3.20000
-2 -4 -7 26.9200
-2 -4 -7 26.8600
2 4 7 25.8500
-2 -3 13 18.5600
-2 -3 13 14.0200
2 3 -13 16.7100
0 -1 14 11.2600
0 1 -14 10.0000
-3 0 -6 1.57000
-3 0 -6 0.71000
3 0 6 0.77000
-1 10 -3 1.05000
-1 10 -3 1.12000
-1 -7 13 20.2300
1 7 -13 20.9300
1 1 12 40.3800
-1 -1 -12 36.4400
-1 -1 -12 38.6100
-1 -1 14 24.6800
1 1 -14 26.3900
-3 6 -2 4.64000
-3 6 -2 5.30000
-2 -8 1 3.02000
-2 -8 1 2.37000
2 8 -1 2.46000
-2 -2 -9 31.4000
2 2 9 30.3700
-2 -2 -9 29.9400
0 -10 1 36.1600
0 10 -1 35.0400
0 -9 11 47.7000
0 9 -11 50.5300
-2 -2 13 8.85000
-2 -2 13 11.2400
2 2 -13 9.11000
-2 4 -11 6.94000
-2 4 -11 5.47000
-3 6 0 7.16000
-3 6 0 6.88000
-2 2 -11 15.8400
-2 2 -11 15.0200
-1 1 -13 3.97000
-1 1 -13 5.77000
1 -1 13 4.20000
1 8 -12 6.23000
-1 -8 12 8.95000
0 8 5 6.79000
0 -8 -5 6.36000
-3 2 8 8.08000
-3 2 8 9.42000
-3 3 7 9.67000
-3 3 7 10.4000
-1 10 -6 4.04000
-1 10 -6 1.36000
0 6 -14 1.66000
0 6 -14 1.31000
0 -6 14 1.13000
-2 -4 13 6.28000
2 4 -13 7.28000
-2 -4 13 6.86000
3 4 2 0.65000
-3 -4 -2 0.97000
-3 -4 -2 1.02000
-3 6 -3 28.1800
-3 6 -3 24.5800
-2 1 12 24.1600
-2 1 12 27.5900
-2 -6 12 6.46000
-2 -6 12 6.21000
2 6 -12 6.02000
-1 10 -2 10.7500
-1 10 -2 11.6200
2 8 -9 15.2500
-2 -8 9 19.3200
-2 -8 9 14.8600
-1 -9 -1 16.2300
1 9 1 19.1400
-3 -4 9 4.80000
-3 -4 9 8.84000
3 4 -9 5.52000
1 10 -5 15.1900
-1 -10 5 14.7600
-3 5 4 2.35000
-3 5 4 1.64000
2 7 -11 2.46000
-2 -7 11 2.06000
-2 -7 11 1.26000
-2 7 5 5.37000
2 -7 -5 4.92000
-2 7 5 6.36000
-1 -10 6 7.53000
1 10 -6 7.44000
-1 8 5 39.6500
-3 6 1 2.82000
-3 6 1 2.40000
-1 6 -13 2.39000
-1 6 -13 0.56000
-3 -5 0 2.70000
-3 -5 0 0.39000
3 5 0 0.73000
0 7 7 3.71000
0 -7 -7 3.70000
-1 -10 4 9.22000
1 10 -4 7.01000
-3 1 9 8.32000
-3 1 9 7.00000
3 -1 -9 3.80000
-2 -5 -6 44.3800
-2 -5 -6 37.6100
2 5 6 41.8000
2 1 -13 30.6700
-2 -1 13 30.0200
-2 -1 13 30.7300
0 10 -9 0.99000
-2 8 -8 6.06000
-2 8 -8 4.94000
3 5 -8 0.33000
-3 -5 8 0.98000
-3 -5 8 0.69000
-3 4 6 0.27000
-3 4 6 0.47000
0 -9 -3 4.42000
0 9 3 3.38000
-1 9 -10 3.41000
-1 9 -10 3.81000
-3 2 -7 10.5300
-3 2 -7 16.1500
-2 9 -3 16.3500
-2 9 -3 17.3000
-1 7 7 4.09000
1 6 -14 8.88000
-1 -6 14 6.33000
-2 5 -11 3.75000
-2 5 -11 0.90000
-2 -1 -10 1.01000
2 1 10 0.87000
-2 -1 -10 0.11000
-3 -2 10 6.84000
-3 -2 10 9.70000
3 2 -10 7.77000
-1 10 -7 4.81000
-1 10 -7 3.89000
2 -6 -7 15.0400
-2 6 7 15.1600
-2 6 7 10.5500
-2 9 -4 2.31000
-2 9 -4 1.76000
1 10 -7 8.92000
-1 -10 7 9.70000
-2 1 -11 3.50000
-2 1 -11 2.56000
-3 3 -7 0.85000
-3 3 -7 -0.1500
-3 -2 -5 3.04000
-3 -2 -5 2.74000
3 2 5 2.11000
-3 6 -4 9.50000
-3 6 -4 8.02000
-2 9 -2 25.4300
-2 9 -2 25.4600
1 -4 -11 26.1700
-1 4 11 25.8400
-3 -1 10 0.93000
-3 -1 10 1.78000
3 1 -10 1.12000
0 4 11 21.6800
-1 10 -1 3.03000
-1 10 -1 3.83000
1 10 -3 4.59000
-1 -10 3 4.62000
0 10 0 26.7400
0 -10 0 23.9200
-2 -8 0 0.23000
-2 -8 0 1.26000
2 8 0 0.52000
-3 -3 -4 1.27000
-3 -3 -4 1.09000
3 3 4 0.46000
-3 5 -6 13.7400
-3 5 -6 14.7300
3 6 -4 -0.0700
-3 -6 4 0.16000
-3 -6 4 0.79000
-3 1 -7 6.04000
-3 1 -7 5.44000
-3 -3 10 7.72000
3 3 -10 5.67000
-3 -3 10 6.88000
-3 -6 5 15.9600
-3 -6 5 13.7100
3 6 -5 14.3100
-1 3 12 4.13000
1 -3 -12 4.30000
-2 -5 13 12.0800
2 5 -13 10.1800
-2 -5 13 13.1600
1 8 4 1.99000
-1 -8 -4 4.13000
3 1 6 0.04000
-3 -1 -6 -0.1600
-3 -1 -6 -0.8600
-2 9 -5 0.58000
-2 9 -5 0.24000
-2 8 3 0.24000
-2 8 3 0.51000
-3 6 2 9.84000
-3 6 2 11.6500
0 3 12 6.96000
0 -3 -12 6.72000
0 5 10 8.65000
1 -5 -10 8.47000
-1 5 10 5.80000
1 9 -11 15.2600
-1 -9 11 17.7400
1 0 -14 2.01000
-1 0 14 1.14000
1 -9 -3 8.39000
-1 9 3 12.2900
-2 9 -1 27.5200
-2 9 -1 29.1400
3 6 -3 1.21000
-3 -6 3 -0.2700
-3 -6 3 0.58000
0 0 -14 2.76000
0 0 14 3.96000
0 -8 13 0.77000
0 8 -13 0.40000
-1 -7 -6 28.5800
1 7 6 33.1900
-1 -4 -10 9.29000
-1 -4 -10 5.31000
1 4 10 7.01000
-3 -6 6 39.4300
3 6 -6 42.5000
-3 -6 6 34.5800
-1 -10 8 14.7400
1 10 -8 14.3800
-3 4 -7 1.49000
-3 4 -7 3.75000
-1 0 -13 6.20000
-1 0 -13 5.11000
1 0 13 5.85000
-1 -3 -11 3.30000
-1 -3 -11 1.60000
1 3 11 4.05000
-2 7 -10 4.13000
-2 7 -10 3.07000
-2 -8 10 1.79000
2 8 -10 2.78000
-2 -8 10 1.97000
-3 0 10 15.6600
-3 0 10 12.0700
3 0 -10 19.9300
-2 -7 -3 -0.2300
-2 -7 -3 -0.0600
2 7 3 0.30000
-3 -5 -1 1.93000
3 5 1 0.54000
-3 -5 -1 1.23000
-1 10 -8 4.60000
-1 10 -8 5.10000
-2 4 10 10.9500
2 -4 -10 12.9300
-2 4 10 11.7400
-3 6 -5 17.1600
-3 6 -5 14.0000
-1 -10 2 50.9300
1 10 -2 40.3100
-2 3 11 8.13000
2 -3 -11 11.0700
-2 3 11 12.0900
-2 0 13 22.8200
-2 0 13 23.5800
1 5 9 2.40000
-1 -5 -9 2.88000
-2 9 -6 3.21000
-2 9 -6 4.56000
0 7 -14 1.23000
0 -7 14 1.42000
0 7 -14 1.07000
-3 5 5 13.4500
-3 5 5 14.5600
-1 8 -12 14.3400
-1 8 -12 13.9200
-1 8 -12 15.8800
-3 -4 -3 4.32000
3 4 3 7.37000
-3 -4 -3 5.35000
3 6 -2 4.69000
-3 -6 2 3.26000
-3 -6 2 3.93000
0 4 -15 9.82000
0 -4 15 8.79000
3 5 -9 0.21000
-3 -5 9 0.35000
-3 -5 9 -0.2300
1 -2 -13 0.35000
-1 2 13 0.40000
2 6 5 1.75000
-2 -6 -5 1.57000
-2 -6 -5 0.41000
0 -9 12 4.53000
0 9 -12 5.34000
0 -3 15 4.98000
0 3 -15 4.37000
0 10 -10 10.9800
-1 10 0 12.8600
2 9 -5 9.97000
-2 -9 5 7.09000
-2 -9 5 7.07000
-3 -6 7 8.15000
-3 -6 7 8.51000
3 6 -7 8.39000
-3 -4 10 6.10000
3 4 -10 6.80000
-3 -4 10 7.62000
-1 4 -14 22.9500
-1 4 -14 16.2400
0 -2 -13 32.4600
0 2 13 32.0200
-3 0 -7 0.33000
-3 0 -7 0.53000
-2 6 -11 12.2000
-2 6 -11 6.53000
0 -6 -9 2.85000
0 6 9 3.23000
-2 9 0 16.0400
-1 3 -14 4.49000
-1 3 -14 6.07000
-1 -9 -2 5.84000
1 9 2 5.16000
1 3 -15 6.04000
-1 -3 15 4.38000
-2 -9 6 0.62000
-2 -9 6 1.60000
2 9 -6 1.19000
-3 3 8 47.1000
-3 3 8 54.3000
-1 -4 15 2.87000
1 4 -15 2.92000
1 -6 -9 32.1500
-1 6 9 32.0100
-1 7 -13 7.57000
-1 7 -13 11.1900
-2 0 -11 7.20000
-2 0 -11 6.64000
-2 -9 4 5.15000
-2 -9 4 7.35000
2 9 -4 3.95000
-3 2 9 26.7200
-3 2 9 24.6500
-3 6 3 8.13000
-3 6 3 11.1600
-2 8 -9 8.83000
-2 5 9 5.53000
-2 5 9 4.73000
2 -5 -9 3.97000
-1 -8 13 4.48000
1 8 -13 4.81000
1 2 12 7.46000
-1 -2 -12 7.72000
-1 -2 -12 6.32000
1 10 -9 14.0900
-1 -10 9 15.5600
0 5 -15 4.51000
0 5 -15 4.49000
0 -5 15 4.72000
-2 2 12 5.77000
-2 2 12 5.20000
2 -2 -12 5.47000
-2 -7 12 6.19000
2 7 -12 6.05000
-2 -7 12 3.37000
-2 -9 7 1.05000
-2 -9 7 0.85000
2 9 -7 2.60000
0 -10 -1 0.88000
0 10 1 1.92000
1 7 -14 7.37000
-1 -7 14 9.71000
2 8 1 5.19000
-2 -8 -1 5.94000
-2 -8 -1 3.14000
-1 5 -14 8.19000
-1 5 -14 9.51000
2 -7 -6 13.7200
-2 7 6 14.3800
-2 7 6 17.1500
0 2 -15 6.49000
0 -2 15 5.58000
-3 4 7 9.39000
-3 4 7 9.65000
1 2 -15 1.44000
-1 -2 15 1.89000
0 -8 -6 13.6000
0 8 6 11.4000
-1 9 -11 4.04000
-1 9 -11 3.54000
2 3 9 16.8700
-2 -3 -9 10.7800
-2 -3 -9 18.9300
-2 -6 13 29.1400
2 6 -13 33.1400
-2 -6 13 37.6900
-1 2 -14 5.32000
-1 2 -14 6.20000
3 6 -1 1.92000
-3 -6 1 0.23000
-3 -6 1 0.84000
-2 -4 -8 30.2000
2 4 8 32.2600
-2 -4 -8 27.9200
-3 5 -7 12.8000
-3 5 -7 6.02000
1 5 -15 10.5300
-1 -5 15 11.2100
2 9 -3 2.09000
-2 -9 3 1.25000
-2 -9 3 1.50000
-1 -6 -8 4.59000
1 6 8 3.33000
-2 9 -7 33.4700
-2 9 -7 28.9500
-3 7 -2 0.05000
-3 7 -2 0.22000
-2 3 -12 24.9600
-2 3 -12 19.1700
1 10 -1 7.36000
-1 -10 1 9.48000
0 9 4 7.78000
0 -9 -4 7.73000
-3 7 -1 0.38000
-3 7 -1 0.91000
2 3 -14 5.11000
-2 -3 14 6.28000
-2 -3 14 4.13000
-1 8 6 16.3900
-3 -6 8 1.15000
-3 -6 8 1.46000
3 6 -8 2.84000
-3 1 10 3.18000
-3 1 10 3.60000
-2 8 4 11.8000
-1 10 -9 1.60000
-1 10 -9 -0.2900
-2 4 -12 21.2600
-2 4 -12 17.2900
-3 3 -8 8.57000
-3 3 -8 8.34000
-3 6 -6 28.0800
-3 6 -6 33.7000
-3 2 -8 11.5800
-3 2 -8 10.7500
3 2 -11 8.51000
-3 -2 11 8.04000
-3 -2 11 4.76000
-3 7 -3 1.89000
-3 7 -3 1.28000
-2 -9 8 0.01000
-2 -9 8 0.18000
2 9 -8 -0.0800
0 11 -5 12.0700
-2 -2 -10 4.97000
-2 -2 -10 2.08000
2 2 10 3.91000
-3 -2 -6 16.1600
-3 -2 -6 19.4700
3 2 6 16.1500
-2 9 1 0.33000
-2 -2 14 1.74000
-2 -2 14 0.71000
2 2 -14 0.93000
1 9 -12 13.4300
-1 -9 12 12.2400
2 4 -14 12.2900
-2 -4 14 9.16000
-2 -4 14 13.4700
0 11 -6 3.49000
-3 -3 -5 1.75000
3 3 5 3.64000
-3 -3 -5 4.08000
-3 7 0 3.15000
-3 7 0 2.64000
-3 -3 11 1.55000
3 3 -11 0.83000
-3 -3 11 1.73000
-3 -5 -2 8.83000
-3 -5 -2 6.27000
3 5 2 9.57000
-2 2 -12 32.5800
-2 2 -12 37.3100
-2 -8 11 4.05000
2 8 -11 3.53000
-2 -8 11 2.68000
0 11 -4 -0.2600
0 11 -4 -0.3200
-1 1 14 2.75000
1 -1 -14 2.73000
3 1 -11 16.1400
-3 -1 11 15.0200
-3 -1 11 18.8000
-1 10 1 0.31000
-1 9 4 15.6300
1 -9 -4 15.9800
-2 -5 -7 4.60000
2 5 7 5.93000
-2 -5 -7 2.96000
-2 6 8 16.6700
-2 6 8 18.4600
2 -6 -8 19.1800
0 6 -15 3.62000
0 6 -15 4.04000
0 -6 15 4.02000
0 -1 -14 2.51000
0 1 14 5.48000
3 5 -10 -0.0800
-3 -5 10 0.11000
-3 -5 10 0.58000
0 7 8 1.45000
0 -7 -8 1.69000
-2 -9 2 0.18000
-2 -9 2 0.63000
2 9 -2 0.27000
-3 4 -8 3.45000
-3 4 -8 3.52000
-3 1 -8 1.93000
-3 1 -8 4.73000
-3 7 -4 2.25000
-3 7 -4 4.54000
0 11 -7 6.45000
-2 1 13 2.07000
-2 1 13 0.90000
-3 6 4 25.5300
3 -6 -4 24.3400
-3 6 4 26.5600
-3 -1 -7 0.83000
-3 -1 -7 0.09000
1 10 -10 0.60000
-1 -10 10 0.56000
-1 7 8 4.05000
-3 5 6 8.03000
-3 5 6 7.40000
-1 -1 -13 17.9300
1 1 13 16.9900
-1 -1 -13 16.2500
-2 5 -12 21.8200
-2 5 -12 32.3500
-1 6 -14 24.5400
-1 6 -14 22.7900
1 8 5 26.9400
-1 -8 -5 30.9000
0 10 -11 2.80000
1 1 -15 2.64000
-1 -1 15 4.75000
0 11 -3 15.1500
0 1 -15 6.26000
0 -1 15 6.74000
-3 -6 0 5.86000
-3 -6 0 1.51000
3 6 0 5.02000
-1 1 -14 26.6000
-3 7 1 32.2600
-3 7 1 36.3900
-3 -4 -4 4.20000
-3 -4 -4 4.88000
3 4 4 4.43000
1 6 -15 8.17000
-1 -6 15 10.3900
-2 -7 -4 21.3400
2 7 4 22.6700
-2 -1 14 53.1700
-2 -1 14 58.3000
-2 7 -11 27.4600
-2 7 -11 33.5400
-2 -9 9 10.2500
2 9 -9 7.44000
2 5 -14 0.72000
-2 -5 14 0.49000
-2 -5 14 0.39000
-2 9 -8 6.85000
-2 9 -8 9.30000
3 4 -11 1.23000
-3 -4 11 1.73000
-3 -4 11 2.08000
3 6 -9 7.20000
-3 -6 9 5.57000
-3 -6 9 5.92000
0 8 -14 14.5800
0 -8 14 14.1500
1 9 3 13.1200
-1 -9 -3 19.6100
-2 -1 -11 2.98000
-2 -1 -11 5.11000
-1 -10 0 2.42000
1 10 0 1.88000
-3 0 11 40.9700
3 0 -11 42.0100
-3 0 11 36.6200
-2 8 -10 1.70000
-2 1 -12 8.32000
-2 1 -12 8.31000
0 11 -8 1.46000
0 10 2 0.83000
0 -10 -2 1.96000
0 9 -13 9.05000
0 -9 13 8.83000
1 7 7 29.0200
-1 -7 -7 30.9100
2 8 2 8.00000
-2 -8 -2 3.72000
3 7 -5 1.95000
-3 -7 5 2.71000
-3 -7 5 1.49000
-3 7 -5 6.52000
-3 7 -5 6.51000
-3 7 -5 5.52000
-2 9 2 -0.1600
3 7 -4 8.38000
-3 -7 4 6.28000
-3 -7 4 4.65000
-1 10 -10 1.62000
0 11 -2 4.56000
-3 6 -7 3.19000
-3 6 -7 1.78000
-1 8 -13 5.56000
-1 8 -13 2.80000
-3 3 9 9.83000
-3 3 9 11.1600
-3 -7 6 22.8800
3 7 -6 26.4100
-3 -7 6 22.3000
-1 4 12 0.20000
1 -4 -12 1.30000
-2 -9 1 28.8500
-2 -9 1 23.6500
2 9 -1 28.6000
-2 -6 -6 22.8300
2 6 6 23.9700
-3 5 -8 15.1700
-3 5 -8 11.0900
-3 0 -8 3.18000
-3 0 -8 6.72000
-1 11 -5 0.63000
-1 11 -5 0.48000
-3 7 2 19.8100
-3 7 2 21.3800
0 4 12 0.25000
1 -5 -11 1.59000
-1 5 11 1.21000
2 7 -13 0.33000
-2 -7 13 0.64000
-1 11 -4 4.63000
-1 11 -4 3.80000
-3 2 10 5.51000
-3 2 10 5.33000
-3 4 8 7.86000
-3 4 8 9.14000
-1 9 -12 35.9600
-3 -7 3 2.28000
-3 -7 3 1.66000
3 7 -3 2.96000
-2 6 -12 1.37000
-2 6 -12 2.24000
1 8 -14 7.88000
-1 -8 14 5.37000
1 -3 -13 7.68000
-1 3 13 6.85000
-1 10 2 0.88000
2 -4 -11 4.73000
-2 4 11 5.19000
-2 4 11 5.33000
-1 11 -6 7.78000
-1 11 -6 9.40000
-2 8 5 5.77000
-3 -7 7 2.13000
3 7 -7 2.28000
-3 -7 7 1.31000
0 7 -15 0.62000
0 7 -15 0.35000
0 -7 15 0.45000
2 -7 -7 9.58000
-2 7 7 6.68000
-2 7 7 9.81000
-1 11 -3 3.04000
-1 11 -3 1.67000
-1 -4 -11 2.54000
1 4 11 1.74000
-3 -5 -3 0.57000
-3 -5 -3 0.32000
3 5 3 -0.0300
-1 -10 11 2.05000
1 10 -11 3.36000
2 -3 -12 -0.4700
-2 3 12 -0.2500
-2 3 12 0.29000
0 -3 -13 0.67000
0 3 13 0.54000
2 8 -12 0.16000
-2 -8 12 0.11000
-3 -6 -1 10.6800
-3 -6 -1 15.0200
3 6 1 12.9000
-2 -9 10 4.28000
2 9 -10 7.69000
0 11 -9 24.9900
3 -6 -5 1.20000
-3 6 5 1.19000
-3 6 5 0.34000
-1 7 -14 1.27000
-1 7 -14 1.60000
-1 0 15 1.05000
1 0 -15 0.60000
-2 10 -4 1.90000
-2 10 -4 2.26000
-2 10 -3 0.18000
-2 10 -3 1.12000
1 5 10 5.30000
-1 -5 -10 3.33000
-2 0 14 17.1300
-2 0 14 19.0600
0 9 5 -0.2700
0 -9 -5 0.80000
2 -5 -10 21.9600
-2 5 10 18.4400
-2 5 10 19.8700
-1 -9 13 15.4600
1 9 -13 12.7700
3 5 -11 1.53000
-3 -5 11 1.28000
-3 -5 11 2.04000
-1 -3 -12 13.2300
-1 -3 -12 20.8100
2 6 -14 41.4300
-2 -6 14 47.8400
-3 7 -6 13.9700
-3 3 -9 1.96000
-3 3 -9 2.37000
0 0 -15 1.20000
0 0 15 0.78000
1 -6 -10 1.55000
-1 6 10 0.85000
-1 0 -14 25.4600
-1 0 -14 19.4800
-1 11 -7 40.3300
-1 11 -7 36.9100
-3 -7 2 4.92000
-3 -7 2 8.17000
3 7 -2 4.95000
0 11 -1 0.17000
0 -8 -7 1.90000
0 8 7 1.65000
1 11 -6 2.78000
-2 10 -5 5.53000
-2 10 -5 12.1900
3 6 -10 0.35000
-3 -6 10 -0.1300
-3 -6 10 0.77000
-2 9 -9 2.71000
3 2 -12 1.23000
-3 -2 12 3.05000
-3 -2 12 2.45000
1 11 -5 7.36000
0 -6 -10 56.4500
-1 -7 15 11.1500
1 7 -15 9.44000
0 10 -12 14.5100
-3 1 11 23.5600
-3 1 11 22.8600
-3 2 -9 -0.2900
-3 2 -9 0.11000
3 3 6 4.86000
-3 -3 -6 4.49000
-3 -3 -6 6.89000
-2 10 -2 2.65000
-2 10 -2 2.81000
-1 11 -2 2.32000
-1 8 7 4.82000
1 -9 -5 11.3600
-1 9 5 14.7900
-3 -3 12 6.63000
-3 -3 12 7.82000
3 3 -12 5.72000
-4 0 2 3.81000
4 0 -2 2.76000
-4 0 2 3.92000
-3 5 7 22.3400
-3 5 7 30.0900
-3 -2 -7 17.3200
-3 -2 -7 5.57000
1 11 -7 15.6600
3 7 -8 38.6600
-3 -7 8 32.2400
-3 -7 8 37.5700
-2 0 -12 20.7800
-2 0 -12 30.2200
-4 0 3 -1.3600
-4 0 3 0.29000
4 0 -3 0.80000
0 4 -16 3.29000
0 -4 16 4.03000
4 -1 -2 6.09000
-4 1 2 6.61000
-4 1 2 4.89000
-1 4 -15 3.34000
-1 4 -15 7.29000
1 10 1 3.69000
-1 -10 -1 4.22000
4 -1 -1 5.25000
-4 1 1 2.14000
-4 1 1 3.55000
-4 0 1 -0.0600
4 0 -1 2.70000
-4 0 1 0.44000
-1 -4 16 6.51000
1 4 -16 7.49000
-3 4 -9 10.1500
-3 4 -9 9.63000
-1 2 14 5.28000
1 -2 -14 6.92000
1 11 -4 15.5000
-1 -11 4 13.9600
-3 7 3 14.6400
-3 7 3 13.0700
-2 2 13 0.74000
-2 2 13 0.52000
2 -2 -13 0.72000
-1 -3 16 0.93000
1 3 -16 0.45000
2 9 0 1.64000
-2 -9 0 2.25000
-2 -4 -9 8.26000
-2 -4 -9 7.20000
2 4 9 7.47000
-1 3 -15 3.10000
-1 3 -15 5.62000
0 -3 16 1.55000
0 3 -16 1.89000
3 1 -12 0.79000
-3 -1 12 1.38000
-3 -1 12 -0.2900
2 3 10 11.6200
-2 -3 -10 10.0900
-2 -3 -10 5.79000
4 -1 -3 8.87000
-4 1 3 10.2600
-4 1 3 8.70000
-2 10 -6 4.76000
-2 10 -6 3.25000
-4 -1 3 1.55000
-4 -1 3 2.44000
4 1 -3 2.16000
-3 -4 -5 10.0400
3 4 5 10.4400
-3 -4 -5 6.35000
-4 -1 2 8.18000
-4 -1 2 7.42000
4 1 -2 6.86000
-1 -6 -9 1.39000
1 6 9 0.72000
0 5 -16 5.72000
0 -5 16 6.99000
0 5 -16 5.07000
0 -2 -14 0.95000
0 2 14 0.30000
-4 1 0 2.39000
-4 1 0 0.24000
4 -1 0 1.26000
-1 5 -15 4.85000
-1 5 -15 3.38000
4 0 -4 0.90000
-4 0 4 1.63000
-4 0 4 0.32000
-2 10 -1 16.4200
-2 10 -1 15.1400
-2 4 -13 5.07000
-2 4 -13 7.08000
-1 -2 -13 5.87000
-1 -2 -13 6.51000
1 2 13 4.80000
-3 6 -8 20.9100
-3 6 -8 20.4900
-1 10 -11 2.54000
1 11 -8 8.24000
-3 1 -9 0.98000
-3 1 -9 1.00000
-2 3 -13 3.58000
-2 3 -13 3.71000
-2 6 9 5.30000
2 -6 -9 5.23000
-2 6 9 4.09000
0 -10 -3 6.17000
0 10 3 7.18000
2 3 -15 2.83000
-2 -3 15 3.25000
4 0 0 0.47000
-4 0 0 2.69000
-4 0 0 1.46000
-3 -1 -8 7.93000
-3 -1 -8 8.27000
1 5 -16 3.56000
-1 -5 16 3.09000
3 4 -12 9.95000
-3 -4 12 7.63000
-3 -4 12 8.86000
-1 11 -8 43.1800
-1 11 -8 33.4200
-4 -1 4 1.89000
-4 -1 4 2.04000
4 1 -4 2.19000
-4 2 1 2.43000
-4 2 1 1.87000
-3 8 -2 4.67000
2 7 5 12.4200
-2 -7 -5 18.9600
-2 -8 -3 -0.2200
2 8 3 2.18000
1 8 6 8.47000
-1 -8 -6 7.68000
-4 -1 1 1.88000
4 1 -1 1.97000
-4 -1 1 1.78000
-2 8 -11 23.0700
-4 2 2 4.13000
-4 2 2 4.77000
0 11 -10 2.04000
2 4 -15 1.25000
-2 -4 15 2.19000
-3 8 -3 -0.4600
2 5 8 0.06000
-2 -5 -8 1.08000
-3 -7 1 3.53000
-3 -7 1 3.78000
3 7 -1 5.48000
-1 -9 -4 8.19000
1 9 4 6.05000
-1 -11 3 11.2300
1 11 -3 10.0400
-1 11 -1 12.7800
-3 8 -1 23.6700
-4 1 4 2.30000
-4 1 4 1.70000
4 -1 -4 3.03000
-4 2 0 12.1600
-4 2 0 7.61000
1 2 -16 0.09000
-1 -2 16 0.39000
-2 7 -12 2.62000
-2 7 -12 1.66000
-2 -2 -11 13.6700
-2 -2 -11 18.7300
-1 2 -15 3.48000
-1 2 -15 4.85000
-2 -9 11 8.49000
2 9 -11 8.56000
2 2 -15 -0.0200
-2 -2 15 0.01000
-2 -2 15 0.74000
0 -2 16 15.1100
0 2 -16 15.6400
2 10 -6 2.43000
-2 -10 6 2.14000
-4 1 -1 -0.1700
4 -1 1 -0.2600
-4 1 -1 -0.7600
-3 -7 9 2.92000
-3 -7 9 3.01000
3 7 -9 4.00000
-1 7 9 0.58000
-2 -10 5 0.30000
2 10 -5 1.40000
-2 5 -13 20.0200
-2 5 -13 19.5800
-3 7 -7 6.32000
-4 2 3 0.40000
-4 2 3 -1.3800
-1 10 3 1.58000
0 11 0 7.12000
-3 5 -9 5.36000
-3 5 -9 4.60000
-2 2 -13 15.3400
-2 2 -13 15.5100
-3 8 -4 1.51000
-3 8 -4 1.92000
-4 0 5 3.37000
-4 0 5 3.42000
4 0 -5 4.23000
0 7 9 3.32000
0 -7 -9 1.34000
3 6 2 2.83000
-3 -6 -2 1.25000
-3 -6 -2 2.59000
-2 10 -7 27.0300
-2 10 -7 29.7200
4 1 -5 1.63000
-4 -1 5 0.36000
-4 -1 5 1.91000
-1 -10 12 7.11000
1 10 -12 7.99000
0 -9 14 1.81000
0 9 -14 1.72000
-4 -2 3 6.51000
-4 -2 3 13.0000
4 2 -3 8.03000
-2 -10 7 8.41000
2 10 -7 7.68000
3 0 -12 6.87000
-3 0 12 6.86000
-3 0 12 7.10000
-3 8 0 25.5900
-4 -1 0 7.28000
-4 -1 0 12.8300
4 1 0 12.0500
-4 2 -1 0.45000
-4 2 -1 2.16000
0 -6 16 11.0200
0 6 -16 11.8200
4 0 1 8.75000
-4 0 -1 9.22000
-4 0 -1 8.59000
-4 -2 4 12.5300
-4 -2 4 8.90000
4 2 -4 12.7400
1 11 -9 10.5700
4 2 -2 4.61000
-4 -2 2 4.58000
-4 -2 2 1.85000
-2 10 0 2.22000
-2 10 0 3.03000
-1 6 -15 6.78000
-1 6 -15 3.08000
3 -6 -6 8.40000
-3 6 6 10.8400
-3 6 6 8.46000
-3 3 10 7.62000
-3 3 10 8.64000
-2 -10 4 0.56000
2 10 -4 0.78000
2 5 -15 3.17000
-2 -5 15 2.61000
0 8 -15 1.56000
0 -8 15 1.71000
0 8 -15 1.10000
3 5 4 3.52000
-3 -5 -4 2.43000
-3 -5 -4 2.75000
2 -1 -14 7.96000
-2 1 14 5.64000
-2 1 14 6.94000
-3 -6 11 0.60000
-3 -6 11 -0.0900
3 6 -11 0.95000
-2 8 6 8.57000
-3 4 9 2.68000
-3 4 9 6.11000
-2 -7 14 2.44000
2 7 -14 2.38000
1 6 -16 1.77000
-1 -6 16 1.94000
2 8 -13 14.8500
-2 -8 13 16.6200
-4 1 5 8.30000
-4 1 5 6.30000
4 -1 -5 10.0900
-2 9 -10 -0.0600
-3 7 4 8.22000
-3 7 4 6.76000
-1 1 15 0.14000
1 -1 -15 0.17000
1 11 -2 8.27000
-1 -11 2 8.83000
-1 8 -14 1.77000
-1 8 -14 2.32000
-1 11 -9 7.33000
-1 11 -9 5.84000
-4 3 1 12.0600
-4 3 1 11.4000
2 10 -8 6.06000
-2 -10 8 3.43000
-4 2 4 2.45000
-4 2 4 2.56000
4 2 -5 -0.2300
-4 -2 5 0.60000
-4 -2 5 1.06000
-4 3 0 0.05000
-4 3 0 0.51000
-3 8 -5 19.3100
-3 8 -5 17.1900
-1 -7 -8 0.61000
1 7 8 -0.1000
-3 0 -9 1.90000
-3 0 -9 2.74000
-3 -5 12 22.0700
3 5 -12 18.3100
-3 -5 12 16.9300
2 6 7 6.49000
-2 -6 -7 6.48000
4 2 -1 7.33000
-4 -2 1 9.24000
-4 -2 1 5.98000
-3 2 11 9.30000
-3 2 11 13.3800
-2 -9 -1 2.51000
2 9 1 4.16000
-2 -1 15 3.74000
-4 3 2 1.12000
-4 3 2 1.30000
-4 1 -2 0.14000
4 -1 2 1.58000
-4 1 -2 1.38000
-1 -10 -2 1.44000
1 10 2 0.35000
-1 11 0 20.3100
-3 -7 0 0.37000
3 7 0 2.51000
-3 -7 0 2.54000
-4 -1 6 0.38000
-4 -1 6 -0.4800
4 1 -6 -0.0200
0 1 15 1.73000
0 -1 -15 1.17000
-1 -1 -14 0.25000
-1 -1 -14 1.19000
-3 8 1 2.51000
-1 -1 16 1.75000
1 1 -16 1.31000
-2 -10 3 14.7100
2 10 -3 17.5000
-4 2 -2 3.34000
-4 2 -2 4.13000
-2 7 8 1.38000
2 -7 -8 0.37000
4 0 -6 4.88000
-4 0 6 6.39000
-4 0 6 7.66000
0 10 -13 2.23000
-1 -8 15 0.54000
1 8 -15 1.93000
-4 3 -1 9.94000
-4 3 -1 6.37000
-2 -1 -12 4.37000
-2 -1 -12 0.74000
-1 -9 14 26.6500
1 9 -14 26.6400
4 1 1 8.30000
-4 -1 -1 9.68000
-4 -1 -1 7.88000
-2 6 -13 2.46000
-2 6 -13 2.19000
-1 1 -15 12.7000
-1 1 -15 17.3100
-2 1 -13 4.56000
-2 1 -13 4.08000
0 11 -11 1.95000
-2 10 -8 0.21000
-2 10 -8 0.07000
0 -1 16 0.00000
0 1 -16 0.23000
-3 5 8 3.25000
-3 5 8 5.73000
3 -5 -8 5.12000
4 0 2 1.70000
-4 0 -2 4.53000
-4 0 -2 3.39000
0 -9 -6 4.14000
0 9 6 0.51000
-3 -7 10 2.53000
-3 -7 10 -0.0200
3 7 -10 0.98000
-3 -8 5 3.15000
3 8 -5 0.90000
-3 -8 5 0.15000
-4 3 3 5.59000
-4 3 3 4.59000
1 11 -10 1.30000
4 2 -6 4.06000
-4 -2 6 4.22000
-4 -2 6 2.19000
3 8 -6 1.31000
-3 -8 6 3.17000
-3 -8 6 3.25000
-3 3 -10 6.40000
-3 3 -10 10.3800
2 10 -9 0.06000
-2 -10 9 -0.1000
-4 -2 0 2.65000
4 2 0 3.71000
-4 -2 0 1.51000
-1 9 6 1.22000
1 -9 -6 2.04000
-2 10 1 11.2900
-3 -3 -7 0.39000
-3 -3 -7 -0.5500
-3 6 -9 14.2100
-3 6 -9 15.6600
-4 -3 4 42.2500
-4 -3 4 34.7300
4 3 -4 35.9400
-4 -3 3 6.44000
4 3 -3 7.88000
-4 -3 3 5.92000
-3 -3 13 1.25000
-3 -3 13 0.72000
3 3 -13 1.98000
-3 -8 4 2.28000
3 8 -4 0.35000
-3 -8 4 0.00000
-3 -2 13 6.54000
-3 -2 13 9.30000
3 2 -13 6.36000
-2 -6 15 2.02000
2 6 -15 2.30000
-4 2 5 2.84000
-4 2 5 1.91000
0 11 1 -0.6300
-4 1 6 6.73000
-4 1 6 6.95000
4 -1 -6 8.99000
-2 4 12 -0.0800
2 -4 -12 1.05000
-2 4 12 0.13000
-3 8 -6 38.2100
2 9 -12 7.44000
-2 -9 12 8.72000
-1 4 13 1.91000
1 -4 -13 1.42000
-3 7 -8 0.29000
-4 3 -2 2.06000
-4 3 -2 2.10000
-3 2 -10 0.89000
-3 2 -10 2.04000
-3 4 -10 2.62000
-3 4 -10 1.72000
1 -5 -12 0.04000
-1 5 12 0.43000
0 -7 16 0.17000
0 7 -16 0.24000
-3 -2 -8 21.6500
-3 -2 -8 21.4900
-3 -8 7 14.9000
3 8 -7 22.4700
-3 -8 7 19.5800
-3 1 12 10.6400
-3 1 12 11.7000
-1 7 -15 4.33000
-1 7 -15 2.07000
1 11 -1 8.67000
-1 -11 1 9.41000
0 10 4 0.81000
0 -10 -4 0.90000
-4 -3 5 8.69000
4 3 -5 11.1900
-4 -3 5 7.66000
-4 -3 2 0.13000
-4 -3 2 0.54000
4 3 -2 1.59000
3 4 6 6.24000
-3 -4 -6 4.38000
-3 -4 -6 6.43000
2 -5 -11 7.41000
-2 5 11 5.72000
-2 5 11 5.27000
-1 8 8 0.63000
0 8 8 2.41000
0 -8 -8 0.31000
-2 -10 2 3.99000
2 10 -2 4.54000
0 12 -6 0.00000
0 12 -5 2.33000
2 8 4 14.2500
-2 -8 -4 15.5400
0 -5 -12 1.15000
-3 8 2 -0.2000
2 -3 -13 2.72000
-2 3 13 4.01000
-2 3 13 3.63000
0 4 13 2.22000
-3 -6 -3 0.46000
3 6 3 -0.5700
-3 -6 -3 -0.0500
-1 11 -10 4.42000
-1 11 -10 4.29000
-4 -1 7 2.03000
-4 -1 7 0.80000
4 1 -7 3.11000
-4 2 -3 4.60000
-4 2 -3 3.31000
-4 1 -3 10.3100
-4 1 -3 13.0000
-3 -4 13 9.16000
-3 -4 13 7.57000
3 4 -13 9.11000
-3 -8 3 1.78000
-3 -8 3 1.66000
3 8 -3 0.83000
1 7 -16 3.02000
-1 -7 16 1.56000
-2 8 -12 20.3200
-4 3 4 1.65000
-4 3 4 1.75000
-3 -1 13 6.94000
-3 -1 13 6.08000
3 1 -13 6.34000
1 10 -13 4.42000
-1 -10 13 3.16000
0 12 -7 0.67000
-4 4 0 12.8800
-4 4 0 13.3400
-1 10 4 0.44000
1 4 12 4.48000
-1 -4 -12 4.97000
-1 3 14 2.05000
1 -3 -14 1.77000
-4 -1 -2 1.99000
-4 -1 -2 0.42000
4 1 2 1.53000
4 0 -7 3.78000
-4 0 7 1.41000
-4 0 7 4.45000
-4 4 1 10.9600
-4 4 1 11.2900
0 12 -4 0.47000
1 9 5 23.4300
-1 -9 -5 22.9000
-1 6 11 2.71000
1 -6 -11 2.75000
1 5 11 6.89000
-1 -5 -11 8.67000
-3 7 5 3.72000
-3 7 5 2.92000
2 0 -15 0.37000
-2 0 15 0.14000
-1 11 1 2.87000
-3 -8 8 7.60000
-3 -8 8 5.82000
3 8 -8 5.66000
-4 -2 7 3.76000
4 2 -7 2.47000
-4 -2 7 1.00000
2 7 6 3.01000
-2 -7 -6 2.84000
-4 -3 6 1.94000
-4 -3 6 2.35000
4 3 -6 2.20000
-4 4 -1 8.99000
-4 4 -1 5.30000
-4 -3 1 19.5900
-4 -3 1 21.1000
4 3 -1 21.9700
3 7 1 1.37000
-3 -7 -1 1.23000
-3 -7 -1 0.98000
-4 -2 -1 0.06000
-4 -2 -1 2.35000
4 2 1 0.11000
3 6 -12 6.30000
-3 -6 12 10.2400
-3 -6 12 5.98000
-3 1 -10 16.6900
-3 1 -10 8.49000
-3 6 7 2.56000
-3 6 7 2.00000
3 -6 -7 3.82000
-3 -1 -9 0.94000
-3 -1 -9 0.93000
-3 5 -10 8.90000
-3 5 -10 3.47000
2 10 -10 0.35000
-2 -10 10 0.66000
0 -6 -11 1.09000
0 6 11 3.89000
-2 10 -9 3.89000
0 -3 -14 0.91000
0 3 14 0.64000
-4 3 -3 0.88000
-4 3 -3 1.36000
-4 0 -3 4.68000
-4 0 -3 3.73000
-4 4 2 8.25000
-4 4 2 5.21000
-2 9 -11 11.1200
1 8 7 1.93000
-1 -8 -7 1.73000
-1 -3 -13 7.19000
1 3 13 5.88000
-2 6 10 -0.0300
2 -6 -10 -0.8300
-2 -4 -10 -0.7900
2 4 10 0.41000
2 9 2 0.78000
-2 -9 -2 0.35000
1 0 -16 0.68000
-1 0 16 0.35000
0 12 -8 12.6900
-2 7 -13 1.54000
-2 7 -13 2.32000
1 11 -11 17.1000
-3 -5 -5 3.42000
-3 -5 -5 3.00000
3 5 5 2.95000
-2 0 -13 2.10000
-2 0 -13 0.92000
-4 2 6 2.18000
-4 2 6 0.57000
0 12 -3 1.22000
-2 -3 -11 -2.3900
-2 -3 -11 0.02000
3 8 -2 0.35000
-3 -8 2 2.50000
-3 -8 2 0.32000
-3 8 -7 9.99000
-4 4 -2 4.25000
-4 4 -2 6.79000
2 -2 -14 1.49000
-2 2 14 0.25000
-2 2 14 0.19000
3 7 -11 0.63000
-3 -7 11 0.85000
-3 -7 11 1.47000
-2 10 2 2.79000
-1 0 -15 1.78000
-1 0 -15 5.18000
-1 -6 -10 1.51000
1 6 10 1.35000
0 11 -12 0.72000
-1 4 -16 0.33000
-1 4 -16 -0.2700
2 8 -14 7.23000
-2 -8 14 7.25000
4 -1 -7 15.7700
-4 1 7 11.6200
-4 1 7 12.5500
-2 -5 -9 3.81000
2 5 9 4.59000
0 0 -16 -0.5400
0 0 16 0.57000
1 4 -17 8.41000
-1 -4 17 11.7100
0 9 -15 6.06000
0 9 -15 5.26000
0 -9 15 5.23000
-2 4 -14 4.41000
-2 4 -14 3.40000
1 10 3 2.99000
-1 -10 -3 5.18000
-2 8 7 1.36000
2 10 -1 2.82000
-2 -10 1 3.69000
0 4 -17 0.90000
0 -4 17 1.38000
-3 -5 13 15.7400
3 5 -13 18.4300
-3 -5 13 15.1900
2 3 -16 0.42000
-2 -3 16 0.00000
-2 3 -14 11.0100
-2 3 -14 9.37000
2 4 -16 1.06000
-2 -4 16 0.83000
-4 3 5 1.49000
-4 3 5 2.90000
4 3 -7 0.21000
-4 -3 7 0.97000
-4 -3 7 0.84000
-3 -8 9 4.58000
-3 -8 9 5.22000
3 8 -9 4.14000
-1 5 -16 11.1400
-1 5 -16 11.6600
-1 -11 0 6.97000
1 11 0 9.31000
-4 4 3 2.60000
-4 4 3 2.06000
-3 3 11 7.48000
-3 3 11 7.49000
-3 4 10 0.68000
-3 4 10 0.53000
4 3 0 15.1400
-4 -3 0 12.2900
-4 -3 0 15.0200
1 3 -17 0.80000
-1 -3 17 1.03000
-3 0 13 34.9600
-3 0 13 41.3900
-1 3 -16 8.20000
-1 3 -16 6.42000
-3 8 3 0.02000
1 -2 -15 0.43000
0 5 -17 0.92000
0 -5 17 0.94000
-4 2 -4 3.38000
-4 2 -4 4.58000
4 4 -4 5.20000
-4 -4 4 2.35000
-4 -4 4 5.66000
1 5 -17 1.07000
-1 -5 17 1.56000
-2 -7 15 0.04000
2 7 -15 0.82000
-4 -1 8 1.20000
-4 -1 8 0.95000
4 1 -8 1.20000
0 3 -17 3.30000
0 -3 17 3.84000
-1 12 -5 2.54000
-1 12 -5 2.46000
-1 7 10 1.45000
-2 5 -14 10.2200
-2 5 -14 12.7300
-4 1 -4 13.7400
-4 1 -4 13.3300
4 4 -3 0.23000
-4 -4 3 0.78000
-4 -4 3 -0.9400
-2 11 -4 3.16000
-2 11 -4 0.35000
0 11 2 14.4600
0 10 -14 5.87000
-4 -4 5 29.6400
-4 -4 5 20.5100
4 4 -5 27.7500
0 12 -9 2.95000
-1 12 -6 7.21000
-1 12 -6 6.42000
-3 7 -9 12.3100
-3 9 -3 1.78000
-3 9 -3 2.69000
-4 -2 8 4.90000
4 2 -8 6.12000
-4 -2 8 4.46000
-2 11 -5 8.05000
-2 11 -5 5.38000
-1 12 -4 2.24000
-3 9 -2 7.33000
-2 11 -3 4.55000
-2 11 -3 1.51000
-2 -2 -12 1.97000
-2 -2 -12 1.99000
0 7 10 0.53000
0 -7 -10 0.63000
-4 4 -3 -0.7300
-4 4 -3 1.95000
-4 -1 -3 2.09000
-4 -1 -3 3.19000
-1 11 -11 0.79000
-1 11 -11 2.22000
0 8 -16 2.22000
0 -8 16 1.21000
-2 -9 13 23.3700
2 9 -13 23.1600
-1 -2 -14 0.84000
-1 -2 -14 1.24000
-2 -2 16 8.90000
0 2 15 1.80000
0 -2 -15 2.70000
0 12 -2 7.85000
-4 -2 -2 7.15000
-4 -2 -2 4.35000
4 2 2 6.76000
4 0 -8 5.62000
-4 0 8 5.78000
-4 0 8 4.27000
-4 3 -4 0.73000
-4 3 -4 2.05000
2 5 -16 2.58000
-2 -5 16 2.52000
-1 8 -15 0.15000
-1 -9 15 7.41000
1 9 -15 6.90000
-3 2 12 1.49000
-3 2 12 0.31000
-3 5 9 8.95000
-3 5 9 9.41000
3 -5 -9 11.4700
-3 0 -10 4.05000
-3 0 -10 4.69000
-3 9 -4 -0.1600
-3 9 -4 0.29000
2 10 -11 11.7400
-2 -10 11 11.6700
-3 6 -10 4.78000
-3 6 -10 4.64000
-2 2 -14 4.17000
-2 2 -14 0.85000
-4 -4 2 16.6500
-4 -4 2 17.5700
4 4 -2 17.9700
4 4 -6 25.2500
-4 -4 6 24.0100
-4 -4 6 19.3400
-2 -6 -8 5.01000
2 6 8 5.94000
-3 9 -1 27.8600
3 8 -1 7.94000
-3 -8 1 7.23000
-3 -8 1 7.58000
-1 12 -7 5.21000
-1 12 -7 3.55000
-2 11 -6 2.43000
-2 11 -6 3.04000
2 -7 -9 3.08000
-2 7 9 4.18000
-1 -2 17 1.49000
1 2 -17 0.72000
-1 6 -16 0.51000
-1 6 -16 2.55000
-1 12 -3 -0.2800
-1 11 2 0.83000
-2 11 -2 6.61000
-2 11 -2 3.36000
0 6 -17 4.99000
0 -6 17 7.51000
-1 2 -16 1.00000
-1 2 -16 0.05000
-4 4 4 0.08000
-4 4 4 0.15000
-4 0 -4 3.11000
-4 0 -4 3.71000
-1 -7 -9 -0.5700
1 7 9 3.18000
1 8 -16 2.14000
-1 -8 16 2.43000
3 7 2 0.42000
-3 -7 -2 1.66000
-3 -7 -2 -0.2500
-4 5 0 2.34000
-4 5 0 1.59000
-2 10 -10 1.44000
-3 -6 -4 -0.0500
-3 -6 -4 -0.4900
3 6 4 -0.1200
1 6 -17 8.36000
-1 -6 17 10.6800
0 9 7 2.52000
0 -9 -7 9.41000
-4 5 -1 9.97000
-4 5 -1 10.0600
0 -2 17 0.54000
0 2 -17 1.00000
-4 2 7 0.60000
-4 2 7 0.31000
-1 9 7 4.00000
1 -9 -7 4.71000
1 12 -6 3.36000
-4 -3 8 6.27000
-4 -3 8 1.81000
4 3 -8 7.63000
-3 7 6 3.06000
-3 7 6 2.15000
-2 1 15 3.19000
2 -1 -15 1.75000
1 11 -12 4.03000
-3 9 -5 2.01000
-4 -3 -1 2.02000
-4 -3 -1 2.94000
4 3 1 1.78000
-3 8 -8 0.69000
0 10 5 1.11000
0 -10 -5 1.78000
-3 -8 10 0.80000
-3 -8 10 3.42000
3 8 -10 0.27000
-3 3 -11 0.91000
-3 3 -11 0.50000
-2 6 -14 3.68000
-2 6 -14 6.91000
-4 5 1 9.25000
-4 5 1 5.54000
1 12 -7 33.5700
-3 -3 -8 21.0800
-3 -3 -8 19.9600
1 10 -14 9.89000
-1 -10 14 6.77000
1 12 -5 1.01000
3 3 -14 1.48000
-3 -3 14 -0.0200
-3 -3 14 1.99000
-3 9 0 4.64000
-3 4 -11 2.12000
-3 4 -11 5.90000
-4 3 6 1.34000
-4 3 6 0.42000
-2 -10 0 10.4800
2 10 0 12.8200
-2 -8 -5 26.3400
2 8 5 26.9200
-4 -4 1 12.2100
4 4 -1 10.5300
-4 -4 1 12.4400
-1 10 5 4.93000
0 12 -10 0.97000
4 4 -7 5.07000
-4 -4 7 1.55000
-3 -4 -7 16.4900
-3 -4 -7 21.7800
-4 1 8 0.09000
-4 1 8 0.06000
4 -1 -8 -0.3500
-1 12 -8 6.29000
-1 12 -8 6.73000
-4 5 -2 15.4900
-4 5 -2 17.0000
-3 -2 14 7.70000
-3 -2 14 9.12000
3 2 -14 6.46000
-2 11 -7 11.3800
-2 11 -7 10.7100
-4 4 -4 0.70000
-4 4 -4 0.75000
3 6 -13 6.73000
-3 -6 13 6.02000
-3 -6 13 7.32000
3 7 -12 0.81000
-3 -7 12 -0.3300
-3 -7 12 1.74000
-1 12 -2 1.05000
-2 -1 16 2.49000
-3 2 -11 0.89000
-3 2 -11 1.46000
-3 -2 -9 5.13000
-3 -2 -9 3.70000
-2 11 -1 1.63000
1 12 -8 4.11000
2 9 3 -0.1700
-2 -9 -3 1.03000
0 12 -1 13.1000
-3 8 4 1.62000
2 6 -16 11.9200
-2 -6 16 7.43000
-2 8 -13 3.04000
-4 5 2 1.79000
-4 5 2 1.76000
3 4 -14 2.21000
-3 -4 14 1.14000
-3 -4 14 2.13000
-3 1 13 1.22000
-3 1 13 0.21000
-4 2 -5 23.8400
-4 2 -5 23.5400
3 -6 -8 0.91000
-3 6 8 0.87000
-3 6 8 0.39000
1 -1 -16 0.24000
-1 1 16 0.41000
1 12 -4 9.12000
-1 -11 -1 8.34000
1 11 1 12.3800
-2 9 -12 7.67000
-2 -1 -13 1.85000
-2 -1 -13 0.81000
0 11 -13 0.95000
4 1 -9 0.36000
-4 -1 9 0.83000
-4 -1 9 0.16000
-2 -11 6 17.4100
2 11 -6 20.4700
-2 1 -14 7.64000
-2 1 -14 3.16000
-4 -2 9 0.98000
-4 -2 9 0.98000
4 2 -9 0.63000
1 9 6 3.79000
-1 -9 -6 3.57000
-1 8 9 0.71000
-3 9 -6 0.16000
-2 -11 7 20.7800
2 11 -7 28.2900
-4 1 -5 0.64000
-4 1 -5 0.81000
-4 3 -5 7.27000
-4 3 -5 11.9500
-3 5 -11 3.75000
-3 5 -11 0.98000
-1 -1 -15 2.35000
-1 -1 -15 0.48000
-4 5 -3 4.83000
-4 5 -3 6.36000
2 11 -5 4.76000
-2 -11 5 6.35000
-4 -2 -3 3.64000
-4 -2 -3 4.96000
-3 -8 0 12.3800
3 8 0 12.3600
-1 -1 17 4.62000
1 1 -17 3.69000
0 8 9 1.24000
0 -8 -9 0.94000
-4 4 5 3.53000
-4 4 5 1.81000
-1 7 -16 0.17000
-1 7 -16 1.35000
-3 -1 14 13.1300
-3 -1 14 8.09000
3 1 -14 11.9600
-4 -1 -4 1.20000
-4 -1 -4 -0.1200
2 -4 -13 0.03000
-2 4 13 -0.1600
-3 -5 -6 5.52000
-3 -5 -6 18.8900
3 5 6 11.5900
-3 9 1 3.49000
0 -1 -16 0.89000
0 1 16 1.84000
-2 -7 -7 10.1900
2 7 7 13.1500
0 7 -17 2.83000
0 -7 17 2.35000
-2 5 12 1.69000
2 -5 -12 2.03000
2 10 -12 8.58000
-2 -10 12 10.4800
1 12 -9 2.25000
-1 -10 -4 4.08000
1 10 4 2.66000
-1 1 -16 4.63000
-1 1 -16 0.64000
-4 0 9 6.60000
4 0 -9 4.91000
-4 0 9 5.73000
2 11 -8 7.87000
-2 -11 8 3.96000
-3 -9 6 0.82000
3 9 -6 1.12000
-3 -9 6 0.86000
4 4 0 4.33000
-4 -4 0 3.01000
-4 -4 0 3.61000
4 4 -8 0.03000
-4 -4 8 1.78000
-4 -4 8 0.21000
-1 12 -9 10.6800
-1 12 -9 14.3500
0 11 3 1.32000
-3 -9 5 4.61000
-3 -9 5 3.32000
3 9 -5 3.42000
-2 11 -8 1.32000
-2 11 -8 2.99000
-1 -7 17 2.00000
1 7 -17 1.40000
-4 5 3 0.67000
-4 5 3 0.87000
-4 -5 4 7.10000
-4 -5 4 8.01000
4 5 -4 6.81000
1 12 -3 2.60000
4 5 -5 2.88000
-4 -5 5 1.67000
-4 -5 5 0.55000
-1 5 13 1.92000
1 -5 -13 4.31000
0 -1 17 6.71000
0 1 -17 8.59000
2 8 -15 9.16000
-2 -8 15 5.66000
-4 -3 9 2.89000
4 3 -9 2.17000
-4 -3 9 2.88000
-3 -1 -10 7.89000
-3 -1 -10 6.94000
-3 1 -11 8.50000
-3 1 -11 8.43000
3 9 -7 -0.0700
-3 -9 7 0.52000
-3 -9 7 1.10000
-2 -11 4 3.78000
2 11 -4 2.78000
-1 12 -1 -0.3700
-3 7 -10 1.53000
-4 -3 -2 2.98000
4 3 2 -0.0300
-4 -3 -2 0.90000
-2 11 0 1.82000
1 -4 -14 1.56000
-1 4 14 2.33000
3 5 -14 7.74000
-3 -5 14 8.70000
3 8 -11 6.57000
-3 -8 11 4.32000
-3 -8 11 7.44000
-2 3 14 1.47000
2 -3 -14 1.61000
-2 7 -14 22.7400
-2 8 8 3.25000
-1 -8 -8 0.31000
1 8 8 -0.4900
-4 -5 3 6.58000
4 5 -3 7.24000
-4 -5 3 6.16000
0 12 -11 0.11000
-3 -9 4 1.46000
3 9 -4 0.83000
-3 -9 4 2.91000
-4 -5 6 13.7500
-4 -5 6 12.1700
4 5 -6 11.2900
2 9 -14 5.47000
-2 -9 14 4.87000
-4 0 -5 2.46000
-4 0 -5 1.76000
-1 11 3 1.27000
-4 4 -5 15.3800
-4 4 -5 18.8700
-4 2 8 34.7000
-4 2 8 42.4900
-2 6 11 0.54000
2 -6 -11 1.28000
0 5 13 5.39000
0 -5 -13 0.44000
-2 10 -11 4.07000
1 -6 -12 0.64000
-1 6 12 1.54000
-3 8 -9 3.12000
-4 3 7 23.2600
-4 3 7 17.6000
-2 -11 9 1.37000
2 11 -9 1.37000
-4 5 -4 7.48000
-4 5 -4 10.6100
0 9 -16 1.99000
-3 -9 8 5.31000
3 9 -8 7.70000
-3 -9 8 5.13000
0 10 -15 1.40000
-3 -7 -3 0.92000
3 7 3 0.68000
-3 4 11 7.18000
-3 4 11 6.58000
3 -4 -11 7.44000
-3 9 -7 2.04000
1 11 -13 3.02000
2 10 1 1.10000
-2 -10 -1 3.44000
0 12 0 6.86000
0 4 14 -0.1200
-1 -5 -12 9.01000
1 5 12 1.29000
-1 -4 -13 8.74000
1 4 13 1.33000
2 0 -16 0.50000
-2 0 16 0.23000
-3 3 12 2.28000
-3 3 12 2.24000
1 12 -10 2.78000
-2 -4 -11 4.29000
-3 6 -11 5.79000
-3 6 -11 0.32000
1 -3 -15 3.45000
-1 3 15 0.72000
4 5 -2 11.1500
-4 -5 2 6.46000
-4 -5 2 12.5700
2 11 -3 16.6300
-2 -11 3 17.9700
2 7 -16 1.99000
-2 -7 16 3.36000
0 6 12 2.61000
0 -6 -12 -0.1500
-3 9 2 0.12000
-4 1 9 23.8400
-4 1 9 21.0200
-4 -5 7 4.18000
4 5 -7 7.25000
-4 -5 7 8.86000
-3 0 14 6.74000
-3 0 14 5.77000
-3 7 7 0.16000
-3 7 7 0.16000
2 5 10 0.27000
-2 -5 -10 2.45000
-3 -9 3 2.49000
-3 -9 3 1.78000
3 9 -3 0.25000
-3 5 10 6.77000
-3 5 10 6.45000
3 -5 -10 8.35000
-4 5 4 3.72000
-4 5 4 3.66000
3 6 5 3.70000
-3 -6 -5 3.39000
1 12 -2 1.26000
-4 6 -1 7.16000
-4 6 -1 7.75000
-3 8 5 0.74000
-4 6 0 -0.2800
-4 6 0 0.11000
-2 -3 -12 15.3100
-4 2 -6 5.56000
-4 2 -6 2.76000
-4 4 6 13.3300
-4 4 6 19.7300
1 9 -16 1.45000
-1 -9 16 0.64000
-1 -6 -11 0.15000
1 6 11 1.27000
4 4 1 9.97000
-4 -4 -1 6.67000
-4 -4 -1 7.19000
-1 12 -10 0.76000
-1 12 -10 3.02000
-4 -4 9 0.58000
-4 -4 9 0.02000
4 4 -9 1.82000
-2 0 -14 11.3500
-2 0 -14 8.39000
-2 11 -9 2.41000
-2 4 -15 2.55000
-2 4 -15 2.82000
-3 -7 13 0.13000
3 7 -13 2.33000
-3 -7 13 1.87000
2 -2 -15 1.56000
-2 2 15 1.96000
4 2 -10 0.92000
-4 -2 10 2.49000
-4 -2 10 1.03000
-3 -8 -1 10.2200
3 8 1 10.0800
-4 6 -2 12.1000
-4 6 -2 12.9700
-4 3 -6 4.73000
-4 3 -6 2.80000
1 11 2 4.17000
-1 -11 -2 4.25000
3 9 -9 3.56000
-3 -9 9 2.41000
-3 -9 9 6.01000
-1 -3 -14 0.14000
4 1 -10 2.66000
-4 -1 10 2.03000
-2 -4 17 3.97000
2 4 -17 3.20000
0 3 15 0.17000
-1 12 0 8.76000
-2 11 1 1.06000
1 10 -15 0.81000
-4 6 1 1.44000
-4 6 1 2.11000
2 3 -17 7.72000
-2 -3 17 6.14000
-3 2 13 -0.0400
-3 2 13 -0.9500
2 11 -10 10.9000
-2 -11 10 9.80000
-4 -2 -4 3.25000
-4 -2 -4 2.82000
-1 7 11 -0.0500
-2 3 -15 2.57000
-2 3 -15 -0.1100
-2 5 -15 -0.8000
-2 5 -15 -0.5000
-1 0 17 4.00000
1 0 -17 2.88000
-4 1 -6 5.97000
-4 1 -6 4.58000
-3 0 -11 13.5200
-3 0 -11 4.03000
0 -10 -6 7.39000
0 10 6 3.30000
-1 8 -16 1.58000
-1 4 -17 1.76000
-1 4 -17 1.42000
0 -8 17 1.14000
0 8 -17 1.45000
1 4 -18 0.37000
-1 -4 18 0.95000
-2 7 10 -0.2500
2 -7 -10 1.09000
-3 -6 14 1.31000
-3 -6 14 0.71000
3 6 -14 1.04000
-1 10 6 1.63000
-2 -9 -4 5.90000
2 9 4 4.00000
-4 -5 1 4.98000
-4 -5 1 5.40000
4 5 -1 9.08000
-4 -1 -5 -0.0500
-4 -1 -5 0.68000
-1 5 -17 0.72000
-1 5 -17 0.81000
2 10 -13 1.11000
-2 -10 13 2.00000
0 11 -14 2.48000
-2 -6 -9 1.65000
2 6 9 1.35000
-4 -3 10 -1.0200
4 3 -10 2.28000
-4 -3 10 0.04000
-4 5 -5 2.41000
-4 5 -5 1.51000
-4 -5 8 0.71000
4 5 -8 0.16000
-4 -5 8 3.93000
-1 0 -16 2.66000
-1 0 -16 7.08000
-2 -5 17 5.23000
2 5 -17 4.75000
-2 -8 -6 20.3600
2 8 6 21.1900
-1 9 8 2.60000
1 -9 -8 4.08000
-4 6 -3 5.77000
-4 6 -3 3.94000
-4 -3 -3 3.03000
-4 -3 -3 4.39000
1 5 -18 4.16000
-1 -5 18 4.54000
1 5 -18 3.88000
0 -4 18 0.19000
0 4 -18 0.05000
0 7 11 3.94000
0 -7 -11 2.01000
3 9 -2 0.52000
-3 -9 2 1.38000
2 11 -2 7.18000
-2 -11 2 6.34000
0 -9 -8 5.38000
0 9 8 0.83000
-3 -8 12 1.73000
-3 -8 12 3.04000
3 8 -12 4.34000
0 -5 18 1.82000
0 5 -18 1.05000
-2 9 -13 16.6300
-4 0 10 9.63000
4 0 -10 15.1000
-4 0 10 14.8800
1 8 -17 2.02000
-1 -8 17 -0.1500
1 3 -18 2.74000
-1 -3 18 2.28000
-3 9 -8 2.72000
0 12 -12 3.49000
1 12 -11 12.9500
-4 4 -6 3.23000
-4 4 -6 3.07000
-3 6 9 0.46000
-3 6 9 0.83000
3 -6 -9 0.79000
-3 -3 -9 0.25000
-3 -3 -9 6.98000
0 0 17 1.45000
0 0 -17 1.36000
-1 3 -17 -1.4600
-1 3 -17 0.38000
-3 3 -12 4.62000
-3 3 -12 4.45000
-3 4 -12 7.02000
-3 4 -12 12.7600
-3 -4 -8 4.39000
-3 -4 -8 2.88000
-2 -2 -13 3.69000
-2 -2 -13 2.16000
-4 6 2 9.64000
-4 6 2 7.25000
-3 -3 15 3.55000
-3 -3 15 5.78000
3 3 -15 4.73000
-1 2 16 0.92000
1 -2 -16 0.98000
-2 -2 17 2.75000
1 7 10 0.57000
-1 -7 -10 0.55000
-2 8 -14 0.09000
0 13 -6 4.24000
0 3 -18 0.36000
0 -3 18 1.78000
-2 2 -15 6.04000
-2 2 -15 8.95000
-2 6 -15 9.16000
-2 6 -15 11.0200
-3 9 3 1.77000
-3 -4 15 1.19000
3 4 -15 0.11000
-3 -4 15 3.88000
0 12 1 -0.3100
-1 6 -17 3.05000
-1 6 -17 0.15000
1 12 -1 15.6700
-4 5 5 10.7200
-4 5 5 13.6700
3 2 -15 21.5000
-3 -2 15 16.3700
-3 -2 15 24.6300
-3 -9 10 1.03000
-3 -9 10 0.18000
3 9 -10 0.32000
-3 10 -3 13.0100
-3 10 -3 12.8500
0 11 4 4.27000
0 13 -7 2.56000
-4 3 8 4.27000
-4 3 8 5.66000
0 13 -5 5.86000
-4 2 9 6.10000
-4 2 9 3.94000
-4 0 -6 1.18000
-4 0 -6 6.33000
-3 10 -4 2.76000
-3 10 -4 4.89000
-1 -2 -15 -1.0800
-3 -2 -10 2.51000
-3 -2 -10 2.96000
-3 2 -12 4.63000
-3 2 -12 14.4400
-3 10 -2 2.81000
-3 10 -2 0.88000
-1 -10 -5 4.32000
1 10 5 1.30000
1 6 -18 3.63000
1 6 -18 2.58000
-1 -6 18 4.06000
0 6 -18 6.55000
0 -6 18 6.41000
-3 8 -10 -0.7800
-3 7 -11 3.49000
-3 5 -12 10.1900
-3 5 -12 3.66000
-4 6 -4 7.32000
-1 -9 -7 1.61000
1 9 7 1.39000
0 -2 -16 1.16000
0 2 16 1.12000
-1 11 4 2.53000
-3 -5 -7 19.8000
2 10 2 2.22000
-2 -10 -2 3.36000
-2 -11 11 0.61000
2 11 -11 0.73000
-2 10 -12 -0.5100
4 4 2 1.37000
-4 -4 -2 0.29000
-4 -4 -2 4.24000
-1 12 -11 0.77000
-1 12 -11 1.57000
-3 1 14 0.69000
-3 1 14 0.81000
-2 11 -10 2.27000
-4 -4 10 4.32000
-4 -4 10 0.97000
4 4 -10 2.75000
2 6 -17 4.72000
-2 -6 17 4.36000
4 5 0 0.35000
-4 -5 0 0.77000
-4 -5 0 0.38000
0 13 -8 1.96000
-4 -6 5 16.6200
4 6 -5 4.56000
-4 -6 5 4.39000
1 11 -14 3.00000
-1 -2 18 1.98000
1 2 -18 2.23000
0 13 -4 2.36000
-2 1 16 1.43000
2 -1 -16 2.22000
-3 10 -5 0.89000
-4 4 7 3.73000
-4 4 7 3.79000
4 5 -9 3.68000
-4 -5 9 1.49000
-4 -5 9 -0.1000
-4 -6 4 4.05000
4 6 -4 5.80000
-4 -6 4 3.45000
2 9 -15 0.48000
-2 -9 15 -0.1800
-3 -7 -4 2.00000
3 7 4 1.21000
-4 6 3 2.76000
-4 6 3 3.47000
-1 12 1 1.82000
-4 -6 6 12.9500
-4 -6 6 11.6200
4 6 -6 12.5100
-1 2 -17 6.36000
-3 10 -1 1.44000
-3 10 -1 2.67000
-2 11 2 2.69000
-2 -8 16 0.71000
2 8 -16 2.05000
2 7 8 0.81000
-2 -7 -8 4.76000
-1 8 10 2.08000
3 9 -1 4.26000
-3 -9 1 6.75000
-4 1 10 3.50000
-4 1 10 0.76000
-3 -5 15 6.82000
3 5 -15 4.27000
-3 -5 15 5.28000
3 8 2 0.89000
-3 -8 -2 1.16000
-3 -1 15 4.24000
-3 -1 15 7.21000
2 11 -1 0.78000
-2 -11 1 0.86000
-4 5 -6 3.05000
-4 5 -6 0.83000
0 2 -18 2.04000
0 -2 18 1.68000
-4 2 -7 0.26000
-4 2 -7 1.04000
2 1 -17 3.01000
-2 -1 17 2.03000
-4 -6 3 0.82000
-4 -6 3 0.55000
4 6 -3 1.40000
-4 3 -7 1.39000
-4 3 -7 1.00000
-2 12 -5 1.58000
-2 12 -5 0.68000
-2 12 -4 3.28000
4 2 -11 1.52000
-4 -2 11 -0.2300
-4 -2 11 0.92000
0 -8 -10 -0.5500
0 8 10 0.26000
-2 8 9 2.19000
-4 -6 7 10.9600
4 6 -7 17.9700
-4 -6 7 15.6400
0 13 -9 0.67000
1 12 -12 4.70000
-2 -1 -14 -0.1100
-2 -1 -14 8.83000
-3 7 8 1.85000
4 1 -11 3.41000
-4 -1 11 2.34000
-4 -1 11 0.37000
-1 7 -17 0.12000
-1 7 -17 2.04000
-3 10 -6 -0.8300
-4 -2 -5 2.54000
-4 -2 -5 4.81000
0 13 -3 1.93000
-3 -1 -11 9.70000
-3 -1 -11 1.49000
-2 12 -6 5.95000
-2 12 -6 4.92000
1 11 3 5.48000
-1 -11 -3 6.04000
-3 1 -12 14.5500
-3 1 -12 16.5400
0 10 -16 1.22000
-3 9 -9 5.87000
-2 12 -3 0.54000
2 -5 -13 8.78000
-2 5 13 8.67000
-4 6 -5 29.4200
-3 -7 14 18.0000
-3 -7 14 16.6900
3 7 -14 17.5700
-2 1 -15 2.59000
-2 1 -15 10.3900
-2 7 -15 3.54000
3 9 -11 3.60000
-3 -9 11 5.14000
-3 -9 11 6.41000
-3 6 -12 2.94000
-3 6 -12 1.13000
-4 -3 11 14.0800
4 3 -11 13.6400
-4 -3 11 10.9500
-3 10 0 3.92000
-2 4 14 6.87000
2 -4 -14 3.66000
0 -7 18 0.28000
0 7 -18 0.02000
-4 -3 -4 0.59000
-4 -3 -4 3.75000
-1 13 -6 1.14000
-1 13 -5 -0.1200
-3 -6 -6 5.49000
3 6 6 2.42000
-4 1 -7 0.62000
-4 1 -7 3.77000
-1 -7 18 6.04000
1 7 -18 3.88000
-1 -8 -9 3.75000
1 8 9 4.16000
-2 -10 14 -0.3300
2 10 -14 -0.8000
-4 4 -7 4.33000
-4 4 -7 12.6800
1 -1 -17 2.45000
-1 1 17 0.82000
-3 4 12 1.56000
-3 4 12 2.06000
3 -4 -12 1.44000
0 12 -13 4.13000
1 12 0 3.24000
-3 -8 13 2.34000
-3 -8 13 5.19000
3 8 -13 5.51000
-4 5 6 0.56000
-4 5 6 0.31000
-4 -1 -6 1.24000
4 6 -2 -0.1900
-4 -6 2 -0.3000
-4 -6 2 1.75000
0 9 -17 0.52000
-4 7 -1 0.66000
-1 13 -7 2.08000
-1 13 -4 3.38000
-4 6 4 6.82000
-4 6 4 2.86000
-4 -6 8 0.00000
-4 -6 8 0.20000
4 6 -8 -1.0700
-4 7 -2 -0.6000
-2 12 -7 14.6600
-2 12 -7 12.0000
-2 6 12 1.38000
2 -6 -12 1.60000
2 11 -12 8.47000
4 5 1 1.07000
-4 -5 -1 1.41000
-4 -5 -1 0.61000
-3 5 11 2.99000
-3 5 11 2.39000
3 -5 -11 2.61000
-3 3 13 2.63000
-3 3 13 1.48000
3 -3 -13 1.17000
-2 12 -2 3.84000
-4 7 0 5.57000
-1 -1 -16 3.11000
-1 -1 -16 -0.3400
2 7 -17 0.88000
-2 -7 17 0.56000
1 1 -18 6.90000
-1 -1 18 7.39000
-4 0 11 0.28000
-4 0 11 0.89000
4 0 -11 0.24000
-4 -5 10 -1.2200
4 5 -10 3.51000
-4 -5 10 0.78000
1 10 -16 0.57000
1 -5 -14 11.3100
-1 5 14 9.38000
0 12 2 0.16000
-2 3 15 6.61000
2 -3 -15 7.96000
-2 -9 -5 10.8800
2 9 5 8.08000
0 13 -10 0.62000
-1 -9 17 2.18000
1 9 -17 2.81000
3 6 -15 0.52000
-3 -6 15 0.75000
-3 -6 15 2.22000
-1 1 -17 0.66000
-1 1 -17 2.79000
0 -1 -17 0.12000
0 1 17 0.88000
-1 12 -12 15.7000
-4 7 -3 11.5500
-4 -4 -3 0.27000
-4 -4 -3 1.79000
-3 10 -7 1.34000
-2 11 -11 5.66000
-3 0 15 0.26000
-3 0 15 0.59000
-3 -9 0 3.03000
3 9 0 3.82000
4 4 -11 3.37000
-4 -4 11 1.87000
-4 -4 11 2.25000
-3 -10 6 6.63000
3 10 -6 3.80000
-3 -10 6 5.49000
-4 3 9 4.92000
-4 3 9 3.33000
0 13 -2 2.19000
-1 4 15 0.28000
1 -4 -15 0.77000
-1 13 -8 0.77000
-1 13 -8 0.35000
-1 10 7 5.13000
-1 6 13 4.20000
3 10 -7 8.37000
-3 -10 7 7.51000
-3 -10 7 12.0900
-1 13 -3 4.32000
-4 7 1 2.82000
0 -10 -7 11.2000
0 10 7 14.1300
1 13 -7 0.91000
1 13 -6 1.21000
-1 12 2 2.62000
-3 -10 5 1.10000
-3 -10 5 -0.2600
3 10 -5 2.28000
-4 2 10 7.60000
-4 2 10 3.71000
-2 -11 0 3.68000
2 11 0 2.24000
-2 -4 -12 16.2200
0 1 -18 3.43000
0 -1 18 3.88000
-2 11 3 2.57000
-2 9 -14 -0.0500
-2 -5 -11 3.34000
-4 0 -7 1.07000
-4 0 -7 2.27000
-3 8 -11 -0.2200
0 -5 -14 7.38000
0 5 14 2.86000
-4 4 8 3.16000
-4 4 8 1.85000
-2 -8 -7 11.4900
2 8 7 6.44000
4 6 -1 0.78000
-4 -6 1 0.49000
-4 -6 1 -0.6400
-2 -10 -3 4.34000
2 10 3 4.21000
1 5 13 1.64000
-1 -5 -13 -2.4900
-2 12 -8 1.02000
-4 5 -7 4.03000
-4 5 -7 3.09000
-3 6 10 0.60000
3 -6 -10 0.46000
3 10 -8 -0.1200
-3 -10 8 0.98000
-3 -10 8 0.75000
1 13 -8 -0.3800
-4 6 -6 4.11000
2 0 -17 3.77000
-2 0 17 1.78000
-2 12 -1 1.60000
-3 2 14 1.43000
-3 2 14 0.08000
2 12 -7 1.06000
0 11 5 2.51000
1 13 -5 2.48000
2 12 -6 0.10000
4 6 -9 1.39000
-4 -6 9 0.04000
-4 -6 9 0.17000
-1 -4 -14 13.8600
0 -6 -13 10.2100
0 6 13 2.98000
-4 7 -4 9.10000
-2 10 -13 7.83000
-2 7 11 3.60000
2 -7 -11 2.35000
-1 9 9 2.99000
1 -9 -9 1.89000
-1 11 5 6.20000
0 -4 -15 5.51000
-3 0 -12 3.91000
-3 0 -12 3.27000
1 12 -13 9.03000
-3 -9 12 7.27000
-3 -9 12 6.66000
3 9 -12 8.05000
3 10 -4 1.46000
-3 -10 4 2.62000
1 11 -15 0.55000
-1 8 -17 0.54000
2 12 -8 0.71000
-2 -3 -13 4.09000
1 6 12 9.64000
-1 -6 -12 19.4000
-3 7 -12 1.80000
-2 4 -16 -0.0200
-2 4 -16 1.19000
-3 -8 -3 1.51000
-3 -4 -9 1.49000
-4 7 2 7.03000
-2 -4 18 4.26000
2 4 -18 4.04000
-1 3 16 7.01000
1 -3 -16 9.69000
2 12 -5 16.2500
-3 4 -13 0.62000
-3 4 -13 0.32000
-1 13 -9 1.76000
-1 13 -9 1.48000
0 8 -18 -0.0800
0 -8 18 0.01000
0 -9 -9 3.17000
0 9 9 4.03000
-2 -6 -10 -0.3200
-2 5 -16 0.62000
-2 5 -16 0.14000
-1 7 12 1.33000
-3 -3 -10 0.67000
-1 13 -2 7.48000
1 13 -9 3.19000
-1 -10 -6 -1.2900
1 10 6 1.93000
3 7 5 14.9400
-3 -7 -5 21.3700
-3 9 -10 3.48000
-2 2 16 -0.0100
2 -2 -16 1.86000
-3 3 -13 5.95000
-3 3 -13 4.19000
-4 6 5 4.39000
-2 0 -15 6.32000
-2 0 -15 6.48000
-2 8 -15 -0.1700
3 3 -16 -0.6000
-3 -3 16 0.15000
-3 -3 16 0.59000
-4 1 11 0.70000
-4 1 11 1.17000
-4 3 -8 1.27000
-4 3 -8 1.71000
3 10 -9 0.69000
-3 -10 9 1.45000
-3 -10 9 0.19000
1 8 -18 1.33000
-1 -8 18 1.98000
-2 -3 18 7.87000
1 13 -4 1.76000
0 13 -11 0.18000
-3 -4 16 0.86000
-3 -4 16 0.79000
3 4 -16 0.85000
4 2 -12 1.23000
-4 -2 12 1.76000
-4 -2 12 -0.1000
-2 -5 18 8.31000
2 5 -18 7.73000
-4 2 -8 2.84000
-4 2 -8 3.52000
-2 3 -16 5.71000
-2 3 -16 7.72000
-3 10 -8 6.43000
1 12 1 1.58000
-2 -9 16 0.48000
2 9 -16 1.72000
2 12 -9 1.73000
-4 -5 -2 0.14000
-4 -5 -2 2.58000
4 5 2 0.01000
-4 5 7 5.72000
-4 5 7 2.91000
-3 -5 -8 4.47000
0 13 -1 2.67000
-3 5 -13 2.91000
-3 5 -13 0.53000
2 11 -13 1.35000
-1 -3 -15 2.37000
-4 -3 12 7.09000
-4 -3 12 4.01000
4 3 -12 4.70000
-4 -2 -6 3.89000
-4 -2 -6 1.38000
0 7 12 4.70000
0 -7 -12 7.13000
-3 -2 16 1.70000
3 2 -16 1.52000
-3 -2 16 0.32000
-4 -5 11 1.66000
-4 -5 11 0.36000
4 5 -11 2.24000
-4 -3 -5 3.16000
-4 -3 -5 2.83000
2 12 -4 2.17000
4 1 -12 0.81000
-4 -1 12 -0.3300
-4 -1 12 -0.2800
-4 4 -8 20.3300
-4 4 -8 11.7600
3 10 -3 1.26000
-3 -10 3 2.46000
-1 -9 -8 -0.7300
1 9 8 1.71000
-2 12 -9 4.50000
-1 5 -18 0.87000
-1 5 -18 0.08000
0 3 16 0.67000
-1 4 -18 4.26000
-1 4 -18 1.79000
-4 -7 5 2.77000
-4 -7 5 4.77000
4 7 -5 5.15000
-4 7 -5 3.16000
1 4 -19 1.37000
-1 -4 19 2.29000
0 12 -14 2.55000
-4 -7 6 3.15000
4 7 -6 8.81000
-4 -7 6 6.73000
-3 -2 -11 -0.1100
-3 -2 -11 4.51000
1 11 4 0.26000
-1 -11 -4 5.68000
-2 6 -16 0.33000
-2 6 -16 1.42000
-1 -5 19 -0.2500
1 5 -19 0.15000
-2 12 0 8.54000
-4 -6 0 2.64000
4 6 0 2.39000
-4 -6 0 2.39000
3 8 -14 1.89000
-3 -8 14 5.06000
-3 -8 14 4.26000
-3 2 -13 4.03000
-3 2 -13 6.37000
1 7 11 0.95000
-1 -7 -11 0.94000
-1 0 18 1.52000
1 0 -18 0.61000
-2 -8 17 3.66000
2 8 -17 5.51000
-2 -10 15 23.2300
2 10 -15 22.8000
3 9 1 0.80000
-3 -9 -1 5.64000
1 13 -10 1.27000
4 7 -4 -0.1100
-4 -7 4 0.63000
-4 -7 4 -0.7300
-3 -7 15 6.78000
-3 -7 15 7.24000
3 7 -15 8.45000
3 5 -16 1.99000
-3 -5 16 0.94000
-2 -2 -14 9.29000
-4 1 -8 1.39000
-4 1 -8 3.83000
-3 7 9 3.87000
-4 -6 10 -0.1700
-4 -6 10 2.32000
4 6 -10 0.52000
4 7 -7 8.23000
-4 -7 7 9.87000
-4 -7 7 5.86000
-4 7 3 11.0500
-2 -2 18 0.48000
2 2 -18 3.29000
0 -5 19 0.65000
0 5 -19 1.41000
-3 1 15 0.53000
-3 1 15 2.39000
0 4 -19 2.83000
0 -4 19 2.49000
-4 -1 -7 8.29000
-4 -1 -7 13.4100
-3 -10 10 -0.2200
-3 -10 10 0.39000
3 10 -10 1.29000
1 13 -3 0.93000
-1 0 -17 1.92000
-1 0 -17 0.62000
-1 13 -10 0.84000
-1 13 -10 0.39000
-2 -6 18 8.18000
2 6 -18 4.86000
-1 12 -13 5.09000
-1 -3 19 4.26000
1 3 -19 6.26000
0 12 3 0.40000
2 12 -10 5.53000
-1 6 -18 1.06000
-1 6 -18 1.17000
-4 -4 -4 1.71000
-4 -4 -4 4.81000
-2 11 -12 5.17000
-4 6 -7 9.04000
2 7 9 0.51000
-2 -7 -9 0.73000
-1 3 -18 1.46000
-1 3 -18 -0.0600
-1 13 -1 2.49000
-2 -11 -1 9.69000
2 11 1 6.20000
-4 -4 12 2.56000
-4 -4 12 1.57000
4 4 -12 2.08000
-2 2 -16 3.64000
-2 2 -16 4.67000
-1 -6 19 1.58000
1 6 -19 0.69000
-2 8 10 0.01000
-1 2 17 0.17000
1 -2 -17 0.29000
-3 6 -13 21.9600
-3 -6 -7 5.41000
-4 -7 3 -0.0200
-4 -7 3 0.13000
4 7 -3 -0.4000
0 0 18 4.27000
0 0 -18 2.34000
-1 8 11 1.87000
-1 12 3 2.45000
-4 0 12 0.80000
-4 0 12 -0.0900
2 12 -3 4.48000
-3 -1 16 2.11000
-3 -1 16 2.44000
0 6 -19 4.83000
0 -6 19 2.25000
-2 11 4 3.65000
-4 5 -8 4.47000
-4 5 -8 7.88000
-4 -7 8 1.82000
4 7 -8 0.55000
-4 -7 8 0.95000
-4 3 10 1.05000
-4 3 10 0.92000
0 -3 19 12.3200
0 3 -19 11.8900
-3 -10 2 7.03000
3 10 -2 7.82000
3 9 -13 1.89000
-3 -9 13 0.13000
-3 -9 13 3.56000
0 13 -12 14.9300
-4 4 9 3.74000
-4 4 9 6.48000
-1 -2 -16 6.93000
-3 10 -9 5.81000
-4 6 6 0.93000
-4 6 6 5.00000
-2 1 17 0.14000
2 -1 -17 1.17000
-4 7 -6 13.6700
1 12 -14 1.14000
0 -8 -11 2.95000
0 8 11 2.37000
-3 11 -4 0.13000
-3 11 -4 1.22000
-3 11 -3 11.4000
-3 11 -3 12.8300
-3 -1 -12 -1.4100
-3 -1 -12 2.47000
-2 7 -16 3.94000
2 9 6 2.89000
-2 -9 -6 3.87000
-4 2 11 16.4200
-4 2 11 11.8700
0 13 0 7.22000
-3 1 -13 4.88000
-3 1 -13 8.37000
1 13 -11 0.52000
-2 12 -10 -0.4900
3 -4 -13 5.27000
-3 4 13 5.36000
-3 4 13 4.18000
1 10 -17 3.61000
-3 8 -12 4.28000
-4 8 -2 7.20000
0 2 17 0.65000
0 -2 -17 0.43000
2 10 4 3.53000
-2 -10 -4 12.4300
-4 8 -1 10.7000
-4 0 -8 6.51000
-4 0 -8 9.35000
-3 -6 16 -0.1800
3 6 -16 1.68000
-3 -6 16 0.06000
-2 12 1 1.64000
-3 5 12 1.08000
3 -5 -12 1.01000
1 2 -19 7.88000
-1 -2 19 4.93000
-3 11 -5 2.95000
-3 11 -2 1.23000
-3 11 -2 0.27000
2 12 -11 5.02000
-1 7 -18 1.26000
-1 7 -18 2.53000
-4 -7 2 1.66000
-4 -7 2 0.67000
4 7 -2 0.19000
1 13 -2 1.08000
-4 -6 -1 0.88000
-4 -6 -1 2.59000
4 6 1 2.94000
0 9 -18 0.49000
-1 -8 -10 11.7300
1 8 10 1.12000
-3 -10 11 -0.1900
-3 -10 11 0.05000
3 10 -11 3.29000
-4 7 4 7.27000
-1 2 -18 0.35000
-1 2 -18 5.79000
-3 9 -11 0.54000
-4 8 -3 -0.4000
2 1 -18 1.67000
-2 -1 18 1.41000
-4 -5 -3 0.32000
-4 -5 -3 0.68000
2 -5 -14 1.88000
-2 5 14 3.22000
-3 -8 -4 5.94000
3 8 4 0.37000
-4 8 0 2.20000
-1 10 8 3.11000
-4 -7 9 0.01000
-4 -7 9 0.04000
4 7 -9 0.87000
1 12 2 4.73000
3 -3 -14 4.96000
-3 3 14 5.37000
-3 3 14 5.70000
-1 -7 19 5.95000
1 7 -19 4.94000
-1 13 -11 1.03000
-2 10 -14 2.25000
2 7 -18 5.62000
-2 -7 18 3.74000
2 11 -14 -0.2800
-4 -6 11 1.98000
4 6 -11 1.64000
-4 -6 11 1.64000
4 5 -12 4.24000
-4 -5 12 4.63000
-4 -5 12 3.67000
-4 5 8 2.80000
-4 5 8 0.59000
0 -7 19 0.31000
0 7 -19 0.01000
-2 -1 -15 11.0900
-2 9 -15 0.52000
-2 4 15 5.42000
2 -4 -15 2.18000
-1 -9 18 2.10000
1 9 -18 1.97000
-1 11 6 5.05000
1 11 -16 1.80000
0 11 6 -0.3600
-1 13 0 7.53000
2 12 -2 2.75000
0 -10 -8 -1.3900
0 10 8 3.82000
2 -6 -13 1.05000
-2 6 13 0.10000
-3 11 -6 6.09000
-2 1 -16 12.0400
-2 1 -16 3.96000
0 2 -19 2.27000
0 -2 19 4.88000
-4 3 -9 4.14000
-4 3 -9 7.93000
-3 11 -1 1.94000
-3 6 11 5.24000
3 -6 -11 3.08000
-4 8 -4 2.88000
-4 1 12 7.17000
-4 1 12 2.21000
-3 7 -13 0.05000
4 2 -13 4.92000
-4 -2 13 0.88000
-4 -2 13 3.03000
-3 -9 -2 0.27000
2 8 8 -0.0600
-2 -8 -8 2.03000
3 10 -1 3.24000
-3 -10 1 3.27000
-4 2 -9 -0.4900
-4 2 -9 1.78000
-4 -3 13 -0.6700
-4 -3 13 1.02000
4 3 -13 0.23000
-3 -7 -6 0.25000
3 7 6 0.78000
-3 0 16 0.29000
-3 0 16 1.01000
-4 8 1 1.52000
-4 4 -9 -0.1300
-4 4 -9 3.02000
-4 -3 -6 9.92000
-4 -3 -6 8.05000
-4 6 -8 12.6500
-4 -2 -7 3.75000
-4 -2 -7 1.42000
1 -1 -18 8.89000
-1 1 18 3.83000
4 7 -1 8.28000
-4 -7 1 1.17000
-4 -7 1 2.27000
-3 -8 15 0.15000
3 8 -15 2.08000
-3 -8 15 1.08000
-2 3 16 0.57000
2 -3 -16 0.51000
0 14 -7 4.30000
1 13 -12 -0.1700
-1 -10 -7 1.68000
1 10 7 2.03000
0 14 -6 5.00000
4 1 -13 8.17000
-4 -1 13 11.8100
-4 -1 13 10.5700
-4 7 -7 -0.1600
-2 -11 -2 2.95000
2 11 2 0.17000
1 -9 -10 4.25000
-1 9 10 2.77000
-1 5 15 1.97000
1 -5 -15 2.06000
-3 2 15 0.67000
3 -2 -15 4.12000
-3 2 15 1.47000
-2 -9 17 0.02000
2 9 -17 0.24000
-1 12 -14 2.34000
-2 11 -13 6.88000
-4 -4 -5 0.46000
-4 -4 -5 -0.1500
0 13 -13 4.50000
-3 11 -7 2.27000
1 11 5 4.28000
-1 -11 -5 7.01000
-3 -4 -10 0.82000
-2 7 12 2.27000
2 -7 -12 0.44000
-2 -5 -12 0.58000
2 12 -12 14.5100
-1 6 14 1.58000
4 7 -10 1.75000
-4 -7 10 3.40000
-4 -7 10 0.96000
-4 -4 13 3.87000
4 4 -13 2.10000
-4 -4 13 4.85000
2 10 -16 4.87000
-2 -10 16 1.16000
0 14 -8 1.08000
-3 10 -10 1.89000
-3 11 0 4.77000
0 14 -5 2.20000
-4 8 -5 1.08000
1 13 -1 3.40000
-2 -4 -13 8.57000
-2 12 -11 2.48000
-1 -1 -17 7.74000
0 12 4 2.53000
-3 4 -14 -0.8900
-3 4 -14 2.66000
-2 8 -16 -0.6200
-3 0 -13 2.42000
-3 0 -13 0.58000
-1 -1 19 1.81000
1 1 -19 0.61000
-3 -10 12 0.28000
-3 -10 12 1.30000
3 10 -12 2.26000
-4 1 -9 8.11000
-4 1 -9 8.84000
-2 13 -5 3.48000
0 13 1 8.92000
-3 -3 -11 0.86000
-2 12 2 4.44000
0 -9 -10 3.11000
0 9 10 4.40000
-1 12 4 2.35000
-4 6 7 0.43000
-4 6 7 1.26000
1 -4 -16 1.63000
-1 4 16 0.42000
-4 -1 -8 4.87000
-4 -1 -8 5.97000
-3 -9 14 3.85000
-3 -9 14 6.99000
3 9 -14 6.20000
-3 -5 -9 3.24000
-4 7 5 1.46000
-4 8 2 0.35000
3 7 -16 4.62000
-3 -7 16 1.33000
-3 -7 16 0.78000
-4 5 -9 0.64000
-3 -4 17 0.24000
3 4 -17 3.26000
-3 -4 17 0.32000
-2 11 5 2.73000
-3 -3 17 2.61000
-3 -3 17 1.39000
3 3 -17 2.14000
