#------------------------------------------------------------------------------
#$Date: 2019-12-26 22:19:39 +0200 (Thu, 26 Dec 2019) $
#$Revision: 246169 $
#$URL: file:///home/coder/svn-repositories/cod/cif/2/31/19/2311924.cif $
#------------------------------------------------------------------------------
#
# This file is available in the Crystallography Open Database (COD),
# http://www.crystallography.net/. The original data for this entry
# were provided by IUCr Journals, http://journals.iucr.org/.
#
# The file may be used within the scientific community so long as
# proper attribution is given to the journal article from which the
# data were obtained.
#
data_2311924
loop_
_publ_author_name
'Jandl, Christian'
'P\"othig, Alexander'
_publ_section_title
;
 Hydroxytropylium chloride: the first crystal structure of an
 unfunctionalized hydroxytropylium ion.
;
_journal_coeditor_code           FP3042
_journal_issue                   'Pt 10'
_journal_name_full
'Acta crystallographica. Section C, Structural chemistry'
_journal_page_first              810
_journal_page_last               813
_journal_paper_doi               10.1107/S2053229617013183
_journal_volume                  73
_journal_year                    2017
_chemical_formula_iupac          'C7 H7 O +, Cl -'
_chemical_formula_moiety         'C7 H7 O +, Cl -'
_chemical_formula_sum            'C7 H7 Cl O'
_chemical_formula_weight         142.58
_chemical_name_systematic
;
Hydroxytropylium chloride
;
_space_group_IT_number           7
_space_group_name_Hall           'P -2yc'
_space_group_name_H-M_alt        'P 1 c 1'
_symmetry_cell_setting           monoclinic
_symmetry_space_group_name_Hall  'P -2yc'
_symmetry_space_group_name_H-M   'P 1 c 1'
_atom_sites_solution_hydrogens   mixed
_cell_angle_alpha                90
_cell_angle_beta                 98.727(3)
_cell_angle_gamma                90
_cell_formula_units_Z            2
_cell_length_a                   4.8622(3)
_cell_length_b                   6.9718(4)
_cell_length_c                   10.1539(5)
_cell_measurement_reflns_used    9915
_cell_measurement_temperature    123
_cell_measurement_theta_max      36.3569
_cell_measurement_theta_min      2.9217
_cell_volume                     340.21(3)
_computing_cell_refinement
;
SAINT (Bruker, 2012)
;
_computing_data_collection
;
APEX2 (Bruker, 2013)
;
_computing_data_reduction
;
SAINT (Bruker, 2012)
;
_computing_molecular_graphics
;
PLATON (Spek, 2009) and Mercury (Macrae <i>et al.</i>,  2006)
;
_computing_publication_material
;
PLATON (Spek, 2009), enCIFer (Allen <i>et al.</i>,  2004) and
publCIF (Westrip, 2010)
;
_computing_structure_refinement
;
SHELXL2014 (Sheldrick, 2015)and ShelXle (H\"ubschle <i>et al.</i>,
2011)
;
_computing_structure_solution
;
SHELXS97 (Sheldrick, 2008)
;
_diffrn_ambient_temperature      123
_diffrn_detector_area_resol_mean 16
_diffrn_measured_fraction_theta_full 1.000
_diffrn_measured_fraction_theta_max 1.000
_diffrn_measurement_device       ' \k-geometry diffractometer '
_diffrn_measurement_device_type  'Bruker APEXII CCD'
_diffrn_measurement_method       ' phi- and omega-rotation '
_diffrn_radiation_monochromator  'MONTEL optic'
_diffrn_radiation_source         'rotating anode FR591'
_diffrn_radiation_type           MoK\a
_diffrn_radiation_wavelength     0.71073
_diffrn_reflns_av_R_equivalents  0.0312
_diffrn_reflns_limit_h_max       6
_diffrn_reflns_limit_h_min       -6
_diffrn_reflns_limit_k_max       9
_diffrn_reflns_limit_k_min       -9
_diffrn_reflns_limit_l_max       13
_diffrn_reflns_limit_l_min       -13
_diffrn_reflns_number            14261
_diffrn_reflns_reduction_process
;
;
_diffrn_reflns_theta_full        25.24
_diffrn_reflns_theta_max         28.25
_diffrn_reflns_theta_min         2.92
_exptl_absorpt_coefficient_mu    0.468
_exptl_absorpt_correction_T_max  0.7471
_exptl_absorpt_correction_T_min  0.6977
_exptl_absorpt_correction_type   multi-scan
_exptl_absorpt_process_details
;
(SADABS; Bruker, 2012)
;
_exptl_crystal_colour            colourless
_exptl_crystal_density_diffrn    1.392
_exptl_crystal_density_method    'Not Measured'
_exptl_crystal_description       needle
_exptl_crystal_F_000             148
_exptl_crystal_size_max          0.409
_exptl_crystal_size_mid          0.151
_exptl_crystal_size_min          0.110
_refine_diff_density_max         0.335
_refine_diff_density_min         -0.147
_refine_ls_abs_structure_details
;
Flack (1983) and Parsons <i>et al.</i> (2013)
;
_refine_ls_abs_structure_Flack   0.097(14)
_refine_ls_extinction_method     none
_refine_ls_goodness_of_fit_ref   1.036
_refine_ls_hydrogen_treatment    mixed
_refine_ls_matrix_type           full
_refine_ls_number_parameters     86
_refine_ls_number_reflns         1690
_refine_ls_number_restraints     2
_refine_ls_restrained_S_all      1.035
_refine_ls_R_factor_all          0.0213
_refine_ls_R_factor_gt           0.0212
_refine_ls_shift/su_max          0.001
_refine_ls_shift/su_mean         0.000
_refine_ls_structure_factor_coef Fsqd
_refine_ls_weighting_details
'W=1/[\S^2^(FO^2^)+(0.0407P)^2^+0.0399P] WHERE P=(FO^2^+2FC^2^)/3'
_refine_ls_weighting_scheme      calc
_refine_ls_wR_factor_gt          0.0585
_refine_ls_wR_factor_ref         0.0587
_reflns_number_gt                1682
_reflns_number_total             1690
_reflns_threshold_expression     I>2\s(I)
_cod_data_source_file            fp3042sup1.cif
_cod_data_source_block           I
_cod_original_cell_volume        340.22(3)
_cod_original_sg_symbol_H-M      'P c'
_cod_database_code               2311924
_shelx_hkl_file
;
  -1   0   0    6.97    0.20
   1   0   0    5.95    0.19
   1   0   0    6.47    0.19
   1   0   0    6.24    0.21
   1   0   0    5.99    0.18
   1   0   0    6.14    0.19
   1   0   0    6.39    0.19
   1   0   0    6.44    0.20
   1   0   0    6.67    0.20
  -1   0   0    6.94    0.18
  -1   0   0    7.03    0.20
  -1   0   0    7.10    0.19
  -1   0   0    7.29    0.21
  -1   0   0    5.39    0.25
  -1   0   0    6.89    0.19
  -2   0   0   25.81    0.76
  -2   0   0   26.22    0.72
  -2   0   0   25.71    0.72
   2   0   0   24.44    0.71
   2   0   0   25.27    0.75
   2   0   0   23.54    0.82
   2   0   0   25.63    0.71
   2   0   0   25.23    0.71
   2   0   0   25.38    0.74
  -2   0   0   26.45    0.70
   2   0   0   25.45    0.74
  -2   0   0   25.14    0.72
   3   0   0   48.52    1.33
   3   0   0   48.07    1.32
   3   0   0   48.27    1.49
  -3   0   0   47.95    1.34
  -3   0   0   48.52    1.35
   3   0   0   46.96    1.32
  -3   0   0   46.13    1.35
  -3   0   0   48.72    1.40
   3   0   0   44.32    1.36
   4   0   0    4.33    0.17
  -4   0   0    4.65    0.24
   4   0   0    4.41    0.16
   4   0   0    4.21    0.16
   4   0   0    4.02    0.19
   4   0   0    4.32    0.16
  -4   0   0    4.50    0.19
  -4   0   0    4.41    0.19
   4   0   0    4.14    0.26
  -4   0   0    4.23    0.22
  -4   0   0    4.52    0.17
  -5   0   0    5.50    0.25
  -5   0   0    6.09    0.31
  -5   0   0    4.94    0.28
   5   0   0    5.78    0.26
  -5   0   0    5.36    0.24
   5   0   0    5.64    0.22
   5   0   0    5.64    0.21
   5   0   0    5.83    0.27
  -5   0   0    5.55    0.22
  -6   0   0    3.71    0.28
   6   0   0    3.74    0.22
   6   0   0    3.68    0.18
  -6   0   0    4.00    0.18
   6   0   0    3.77    0.22
   6   0   0    3.64    0.19
  -6   0   0    3.42    0.20
  -6   0   0    3.48    0.26
  -7   0   0    5.11    0.27
  -7   0   0    4.72    0.33
   7   0   0    4.88    0.25
  -7   0   0    5.17    0.23
  -7   0   0    4.52    0.35
   0  -1   0   44.46    1.12
   0  -1   0   39.25    1.10
   0  -1   0   39.92    1.11
   0  -1   0   44.32    1.12
   0  -1   0   40.19    1.11
   0  -1   0   37.90    1.12
   0   1   0   34.03    1.10
   0   1   0   37.96    1.10
   0   1   0   40.87    1.10
   0   1   0   39.85    1.11
   0   1   0   39.96    1.10
   0   1   0   43.33    1.13
   0   1   0   39.67    1.10
   0   1   0   38.32    1.10
   0   1   0   38.63    1.13
  -1  -1   0  110.39    3.47
  -1  -1   0  131.20    3.44
  -1  -1   0  123.53    3.45
   1  -1   0  115.66    3.48
   1  -1   0  137.55    3.54
  -1  -1   0  121.62    3.49
  -1  -1   0  111.96    3.43
   1  -1   0  119.90    3.47
  -1  -1   0  136.84    3.49
   1  -1   0  139.34    3.50
  -1  -1   0  127.46    3.47
  -1  -1   0  117.53    3.50
  -1   1   0  135.40    3.48
  -1   1   0  117.10    3.47
  -1   1   0  141.83    3.54
   1   1   0  119.45    3.46
   1   1   0  130.66    3.47
   1   1   0  131.21    3.51
   1   1   0  118.81    3.46
  -1   1   0  106.02    3.47
  -1   1   0  132.16    3.47
   1   1   0  123.13    3.51
  -1   1   0  117.16    3.45
   1   1   0  133.64    3.45
   1   1   0  126.09    3.49
   2  -1   0  106.57    3.20
   2  -1   0  120.03    3.23
   2  -1   0  119.34    3.23
  -2  -1   0  130.85    3.28
   2  -1   0  117.71    3.20
  -2  -1   0  113.50    3.23
  -2  -1   0  114.47    3.21
  -2  -1   0  125.93    3.21
  -2  -1   0  119.27    3.21
   2  -1   0  115.65    3.22
  -2   1   0  111.48    3.22
   2   1   0  111.59    3.24
  -2   1   0  130.03    3.28
   2   1   0  103.97    3.21
  -2   1   0  120.59    3.23
   2   1   0  120.20    3.34
  -2   1   0  115.61    3.23
  -2   1   0  117.68    3.23
   2   1   0  117.81    3.23
  -2   1   0  110.71    3.25
  -2   1   0  119.49    3.26
  -2   1   0  120.87    3.20
   2   1   0   99.11    3.19
   2   1   0  116.98    3.20
   2   1   0  120.68    3.22
   2   1   0  108.99    3.21
   3  -1   0   10.62    0.52
  -3  -1   0   10.22    0.38
   3  -1   0   11.45    0.34
   3  -1   0   10.87    0.33
   3  -1   0   10.94    0.36
  -3  -1   0   10.83    0.35
   3  -1   0   10.79    0.31
  -3  -1   0   10.42    0.33
   3   1   0   10.88    0.33
  -3   1   0   10.73    0.31
  -3   1   0   11.31    0.38
  -3   1   0   10.79    0.34
  -3   1   0   11.33    0.41
  -3   1   0   10.65    0.37
  -3   1   0   10.72    0.34
  -3   1   0   10.52    0.34
   3   1   0   11.19    0.33
   3   1   0   11.78    0.38
   3   1   0   10.78    0.36
   3   1   0   11.13    0.33
   3   1   0   11.07    0.37
   4  -1   0   14.48    0.46
  -4  -1   0   14.24    0.52
  -4  -1   0   14.09    0.52
  -4  -1   0   14.19    0.46
   4  -1   0   14.83    0.49
   4  -1   0   14.56    0.44
  -4  -1   0   14.61    0.47
   4  -1   0   14.21    0.44
  -4  -1   0   14.10    0.45
   4   1   0   14.43    0.49
   4   1   0   14.47    0.45
  -4   1   0   14.75    0.52
  -4   1   0   14.54    0.46
  -4   1   0   14.48    0.47
   4   1   0   15.10    0.44
   4   1   0   14.99    0.44
   4   1   0   15.18    0.51
  -4   1   0   14.61    0.50
   4   1   0   14.74    0.44
  -4   1   0   14.27    0.54
   5  -1   0   17.66    0.54
  -5  -1   0   18.09    0.55
  -5  -1   0   18.75    0.66
   5  -1   0   17.17    0.59
  -5  -1   0   16.88    0.58
  -5  -1   0   17.53    0.65
  -5  -1   0   17.90    0.57
   5  -1   0   17.80    0.56
  -5   1   0   17.60    0.56
   5   1   0   17.46    0.61
  -5   1   0   16.69    0.63
   5   1   0   17.38    0.55
  -5   1   0   18.10    0.68
  -5   1   0   17.25    0.57
  -5   1   0   17.66    0.61
   5   1   0   18.39    0.55
   5   1   0   17.63    0.54
   5   1   0   18.37    0.61
   6  -1   0    1.59    0.13
  -6  -1   0    1.25    0.18
  -6  -1   0    1.35    0.14
  -6  -1   0    1.44    0.20
   6  -1   0    1.28    0.12
  -6  -1   0    1.48    0.11
   6   1   0    1.36    0.11
   6   1   0    1.67    0.17
   6   1   0    1.29    0.14
   6   1   0    1.53    0.11
  -6   1   0    1.61    0.13
  -6   1   0    1.36    0.10
  -6   1   0    1.11    0.16
  -6   1   0    1.49    0.21
  -7  -1   0    0.15    0.05
  -7  -1   0    0.24    0.08
   7  -1   0    0.16    0.06
  -7  -1   0    0.10    0.10
  -7  -1   0    0.14    0.11
  -7   1   0    0.13    0.05
  -7   1   0    0.07    0.10
   7   1   0    0.10    0.06
  -7   1   0    0.14    0.07
  -7   1   0    0.05    0.07
   0  -2   0   15.28    0.46
   0  -2   0   15.90    0.45
   0  -2   0   15.90    0.45
   0  -2   0   16.68    0.47
   0  -2   0   14.85    0.46
   0  -2   0   13.64    0.44
   0  -2   0   15.65    0.46
   0  -2   0   16.97    0.47
   0  -2   0   16.17    0.47
   0  -2   0   16.52    0.47
   0   2   0   15.78    0.46
   0   2   0   16.65    0.48
   0   2   0   16.67    0.47
   0   2   0   16.20    0.46
   0   2   0   15.96    0.46
   0   2   0   16.05    0.45
   0   2   0   16.09    0.46
   0   2   0   16.24    0.46
   0   2   0   15.56    0.45
   0   2   0   15.15    0.45
   1  -2   0  178.36    4.92
  -1  -2   0  166.66    4.92
   1  -2   0  163.62    4.98
   1  -2   0  187.34    5.02
  -1  -2   0  173.89    4.96
  -1  -2   0  177.90    4.93
   1  -2   0  159.66    4.94
   1  -2   0  153.71    5.08
  -1  -2   0  194.48    5.00
  -1  -2   0  162.97    4.90
   1  -2   0  174.09    4.92
  -1  -2   0  164.79    4.96
  -1   2   0  192.55    4.95
  -1   2   0  176.26    4.92
  -1   2   0  194.84    5.01
   1   2   0  196.57    4.98
   1   2   0  176.15    4.94
   1   2   0  177.23    4.95
  -1   2   0  192.09    4.97
  -1   2   0  181.01    4.91
  -1   2   0  200.11    4.95
   1   2   0  177.00    4.93
  -1   2   0  185.02    4.94
   1   2   0  175.07    4.91
  -1   2   0  177.71    4.89
   1   2   0  176.54    5.01
   2  -2   0    2.30    0.09
   2  -2   0    2.18    0.10
  -2  -2   0    2.30    0.09
  -2  -2   0    2.58    0.10
  -2  -2   0    2.34    0.08
   2  -2   0    2.38    0.10
   2  -2   0    2.35    0.10
  -2  -2   0    2.58    0.11
   2  -2   0    2.55    0.10
   2  -2   0    2.47    0.13
  -2  -2   0    2.25    0.09
   2   2   0    2.49    0.13
   2   2   0    2.49    0.09
   2   2   0    2.31    0.09
   2   2   0    2.33    0.09
   2   2   0    2.22    0.10
  -2   2   0    2.39    0.10
   2   2   0    2.26    0.09
  -2   2   0    2.42    0.09
  -2   2   0    2.44    0.11
  -2   2   0    2.40    0.09
  -2   2   0    2.37    0.13
   2   2   0    2.61    0.11
   2   2   0    2.46    0.09
   3  -2   0   36.10    1.04
  -3  -2   0   35.38    1.01
   3  -2   0   36.64    1.05
  -3  -2   0   36.75    1.08
   3  -2   0   36.04    1.02
  -3  -2   0   36.74    1.05
   3  -2   0   35.50    1.02
  -3  -2   0   36.36    1.05
  -3  -2   0   36.48    1.07
   3  -2   0   36.03    1.04
  -3  -2   0   35.62    1.01
  -3  -2   0   36.41    1.03
   3   2   0   36.41    1.08
   3   2   0   35.98    1.02
  -3   2   0   36.45    1.12
  -3   2   0   36.51    1.09
  -3   2   0   36.96    1.01
   3   2   0   35.60    1.05
  -3   2   0   37.55    1.08
  -3   2   0   35.81    1.05
   3   2   0   36.98    1.02
  -3   2   0   37.07    1.03
  -3   2   0   35.92    1.04
   3   2   0   34.70    1.02
   3   2   0   35.22    1.02
   4  -2   0   16.36    0.52
   4  -2   0   15.58    0.46
   4  -2   0   16.06    0.48
   4  -2   0   15.83    0.51
   4  -2   0   16.04    0.48
  -4  -2   0   15.57    0.49
  -4  -2   0   16.17    0.57
  -4  -2   0   16.50    0.52
  -4  -2   0   15.90    0.56
   4  -2   0   16.54    0.51
  -4  -2   0   15.23    0.47
   4   2   0   16.24    0.49
  -4   2   0   15.34    0.50
  -4   2   0   17.00    0.61
   4   2   0   16.24    0.48
   4   2   0   16.24    0.53
   4   2   0   15.42    0.48
  -4   2   0   15.37    0.55
  -4   2   0   16.45    0.50
   4   2   0   15.88    0.48
  -4   2   0   16.22    0.56
  -4   2   0   16.28    0.45
   5  -2   0    1.07    0.08
   5  -2   0    1.08    0.11
  -5  -2   0    1.02    0.14
   5  -2   0    1.04    0.10
  -5  -2   0    1.01    0.14
  -5  -2   0    1.28    0.13
  -5  -2   0    1.15    0.08
   5   2   0    0.95    0.08
   5   2   0    0.91    0.11
  -5   2   0    0.98    0.13
   5   2   0    1.00    0.08
  -5   2   0    1.06    0.14
   5   2   0    1.05    0.08
  -5   2   0    1.04    0.16
  -5   2   0    1.21    0.09
  -5   2   0    1.17    0.11
  -6  -2   0    4.24    0.19
   6  -2   0    4.23    0.21
  -6  -2   0    4.02    0.28
  -6  -2   0    3.93    0.23
   6  -2   0    4.56    0.23
  -6  -2   0    3.71    0.27
  -6   2   0    4.49    0.27
   6   2   0    4.31    0.20
   6   2   0    3.99    0.19
  -6   2   0    4.24    0.20
  -6   2   0    3.95    0.26
   6   2   0    3.96    0.23
  -6   2   0    4.09    0.31
  -6   2   0    4.39    0.22
   6   2   0    4.18    0.24
  -7  -2   0    1.33    0.16
  -7  -2   0    1.63    0.12
  -7  -2   0    0.93    0.19
   7  -2   0    1.06    0.13
  -7   2   0    1.49    0.21
  -7   2   0    1.60    0.12
  -7   2   0    1.50    0.16
   7   2   0    1.44    0.14
  -7   2   0    1.64    0.24
   0  -3   0  194.67    5.23
   0  -3   0  178.54    5.24
   0  -3   0  160.35    5.41
   0  -3   0  187.29    5.26
   0  -3   0  192.34    5.30
   0  -3   0  178.20    5.31
   0  -3   0  195.02    5.25
   0  -3   0  191.47    5.25
   0   3   0  197.85    5.35
   0   3   0  188.69    5.23
   0   3   0  215.38    5.38
   0   3   0  216.74    5.32
   0   3   0  195.73    5.24
   0   3   0  163.46    5.28
   0   3   0  210.66    5.39
   0   3   0  194.76    5.26
   0   3   0  182.64    5.39
   1  -3   0   22.22    0.63
  -1  -3   0   18.96    0.72
  -1  -3   0   22.29    0.63
  -1  -3   0   20.66    0.60
   1  -3   0   21.43    0.65
  -1  -3   0   21.23    0.61
  -1  -3   0   21.67    0.62
  -1  -3   0   21.00    0.62
   1  -3   0   21.35    0.67
   1  -3   0   21.10    0.63
   1  -3   0   22.79    0.64
   1  -3   0   21.50    0.64
  -1  -3   0   21.82    0.63
   1  -3   0   20.94    0.61
  -1  -3   0   21.38    0.61
   1  -3   0   19.94    0.61
   1  -3   0   20.95    0.63
  -1  -3   0   22.32    0.63
  -1  -3   0   22.11    0.63
  -1  -3   0   20.87    0.62
  -1  -3   0   21.93    0.66
  -1   3   0   21.23    0.62
  -1   3   0   22.03    0.63
   1   3   0   23.55    0.63
   1   3   0   21.58    0.59
  -1   3   0   22.10    0.67
  -1   3   0   21.81    0.62
   1   3   0   21.13    0.62
  -1   3   0   21.43    0.63
  -1   3   0   21.22    0.63
  -1   3   0   21.86    0.60
   1   3   0   21.86    0.63
   1   3   0   21.15    0.62
   1   3   0   19.10    0.64
   1   3   0   19.78    0.62
   1   3   0   21.04    0.62
   1   3   0   21.87    0.61
   1   3   0   21.61    0.63
  -1   3   0   22.17    0.67
   1   3   0   21.37    0.64
   2  -3   0   34.87    1.03
  -2  -3   0   37.02    1.02
  -2  -3   0   37.29    1.00
   2  -3   0   36.98    1.06
  -2  -3   0   35.91    1.03
  -2  -3   0   34.44    1.00
   2  -3   0   35.35    1.07
  -2  -3   0   35.74    1.04
  -2  -3   0   34.28    1.02
   2  -3   0   35.21    1.00
  -2  -3   0   37.45    1.05
   2  -3   0   35.61    1.03
  -2  -3   0   36.25    1.01
   2  -3   0   35.85    1.03
   2  -3   0   35.11    1.02
  -2  -3   0   36.02    1.01
  -2  -3   0   35.26    0.99
   2   3   0   34.33    1.02
   2   3   0   35.43    1.00
  -2   3   0   36.86    1.00
  -2   3   0   36.68    1.02
  -2   3   0   37.23    1.04
   2   3   0   33.84    1.03
   2   3   0   35.46    1.02
  -2   3   0   37.73    1.09
   2   3   0   34.53    1.02
   2   3   0   34.69    1.03
  -2   3   0   36.06    1.09
   2   3   0   35.62    1.02
  -2   3   0   37.32    1.03
  -3  -3   0   11.91    0.42
  -3  -3   0   12.88    0.40
  -3  -3   0   12.40    0.38
  -3  -3   0   13.53    0.45
   3  -3   0   13.00    0.42
   3  -3   0   12.77    0.42
   3  -3   0   12.98    0.39
   3  -3   0   12.73    0.40
  -3  -3   0   13.36    0.42
   3  -3   0   12.37    0.41
   3   3   0   13.36    0.46
   3   3   0   11.66    0.39
   3   3   0   12.47    0.39
   3   3   0   12.96    0.42
  -3   3   0   13.44    0.43
   3   3   0   12.97    0.40
  -3   3   0   13.35    0.39
   3   3   0   13.07    0.40
  -3   3   0   12.96    0.42
  -3   3   0   13.14    0.39
  -3   3   0   13.14    0.49
  -4  -3   0    4.02    0.14
   4  -3   0    3.81    0.14
  -4  -3   0    3.75    0.18
   4  -3   0    3.74    0.18
  -4  -3   0    3.77    0.22
  -4  -3   0    4.09    0.16
  -4  -3   0    3.80    0.20
   4  -3   0    4.03    0.18
  -4  -3   0    3.74    0.18
  -4   3   0    3.90    0.18
  -4   3   0    3.92    0.25
  -4   3   0    4.19    0.21
  -4   3   0    3.99    0.23
   4   3   0    4.05    0.19
   4   3   0    3.89    0.16
  -4   3   0    3.72    0.13
  -4   3   0    3.93    0.16
  -4   3   0    3.92    0.16
   4   3   0    3.91    0.15
   4   3   0    3.56    0.17
   5  -3   0    4.43    0.21
  -5  -3   0    4.05    0.25
   5  -3   0    4.43    0.18
   5  -3   0    4.63    0.21
  -5  -3   0    4.33    0.26
  -5  -3   0    4.24    0.22
  -5  -3   0    4.21    0.18
   5   3   0    4.45    0.22
  -5   3   0    4.24    0.29
   5   3   0    4.48    0.20
  -5   3   0    4.34    0.26
   5   3   0    4.41    0.18
  -5   3   0    4.42    0.20
  -5   3   0    4.37    0.20
  -5   3   0    4.26    0.24
  -6  -3   0    3.01    0.20
  -6  -3   0    2.82    0.15
  -6  -3   0    2.40    0.22
  -6  -3   0    3.14    0.25
   6  -3   0    2.82    0.18
   6  -3   0    2.77    0.18
  -6   3   0    3.45    0.28
   6   3   0    3.09    0.20
   6   3   0    2.95    0.16
   6   3   0    2.71    0.17
  -6   3   0    3.13    0.24
  -6   3   0    3.07    0.17
  -6   3   0    2.62    0.21
  -6   3   0    2.97    0.17
  -7  -3   0    0.85    0.18
  -7  -3   0    1.06    0.11
  -7  -3   0    0.99    0.15
  -7   3   0    1.10    0.12
   7   3   0    1.19    0.13
  -7   3   0    1.07    0.23
  -7   3   0    1.35    0.20
   0  -4   0    3.95    0.12
   0  -4   0    3.13    0.28
   0  -4   0    3.57    0.15
   0  -4   0    4.23    0.17
   0  -4   0    4.08    0.20
   0  -4   0    4.05    0.16
   0  -4   0    3.79    0.16
   0  -4   0    3.90    0.14
   0  -4   0    3.80    0.17
   0   4   0    4.36    0.17
   0   4   0    4.03    0.14
   0   4   0    4.00    0.16
   0   4   0    4.46    0.19
   0   4   0    4.17    0.17
   0   4   0    4.06    0.15
   0   4   0    4.11    0.17
   0   4   0    3.85    0.14
   1  -4   0   11.24    0.40
  -1  -4   0   11.63    0.37
  -1  -4   0   11.52    0.36
  -1  -4   0   11.44    0.38
  -1  -4   0   11.31    0.38
   1  -4   0   12.05    0.43
   1  -4   0   12.10    0.38
  -1  -4   0   11.65    0.35
   1  -4   0   11.96    0.38
   1  -4   0   12.02    0.38
  -1  -4   0   12.20    0.36
   1  -4   0   12.15    0.38
  -1  -4   0   12.09    0.42
  -1  -4   0   11.60    0.36
  -1  -4   0   11.30    0.35
   1   4   0   12.42    0.37
  -1   4   0   11.79    0.42
  -1   4   0   11.75    0.38
   1   4   0   11.73    0.38
  -1   4   0   11.69    0.38
   1   4   0   12.14    0.40
  -1   4   0   11.59    0.36
  -1   4   0   11.36    0.37
   1   4   0   12.31    0.35
  -1   4   0   12.05    0.42
   1   4   0   11.73    0.38
   1   4   0   12.17    0.39
  -1   4   0   11.99    0.40
   1   4   0   11.26    0.38
   1   4   0   11.59    0.38
   1   4   0   12.11    0.36
  -2  -4   0   56.37    1.57
   2  -4   0   54.18    1.56
  -2  -4   0   56.04    1.56
  -2  -4   0   54.12    1.56
  -2  -4   0   54.24    1.53
   2  -4   0   55.97    1.58
   2  -4   0   52.99    1.57
  -2  -4   0   53.22    1.63
  -2  -4   0   56.82    1.60
  -2  -4   0   54.85    1.54
  -2  -4   0   55.35    1.56
  -2  -4   0   55.83    1.58
   2  -4   0   53.79    1.59
   2  -4   0   54.91    1.61
  -2  -4   0   54.52    1.55
  -2  -4   0   53.74    1.57
   2  -4   0   56.59    1.58
   2  -4   0   55.39    1.64
   2  -4   0   56.95    1.58
  -2   4   0   57.42    1.57
   2   4   0   56.51    1.55
   2   4   0   55.73    1.58
   2   4   0   55.51    1.53
   2   4   0   55.07    1.57
  -2   4   0   56.21    1.65
  -2   4   0   55.44    1.56
  -2   4   0   58.48    1.65
   2   4   0   56.28    1.55
   2   4   0   54.95    1.57
  -2   4   0   55.35    1.58
  -2   4   0   56.97    1.56
   2   4   0   54.64    1.57
   2   4   0   54.26    1.57
   2   4   0   57.39    1.58
  -3  -4   0    7.83    0.29
  -3  -4   0    8.04    0.32
  -3  -4   0    7.97    0.26
  -3  -4   0    7.67    0.27
  -3  -4   0    7.89    0.26
   3  -4   0    7.50    0.32
   3  -4   0    7.93    0.29
  -3  -4   0    7.82    0.28
  -3  -4   0    7.77    0.26
   3  -4   0    8.20    0.30
   3  -4   0    7.99    0.27
   3   4   0    8.06    0.28
   3   4   0    7.95    0.28
   3   4   0    8.50    0.29
  -3   4   0    8.10    0.36
   3   4   0    7.98    0.34
  -3   4   0    7.93    0.29
  -3   4   0    7.78    0.25
   3   4   0    7.64    0.28
   3   4   0    8.39    0.29
   3   4   0    8.24    0.26
  -3   4   0    7.78    0.26
  -3   4   0    7.82    0.29
  -3   4   0    7.46    0.34
   4  -4   0   11.29    0.40
  -4  -4   0   11.70    0.45
  -4  -4   0   11.32    0.41
   4  -4   0   11.99    0.37
  -4  -4   0   11.69    0.43
   4  -4   0   11.77    0.41
  -4  -4   0   11.98    0.39
  -4  -4   0   11.60    0.36
  -4  -4   0   11.19    0.42
  -4   4   0   11.48    0.48
   4   4   0   11.92    0.41
  -4   4   0   11.83    0.41
   4   4   0   12.17    0.41
  -4   4   0   11.83    0.36
   4   4   0   11.68    0.41
  -4   4   0   11.57    0.37
  -4   4   0   11.51    0.40
   4   4   0   11.84    0.37
  -4   4   0   11.53    0.50
  -4   4   0   11.56    0.43
  -5  -4   0   11.49    0.45
  -5  -4   0   11.76    0.48
  -5  -4   0   11.63    0.50
  -5  -4   0   12.27    0.41
   5  -4   0   12.23    0.44
   5  -4   0   12.70    0.41
   5  -4   0   12.32    0.45
  -5  -4   0   11.99    0.45
  -5   4   0   11.80    0.40
  -5   4   0   11.95    0.52
   5   4   0   12.13    0.44
   5   4   0   13.15    0.44
   5   4   0   12.13    0.44
  -5   4   0   11.88    0.47
  -5   4   0   11.53    0.55
  -5   4   0   12.83    0.44
   6  -4   0    0.44    0.12
   6  -4   0    0.34    0.08
  -6  -4   0    0.26    0.08
  -6  -4   0    0.39    0.07
  -6  -4   0    0.43    0.12
  -6   4   0    0.24    0.10
   6   4   0    0.29    0.07
   6   4   0    0.28    0.07
  -6   4   0    0.29    0.07
   6   4   0    0.32    0.07
  -6   4   0    0.23    0.09
  -6   4   0    0.20    0.11
   6   4   0    0.29    0.06
   0  -5   0   48.97    1.41
   0  -5   0   50.12    1.36
   0  -5   0   50.47    1.44
   0  -5   0   44.20    1.41
   0  -5   0   49.76    1.48
   0  -5   0   48.03    1.44
   0  -5   0   48.35    1.38
   0   5   0   51.04    1.45
   0   5   0   49.67    1.40
   0   5   0   49.75    1.38
   0   5   0   50.28    1.42
   0   5   0   50.05    1.43
   0   5   0   49.76    1.42
   0   5   0   49.57    1.39
   0   5   0   50.18    1.45
  -1  -5   0   41.24    1.19
   1  -5   0   41.42    1.22
   1  -5   0   41.05    1.20
  -1  -5   0   42.31    1.20
  -1  -5   0   41.44    1.16
  -1  -5   0   40.63    1.16
  -1  -5   0   40.52    1.15
   1  -5   0   40.73    1.20
  -1  -5   0   41.77    1.17
   1  -5   0   41.38    1.20
   1  -5   0   40.52    1.26
  -1  -5   0   41.04    1.24
  -1   5   0   41.61    1.22
   1   5   0   40.46    1.21
  -1   5   0   41.19    1.19
  -1   5   0   42.35    1.18
   1   5   0   40.33    1.17
   1   5   0   40.52    1.18
   1   5   0   41.95    1.16
   1   5   0   40.94    1.22
  -1   5   0   40.24    1.20
  -1   5   0   40.96    1.24
  -1   5   0   40.33    1.19
   1   5   0   40.46    1.20
  -1   5   0   41.69    1.25
   1   5   0   39.79    1.19
   1   5   0   39.44    1.19
   1   5   0   41.58    1.20
   2  -5   0    0.60    0.09
  -2  -5   0    0.79    0.05
   2  -5   0    0.72    0.08
   2  -5   0    0.79    0.08
  -2  -5   0    0.79    0.04
   2  -5   0    0.64    0.07
  -2  -5   0    0.86    0.10
   2  -5   0    0.72    0.11
  -2  -5   0    0.70    0.08
  -2  -5   0    0.78    0.07
  -2  -5   0    0.78    0.08
  -2  -5   0    0.83    0.07
  -2  -5   0    0.72    0.07
   2  -5   0    0.62    0.07
  -2  -5   0    0.90    0.06
  -2  -5   0    0.75    0.10
   2   5   0    0.79    0.08
   2   5   0    0.73    0.08
  -2   5   0    0.68    0.07
   2   5   0    0.67    0.08
  -2   5   0    1.03    0.13
   2   5   0    0.67    0.05
  -2   5   0    0.89    0.09
   2   5   0    0.48    0.06
   2   5   0    0.63    0.06
  -2   5   0    0.59    0.10
   2   5   0    0.74    0.08
  -2   5   0    0.76    0.05
  -2   5   0    0.81    0.06
  -3  -5   0   25.85    0.76
   3  -5   0   24.64    0.78
  -3  -5   0   26.00    0.80
  -3  -5   0   26.34    0.77
   3  -5   0   24.51    0.79
  -3  -5   0   26.36    0.73
  -3  -5   0   25.14    0.82
  -3  -5   0   26.74    0.77
  -3  -5   0   26.73    0.78
  -3  -5   0   25.91    0.79
   3  -5   0   25.67    0.81
   3   5   0   26.00    0.76
   3   5   0   26.07    0.80
   3   5   0   26.23    0.80
   3   5   0   26.18    0.79
  -3   5   0   26.08    0.88
  -3   5   0   26.93    0.81
  -3   5   0   26.18    0.90
  -3   5   0   25.80    0.77
  -3   5   0   26.07    0.78
  -4  -5   0    3.53    0.19
   4  -5   0    3.71    0.18
  -4  -5   0    3.55    0.20
  -4  -5   0    3.52    0.15
  -4  -5   0    3.46    0.21
   4  -5   0    3.58    0.16
  -4  -5   0    3.79    0.16
   4  -5   0    3.61    0.19
  -4  -5   0    3.25    0.19
   4   5   0    3.64    0.19
   4   5   0    3.88    0.18
   4   5   0    3.69    0.18
  -4   5   0    3.47    0.19
  -4   5   0    3.43    0.27
  -4   5   0    3.46    0.19
  -4   5   0    3.49    0.14
   4   5   0    3.86    0.16
  -4   5   0    3.51    0.25
  -5  -5   0    0.04    0.05
  -5  -5   0    0.07    0.05
   5  -5   0    0.12    0.04
   5  -5   0    0.04    0.04
  -5  -5   0    0.07    0.04
   5  -5   0    0.08    0.04
  -5  -5   0   -0.03    0.05
  -5   5   0    0.11    0.08
  -5   5   0    0.07    0.05
  -5   5   0    0.06    0.02
   5   5   0    0.07    0.05
   5   5   0    0.11    0.05
  -5   5   0    0.24    0.12
  -5   5   0    0.04    0.04
   5   5   0    0.10    0.05
  -6  -5   0    2.46    0.19
  -6  -5   0    2.78    0.16
  -6  -5   0    2.50    0.26
  -6   5   0    3.13    0.19
  -6   5   0    2.73    0.28
   6   5   0    2.67    0.16
  -6   5   0    2.67    0.31
   6   5   0    2.87    0.31
   6   5   0    3.25    0.19
   0  -6   0    0.15    0.04
   0  -6   0    0.25    0.06
   0  -6   0    0.24    0.07
   0  -6   0    0.13    0.04
   0  -6   0    0.22    0.02
   0  -6   0    0.11    0.03
   0   6   0    0.19    0.03
   0   6   0    0.17    0.04
   0   6   0    0.15    0.03
   0   6   0    0.21    0.05
   0   6   0    0.14    0.04
   0   6   0    0.16    0.04
   0   6   0    0.29    0.07
   0   6   0    0.15    0.04
  -1  -6   0   21.50    0.63
  -1  -6   0   22.11    0.65
  -1  -6   0   22.01    0.62
  -1  -6   0   21.40    0.72
   1  -6   0   22.29    0.68
  -1  -6   0   21.66    0.68
  -1  -6   0   21.64    0.67
   1  -6   0   20.72    0.67
   1  -6   0   22.10    0.71
  -1  -6   0   21.07    0.63
   1  -6   0   22.58    0.68
   1  -6   0   20.15    0.69
  -1   6   0   21.49    0.69
  -1   6   0   22.82    0.68
  -1   6   0   21.33    0.66
   1   6   0   22.53    0.67
  -1   6   0   21.81    0.71
   1   6   0   21.34    0.69
   1   6   0   20.64    0.69
   1   6   0   21.48    0.65
   1   6   0   21.00    0.68
   1   6   0   21.09    0.68
  -1   6   0   21.58    0.74
   1   6   0   22.37    0.64
  -2  -6   0   19.42    0.61
   2  -6   0   19.30    0.63
  -2  -6   0   19.43    0.61
  -2  -6   0   19.03    0.57
   2  -6   0   19.45    0.62
  -2  -6   0   18.95    0.60
  -2  -6   0   19.95    0.59
   2  -6   0   19.73    0.66
  -2  -6   0   19.61    0.64
   2  -6   0   19.27    0.63
  -2  -6   0   19.45    0.60
  -2   6   0   19.11    0.61
  -2   6   0   18.80    0.62
   2   6   0   19.27    0.58
  -2   6   0   19.07    0.69
   2   6   0   18.50    0.62
   2   6   0   19.30    0.64
   2   6   0   18.99    0.59
  -2   6   0   19.39    0.60
  -2   6   0   18.56    0.69
   2   6   0   19.43    0.60
   2   6   0   19.49    0.61
  -3  -6   0    3.07    0.18
  -3  -6   0    3.04    0.15
   3  -6   0    3.05    0.16
  -3  -6   0    3.29    0.16
  -3  -6   0    3.17    0.14
  -3  -6   0    3.09    0.15
   3  -6   0    3.29    0.17
  -3  -6   0    3.60    0.19
  -3  -6   0    3.31    0.15
   3  -6   0    3.32    0.19
  -3  -6   0    3.03    0.12
  -3   6   0    3.37    0.18
   3   6   0    3.34    0.16
   3   6   0    3.34    0.14
  -3   6   0    3.92    0.26
  -3   6   0    3.33    0.15
   3   6   0    3.68    0.20
  -3   6   0    3.88    0.25
   3   6   0    3.47    0.17
  -4  -6   0    5.78    0.23
   4  -6   0    6.03    0.24
  -4  -6   0    5.64    0.27
   4  -6   0    6.31    0.26
  -4  -6   0    5.64    0.23
  -4  -6   0    5.47    0.28
  -4  -6   0    5.74    0.26
  -4   6   0    5.50    0.35
   4   6   0    5.98    0.26
   4   6   0    5.69    0.24
  -4   6   0    5.86    0.21
  -4   6   0    5.64    0.26
  -4   6   0    5.51    0.33
   4   6   0    5.15    0.26
   4   6   0    5.59    0.22
   5  -6   0    4.44    0.21
  -5  -6   0    4.16    0.20
   5  -6   0    4.20    0.22
  -5  -6   0    4.39    0.25
  -5  -6   0    4.08    0.26
  -5  -6   0    4.38    0.24
  -5   6   0    4.57    0.35
  -5   6   0    4.45    0.15
   5   6   0    4.42    0.23
  -5   6   0    4.21    0.30
  -5   6   0    4.50    0.24
   5   6   0    4.19    0.22
  -6  -6   0    1.83    0.19
   6  -6   0    1.78    0.15
  -6  -6   0    1.28    0.19
  -6  -6   0    1.62    0.12
   6   6   0    1.40    0.15
  -6   6   0    1.83    0.25
  -6   6   0    1.35    0.15
   0  -7   0   29.73    0.93
   0  -7   0   30.39    0.91
   0   7   0   29.64    0.92
   0   7   0   29.27    0.95
   0   7   0   30.09    0.88
   0   7   0   29.15    0.93
   0   7   0   29.19    0.89
  -1  -7   0    1.75    0.12
   1  -7   0    1.94    0.15
  -1  -7   0    1.64    0.12
  -1  -7   0    1.82    0.09
   1  -7   0    1.77    0.12
   1  -7   0    1.87    0.14
  -1  -7   0    1.88    0.12
  -1  -7   0    1.65    0.15
  -1   7   0    1.82    0.11
   1   7   0    1.78    0.10
  -1   7   0    1.80    0.13
  -1   7   0    1.80    0.12
   1   7   0    1.78    0.14
   1   7   0    1.74    0.13
   1   7   0    1.82    0.11
  -1   7   0    1.56    0.17
   1   7   0    1.78    0.10
  -2  -7   0    8.00    0.32
   2  -7   0    8.37    0.32
  -2  -7   0    7.74    0.31
  -2  -7   0    9.34    0.30
   2  -7   0    8.35    0.35
  -2  -7   0    7.75    0.34
  -2  -7   0    8.37    0.33
  -2  -7   0    8.45    0.29
   2   7   0    8.17    0.31
   2   7   0    8.41    0.30
   2   7   0    8.51    0.29
  -2   7   0    8.41    0.34
  -2   7   0    8.24    0.31
  -2   7   0    7.87    0.40
  -2   7   0    8.80    0.32
   2   7   0    8.39    0.31
   3  -7   0    6.48    0.29
  -3  -7   0    6.46    0.29
  -3  -7   0    6.13    0.24
  -3  -7   0    6.33    0.26
  -3  -7   0    6.53    0.26
  -3  -7   0    6.27    0.23
   3  -7   0    6.55    0.27
  -3  -7   0    6.57    0.21
  -3  -7   0    5.95    0.27
   3   7   0    6.81    0.28
  -3   7   0    6.42    0.29
   3   7   0    6.28    0.24
  -3   7   0    5.88    0.35
  -3   7   0    6.23    0.25
  -3   7   0    5.90    0.35
   3   7   0    6.69    0.26
  -4  -7   0    6.72    0.27
   4  -7   0    6.95    0.28
   4  -7   0    6.57    0.30
  -4  -7   0    7.00    0.27
  -4  -7   0    6.54    0.31
  -4  -7   0    6.33    0.29
  -4  -7   0    6.58    0.32
   4   7   0    6.60    0.26
  -4   7   0    6.64    0.25
  -4   7   0    6.17    0.38
   4   7   0    6.65    0.28
  -4   7   0    6.80    0.31
   4   7   0    6.60    0.29
  -4   7   0    6.84    0.40
   5  -7   0    1.34    0.11
  -5  -7   0    0.90    0.15
  -5  -7   0    1.20    0.10
  -5  -7   0    0.93    0.14
  -5  -7   0    0.80    0.12
  -5   7   0    1.16    0.20
   5   7   0    1.10    0.13
  -5   7   0    1.16    0.14
  -5   7   0    1.24    0.21
   0  -8   0   15.66    0.56
   0  -8   0   15.09    0.53
   0   8   0   15.68    0.52
   0   8   0   16.05    0.59
   0   8   0   15.40    0.54
   1  -8   0    6.38    0.31
  -1  -8   0    6.92    0.30
  -1  -8   0    7.03    0.28
  -1  -8   0    6.49    0.28
   1  -8   0    6.44    0.33
   1  -8   0    6.80    0.29
   1   8   0    6.79    0.28
   1   8   0    6.90    0.27
   1   8   0    6.48    0.30
  -1   8   0    7.19    0.30
  -1   8   0    7.16    0.28
  -1   8   0    7.04    0.35
   1   8   0    6.94    0.25
  -2  -8   0    6.02    0.27
  -2  -8   0    5.75    0.18
   2  -8   0    5.23    0.28
   2  -8   0    5.59    0.26
  -2  -8   0    5.90    0.27
  -2  -8   0    5.59    0.25
  -2  -8   0    5.25    0.24
  -2   8   0    5.79    0.24
   2   8   0    6.05    0.26
  -2   8   0    5.36    0.25
  -2   8   0    5.05    0.32
   2   8   0    5.67    0.22
   2   8   0    5.61    0.23
   3  -8   0    5.91    0.27
  -3  -8   0    6.35    0.20
  -3  -8   0    5.80    0.25
   3  -8   0    5.57    0.29
  -3  -8   0    5.67    0.29
  -3  -8   0    6.46    0.27
  -3   8   0    5.72    0.29
   3   8   0    5.85    0.27
   3   8   0    6.00    0.25
  -3   8   0    5.85    0.25
   3   8   0    6.03    0.24
  -3   8   0    5.66    0.36
  -4  -8   0    0.25    0.08
  -4  -8   0    0.23    0.07
   4  -8   0    0.27    0.06
   4  -8   0    0.24    0.06
  -4   8   0    0.10    0.10
   4   8   0    0.19    0.06
  -4   8   0    0.21    0.11
  -4   8   0    0.08    0.04
   4   8   0    0.27    0.06
  -4   8   0    0.16    0.07
   4   8   0    0.21    0.05
  -5  -8   0    2.77    0.19
  -5  -8   0    2.35    0.23
   5   8   0    2.88    0.19
  -5   8   0    2.37    0.19
   0  -9   0    0.38    0.08
  -1  -9   0    9.79    0.38
  -1  -9   0    9.62    0.38
   1  -9   0    9.44    0.38
  -1  -9   0    8.98    0.38
   1   9   0    9.87    0.36
  -1   9   0    9.17    0.44
  -1   9   0    9.24    0.38
   1   9   0    9.49    0.37
   1   9   0    9.99    0.34
   1   9   0    9.54    0.41
  -1   9   0    9.22    0.36
  -2  -9   0    2.07    0.15
  -2  -9   0    2.03    0.14
   2  -9   0    2.26    0.19
  -2  -9   0    2.31    0.17
   2  -9   0    2.22    0.16
  -2  -9   0    2.01    0.16
   2   9   0    2.10    0.12
   2   9   0    2.21    0.14
  -2   9   0    2.27    0.15
   2   9   0    2.10    0.15
  -2   9   0    1.81    0.23
  -2   9   0    1.87    0.14
  -3  -9   0    2.33    0.16
   3  -9   0    2.66    0.17
  -3  -9   0    2.59    0.20
   3   9   0    2.60    0.16
   3   9   0    2.23    0.16
  -3   9   0    2.58    0.15
  -3   9   0    2.58    0.28
   3   9   0    2.40    0.14
   4  -9   0    4.79    0.25
  -4  -9   0    5.17    0.30
   4   9   0    4.58    0.25
  -4   9   0    4.98    0.41
   0 -10   0    6.90    0.34
   0 -10   0    6.98    0.31
   0 -10   0    7.25    0.26
   0 -10   0    7.17    0.32
   0  10   0    7.00    0.31
   0  10   0    7.84    0.38
  -1 -10   0    2.44    0.17
  -1 -10   0    1.99    0.16
  -1 -10   0    2.12    0.16
  -1 -10   0    2.13    0.10
   1 -10   0    2.09    0.15
   1 -10   0    1.99    0.16
  -1  10   0    2.28    0.16
   1  10   0    2.62    0.17
  -1  10   0    1.96    0.24
   2 -10   0    2.61    0.18
  -2 -10   0    2.45    0.16
  -2 -10   0    2.81    0.20
  -2 -10   0    2.37    0.17
  -2 -10   0    2.69    0.18
   2  10   0    2.45    0.17
  -2  10   0    2.27    0.26
  -2  10   0    2.52    0.17
  -2  10   0    2.58    0.18
  -7   0   1    0.03    0.03
  -7   0   1   -0.11    0.08
   7   0  -1   -0.01    0.04
   7   0  -1    0.00    0.04
  -7   0   1   -0.08    0.05
  -7   0   1    0.07    0.09
   6   0  -1   -0.07    0.04
  -6   0   1   -0.02    0.02
   6   0  -1    0.04    0.03
   6   0  -1    0.01    0.04
  -6   0   1   -0.06    0.05
  -6   0   1    0.01    0.07
  -6   0   1    0.02    0.04
  -5   0   1   -0.02    0.04
  -5   0   1   -0.03    0.02
  -5   0   1    0.03    0.04
   5   0  -1    0.01    0.02
   5   0  -1   -0.01    0.02
  -5   0   1   -0.01    0.05
  -5   0   1   -0.11    0.04
   5   0  -1   -0.02    0.03
   4   0  -1    0.01    0.04
  -4   0   1   -0.02    0.04
  -4   0   1    0.01    0.04
   4   0  -1    0.02    0.01
  -4   0   1   -0.01    0.03
   4   0  -1   -0.01    0.03
  -4   0   1   -0.02    0.03
  -4   0   1    0.01    0.02
   4   0  -1   -0.02    0.02
   4   0  -1    0.00    0.01
   3   0  -1   -0.01    0.01
  -3   0   1   -0.04    0.03
  -3   0   1   -0.01    0.01
  -3   0   1   -0.03    0.02
  -3   0   1   -0.02    0.03
   3   0  -1   -0.01    0.03
   3   0  -1   -0.03    0.02
   3   0  -1   -0.02    0.01
  -3   0   1    0.02    0.03
   3   0  -1   -0.02    0.01
   2   0  -1    0.00    0.01
  -2   0   1    0.01    0.02
   2   0  -1    0.01    0.02
  -2   0   1    0.03    0.02
  -2   0   1    0.00    0.01
  -2   0   1   -0.02    0.01
   2   0  -1   -0.02    0.01
   2   0  -1   -0.02    0.03
   2   0  -1   -0.01    0.01
   2   0  -1   -0.02    0.01
  -2   0   1   -0.01    0.02
   1   0  -1   -0.17    0.01
  -1   0   1   -0.17    0.01
  -1   0   1   -0.15    0.02
   1   0  -1   -0.17    0.01
  -1   0   1   -0.16    0.01
   1   0  -1   -0.16    0.01
   1   0  -1   -0.16    0.02
  -1   0   1   -0.15    0.01
  -1   0   1   -0.15    0.02
   0   0  -1   -0.02    0.00
   0   0   1   -0.02    0.01
   0   0  -1   -0.02    0.00
   0   0  -1   -0.02    0.00
   0   0  -1   -0.02    0.00
   0   0  -1   -0.02    0.00
   0   0   1   -0.02    0.00
   0   0   1   -0.02    0.00
   0   0  -1   -0.02    0.01
   0   0  -1   -0.01    0.00
   0   0  -1   -0.02    0.00
   0   0  -1   -0.02    0.00
   0   0   1   -0.02    0.00
   0   0   1   -0.02    0.00
   0   0   1   -0.02    0.00
   0   0   1   -0.02    0.00
  -1   0  -1    0.01    0.01
  -1   0  -1    0.00    0.00
   1   0   1    0.01    0.01
   1   0   1    0.00    0.02
  -1   0  -1    0.00    0.00
  -1   0  -1    0.00    0.02
  -1   0  -1    0.00    0.01
  -1   0  -1    0.00    0.01
  -1   0  -1    0.00    0.01
   1   0   1    0.00    0.01
   1   0   1    0.00    0.01
  -1   0  -1    0.00    0.02
  -1   0  -1    0.00    0.02
   1   0   1    0.00    0.01
   1   0   1    0.01    0.01
  -1   0  -1   -0.02    0.01
   1   0   1    0.01    0.01
   1   0   1    0.01    0.01
   1   0   1   -0.01    0.02
   2   0   1   -0.02    0.02
  -2   0  -1   -0.02    0.02
   2   0   1   -0.02    0.01
   2   0   1   -0.03    0.01
  -2   0  -1   -0.03    0.01
   2   0   1   -0.03    0.01
  -2   0  -1   -0.02    0.03
   2   0   1   -0.03    0.02
   2   0   1   -0.04    0.01
  -2   0  -1   -0.03    0.02
  -2   0  -1   -0.02    0.04
  -2   0  -1   -0.03    0.01
   2   0   1   -0.01    0.01
   2   0   1   -0.02    0.02
   3   0   1    0.01    0.02
  -3   0  -1    0.00    0.04
  -3   0  -1   -0.02    0.04
  -3   0  -1   -0.01    0.01
   3   0   1    0.00    0.02
  -3   0  -1    0.01    0.03
   3   0   1    0.00    0.01
   3   0   1    0.00    0.03
  -3   0  -1   -0.02    0.02
   3   0   1   -0.01    0.01
   3   0   1    0.00    0.01
  -3   0  -1   -0.01    0.01
   4   0   1    0.00    0.03
   4   0   1   -0.01    0.01
   4   0   1    0.01    0.03
  -4   0  -1    0.00    0.04
   4   0   1    0.01    0.02
   4   0   1    0.00    0.02
  -4   0  -1   -0.01    0.02
  -4   0  -1    0.03    0.03
  -4   0  -1    0.04    0.03
   4   0   1    0.01    0.02
  -4   0  -1    0.03    0.04
  -4   0  -1   -0.01    0.01
  -5   0  -1    0.04    0.04
   5   0   1   -0.02    0.03
  -5   0  -1   -0.02    0.06
   5   0   1    0.00    0.02
   5   0   1    0.01    0.03
  -5   0  -1    0.00    0.02
  -5   0  -1   -0.02    0.03
   5   0   1    0.01    0.04
  -5   0  -1    0.07    0.06
   5   0   1   -0.02    0.02
   6   0   1    0.01    0.03
  -6   0  -1    0.01    0.07
   6   0   1   -0.03    0.04
  -6   0  -1   -0.01    0.04
  -6   0  -1    0.01    0.03
  -6   0  -1    0.01    0.07
   6   0   1   -0.03    0.03
   6   0   1   -0.04    0.03
  -7   0  -1   -0.02    0.03
  -7   0  -1    0.01    0.09
  -7   0  -1   -0.09    0.07
  -7   0  -1   -0.05    0.05
  -7  -1   1    0.12    0.04
   7  -1  -1    0.19    0.07
  -7  -1   1    0.17    0.08
   7  -1  -1    0.09    0.05
  -7  -1   1    0.33    0.12
  -7  -1   1    0.00    0.09
  -7   1   1    0.15    0.05
  -7   1   1    0.14    0.11
   7   1  -1    0.16    0.06
  -7   1   1    0.10    0.09
   7   1  -1    0.25    0.06
  -7   1   1    0.20    0.08
  -6  -1   1    2.80    0.18
   6  -1  -1    2.88    0.18
  -6  -1   1    2.97    0.24
  -6  -1   1    2.75    0.23
   6  -1  -1    2.64    0.15
  -6  -1   1    2.69    0.14
  -6   1   1    2.62    0.27
   6   1  -1    2.74    0.19
   6   1  -1    3.07    0.16
  -6   1   1    2.44    0.21
   6   1  -1    2.98    0.20
   6   1  -1    2.66    0.14
  -6   1   1    3.14    0.18
  -6   1   1    2.79    0.15
  -5  -1   1    1.15    0.15
   5  -1  -1    0.97    0.11
  -5  -1   1    1.50    0.13
  -5  -1   1    1.41    0.17
   5  -1  -1    1.34    0.08
   5  -1  -1    1.30    0.09
  -5  -1   1    1.13    0.08
   5   1  -1    1.11    0.08
  -5   1   1    1.43    0.18
  -5   1   1    1.29    0.12
  -5   1   1    1.27    0.13
  -5   1   1    1.27    0.15
  -5   1   1    1.33    0.09
   5   1  -1    1.26    0.13
   5   1  -1    1.35    0.12
  -4  -1   1    3.61    0.14
   4  -1  -1    3.55    0.12
  -4  -1   1    3.80    0.17
   4  -1  -1    3.60    0.13
  -4  -1   1    3.39    0.19
  -4  -1   1    3.80    0.21
   4  -1  -1    3.60    0.12
  -4  -1   1    3.74    0.15
   4  -1  -1    3.54    0.17
   4  -1  -1    3.68    0.15
   4   1  -1    3.59    0.13
   4   1  -1    3.81    0.18
   4   1  -1    3.45    0.14
   4   1  -1    3.74    0.14
   4   1  -1    3.89    0.20
  -4   1   1    3.73    0.15
  -4   1   1    3.64    0.16
  -4   1   1    3.62    0.19
  -4   1   1    3.23    0.19
   4   1  -1    3.65    0.13
  -4   1   1    3.78    0.22
  -3  -1   1    5.05    0.17
  -3  -1   1    4.94    0.21
  -3  -1   1    4.96    0.17
   3  -1  -1    5.04    0.16
   3  -1  -1    5.15    0.17
  -3  -1   1    5.43    0.23
   3  -1  -1    4.69    0.20
  -3  -1   1    5.31    0.19
  -3   1   1    5.07    0.18
  -3   1   1    4.98    0.21
   3   1  -1    5.15    0.16
   3   1  -1    5.15    0.23
   3   1  -1    5.14    0.16
  -3   1   1    4.88    0.23
  -3   1   1    4.94    0.18
  -3   1   1    4.94    0.21
   3   1  -1    4.99    0.15
   3   1  -1    5.22    0.20
   3   1  -1    4.82    0.16
  -2  -1   1    2.24    0.10
  -2  -1   1    2.16    0.07
  -2  -1   1    2.30    0.10
  -2  -1   1    2.06    0.08
   2  -1  -1    2.18    0.08
   2  -1  -1    2.21    0.08
  -2  -1   1    2.14    0.10
  -2  -1   1    2.10    0.08
  -2  -1   1    2.29    0.11
  -2   1   1    2.01    0.12
  -2   1   1    2.13    0.09
   2   1  -1    2.15    0.07
  -2   1   1    2.17    0.09
   2   1  -1    2.14    0.10
  -2   1   1    2.10    0.11
   2   1  -1    2.14    0.07
  -2   1   1    2.21    0.11
   1  -1  -1    7.40    0.24
  -1  -1   1    7.01    0.21
  -1  -1   1    7.04    0.21
   1  -1  -1    6.67    0.21
  -1  -1   1    7.17    0.22
  -1  -1   1    7.37    0.21
   1  -1  -1    7.16    0.21
  -1  -1   1    7.00    0.23
  -1  -1   1    6.86    0.22
   1  -1  -1    7.30    0.23
   1  -1  -1    7.38    0.24
  -1  -1   1    6.96    0.21
   1  -1  -1    6.92    0.21
  -1  -1   1    7.00    0.22
  -1  -1   1    6.89    0.21
   1   1  -1    7.07    0.22
  -1   1   1    7.24    0.20
  -1   1   1    7.02    0.24
  -1   1   1    7.08    0.24
   1   1  -1    7.00    0.21
  -1   1   1    6.86    0.21
  -1   1   1    7.02    0.22
   1   1  -1    7.61    0.21
   1   1  -1    7.16    0.21
   1   1  -1    7.21    0.20
   1   1  -1    7.03    0.20
   1   1  -1    7.15    0.21
  -1   1   1    7.00    0.23
   1   1  -1    7.53    0.22
  -1   1   1    6.76    0.21
   0  -1  -1    9.30    0.27
   0  -1   1    8.78    0.28
   0  -1   1    9.39    0.27
   0  -1  -1    9.15    0.28
   0  -1   1    8.79    0.26
   0  -1  -1    9.32    0.26
   0  -1  -1    8.76    0.27
   0  -1   1    8.98    0.27
   0  -1   1    9.45    0.27
   0  -1   1    8.49    0.26
   0  -1   1    8.91    0.26
   0  -1  -1    8.90    0.27
   0  -1   1    9.23    0.26
   0  -1  -1    9.32    0.28
   0  -1   1    9.23    0.27
   0  -1   1    9.36    0.26
   0  -1  -1    9.05    0.27
   0  -1   1    9.69    0.33
   0  -1  -1    9.30    0.27
   0  -1   1    8.36    0.26
   0  -1  -1    8.61    0.26
   0  -1   1    9.57    0.27
   0  -1   1    9.08    0.27
   0  -1   1    8.90    0.27
   0  -1   1    8.97    0.26
   0   1   1    8.29    0.27
   0   1  -1    9.49    0.34
   0   1   1    9.18    0.28
   0   1  -1    9.19    0.27
   0   1  -1    9.23    0.27
   0   1  -1    8.88    0.26
   0   1   1    9.03    0.26
   0   1  -1    9.19    0.27
   0   1  -1    9.13    0.27
   0   1  -1    9.15    0.28
   0   1   1    9.04    0.27
   0   1  -1    9.54    0.26
   0   1   1    9.03    0.27
   0   1  -1    9.48    0.28
   0   1   1    9.13    0.27
   0   1   1    8.80    0.26
   0   1   1    9.40    0.27
   0   1   1    9.07    0.27
   0   1  -1    9.23    0.26
   0   1   1    9.10    0.27
   0   1  -1    9.21    0.27
   0   1  -1    9.29    0.27
   0   1  -1    9.20    0.27
   0   1  -1    8.67    0.27
   0   1   1    9.56    0.27
   0   1   1    9.08    0.28
   0   1  -1    9.05    0.26
   0   1  -1    8.81    0.27
   1  -1   1   37.95    1.01
   1  -1   1   33.84    1.13
   1  -1   1   35.23    1.02
   1  -1   1   35.05    1.02
   1  -1   1   36.73    1.02
  -1  -1  -1   37.14    1.01
  -1  -1  -1   37.08    1.04
   1  -1   1   36.53    1.01
   1  -1   1   38.76    1.02
  -1  -1  -1   36.69    1.01
   1  -1   1   34.37    1.02
  -1  -1  -1   35.85    1.02
  -1  -1  -1   35.91    1.02
  -1  -1  -1   34.22    1.07
   1  -1   1   37.41    1.04
  -1  -1  -1   37.50    1.03
  -1  -1  -1   37.32    1.02
   1  -1   1   37.52    1.04
  -1  -1  -1   35.18    1.01
   1   1   1   35.78    1.02
   1   1   1   38.22    1.03
  -1   1  -1   38.16    1.02
  -1   1  -1   36.24    1.02
   1   1   1   37.81    1.02
   1   1   1   37.35    1.04
  -1   1  -1   36.85    1.04
   1   1   1   36.72    1.01
  -1   1  -1   35.88    1.02
   1   1   1   36.43    1.01
   1   1   1   36.43    1.01
  -1   1  -1   35.13    1.01
  -1   1  -1   34.54    1.02
  -1   1  -1   38.39    1.05
   1   1   1   37.25    1.01
  -1   1  -1   32.76    1.15
   1   1   1   38.25    1.02
  -2  -1  -1    4.34    0.21
   2  -1   1    4.48    0.15
  -2  -1  -1    4.69    0.14
   2  -1   1    4.40    0.15
  -2  -1  -1    4.31    0.15
  -2  -1  -1    4.42    0.13
   2  -1   1    4.53    0.15
   2  -1   1    4.49    0.16
  -2  -1  -1    4.53    0.17
   2  -1   1    4.39    0.27
  -2  -1  -1    4.34    0.15
   2  -1   1    4.57    0.16
  -2  -1  -1    4.27    0.14
   2  -1   1    4.81    0.16
   2  -1   1    4.57    0.18
   2  -1   1    4.49    0.14
   2   1   1    4.60    0.15
   2   1   1    4.40    0.18
  -2   1  -1    4.49    0.18
  -2   1  -1    4.05    0.30
   2   1   1    4.62    0.17
  -2   1  -1    4.54    0.16
   2   1   1    4.56    0.17
   2   1   1    4.39    0.15
   2   1   1    4.39    0.15
  -2   1  -1    4.74    0.20
   2   1   1    4.66    0.15
   2   1   1    4.42    0.15
   2   1   1    4.77    0.18
  -2   1  -1    4.48    0.14
  -2   1  -1    4.67    0.15
  -3  -1  -1    0.75    0.07
  -3  -1  -1    0.72    0.05
   3  -1   1    0.73    0.12
   3  -1   1    0.74    0.05
  -3  -1  -1    0.77    0.06
   3  -1   1    0.81    0.05
   3  -1   1    0.72    0.06
   3  -1   1    0.78    0.06
   3  -1   1    0.73    0.03
  -3  -1  -1    0.57    0.10
   3  -1   1    0.75    0.06
  -3  -1  -1    0.64    0.08
  -3   1  -1    0.77    0.04
   3   1   1    0.80    0.05
  -3   1  -1    0.64    0.09
   3   1   1    0.72    0.05
  -3   1  -1    0.79    0.08
  -3   1  -1    0.41    0.14
   3   1   1    0.72    0.05
   3   1   1    0.80    0.05
  -3   1  -1    0.72    0.07
   3   1   1    0.78    0.08
   3   1   1    0.78    0.05
   3   1   1    0.89    0.08
  -3   1  -1    0.70    0.05
   3   1   1    0.79    0.07
  -4  -1  -1    0.83    0.06
  -4  -1  -1    0.71    0.10
   4  -1   1    0.76    0.05
  -4  -1  -1    0.77    0.08
   4  -1   1    0.87    0.06
   4  -1   1    0.70    0.08
  -4  -1  -1    0.70    0.10
  -4  -1  -1    0.80    0.06
   4  -1   1    0.76    0.07
   4  -1   1    0.79    0.08
   4   1   1    0.96    0.10
  -4   1  -1    0.79    0.07
   4   1   1    0.83    0.06
  -4   1  -1    0.76    0.10
  -4   1  -1    0.48    0.07
   4   1   1    0.74    0.06
   4   1   1    0.78    0.09
   4   1   1    0.80    0.06
  -4   1  -1    0.79    0.07
  -4   1  -1    0.78    0.07
  -4   1  -1    0.70    0.12
  -4   1  -1    0.72    0.04
   4   1   1    0.81    0.06
   4   1   1    0.73    0.06
  -4   1  -1    0.84    0.11
  -5  -1  -1    0.72    0.08
  -5  -1  -1    0.85    0.09
   5  -1   1    0.76    0.10
  -5  -1  -1    0.79    0.13
   5  -1   1    0.89    0.09
  -5  -1  -1    0.83    0.10
   5  -1   1    0.90    0.07
  -5  -1  -1    0.79    0.13
  -5   1  -1    0.81    0.13
   5   1   1    0.89    0.08
  -5   1  -1    0.99    0.12
   5   1   1    0.81    0.07
  -5   1  -1    0.79    0.09
   5   1   1    0.87    0.08
  -5   1  -1    0.95    0.16
   5   1   1    1.06    0.12
  -5   1  -1    0.94    0.08
   5   1   1    0.78    0.10
  -6  -1  -1    0.20    0.07
  -6  -1  -1    0.11    0.08
   6  -1   1    0.09    0.06
  -6  -1  -1    0.12    0.05
   6  -1   1    0.14    0.05
  -6  -1  -1    0.16    0.09
   6  -1   1    0.14    0.05
   6   1   1    0.19    0.06
   6   1   1    0.19    0.05
  -6   1  -1    0.20    0.05
  -6   1  -1    0.13    0.09
   6   1   1    0.23    0.07
  -6   1  -1    0.10    0.05
  -6   1  -1    0.15    0.09
   6   1   1    0.09    0.05
  -6   1  -1    0.04    0.07
  -7  -1  -1    0.49    0.10
  -7  -1  -1    0.36    0.14
  -7  -1  -1    0.49    0.14
  -7  -1  -1    0.45    0.08
  -7   1  -1    0.53    0.09
   7   1   1    0.46    0.10
  -7   1  -1    0.35    0.14
  -7   1  -1    0.41    0.10
  -7   1  -1    0.35    0.12
  -7  -2   1    0.19    0.09
   7  -2  -1    0.30    0.08
  -7  -2   1    0.07    0.09
  -7  -2   1    0.28    0.06
   7   2  -1    0.22    0.06
  -7   2   1    0.17    0.05
  -7   2   1    0.38    0.13
  -7   2   1    0.29    0.08
  -7   2   1    0.14    0.09
   7   2  -1    0.27    0.06
  -6  -2   1    3.58    0.21
   6  -2  -1    3.71    0.21
  -6  -2   1    3.71    0.17
  -6  -2   1    3.64    0.26
   6  -2  -1    3.48    0.19
  -6  -2   1    3.44    0.26
   6   2  -1    3.66    0.18
  -6   2   1    3.29    0.27
   6   2  -1    3.41    0.22
  -6   2   1    3.19    0.24
   6   2  -1    3.62    0.17
  -6   2   1    3.68    0.18
  -6   2   1    3.44    0.23
   6   2  -1    3.56    0.21
  -6   2   1    3.66    0.20
   5  -2  -1    0.70    0.08
  -5  -2   1    0.84    0.12
  -5  -2   1    0.74    0.06
  -5  -2   1    0.81    0.13
   5  -2  -1    0.84    0.10
   5  -2  -1    0.75    0.07
  -5  -2   1    1.03    0.12
   5   2  -1    0.86    0.07
   5   2  -1    0.97    0.11
   5   2  -1    0.70    0.07
  -5   2   1    0.84    0.12
  -5   2   1    0.71    0.09
  -5   2   1    0.69    0.08
  -5   2   1    0.96    0.16
  -5   2   1    0.77    0.12
   4  -2  -1    0.55    0.04
  -4  -2   1    0.67    0.10
  -4  -2   1    0.58    0.07
   4  -2  -1    0.61    0.06
   4  -2  -1    0.55    0.04
   4  -2  -1    0.56    0.07
   4  -2  -1    0.58    0.06
  -4  -2   1    0.58    0.05
  -4  -2   1    0.57    0.09
   4   2  -1    0.64    0.05
  -4   2   1    0.60    0.09
  -4   2   1    0.56    0.07
   4   2  -1    0.68    0.08
   4   2  -1    0.71    0.05
  -4   2   1    0.57    0.09
   4   2  -1    0.61    0.05
  -4   2   1    0.55    0.06
  -4   2   1    0.74    0.12
   4   2  -1    0.66    0.05
   3  -2  -1    0.41    0.04
  -3  -2   1    0.36    0.06
  -3  -2   1    0.35    0.05
  -3  -2   1    0.22    0.04
  -3  -2   1    0.34    0.06
  -3  -2   1    0.42    0.03
   3  -2  -1    0.40    0.05
  -3  -2   1    0.41    0.04
   3  -2  -1    0.46    0.03
   3  -2  -1    0.42    0.06
   3   2  -1    0.42    0.03
  -3   2   1    0.41    0.05
   3   2  -1    0.46    0.04
  -3   2   1    0.39    0.05
  -3   2   1    0.43    0.02
  -3   2   1    0.36    0.08
  -3   2   1    0.43    0.07
   3   2  -1    0.41    0.03
   3   2  -1    0.41    0.05
  -3   2   1    0.44    0.07
   2  -2  -1    6.78    0.23
   2  -2  -1    7.53    0.24
  -2  -2   1    6.87    0.24
  -2  -2   1    7.24    0.22
  -2  -2   1    7.41    0.24
  -2  -2   1    7.34    0.23
  -2  -2   1    7.00    0.22
  -2  -2   1    7.24    0.25
   2  -2  -1    7.51    0.23
   2  -2  -1    6.55    0.28
  -2  -2   1    7.45    0.24
  -2  -2   1    7.87    0.27
   2  -2  -1    7.28    0.23
   2   2  -1    7.14    0.21
  -2   2   1    7.15    0.23
  -2   2   1    7.51    0.25
  -2   2   1    7.33    0.22
  -2   2   1    7.26    0.24
  -2   2   1    7.49    0.25
  -2   2   1    7.35    0.28
   2   2  -1    7.43    0.24
   2   2  -1    7.41    0.22
   2   2  -1    6.71    0.22
  -2   2   1    7.66    0.29
   1  -2  -1   34.21    0.98
  -1  -2   1   34.28    0.96
  -1  -2   1   35.09    0.96
   1  -2  -1   36.26    0.99
  -1  -2   1   34.63    0.97
  -1  -2   1   34.33    0.97
  -1  -2   1   34.61    0.96
   1  -2  -1   36.43    0.97
  -1  -2   1   33.79    0.96
   1  -2  -1   34.87    0.96
   1  -2  -1   33.67    0.98
  -1  -2   1   34.66    0.98
  -1  -2   1   33.65    0.97
  -1  -2   1   32.35    0.97
  -1  -2   1   32.87    0.97
  -1  -2   1   34.59    0.98
   1  -2  -1   34.87    1.01
   1  -2  -1   34.70    1.00
  -1  -2   1   36.19    1.01
   1  -2  -1   36.17    0.98
   1  -2  -1   34.62    0.98
   1   2  -1   33.65    0.96
  -1   2   1   36.16    0.96
  -1   2   1   35.00    0.97
   1   2  -1   34.55    0.97
   1   2  -1   35.27    0.97
   1   2  -1   35.14    0.97
  -1   2   1   35.15    1.01
  -1   2   1   35.19    0.98
  -1   2   1   32.57    0.97
  -1   2   1   36.13    0.97
   1   2  -1   33.47    0.97
   1   2  -1   34.96    0.97
  -1   2   1   35.81    1.01
   1   2  -1   34.50    0.96
   1   2  -1   35.06    0.96
  -1   2   1   33.10    0.98
   1   2  -1   34.50    0.97
   1   2  -1   36.34    0.98
   0  -2   1   14.27    0.43
   0  -2  -1   14.10    0.43
   0  -2  -1   14.55    0.39
   0  -2  -1   12.23    0.42
   0  -2   1   14.00    0.41
   0  -2   1   13.94    0.40
   0  -2  -1   14.22    0.42
   0  -2   1   13.91    0.40
   0  -2  -1   13.88    0.41
   0  -2  -1   14.08    0.41
   0  -2   1   14.41    0.42
   0  -2  -1   13.80    0.40
   0  -2   1   14.39    0.42
   0  -2   1   14.09    0.53
   0  -2   1   13.31    0.41
   0  -2   1   14.59    0.42
   0  -2   1   13.41    0.42
   0  -2   1   14.56    0.41
   0  -2  -1   14.52    0.42
   0  -2  -1   13.27    0.42
   0  -2   1   14.41    0.40
   0   2  -1   15.08    0.44
   0   2  -1   14.78    0.42
   0   2  -1   14.76    0.42
   0   2  -1   14.05    0.41
   0   2   1   14.15    0.40
   0   2  -1   14.31    0.42
   0   2  -1   14.52    0.42
   0   2   1   13.88    0.41
   0   2  -1   13.79    0.41
   0   2  -1   14.59    0.40
   0   2  -1   14.16    0.42
   0   2   1   13.65    0.42
   0   2  -1   14.90    0.40
   0   2   1   14.29    0.42
   0   2   1   14.69    0.42
   0   2  -1   14.14    0.40
   0   2  -1   14.98    0.42
   0   2  -1   14.70    0.40
   0   2   1   14.01    0.41
   0   2   1   14.61    0.43
   1  -2   1   23.61    0.67
   1  -2   1   21.83    0.83
   1  -2   1   23.48    0.66
  -1  -2  -1   22.42    0.66
  -1  -2  -1   23.56    0.66
   1  -2   1   24.19    0.68
  -1  -2  -1   23.42    0.67
   1  -2   1   22.94    0.67
   1  -2   1   23.33    0.67
   1  -2   1   23.20    0.69
  -1  -2  -1   22.21    0.66
   1  -2   1   23.18    0.66
   1  -2   1   22.53    0.65
  -1  -2  -1   23.14    0.66
  -1  -2  -1   22.37    0.65
   1  -2   1   23.53    0.69
  -1  -2  -1   23.17    0.67
  -1   2  -1   23.12    0.66
   1   2   1   24.08    0.66
   1   2   1   23.24    0.67
  -1   2  -1   24.21    0.67
   1   2   1   23.86    0.67
   1   2   1   23.08    0.66
   1   2   1   23.52    0.70
  -1   2  -1   23.29    0.70
   1   2   1   22.61    0.65
   1   2   1   22.86    0.66
   1   2   1   23.46    0.68
  -1   2  -1   20.96    0.86
  -1   2  -1   23.00    0.70
  -1   2  -1   23.13    0.66
  -1   2  -1   22.60    0.67
   1   2   1   23.74    0.66
   1   2   1   23.00    0.65
  -1   2  -1   23.03    0.66
   1   2   1   24.95    0.67
  -2  -2  -1   14.63    0.42
  -2  -2  -1   14.19    0.41
  -2  -2  -1   13.64    0.44
  -2  -2  -1   14.06    0.41
  -2  -2  -1   13.82    0.42
   2  -2   1   13.60    0.63
  -2  -2  -1   14.20    0.41
   2  -2   1   14.70    0.43
   2  -2   1   14.48    0.47
   2  -2   1   14.68    0.42
  -2  -2  -1   14.82    0.45
  -2  -2  -1   14.09    0.42
   2  -2   1   14.23    0.41
   2  -2   1   14.98    0.43
   2  -2   1   14.30    0.43
   2   2   1   13.79    0.43
  -2   2  -1   14.07    0.42
   2   2   1   14.31    0.44
  -2   2  -1   14.49    0.49
  -2   2  -1   14.08    0.44
  -2   2  -1   13.95    0.44
   2   2   1   14.17    0.42
   2   2   1   14.64    0.45
   2   2   1   14.25    0.43
  -2   2  -1   14.91    0.47
   2   2   1   14.03    0.41
   2   2   1   13.86    0.47
   2   2   1   13.63    0.42
   2   2   1   14.18    0.42
   3  -2   1    1.64    0.07
  -3  -2  -1    1.24    0.11
  -3  -2  -1    1.55    0.07
  -3  -2  -1    1.63    0.08
  -3  -2  -1    1.57    0.09
  -3  -2  -1    1.60    0.06
  -3  -2  -1    1.66    0.09
   3  -2   1    1.58    0.09
   3  -2   1    1.73    0.10
  -3  -2  -1    1.76    0.11
   3  -2   1    1.56    0.07
   3  -2   1    1.65    0.08
   3  -2   1    1.47    0.09
   3   2   1    1.63    0.08
  -3   2  -1    1.64    0.09
  -3   2  -1    1.94    0.14
   3   2   1    1.62    0.08
  -3   2  -1    1.61    0.08
  -3   2  -1    1.69    0.12
   3   2   1    1.47    0.08
   3   2   1    1.72    0.12
   3   2   1    1.69    0.08
  -3   2  -1    1.04    0.24
  -3   2  -1    1.64    0.07
   3   2   1    1.46    0.08
  -3   2  -1    1.72    0.12
   4  -2   1    0.01    0.01
  -4  -2  -1    0.02    0.02
  -4  -2  -1   -0.04    0.03
  -4  -2  -1    0.02    0.04
   4  -2   1    0.02    0.03
   4  -2   1    0.04    0.02
  -4  -2  -1    0.02    0.04
  -4  -2  -1    0.04    0.03
   4  -2   1    0.04    0.03
  -4   2  -1    0.01    0.02
   4   2   1    0.02    0.02
   4   2   1    0.03    0.02
  -4   2  -1    0.01    0.01
  -4   2  -1   -0.03    0.03
  -4   2  -1    0.01    0.03
  -4   2  -1    0.03    0.06
  -4   2  -1   -0.03    0.02
  -4   2  -1    0.00    0.01
   4   2   1    0.02    0.02
  -4   2  -1    0.01    0.04
   4   2   1    0.00    0.03
   4   2   1    0.01    0.02
  -5  -2  -1    0.14    0.07
  -5  -2  -1    0.24    0.05
   5  -2   1    0.32    0.06
  -5  -2  -1    0.16    0.06
   5  -2   1    0.25    0.05
   5  -2   1    0.19    0.05
  -5  -2  -1    0.25    0.09
  -5   2  -1    0.27    0.05
  -5   2  -1    0.38    0.09
   5   2   1    0.27    0.05
   5   2   1    0.22    0.05
  -5   2  -1    0.30    0.06
   5   2   1    0.20    0.07
  -5   2  -1    0.27    0.08
  -5   2  -1    0.31    0.10
   5   2   1    0.19    0.05
  -6  -2  -1    0.59    0.13
   6  -2   1    0.58    0.09
   6  -2   1    0.48    0.08
   6  -2   1    0.60    0.09
  -6  -2  -1    0.55    0.10
  -6  -2  -1    0.59    0.14
  -6  -2  -1    0.60    0.08
   6   2   1    0.55    0.10
  -6   2  -1    0.33    0.12
   6   2   1    0.62    0.11
  -6   2  -1    0.37    0.11
   6   2   1    0.73    0.09
  -6   2  -1    0.60    0.13
  -6   2  -1    0.70    0.10
   6   2   1    0.57    0.09
  -6   2  -1    0.59    0.08
  -7  -2  -1    1.13    0.19
  -7  -2  -1    1.16    0.16
  -7  -2  -1    0.77    0.18
  -7  -2  -1    1.04    0.11
  -7   2  -1    1.08    0.12
  -7   2  -1    1.13    0.19
  -7   2  -1    0.93    0.13
  -7   2  -1    0.87    0.20
  -7  -3   1    0.05    0.08
  -7  -3   1    0.05    0.04
  -7  -3   1    0.06    0.08
   7  -3  -1    0.08    0.06
   7   3  -1    0.10    0.06
  -7   3   1    0.13    0.09
   7   3  -1    0.07    0.04
  -7   3   1    0.04    0.11
  -7   3   1    0.15    0.05
   6  -3  -1    1.01    0.11
   6  -3  -1    0.84    0.11
  -6  -3   1    0.97    0.16
  -6  -3   1    0.96    0.13
  -6  -3   1    0.97    0.09
  -6   3   1    1.15    0.17
  -6   3   1    0.71    0.09
   6   3  -1    0.84    0.12
   6   3  -1    0.92    0.10
   6   3  -1    0.80    0.09
  -6   3   1    1.08    0.16
  -6   3   1    0.91    0.17
  -6   3   1    0.83    0.10
  -5  -3   1    5.23    0.29
  -5  -3   1    5.31    0.25
  -5  -3   1    5.26    0.21
  -5  -3   1    5.21    0.27
   5  -3  -1    5.49    0.23
   5  -3  -1    5.01    0.24
  -5   3   1    5.24    0.32
  -5   3   1    4.97    0.27
   5   3  -1    5.15    0.24
  -5   3   1    5.41    0.29
   5   3  -1    5.51    0.21
  -5   3   1    5.40    0.23
  -5   3   1    5.18    0.22
   4  -3  -1    6.83    0.27
   4  -3  -1    6.88    0.28
  -4  -3   1    7.39    0.24
   4  -3  -1    7.71    0.27
  -4  -3   1    6.64    0.32
  -4  -3   1    7.38    0.29
  -4  -3   1    7.20    0.30
  -4  -3   1    7.15    0.28
  -4  -3   1    7.55    0.25
   4  -3  -1    7.50    0.25
  -4   3   1    7.39    0.27
  -4   3   1    7.16    0.26
   4   3  -1    7.41    0.25
   4   3  -1    7.33    0.24
   4   3  -1    7.31    0.28
  -4   3   1    7.22    0.33
  -4   3   1    7.36    0.35
   4   3  -1    7.64    0.25
  -4   3   1    7.17    0.30
   3  -3  -1    4.56    0.18
  -3  -3   1    4.62    0.16
  -3  -3   1    4.61    0.21
   3  -3  -1    4.50    0.18
  -3  -3   1    4.88    0.19
   3  -3  -1    4.76    0.18
   3  -3  -1    4.57    0.16
  -3  -3   1    4.72    0.17
  -3  -3   1    4.68    0.19
  -3  -3   1    4.54    0.19
  -3   3   1    4.34    0.24
  -3   3   1    4.87    0.20
   3   3  -1    4.51    0.16
   3   3  -1    4.23    0.18
  -3   3   1    4.65    0.23
   3   3  -1    4.57    0.19
   3   3  -1    4.16    0.16
  -3   3   1    4.50    0.15
  -3   3   1    4.55    0.18
   3   3  -1    4.49    0.15
   3   3  -1    4.69    0.16
  -3   3   1    4.74    0.17
  -2  -3   1    5.07    0.18
  -2  -3   1    5.12    0.18
  -2  -3   1    5.14    0.19
  -2  -3   1    5.40    0.19
   2  -3  -1    5.53    0.19
  -2  -3   1    5.75    0.21
   2  -3  -1    5.36    0.21
   2  -3  -1    5.35    0.23
   2  -3  -1    5.36    0.21
  -2  -3   1    5.06    0.19
   2  -3  -1    5.52    0.20
   2  -3  -1    5.29    0.20
  -2   3   1    5.48    0.18
  -2   3   1    5.21    0.24
   2   3  -1    4.93    0.18
   2   3  -1    5.25    0.18
   2   3  -1    5.04    0.19
   2   3  -1    5.35    0.17
  -2   3   1    5.21    0.18
  -2   3   1    5.30    0.20
   2   3  -1    5.18    0.18
   2   3  -1    5.42    0.19
  -2   3   1    5.35    0.24
  -2   3   1    5.42    0.19
  -2   3   1    5.28    0.17
  -1  -3   1   28.21    0.78
  -1  -3   1   28.55    0.80
  -1  -3   1   26.89    0.79
   1  -3  -1   28.63    0.81
   1  -3  -1   29.42    0.80
   1  -3  -1   28.14    0.80
   1  -3  -1   28.29    0.81
  -1  -3   1   27.88    0.78
  -1  -3   1   28.23    0.79
   1  -3  -1   29.31    0.78
   1  -3  -1   26.83    0.78
  -1  -3   1   27.53    0.81
  -1  -3   1   26.92    0.80
  -1  -3   1   27.87    0.80
  -1  -3   1   28.25    0.90
   1  -3  -1   28.31    0.82
   1  -3  -1   28.77    0.77
  -1  -3   1   28.99    0.80
  -1   3   1   27.42    0.78
   1   3  -1   27.64    0.80
  -1   3   1   27.89    0.84
   1   3  -1   27.31    0.80
  -1   3   1   28.40    0.84
   1   3  -1   29.15    0.80
   1   3  -1   24.56    0.82
  -1   3   1   26.51    0.79
   1   3  -1   27.56    0.77
   1   3  -1   28.97    0.80
  -1   3   1   27.88    0.80
   1   3  -1   28.46    0.79
   1   3  -1   26.71    0.80
   1   3  -1   28.74    0.81
   1   3  -1   27.85    0.78
   1   3  -1   26.90    0.80
  -1   3   1   27.86    0.81
  -1   3   1   27.56    0.80
   0  -3  -1    2.09    0.10
   0  -3   1    2.33    0.10
   0  -3  -1    2.30    0.11
   0  -3   1    2.38    0.10
   0  -3  -1    2.23    0.10
   0  -3   1    2.19    0.12
   0  -3  -1    2.16    0.10
   0  -3   1    2.30    0.08
   0  -3  -1    2.41    0.12
   0  -3   1    2.21    0.09
   0  -3  -1    2.34    0.12
   0  -3   1    2.32    0.11
   0  -3   1    2.22    0.19
   0  -3   1    2.43    0.11
   0  -3   1    2.18    0.08
   0   3   1    2.86    0.11
   0   3   1    2.20    0.08
   0   3  -1    2.23    0.10
   0   3  -1    2.17    0.10
   0   3   1    2.47    0.12
   0   3  -1    2.24    0.10
   0   3  -1    2.18    0.10
   0   3   1    2.36    0.11
   0   3  -1    2.17    0.13
   0   3   1    2.29    0.09
   0   3   1    2.11    0.10
   0   3  -1    2.15    0.08
   0   3  -1    2.22    0.11
   0   3  -1    2.30    0.09
   0   3   1    2.13    0.10
   0   3  -1    2.38    0.12
   0   3  -1    2.42    0.11
   0   3   1    2.28    0.09
   0   3  -1    2.39    0.11
   0   3   1    2.08    0.09
   0   3  -1    2.25    0.09
   1  -3   1    0.36    0.04
   1  -3   1    0.40    0.05
  -1  -3  -1    0.40    0.05
   1  -3   1    0.32    0.04
  -1  -3  -1    0.30    0.03
   1  -3   1    0.28    0.04
   1  -3   1    0.38    0.03
   1  -3   1    0.21    0.04
   1  -3   1    0.32    0.03
   1  -3   1    0.24    0.09
  -1  -3  -1    0.40    0.05
  -1  -3  -1    0.37    0.03
   1  -3   1    0.41    0.07
  -1  -3  -1    0.35    0.04
  -1   3  -1    0.38    0.06
  -1   3  -1    0.28    0.04
   1   3   1    0.33    0.04
  -1   3  -1    0.24    0.05
  -1   3  -1    0.35    0.03
   1   3   1    0.34    0.05
   1   3   1    0.24    0.03
   1   3   1    0.38    0.03
  -1   3  -1    0.28    0.04
   1   3   1    0.36    0.05
   1   3   1    0.32    0.04
  -1   3  -1    0.42    0.05
   1   3   1    0.32    0.04
   1   3   1    0.32    0.04
  -1   3  -1    0.16    0.10
   1   3   1    0.27    0.04
   1   3   1    0.37    0.05
   1   3   1    0.37    0.02
  -1   3  -1    0.35    0.06
   2  -3   1   15.34    0.49
   2  -3   1   15.09    0.46
  -2  -3  -1   15.02    0.45
   2  -3   1   14.90    0.47
  -2  -3  -1   14.84    0.44
   2  -3   1   14.31    0.44
  -2  -3  -1   14.69    0.46
  -2  -3  -1   15.03    0.46
  -2  -3  -1   14.59    0.44
  -2  -3  -1   14.40    0.43
   2  -3   1   14.65    0.50
  -2  -3  -1   14.90    0.44
   2  -3   1   14.53    0.46
  -2  -3  -1   14.14    0.42
  -2  -3  -1   14.74    0.45
   2  -3   1   14.32    0.45
   2  -3   1   15.37    0.43
  -2   3  -1   14.98    0.51
   2   3   1   14.09    0.45
  -2   3  -1   15.32    0.45
   2   3   1   14.60    0.43
   2   3   1   15.42    0.46
   2   3   1   13.95    0.43
   2   3   1   14.70    0.46
  -2   3  -1   14.33    0.49
   2   3   1   14.74    0.50
   2   3   1   14.24    0.45
  -2   3  -1   14.78    0.42
  -2   3  -1   13.77    0.46
   2   3   1   14.33    0.47
   2   3   1   15.07    0.45
   2   3   1   14.14    0.44
   3  -3   1    4.65    0.20
   3  -3   1    4.71    0.19
   3  -3   1    4.53    0.16
  -3  -3  -1    4.50    0.18
  -3  -3  -1    4.32    0.16
  -3  -3  -1    4.61    0.15
  -3  -3  -1    4.46    0.18
   3  -3   1    4.72    0.25
   3  -3   1    4.42    0.18
   3  -3   1    4.50    0.16
  -3  -3  -1    4.83    0.17
  -3   3  -1    4.62    0.17
   3   3   1    4.54    0.23
   3   3   1    4.36    0.18
  -3   3  -1    4.63    0.19
  -3   3  -1    4.54    0.19
   3   3   1    4.46    0.16
  -3   3  -1    4.66    0.16
   3   3   1    4.38    0.18
  -3   3  -1    4.59    0.25
  -3   3  -1    4.29    0.22
   3   3   1    4.26    0.17
   3   3   1    4.24    0.19
   3   3   1    4.38    0.17
  -4  -3  -1    1.05    0.12
   4  -3   1    0.94    0.08
  -4  -3  -1    0.97    0.05
   4  -3   1    0.85    0.07
  -4  -3  -1    1.11    0.08
  -4  -3  -1    0.98    0.10
  -4  -3  -1    1.06    0.13
   4  -3   1    1.01    0.06
   4  -3   1    0.95    0.09
  -4  -3  -1    0.93    0.09
   4   3   1    1.18    0.07
  -4   3  -1    1.10    0.14
  -4   3  -1    1.07    0.09
   4   3   1    0.86    0.08
  -4   3  -1    0.96    0.09
  -4   3  -1    1.04    0.08
  -4   3  -1    1.12    0.13
  -4   3  -1    0.89    0.14
  -4   3  -1    1.03    0.06
   4   3   1    1.33    0.12
   5  -3   1    2.46    0.16
  -5  -3  -1    2.72    0.14
  -5  -3  -1    2.91    0.17
  -5  -3  -1    2.82    0.21
   5  -3   1    2.58    0.15
  -5  -3  -1    2.57    0.20
   5  -3   1    2.66    0.14
   5   3   1    2.86    0.14
  -5   3  -1    2.42    0.14
  -5   3  -1    2.62    0.19
   5   3   1    2.90    0.17
   5   3   1    2.60    0.13
  -5   3  -1    2.28    0.24
  -5   3  -1    2.64    0.15
  -5   3  -1    2.70    0.21
   5   3   1    2.57    0.15
  -5   3  -1    2.63    0.10
  -6  -3  -1    1.95    0.18
   6  -3   1    2.23    0.14
  -6  -3  -1    2.26    0.24
  -6  -3  -1    2.27    0.14
  -6  -3  -1    1.78    0.22
   6  -3   1    2.10    0.17
   6  -3   1    2.35    0.16
  -6   3  -1    2.08    0.14
   6   3   1    2.42    0.18
  -6   3  -1    1.96    0.14
  -6   3  -1    2.47    0.25
   6   3   1    2.20    0.14
  -6   3  -1    1.78    0.24
  -6   3  -1    1.92    0.21
  -7  -3  -1    0.28    0.12
  -7  -3  -1    0.50    0.11
  -7  -3  -1    0.48    0.08
  -7   3  -1    0.41    0.13
  -7   3  -1    0.47    0.09
  -7  -4   1    0.20    0.09
  -7  -4   1    0.19    0.05
  -7  -4   1    0.15    0.10
  -7   4   1    0.34    0.08
   7   4  -1    0.33    0.08
  -7   4   1    0.23    0.10
   7   4  -1    0.36    0.07
  -6  -4   1    0.23    0.10
   6  -4  -1    0.17    0.06
  -6  -4   1    0.14    0.07
   6  -4  -1    0.19    0.06
  -6  -4   1    0.25    0.05
  -6   4   1    0.13    0.09
   6   4  -1    0.23    0.05
   6   4  -1    0.20    0.07
  -6   4   1    0.13    0.11
   6   4  -1    0.15    0.06
  -6   4   1    0.14    0.08
  -6   4   1    0.21    0.06
   6   4  -1    0.17    0.06
  -5  -4   1    1.53    0.18
   5  -4  -1    1.91    0.13
  -5  -4   1    1.79    0.14
  -5  -4   1    1.55    0.16
   5  -4  -1    1.89    0.14
  -5  -4   1    1.76    0.11
  -5   4   1    1.64    0.12
  -5   4   1    1.44    0.10
  -5   4   1    1.70    0.15
   5   4  -1    1.95    0.13
  -5   4   1    1.79    0.22
   5   4  -1    1.78    0.13
  -5   4   1    1.65    0.19
   5   4  -1    1.83    0.12
  -4  -4   1    4.57    0.21
   4  -4  -1    4.39    0.20
  -4  -4   1    4.47    0.22
   4  -4  -1    4.68    0.18
   4  -4  -1    4.53    0.21
  -4  -4   1    4.31    0.17
  -4  -4   1    4.99    0.25
  -4  -4   1    4.45    0.18
  -4  -4   1    4.45    0.21
  -4   4   1    4.20    0.28
  -4   4   1    4.67    0.22
   4   4  -1    4.57    0.20
  -4   4   1    4.51    0.20
   4   4  -1    4.53    0.20
  -4   4   1    4.51    0.15
   4   4  -1    4.28    0.16
   4   4  -1    4.43    0.19
  -4   4   1    4.20    0.16
  -4   4   1    4.53    0.17
  -4   4   1    4.51    0.26
   3  -4  -1    1.62    0.11
   3  -4  -1    1.58    0.10
   3  -4  -1    1.53    0.11
   3  -4  -1    1.59    0.10
  -3  -4   1    1.61    0.08
  -3  -4   1    1.49    0.11
  -3  -4   1    1.56    0.10
   3  -4  -1    1.50    0.08
  -3  -4   1    1.62    0.12
  -3  -4   1    1.67    0.08
  -3  -4   1    1.65    0.09
   3  -4  -1    1.53    0.12
  -3   4   1    1.48    0.08
  -3   4   1    1.55    0.10
   3   4  -1    1.58    0.09
  -3   4   1    1.44    0.15
   3   4  -1    1.52    0.10
   3   4  -1    1.58    0.09
   3   4  -1    1.49    0.09
  -3   4   1    1.64    0.18
  -3   4   1    1.60    0.07
   3   4  -1    1.64    0.08
  -3   4   1    1.69    0.10
   3   4  -1    1.46    0.09
  -2  -4   1    0.51    0.07
   2  -4  -1    0.70    0.11
  -2  -4   1    0.60    0.06
   2  -4  -1    0.49    0.06
   2  -4  -1    0.66    0.08
  -2  -4   1    0.55    0.03
  -2  -4   1    0.59    0.05
  -2  -4   1    0.49    0.06
  -2  -4   1    0.65    0.05
  -2  -4   1    0.63    0.06
  -2  -4   1    0.53    0.05
  -2  -4   1    0.55    0.05
   2  -4  -1    0.59    0.06
  -2  -4   1    0.40    0.06
   2   4  -1    0.73    0.07
   2   4  -1    0.61    0.04
  -2   4   1    0.64    0.10
  -2   4   1    0.59    0.10
   2   4  -1    0.57    0.04
  -2   4   1    0.58    0.05
   2   4  -1    0.54    0.06
  -2   4   1    0.55    0.06
   2   4  -1    0.66    0.07
   2   4  -1    0.57    0.06
  -2   4   1    0.57    0.05
   2   4  -1    0.41    0.05
   2   4  -1    0.54    0.06
  -2   4   1    0.53    0.05
   1  -4  -1    3.93    0.18
  -1  -4   1    3.76    0.25
  -1  -4   1    3.75    0.17
  -1  -4   1    4.36    0.16
  -1  -4   1    4.04    0.15
   1  -4  -1    3.81    0.16
  -1  -4   1    3.92    0.13
   1  -4  -1    4.06    0.21
  -1  -4   1    3.92    0.14
   1  -4  -1    4.03    0.16
  -1  -4   1    4.03    0.16
  -1  -4   1    4.15    0.14
  -1  -4   1    4.12    0.12
  -1  -4   1    4.06    0.16
  -1  -4   1    3.87    0.15
   1  -4  -1    3.98    0.18
  -1   4   1    4.14    0.20
   1   4  -1    3.97    0.16
  -1   4   1    4.03    0.17
   1   4  -1    3.77    0.15
   1   4  -1    3.77    0.17
   1   4  -1    4.09    0.15
   1   4  -1    3.97    0.16
  -1   4   1    3.95    0.15
   1   4  -1    3.77    0.16
   1   4  -1    3.79    0.16
  -1   4   1    4.21    0.20
   1   4  -1    4.03    0.16
   1   4  -1    3.97    0.14
  -1   4   1    4.16    0.16
  -1   4   1    4.12    0.18
   0  -4  -1    8.20    0.27
   0  -4  -1    8.19    0.29
   0  -4  -1    7.96    0.27
   0  -4   1    8.00    0.23
   0  -4   1    8.01    0.24
   0  -4   1    7.45    0.43
   0  -4  -1    7.68    0.25
   0  -4   1    7.72    0.29
   0  -4   1    8.20    0.28
   0  -4   1    7.74    0.26
   0  -4   1    8.12    0.27
   0  -4   1    7.86    0.30
   0  -4  -1    8.10    0.29
   0   4  -1    8.20    0.28
   0   4  -1    8.01    0.27
   0   4   1    7.67    0.27
   0   4  -1    7.78    0.27
   0   4  -1    7.82    0.25
   0   4   1    8.32    0.30
   0   4  -1    7.83    0.25
   0   4   1    7.60    0.26
   0   4   1    8.08    0.28
   0   4  -1    7.73    0.29
   0   4  -1    7.83    0.27
   0   4   1    8.00    0.25
   0   4   1    7.86    0.27
   0   4   1    8.18    0.25
   0   4  -1    8.16    0.30
   0   4  -1    7.94    0.26
   0   4   1    7.96    0.29
   1  -4   1    4.40    0.16
  -1  -4  -1    4.61    0.15
   1  -4   1    4.58    0.18
   1  -4   1    4.74    0.18
   1  -4   1    4.00    0.17
  -1  -4  -1    4.61    0.17
  -1  -4  -1    4.82    0.19
  -1  -4  -1    4.37    0.18
   1  -4   1    4.60    0.20
   1  -4   1    4.65    0.18
   1  -4   1    4.10    0.21
  -1  -4  -1    4.79    0.17
   1   4   1    4.83    0.17
  -1   4  -1    4.82    0.19
   1   4   1    4.51    0.18
   1   4   1    4.80    0.20
  -1   4  -1    4.66    0.18
   1   4   1    4.45    0.19
   1   4   1    4.57    0.18
   1   4   1    4.87    0.18
  -1   4  -1    4.53    0.21
   1   4   1    4.86    0.19
   1   4   1    4.66    0.19
  -1   4  -1    4.77    0.19
   1   4   1    4.59    0.16
  -2  -4  -1    3.29    0.13
  -2  -4  -1    3.11    0.14
   2  -4   1    3.36    0.17
   2  -4   1    3.32    0.15
  -2  -4  -1    3.33    0.15
   2  -4   1    3.48    0.19
   2  -4   1    3.31    0.14
  -2  -4  -1    3.03    0.13
   2  -4   1    3.36    0.15
  -2  -4  -1    3.26    0.11
  -2  -4  -1    3.08    0.14
  -2  -4  -1    3.17    0.12
   2  -4   1    3.25    0.14
  -2   4  -1    3.32    0.10
  -2   4  -1    3.19    0.19
   2   4   1    3.33    0.14
   2   4   1    3.21    0.12
   2   4   1    3.06    0.15
   2   4   1    3.37    0.14
   2   4   1    3.24    0.11
   2   4   1    3.40    0.15
  -2   4  -1    3.31    0.19
   2   4   1    3.12    0.14
   2   4   1    3.58    0.18
   2   4   1    3.27    0.19
  -2   4  -1    3.14    0.14
   2   4   1    3.27    0.14
  -2   4  -1    3.20    0.14
   2   4   1    3.13    0.13
  -2   4  -1    3.39    0.13
  -3  -4  -1    0.69    0.08
   3  -4   1    0.44    0.06
  -3  -4  -1    0.50    0.06
  -3  -4  -1    0.56    0.05
   3  -4   1    0.54    0.07
   3  -4   1    0.65    0.09
  -3  -4  -1    0.53    0.05
   3  -4   1    0.68    0.10
  -3  -4  -1    0.51    0.07
   3  -4   1    0.51    0.06
  -3  -4  -1    0.52    0.08
  -3  -4  -1    0.47    0.04
  -3   4  -1    0.49    0.07
   3   4   1    0.57    0.07
   3   4   1    0.55    0.07
  -3   4  -1    0.57    0.06
  -3   4  -1    0.69    0.12
   3   4   1    0.57    0.07
  -3   4  -1    0.41    0.09
   3   4   1    0.56    0.06
   3   4   1    0.48    0.06
  -3   4  -1    0.52    0.07
   3   4   1    0.52    0.09
  -3   4  -1    0.52    0.04
  -4  -4  -1    0.75    0.08
  -4  -4  -1    0.59    0.08
   4  -4   1    0.68    0.07
  -4  -4  -1    0.88    0.10
  -4  -4  -1    0.62    0.10
  -4  -4  -1    0.70    0.05
   4  -4   1    0.88    0.09
   4  -4   1    0.77    0.06
   4  -4   1    0.91    0.10
  -4  -4  -1    0.77    0.10
  -4   4  -1    0.78    0.06
  -4   4  -1    0.77    0.06
  -4   4  -1    0.59    0.11
   4   4   1    0.79    0.06
   4   4   1    0.75    0.09
   4   4   1    0.79    0.09
   4   4   1    0.69    0.08
  -4   4  -1    0.99    0.10
  -4   4  -1    0.96    0.11
  -4   4  -1    0.81    0.14
   5  -4   1    1.66    0.13
   5  -4   1    1.67    0.11
  -5  -4  -1    1.50    0.15
  -5  -4  -1    1.60    0.17
   5  -4   1    1.75    0.13
  -5  -4  -1    1.76    0.16
  -5  -4  -1    1.71    0.19
  -5  -4  -1    1.61    0.11
   5   4   1    1.50    0.11
  -5   4  -1    1.76    0.13
  -5   4  -1    1.41    0.20
  -5   4  -1    1.70    0.17
   5   4   1    1.56    0.10
  -5   4  -1    1.71    0.11
  -5   4  -1    1.62    0.08
  -5   4  -1    1.39    0.18
   5   4   1    1.81    0.14
   5   4   1    1.62    0.13
  -5   4  -1    1.78    0.14
  -6  -4  -1    0.59    0.08
  -6  -4  -1    0.68    0.14
  -6  -4  -1    0.71    0.12
   6  -4   1    0.75    0.11
   6  -4   1    0.56    0.08
   6   4   1    0.69    0.10
  -6   4  -1    0.44    0.13
  -6   4  -1    0.58    0.09
  -6   4  -1    0.69    0.17
  -6   4  -1    0.61    0.12
   6   4   1    0.64    0.09
  -6  -5   1    1.10    0.09
  -6  -5   1    1.00    0.15
  -6  -5   1    1.19    0.18
   6   5  -1    1.12    0.13
   6   5  -1    1.12    0.13
   6   5  -1    0.99    0.12
  -6   5   1    0.78    0.18
  -6   5   1    1.11    0.12
  -6   5   1    1.17    0.18
   5  -5  -1    0.17    0.06
  -5  -5   1    0.23    0.07
  -5  -5   1    0.18    0.07
  -5  -5   1    0.12    0.07
  -5  -5   1    0.20    0.05
   5  -5  -1    0.13    0.05
   5   5  -1    0.14    0.05
  -5   5   1    0.17    0.07
   5   5  -1    0.16    0.05
  -5   5   1    0.35    0.12
  -5   5   1    0.08    0.08
   5   5  -1    0.19    0.06
  -5   5   1    0.19    0.06
  -4  -5   1    0.28    0.06
  -4  -5   1    0.47    0.06
  -4  -5   1    0.47    0.08
  -4  -5   1    0.46    0.09
   4  -5  -1    0.44    0.07
  -4  -5   1    0.35    0.05
   4  -5  -1    0.51    0.08
   4  -5  -1    0.44    0.06
  -4  -5   1    0.30    0.07
   4   5  -1    0.30    0.06
  -4   5   1    0.35    0.11
  -4   5   1    0.39    0.11
   4   5  -1    0.41    0.05
  -4   5   1    0.42    0.04
  -4   5   1    0.28    0.06
   4   5  -1    0.41    0.07
   4   5  -1    0.54    0.08
  -4   5   1    0.35    0.07
  -3  -5   1    1.37    0.11
  -3  -5   1    1.34    0.10
  -3  -5   1    1.39    0.09
   3  -5  -1    1.47    0.11
  -3  -5   1    1.20    0.11
   3  -5  -1    1.33    0.10
  -3  -5   1    1.36    0.08
   3  -5  -1    1.44    0.10
  -3   5   1    1.46    0.08
  -3   5   1    1.21    0.15
  -3   5   1    1.22    0.15
  -3   5   1    1.44    0.11
   3   5  -1    1.48    0.08
   3   5  -1    1.30    0.09
  -3   5   1    1.34    0.09
   3   5  -1    1.47    0.11
   3   5  -1    1.52    0.10
  -2  -5   1    4.63    0.15
   2  -5  -1    4.04    0.19
   2  -5  -1    4.71    0.22
  -2  -5   1    4.85    0.19
   2  -5  -1    4.39    0.19
   2  -5  -1    4.47    0.20
   2  -5  -1    4.36    0.24
  -2  -5   1    4.48    0.17
  -2  -5   1    4.94    0.24
  -2  -5   1    4.62    0.18
  -2  -5   1    4.19    0.19
  -2  -5   1    4.43    0.18
  -2  -5   1    4.75    0.18
  -2  -5   1    4.55    0.18
  -2   5   1    4.62    0.18
   2   5  -1    4.32    0.18
   2   5  -1    4.37    0.19
  -2   5   1    4.43    0.25
  -2   5   1    4.56    0.20
   2   5  -1    4.69    0.18
  -2   5   1    4.66    0.18
   2   5  -1    4.53    0.17
  -2   5   1    4.60    0.15
   2   5  -1    4.39    0.19
  -2   5   1    4.65    0.25
   2   5  -1    4.73    0.20
   2   5  -1    4.43    0.16
  -1  -5   1    4.33    0.15
  -1  -5   1    4.25    0.17
  -1  -5   1    3.95    0.15
  -1  -5   1    4.41    0.17
  -1  -5   1    3.86    0.17
   1  -5  -1    4.12    0.18
   1  -5  -1    3.88    0.18
  -1  -5   1    4.25    0.16
   1  -5  -1    4.13    0.20
   1  -5  -1    4.19    0.23
  -1  -5   1    4.01    0.29
  -1  -5   1    4.04    0.14
  -1  -5   1    4.13    0.19
   1  -5  -1    4.19    0.18
   1  -5  -1    4.03    0.18
  -1   5   1    4.16    0.17
   1   5  -1    4.12    0.18
  -1   5   1    4.24    0.18
   1   5  -1    4.19    0.19
  -1   5   1    4.04    0.22
  -1   5   1    4.05    0.16
   1   5  -1    3.90    0.17
  -1   5   1    4.17    0.19
   1   5  -1    3.83    0.16
   1   5  -1    3.96    0.16
   1   5  -1    3.87    0.18
   1   5  -1    3.91    0.17
   1   5  -1    4.13    0.15
   0  -5   1   14.85    0.44
   0  -5   1   14.76    0.47
   0  -5  -1   15.06    0.47
   0  -5   1   15.03    0.42
   0  -5   1   15.16    0.42
   0  -5  -1   14.58    0.48
   0  -5   1   15.22    0.49
   0  -5   1   14.00    0.47
   0  -5   1   13.53    0.50
   0  -5  -1   14.67    0.47
   0  -5  -1   14.83    0.49
   0  -5  -1   15.58    0.51
   0  -5   1   14.67    0.51
   0   5   1   14.60    0.50
   0   5   1   13.96    0.46
   0   5  -1   15.62    0.51
   0   5   1   15.38    0.49
   0   5  -1   15.37    0.45
   0   5  -1   15.45    0.45
   0   5  -1   15.52    0.50
   0   5  -1   15.04    0.48
   0   5  -1   15.25    0.46
   0   5   1   14.55    0.48
   0   5  -1   14.31    0.48
   0   5  -1   14.89    0.49
   0   5   1   14.47    0.48
   0   5   1   15.04    0.51
   0   5   1   15.42    0.44
   0   5   1   15.10    0.46
  -1  -5  -1   12.99    0.41
   1  -5   1   13.40    0.46
  -1  -5  -1   12.98    0.40
  -1  -5  -1   13.26    0.44
   1  -5   1   12.60    0.44
   1  -5   1   13.93    0.44
   1  -5   1   13.32    0.43
   1  -5   1   12.73    0.43
  -1  -5  -1   13.23    0.50
  -1  -5  -1   12.99    0.40
   1  -5   1   10.82    0.46
  -1  -5  -1   13.18    0.44
   1   5   1   13.10    0.41
   1   5   1   13.05    0.45
  -1   5  -1   13.13    0.44
  -1   5  -1   13.73    0.47
  -1   5  -1   13.94    0.43
   1   5   1   13.70    0.44
   1   5   1   13.70    0.44
  -1   5  -1   13.57    0.47
   1   5   1   13.78    0.43
  -1   5  -1   13.05    0.44
   1   5   1   13.87    0.40
   1   5   1   13.72    0.46
   1   5   1   13.12    0.44
  -1   5  -1   13.06    0.42
  -2  -5  -1    2.05    0.19
  -2  -5  -1    2.65    0.10
   2  -5   1    2.60    0.16
  -2  -5  -1    2.79    0.14
  -2  -5  -1    2.83    0.18
  -2  -5  -1    2.72    0.11
   2  -5   1    2.79    0.14
   2  -5   1    2.72    0.14
   2  -5   1    2.56    0.14
   2  -5   1    2.71    0.18
  -2  -5  -1    2.57    0.13
   2  -5   1    2.64    0.13
  -2  -5  -1    2.81    0.13
  -2  -5  -1    2.79    0.13
  -2   5  -1    2.72    0.11
   2   5   1    2.73    0.12
  -2   5  -1    2.85    0.13
  -2   5  -1    2.29    0.14
   2   5   1    2.71    0.14
   2   5   1    2.60    0.18
  -2   5  -1    2.85    0.14
   2   5   1    2.56    0.13
   2   5   1    2.73    0.15
  -2   5  -1    2.91    0.19
   2   5   1    2.83    0.14
   2   5   1    2.64    0.13
   2   5   1    2.55    0.14
  -3  -5  -1    2.77    0.17
   3  -5   1    2.45    0.14
  -3  -5  -1    2.86    0.17
  -3  -5  -1    2.82    0.14
   3  -5   1    2.86    0.14
  -3  -5  -1    2.73    0.15
  -3  -5  -1    2.96    0.15
  -3  -5  -1    2.69    0.13
  -3  -5  -1    2.89    0.13
   3  -5   1    2.73    0.16
  -3  -5  -1    2.81    0.11
  -3   5  -1    2.92    0.14
  -3   5  -1    2.85    0.14
   3   5   1    2.82    0.14
  -3   5  -1    2.87    0.21
   3   5   1    2.86    0.13
   3   5   1    2.73    0.16
   3   5   1    2.71    0.15
  -3   5  -1    2.98    0.16
   4  -5   1    0.86    0.11
   4  -5   1    0.80    0.07
  -4  -5  -1    0.77    0.10
   4  -5   1    0.99    0.08
  -4  -5  -1    0.83    0.11
  -4  -5  -1    0.80    0.06
  -4  -5  -1    1.01    0.08
   4  -5   1    0.74    0.09
  -4  -5  -1    0.99    0.13
  -4   5  -1    0.99    0.11
  -4   5  -1    0.86    0.15
   4   5   1    0.97    0.07
  -4   5  -1    0.83    0.10
   4   5   1    0.79    0.10
   4   5   1    0.76    0.09
  -4   5  -1    0.80    0.15
   4   5   1    0.82    0.10
  -4   5  -1    1.00    0.07
  -5  -5  -1    0.17    0.08
  -5  -5  -1    0.39    0.07
  -5  -5  -1    0.35    0.08
   5  -5   1    0.44    0.07
  -5  -5  -1    0.43    0.09
   5  -5   1    0.48    0.08
  -5  -5  -1    0.32    0.09
  -5   5  -1    0.47    0.14
  -5   5  -1    0.27    0.10
   5   5   1    0.30    0.07
  -5   5  -1    0.38    0.04
   5   5   1    0.28    0.06
  -5   5  -1    0.45    0.08
  -5   5  -1    0.43    0.07
  -5   5  -1    0.35    0.08
   5   5   1    0.38    0.08
  -6  -5  -1    0.16    0.09
  -6  -5  -1    0.19    0.08
   6  -5   1    0.11    0.05
  -6  -5  -1    0.21    0.06
   6   5   1    0.15    0.07
  -6   5  -1    0.22    0.07
  -6   5  -1    0.07    0.08
  -6   5  -1    0.35    0.13
  -6  -6   1    0.07    0.04
  -6  -6   1   -0.04    0.06
  -6  -6   1   -0.02    0.07
   6   6  -1    0.05    0.05
  -6   6   1    0.12    0.05
  -6   6   1    0.00    0.09
   5  -6  -1    1.72    0.14
  -5  -6   1    1.57    0.11
  -5  -6   1    1.75    0.20
  -5  -6   1    1.60    0.16
  -5  -6   1    1.40    0.16
  -5   6   1    1.57    0.21
   5   6  -1    1.73    0.14
  -5   6   1    1.64    0.14
   5   6  -1    1.46    0.16
   5   6  -1    1.68    0.13
  -5   6   1    1.92    0.25
  -4  -6   1    1.60    0.11
   4  -6  -1    1.61    0.15
  -4  -6   1    1.51    0.12
  -4  -6   1    1.59    0.15
  -4  -6   1    1.68    0.15
   4  -6  -1    1.65    0.12
  -4  -6   1    1.81    0.11
   4  -6  -1    1.67    0.13
  -4   6   1    1.29    0.18
   4   6  -1    1.66    0.12
   4   6  -1    1.60    0.13
  -4   6   1    1.84    0.09
   4   6  -1    1.73    0.12
  -4   6   1    1.53    0.13
  -3  -6   1    3.87    0.17
  -3  -6   1    3.74    0.16
   3  -6  -1    3.52    0.18
  -3  -6   1    3.61    0.18
  -3  -6   1    3.67    0.20
   3  -6  -1    3.70    0.20
  -3  -6   1    3.90    0.20
   3  -6  -1    3.70    0.18
   3   6  -1    3.58    0.15
   3   6  -1    3.66    0.17
  -3   6   1    3.88    0.16
  -3   6   1    3.84    0.26
   3   6  -1    3.73    0.18
   3   6  -1    3.79    0.20
  -3   6   1    3.50    0.19
  -3   6   1    3.73    0.25
  -2  -6   1   12.61    0.42
  -2  -6   1   12.12    0.41
  -2  -6   1   12.51    0.43
  -2  -6   1   12.66    0.42
   2  -6  -1   12.60    0.50
  -2  -6   1   12.23    0.38
   2  -6  -1   12.84    0.44
   2  -6  -1   13.21    0.45
  -2  -6   1   12.47    0.43
  -2  -6   1   11.90    0.41
   2  -6  -1   12.77    0.44
   2   6  -1   12.70    0.41
   2   6  -1   12.50    0.39
  -2   6   1   12.33    0.50
  -2   6   1   12.25    0.50
   2   6  -1   12.66    0.41
  -2   6   1   12.95    0.44
   2   6  -1   12.72    0.45
  -2   6   1   12.19    0.41
   2   6  -1   13.14    0.42
  -2   6   1   12.89    0.42
  -1  -6   1    1.31    0.08
  -1  -6   1    1.29    0.07
  -1  -6   1    1.31    0.10
  -1  -6   1    1.27    0.06
   1  -6  -1    1.08    0.14
  -1  -6   1    1.30    0.11
   1  -6  -1    1.44    0.11
   1  -6  -1    1.41    0.10
  -1  -6   1    1.40    0.10
   1  -6  -1    1.33    0.11
   1  -6  -1    1.32    0.11
  -1  -6   1    1.32    0.06
  -1  -6   1    1.32    0.09
   1  -6  -1    1.34    0.10
   1   6  -1    1.33    0.08
  -1   6   1    1.29    0.09
   1   6  -1    1.36    0.11
   1   6  -1    1.24    0.09
  -1   6   1    1.31    0.09
   1   6  -1    1.25    0.12
   1   6  -1    1.41    0.10
  -1   6   1    1.13    0.11
  -1   6   1    1.23    0.14
  -1   6   1    1.32    0.10
   0  -6   1    2.81    0.14
   0  -6  -1    2.81    0.10
   0  -6   1    2.71    0.09
   0  -6   1    2.78    0.11
   0  -6  -1    2.35    0.16
   0  -6  -1    2.74    0.16
   0  -6   1    2.91    0.18
   0  -6  -1    2.79    0.14
   0  -6  -1    2.63    0.14
   0  -6  -1    2.68    0.20
   0  -6   1    2.78    0.15
   0  -6   1    2.86    0.14
   0   6  -1    2.86    0.13
   0   6   1    2.92    0.12
   0   6  -1    2.56    0.14
   0   6  -1    2.68    0.12
   0   6   1    2.76    0.13
   0   6   1    2.92    0.13
   0   6   1    2.81    0.15
   0   6   1    2.86    0.15
   0   6  -1    2.51    0.17
   0   6  -1    2.68    0.16
   0   6   1    2.68    0.17
   0   6  -1    2.58    0.13
   0   6   1    2.70    0.16
   0   6  -1    2.56    0.14
   0   6  -1    2.66    0.16
   1  -6   1    1.81    0.12
  -1  -6  -1    1.96    0.09
  -1  -6  -1    1.79    0.12
   1  -6   1    1.96    0.14
  -1  -6  -1    1.95    0.11
  -1  -6  -1    1.97    0.09
   1  -6   1    1.87    0.11
  -1  -6  -1    1.90    0.09
   1  -6   1    1.86    0.15
  -1  -6  -1    1.99    0.17
   1  -6   1    1.72    0.13
  -1  -6  -1    2.12    0.13
  -1   6  -1    1.82    0.12
   1   6   1    1.93    0.13
  -1   6  -1    1.84    0.14
   1   6   1    2.02    0.13
   1   6   1    1.95    0.11
   1   6   1    1.89    0.12
  -1   6  -1    1.93    0.12
  -1   6  -1    1.94    0.15
   1   6   1    1.91    0.10
  -1   6  -1    1.94    0.16
  -1   6  -1    2.01    0.11
   1   6   1    1.88    0.12
   1   6   1    1.76    0.09
  -2  -6  -1    0.73    0.08
  -2  -6  -1    0.82    0.06
  -2  -6  -1    0.62    0.07
  -2  -6  -1    0.76    0.07
  -2  -6  -1    0.66    0.11
   2  -6   1    0.94    0.08
   2  -6   1    0.91    0.12
   2  -6   1    0.88    0.10
  -2  -6  -1    0.79    0.09
  -2  -6  -1    0.65    0.08
  -2  -6  -1    0.75    0.08
   2   6   1    0.83    0.10
  -2   6  -1    0.78    0.13
  -2   6  -1    0.99    0.14
  -2   6  -1    0.84    0.07
   2   6   1    0.78    0.09
  -2   6  -1    0.66    0.08
   2   6   1    0.78    0.08
  -2   6  -1    0.78    0.10
   2   6   1    1.00    0.07
   2   6   1    0.81    0.08
   2   6   1    0.72    0.10
  -3  -6  -1    9.18    0.35
  -3  -6  -1    8.55    0.32
  -3  -6  -1    8.81    0.31
   3  -6   1    9.24    0.32
  -3  -6  -1    8.19    0.34
  -3  -6  -1    9.01    0.32
   3  -6   1    8.85    0.34
  -3  -6  -1    8.64    0.35
  -3  -6  -1    9.20    0.28
  -3  -6  -1    8.47    0.32
   3   6   1    9.32    0.30
  -3   6  -1    8.19    0.41
  -3   6  -1    8.88    0.32
  -3   6  -1    8.27    0.42
  -3   6  -1    8.97    0.35
   3   6   1    8.86    0.33
   3   6   1    8.73    0.36
   3   6   1    8.96    0.32
  -4  -6  -1    0.92    0.08
   4  -6   1    1.00    0.08
  -4  -6  -1    1.08    0.09
  -4  -6  -1    0.82    0.11
   4  -6   1    1.15    0.09
  -4  -6  -1    0.90    0.12
   4  -6   1    0.78    0.10
  -4  -6  -1    0.70    0.10
  -4   6  -1    1.08    0.08
  -4   6  -1    1.11    0.19
   4   6   1    1.14    0.12
   4   6   1    0.98    0.08
   4   6   1    0.92    0.10
  -4   6  -1    1.11    0.12
  -4   6  -1    0.90    0.15
  -5  -6  -1    0.49    0.10
   5  -6   1    0.61    0.08
  -5  -6  -1    0.52    0.08
   5  -6   1    0.53    0.09
  -5  -6  -1    0.57    0.10
  -5  -6  -1    0.51    0.11
  -5   6  -1    0.60    0.10
  -5   6  -1    0.44    0.13
  -5   6  -1    0.56    0.09
  -5   6  -1    0.56    0.06
   5   6   1    0.58    0.09
   5   6   1    0.58    0.09
  -5   6  -1    0.50    0.14
  -6  -6  -1    0.83    0.15
  -6  -6  -1    0.80    0.10
  -6  -6  -1    0.77    0.13
  -6   6  -1    0.56    0.10
   6   6   1    0.61    0.11
  -6   6  -1    0.55    0.16
  -5  -7   1    0.16    0.08
  -5  -7   1    0.07    0.06
  -5  -7   1    0.08    0.04
  -5  -7   1    0.16    0.07
   5   7  -1    0.11    0.05
   5   7  -1    0.15    0.05
  -5   7   1    0.15    0.11
  -5   7   1    0.16    0.11
  -5   7   1    0.25    0.07
  -4  -7   1    0.17    0.07
  -4  -7   1    0.12    0.06
   4  -7  -1    0.11    0.05
   4  -7  -1    0.12    0.05
  -4  -7   1    0.12    0.05
  -4  -7   1    0.08    0.05
  -4   7   1    0.16    0.06
  -4   7   1    0.17    0.06
  -4   7   1    0.02    0.07
  -4   7   1    0.08    0.03
   4   7  -1    0.18    0.05
  -4   7   1    0.09    0.09
   4   7  -1    0.16    0.05
  -3  -7   1    1.04    0.12
   3  -7  -1    1.07    0.12
  -3  -7   1    0.99    0.12
  -3  -7   1    1.00    0.10
   3  -7  -1    1.07    0.12
  -3  -7   1    1.07    0.09
   3   7  -1    1.00    0.10
   3   7  -1    1.08    0.08
   3   7  -1    1.15    0.09
  -3   7   1    0.96    0.16
  -3   7   1    1.35    0.14
   3   7  -1    0.70    0.11
  -3   7   1    0.90    0.08
  -3   7   1    0.84    0.15
  -2  -7   1    4.44    0.16
  -2  -7   1    4.32    0.20
   2  -7  -1    3.80    0.20
  -2  -7   1    4.03    0.18
  -2  -7   1    4.13    0.21
   2  -7  -1    4.37    0.22
  -2  -7   1    4.30    0.18
  -2  -7   1    4.20    0.20
   2   7  -1    3.91    0.19
   2   7  -1    3.96    0.22
  -2   7   1    4.33    0.20
  -2   7   1    3.91    0.26
  -2   7   1    3.88    0.18
   2   7  -1    4.16    0.18
   2   7  -1    4.17    0.19
  -2   7   1    4.18    0.21
   2   7  -1    4.38    0.17
  -1  -7   1    1.37    0.13
  -1  -7   1    1.37    0.09
  -1  -7   1    1.35    0.10
   1  -7  -1    1.45    0.13
   1  -7  -1    1.38    0.11
  -1  -7   1    1.39    0.11
   1  -7  -1    1.44    0.13
  -1  -7   1    1.41    0.08
  -1  -7   1    1.40    0.10
  -1   7   1    1.27    0.09
   1   7  -1    1.33    0.09
  -1   7   1    1.65    0.18
   1   7  -1    1.42    0.08
   1   7  -1    1.61    0.13
   1   7  -1    1.40    0.14
  -1   7   1    1.38    0.11
  -1   7   1    1.40    0.12
   1   7  -1    1.36    0.10
   0  -7   1    5.18    0.27
   0  -7   1    4.91    0.23
   0  -7   1    5.49    0.21
   0  -7  -1    4.93    0.24
   0  -7   1    4.76    0.22
   0  -7  -1    4.86    0.23
   0   7  -1    5.05    0.20
   0   7  -1    4.72    0.21
   0   7   1    4.93    0.23
   0   7   1    5.11    0.24
   0   7  -1    4.70    0.22
   0   7   1    4.79    0.26
   0   7   1    5.03    0.21
   0   7   1    4.99    0.20
   0   7  -1    4.84    0.26
   1  -7   1    5.43    0.27
  -1  -7  -1    5.84    0.25
   1  -7   1    5.76    0.24
  -1  -7  -1    5.59    0.26
  -1  -7  -1    5.57    0.20
  -1  -7  -1    5.50    0.30
   1  -7   1    6.03    0.28
  -1   7  -1    5.70    0.23
  -1   7  -1    5.76    0.25
   1   7   1    5.54    0.21
  -1   7  -1    5.58    0.25
   1   7   1    5.77    0.25
   1   7   1    5.64    0.26
   1   7   1    5.57    0.23
   1   7   1    5.54    0.22
  -1   7  -1    5.47    0.30
  -2  -7  -1    0.84    0.08
  -2  -7  -1    0.81    0.09
  -2  -7  -1    0.77    0.12
  -2  -7  -1    0.96    0.10
  -2  -7  -1    0.92    0.11
   2  -7   1    0.86    0.09
   2  -7   1    0.87    0.11
  -2   7  -1    0.92    0.10
   2   7   1    0.71    0.09
  -2   7  -1    0.88    0.09
  -2   7  -1    0.57    0.12
   2   7   1    0.90    0.07
  -2   7  -1    0.79    0.10
   2   7   1    0.79    0.08
  -2   7  -1    0.76    0.14
   2   7   1    0.79    0.09
   3  -7   1    1.49    0.13
  -3  -7  -1    1.65    0.13
  -3  -7  -1    1.51    0.11
  -3  -7  -1    1.53    0.11
   3  -7   1    1.68    0.12
  -3  -7  -1    1.59    0.13
  -3  -7  -1    1.74    0.11
  -3  -7  -1    1.48    0.11
  -3  -7  -1    1.56    0.13
  -3   7  -1    1.76    0.12
   3   7   1    1.44    0.11
  -3   7  -1    1.58    0.20
   3   7   1    1.65    0.10
  -3   7  -1    1.64    0.14
  -3   7  -1    1.75    0.23
  -4  -7  -1    0.87    0.11
  -4  -7  -1    0.99    0.13
   4  -7   1    0.96    0.10
   4  -7   1    0.83    0.11
  -4  -7  -1    0.86    0.12
   4  -7   1    0.99    0.10
  -4   7  -1    0.75    0.16
   4   7   1    1.04    0.11
   4   7   1    0.94    0.09
  -4   7  -1    0.75    0.16
   4   7   1    1.01    0.12
  -4   7  -1    0.94    0.12
  -4   7  -1    0.98    0.08
  -5  -7  -1    0.10    0.08
  -5  -7  -1    0.28    0.08
  -5  -7  -1    0.11    0.05
   5  -7   1    0.22    0.06
  -5  -7  -1    0.17    0.07
  -5   7  -1    0.11    0.09
   5   7   1    0.12    0.06
  -5   7  -1    0.10    0.10
  -5   7  -1    0.17    0.07
  -5   7  -1    0.11    0.06
  -5  -8   1    0.53    0.12
  -5  -8   1    0.59    0.11
  -5   8   1    0.54    0.10
   5   8  -1    0.41    0.09
  -4  -8   1    0.94    0.14
   4  -8  -1    0.99    0.11
  -4  -8   1    0.89    0.11
  -4  -8   1    1.23    0.11
  -4   8   1    0.82    0.17
   4   8  -1    1.06    0.12
   4   8  -1    1.00    0.12
  -4   8   1    1.38    0.16
  -4   8   1    0.99    0.08
  -4   8   1    0.95    0.13
  -3  -8   1    0.76    0.09
   3  -8  -1    0.88    0.11
  -3  -8   1    0.84    0.10
   3  -8  -1    0.91    0.13
  -3  -8   1    0.67    0.11
  -3   8   1    0.82    0.09
   3   8  -1    0.92    0.10
  -3   8   1    0.69    0.15
  -3   8   1    1.00    0.13
   3   8  -1    0.72    0.09
   3   8  -1    0.83    0.08
  -2  -8   1    1.13    0.13
  -2  -8   1    1.21    0.11
   2  -8  -1    1.18    0.13
   2  -8  -1    1.23    0.15
  -2  -8   1    1.20    0.11
  -2  -8   1    1.30    0.10
   2   8  -1    1.11    0.11
   2   8  -1    1.05    0.08
  -2   8   1    1.18    0.10
  -2   8   1    1.33    0.11
  -2   8   1    0.92    0.15
  -2   8   1    1.42    0.15
   2   8  -1    1.17    0.10
  -1  -8   1    1.09    0.10
  -1  -8   1    0.98    0.13
  -1  -8   1    1.00    0.06
   1  -8  -1    0.98    0.11
  -1  -8   1    1.03    0.10
  -1  -8   1    1.26    0.12
   1  -8  -1    0.89    0.13
   1   8  -1    0.98    0.10
  -1   8   1    1.03    0.11
  -1   8   1    0.96    0.10
   1   8  -1    1.30    0.14
  -1   8   1    1.05    0.16
   1   8  -1    1.20    0.08
   1   8  -1    1.16    0.09
   0  -8   1    1.37    0.11
   0  -8  -1    1.49    0.12
   0  -8   1    1.20    0.12
   0  -8   1    1.31    0.11
   0  -8  -1    1.40    0.13
   0   8   1    1.39    0.12
   0   8   1    1.73    0.18
   0   8   1    1.36    0.10
   0   8  -1    1.41    0.11
   0   8  -1    1.61    0.18
   0   8   1    1.41    0.11
   1  -8   1    0.91    0.13
   1  -8   1    0.94    0.12
  -1  -8  -1    0.91    0.10
  -1  -8  -1    1.08    0.10
   1  -8   1    1.19    0.11
  -1  -8  -1    0.91    0.11
  -1   8  -1    1.17    0.12
  -1   8  -1    1.08    0.11
   1   8   1    1.14    0.13
   1   8   1    1.24    0.08
  -1   8  -1    1.27    0.17
   1   8   1    0.92    0.09
   1   8   1    1.10    0.11
  -2  -8  -1    1.59    0.12
   2  -8   1    1.65    0.13
  -2  -8  -1    1.60    0.13
  -2  -8  -1    1.36    0.12
  -2  -8  -1    1.52    0.17
   2  -8   1    1.45    0.17
  -2   8  -1    1.45    0.11
  -2   8  -1    1.32    0.12
  -2   8  -1    1.47    0.19
   2   8   1    1.69    0.11
   2   8   1    1.60    0.10
   2   8   1    1.44    0.12
  -3  -8  -1    0.62    0.09
  -3  -8  -1    0.65    0.09
   3  -8   1    0.53    0.07
  -3  -8  -1    0.51    0.09
   3  -8   1    0.62    0.09
   3  -8   1    0.52    0.10
  -3  -8  -1    0.70    0.09
  -3  -8  -1    0.63    0.11
  -3   8  -1    0.51    0.08
   3   8   1    0.57    0.08
  -3   8  -1    0.82    0.16
   3   8   1    0.66    0.08
   3   8   1    0.55    0.08
  -3   8  -1    0.64    0.15
  -4  -8  -1    0.33    0.08
   4  -8   1    0.29    0.07
  -4  -8  -1    0.44    0.10
   4  -8   1    0.35    0.07
  -4   8  -1    0.64    0.16
   4   8   1    0.34    0.06
  -4   8  -1    0.33    0.06
  -4   8  -1    0.49    0.14
   4   8   1    0.40    0.08
   4   8   1    0.23    0.06
  -5  -8  -1    0.27    0.09
  -5  -8  -1    0.43    0.10
  -5  -8  -1    0.59    0.09
  -5   8  -1    0.45    0.09
   5   8   1    0.43    0.09
  -4  -9   1    1.11    0.16
   4  -9  -1    1.27    0.14
   4   9  -1    1.16    0.14
   3  -9  -1    0.67    0.10
  -3  -9   1    1.00    0.12
  -3  -9   1    1.11    0.15
  -3   9   1    0.81    0.10
   3   9  -1    0.83    0.09
   3   9  -1    1.03    0.11
  -3   9   1    0.89    0.15
  -3   9   1    0.73    0.16
   3   9  -1    0.84    0.11
   2  -9  -1    3.80    0.22
  -2  -9   1    3.76    0.19
   2  -9  -1    3.80    0.25
  -2  -9   1    3.41    0.17
  -2  -9   1    3.75    0.21
  -2  -9   1    3.93    0.23
  -2   9   1    3.93    0.20
   2   9  -1    3.76    0.19
   2   9  -1    3.86    0.18
   2   9  -1    3.87    0.20
  -2   9   1    3.76    0.20
  -2   9   1    3.51    0.27
  -1  -9   1    1.45    0.13
   1  -9  -1    1.85    0.14
  -1  -9   1    1.78    0.14
  -1  -9   1    1.69    0.08
  -1  -9   1    1.67    0.14
  -1   9   1    1.80    0.13
  -1   9   1    1.77    0.20
  -1   9   1    1.79    0.14
   1   9  -1    1.72    0.11
   1   9  -1    1.64    0.13
   1   9  -1    1.86    0.12
   0  -9   1    0.78    0.10
   0  -9   1    0.83    0.07
   0  -9   1    0.73    0.11
   0  -9  -1    0.60    0.09
   0  -9  -1    0.59    0.11
   0  -9   1    0.70    0.10
   0   9   1    0.81    0.10
   0   9  -1    0.80    0.10
   0   9  -1    0.82    0.13
   0   9   1    0.71    0.12
   0   9   1    0.66    0.11
   1  -9   1    0.66    0.10
  -1  -9  -1    0.69    0.11
   1  -9   1    0.73    0.12
   1  -9   1    0.79    0.08
  -1  -9  -1    0.69    0.10
  -1  -9  -1    0.66    0.10
   1  -9   1    0.55    0.08
  -1   9  -1    0.61    0.09
  -1   9  -1    0.64    0.14
   1   9   1    0.56    0.11
   1   9   1    0.66    0.09
   1   9   1    0.60    0.09
  -1   9  -1    0.66    0.14
   1   9   1    0.62    0.07
  -2  -9  -1    0.95    0.13
   2  -9   1    0.87    0.09
  -2  -9  -1    0.90    0.11
   2  -9   1    1.03    0.15
   2  -9   1    0.85    0.11
  -2  -9  -1    0.91    0.11
  -2   9  -1    0.94    0.17
  -2   9  -1    0.93    0.11
   2   9   1    0.91    0.11
  -2   9  -1    0.85    0.11
   2   9   1    0.72    0.09
   2   9   1    0.98    0.10
  -3  -9  -1    2.82    0.20
   3  -9   1    2.70    0.17
  -3  -9  -1    2.45    0.14
  -3  -9  -1    2.44    0.17
  -3  -9  -1    2.60    0.15
  -3   9  -1    2.60    0.16
   3   9   1    3.03    0.18
  -3   9  -1    2.41    0.27
   3   9   1    2.96    0.16
   4  -9   1    0.13    0.06
  -4  -9  -1    0.15    0.08
   4   9   1    0.23    0.07
  -3 -10   1    0.32    0.08
  -3 -10   1    0.26    0.09
   3 -10  -1    0.26    0.08
   3  10  -1    0.22    0.07
   2 -10  -1    3.33    0.21
  -2 -10   1    3.39    0.22
  -2 -10   1    3.18    0.20
   2  10  -1    3.42    0.21
   2  10  -1    3.52    0.20
  -2  10   1    3.24    0.19
  -2  10   1    3.45    0.29
  -2  10   1    2.97    0.30
  -1 -10   1    1.45    0.14
  -1 -10   1    1.42    0.16
   1 -10  -1    1.63    0.14
  -1 -10   1    1.43    0.13
  -1  10   1    1.32    0.13
  -1  10   1    1.33    0.19
  -1  10   1    1.28    0.14
   1  10  -1    1.47    0.14
   0 -10   1    1.16    0.13
   0 -10   1    1.14    0.14
   0 -10   1    1.04    0.14
   0 -10   1    0.93    0.07
   0 -10  -1    0.89    0.11
   0 -10  -1    1.34    0.15
   0  10   1    1.00    0.12
   0  10   1    0.78    0.14
   0  10  -1    1.14    0.17
   0  10  -1    1.11    0.13
   1 -10   1    1.81    0.15
  -1 -10  -1    1.95    0.16
  -1 -10  -1    1.77    0.15
   1 -10   1    1.83    0.14
  -1 -10  -1    1.76    0.16
  -1  10  -1    2.14    0.24
   1  10   1    1.82    0.15
  -1  10  -1    1.89    0.14
   2 -10   1    0.97    0.11
  -2 -10  -1    0.69    0.10
  -2 -10  -1    0.89    0.12
   2 -10   1    0.76    0.11
  -2 -10  -1    0.84    0.13
  -2  10  -1    0.91    0.12
  -2  10  -1    0.88    0.17
  -2  10  -1    0.85    0.12
   2  10   1    0.94    0.12
   7   0  -2    0.75    0.13
  -7   0   2    0.97    0.10
  -7   0   2    0.74    0.16
   7   0  -2    0.91    0.10
   7   0  -2    0.80    0.10
  -7   0   2    0.90    0.17
  -7   0   2    0.97    0.13
  -6   0   2   12.24    0.39
   6   0  -2   12.26    0.46
   6   0  -2   11.41    0.46
   6   0  -2   11.63    0.40
  -6   0   2   11.62    0.44
  -6   0   2   10.86    0.50
  -6   0   2   11.64    0.51
  -5   0   2    9.37    0.34
   5   0  -2    9.56    0.32
  -5   0   2    9.44    0.41
   5   0  -2    9.93    0.38
  -5   0   2    9.48    0.41
   5   0  -2    9.60    0.31
  -5   0   2    9.68    0.36
  -5   0   2    9.59    0.32
  -4   0   2    5.85    0.21
   4   0  -2    6.42    0.26
  -4   0   2    5.79    0.24
  -4   0   2    6.20    0.28
  -4   0   2    6.02    0.28
   4   0  -2    6.76    0.21
   4   0  -2    6.49    0.20
  -4   0   2    6.29    0.24
   4   0  -2    6.45    0.19
  -3   0   2    8.06    0.30
   3   0  -2    7.56    0.24
  -3   0   2    7.73    0.26
   3   0  -2    7.56    0.23
  -3   0   2    7.82    0.24
  -3   0   2    7.92    0.30
  -3   0   2    7.68    0.27
   2   0  -2  114.04    3.08
   2   0  -2  113.03    3.10
  -2   0   2  115.20    3.11
  -2   0   2  114.14    3.08
   2   0  -2   97.80    3.07
  -2   0   2  113.85    3.09
  -2   0   2  116.66    3.11
  -2   0   2  109.92    3.09
  -1   0   2   59.19    1.61
  -1   0   2   58.05    1.62
   1   0  -2   57.31    1.61
   1   0  -2   59.21    1.61
  -1   0   2   55.85    1.61
   1   0  -2   56.51    1.61
   1   0  -2   58.87    1.61
  -1   0   2   58.69    1.61
  -1   0   2   59.76    1.61
   0   0  -2   12.92    0.39
   0   0  -2   13.17    0.45
   0   0   2   14.92    0.45
   0   0  -2   13.69    0.39
   0   0   2   14.75    0.40
   0   0  -2   14.03    0.39
   0   0   2   14.59    0.40
   0   0  -2   12.88    0.39
   0   0  -2   15.06    0.39
   0   0   2   14.76    0.39
   0   0  -2   13.82    0.39
   0   0   2   14.43    0.39
   0   0  -2   14.12    0.40
   0   0  -2   13.93    0.39
   0   0  -2   13.02    0.39
   0   0   2   14.61    0.39
   0   0   2   14.97    0.39
   0   0  -2   11.85    0.40
   0   0   2   14.85    0.39
   1   0   2  997.92   27.36
   1   0   2 1000.00   27.49
  -2   0  -2    1.27    0.05
  -2   0  -2    1.34    0.04
   2   0   2    1.10    0.06
   2   0   2    1.16    0.08
  -2   0  -2    1.36    0.09
   2   0   2    1.16    0.10
  -2   0  -2    1.33    0.06
   2   0   2    1.12    0.06
  -2   0  -2    1.46    0.07
  -2   0  -2    1.43    0.06
  -2   0  -2    1.35    0.14
   2   0   2    1.09    0.06
   2   0   2    1.01    0.06
   2   0   2    1.06    0.06
  -2   0  -2    1.20    0.05
   2   0   2    1.11    0.06
  -2   0  -2    1.38    0.09
   2   0   2    1.07    0.06
  -2   0  -2    1.45    0.10
   3   0   2    5.60    0.23
   3   0   2    5.20    0.19
  -3   0  -2    5.59    0.20
   3   0   2    5.67    0.19
   3   0   2    5.51    0.20
  -3   0  -2    6.08    0.26
   3   0   2    5.63    0.19
  -3   0  -2    5.86    0.19
  -3   0  -2    5.64    0.23
   3   0   2    5.65    0.19
   3   0   2    5.44    0.21
  -3   0  -2    5.81    0.23
   3   0   2    5.56    0.28
  -4   0  -2   17.01    0.53
   4   0   2   17.20    0.52
   4   0   2   17.78    0.53
   4   0   2   16.60    0.53
  -4   0  -2   16.96    0.62
  -4   0  -2   16.74    0.56
   4   0   2   16.88    0.56
  -4   0  -2   17.25    0.56
   4   0   2   17.15    0.54
  -4   0  -2   17.17    0.50
   4   0   2   17.73    0.69
   5   0   2    1.71    0.13
  -5   0  -2    1.60    0.12
  -5   0  -2    1.70    0.11
   5   0   2    1.72    0.10
  -5   0  -2    1.53    0.19
   5   0   2    1.81    0.11
   5   0   2    1.82    0.14
   5   0   2    1.72    0.12
  -5   0  -2    1.75    0.16
  -5   0  -2    1.75    0.14
   6   0   2    2.94    0.18
  -6   0  -2    3.10    0.17
  -6   0  -2    2.89    0.30
  -6   0  -2    2.82    0.24
   6   0   2    3.04    0.16
   6   0   2    3.13    0.21
   6   0   2    2.74    0.18
  -6   0  -2    2.63    0.18
  -7   0  -2    0.81    0.12
  -7   0  -2    0.92    0.17
  -7   0  -2    0.99    0.11
  -7   0  -2    1.11    0.21
  -7  -1   2    1.37    0.21
  -7  -1   2    2.05    0.19
  -7  -1   2    2.06    0.12
   7  -1  -2    1.66    0.24
   7  -1  -2    1.69    0.13
   7   1  -2    1.90    0.13
  -7   1   2    1.57    0.21
   7   1  -2    1.75    0.20
  -7   1   2    1.82    0.12
  -7   1   2    2.05    0.17
   7   1  -2    1.72    0.13
  -7   1   2    1.90    0.24
   6  -1  -2    1.06    0.13
  -6  -1   2    1.05    0.13
  -6  -1   2    1.09    0.16
   6  -1  -2    0.87    0.09
  -6  -1   2    1.15    0.08
  -6  -1   2    0.86    0.15
   6   1  -2    0.92    0.12
  -6   1   2    1.08    0.08
  -6   1   2    1.00    0.16
   6   1  -2    0.99    0.13
   6   1  -2    1.00    0.09
  -6   1   2    0.92    0.15
  -6   1   2    1.08    0.12
  -5  -1   2    3.65    0.23
   5  -1  -2    3.70    0.16
  -5  -1   2    3.56    0.15
   5  -1  -2    3.55    0.14
  -5  -1   2    3.64    0.19
  -5  -1   2    3.70    0.22
   5  -1  -2    3.54    0.19
  -5   1   2    3.16    0.23
   5   1  -2    3.56    0.20
  -5   1   2    3.63    0.18
  -5   1   2    3.68    0.20
  -5   1   2    3.74    0.23
  -5   1   2    3.53    0.15
   5   1  -2    3.52    0.14
   5   1  -2    3.48    0.15
   5   1  -2    3.76    0.19
   4  -1  -2   45.50    1.23
  -4  -1   2   43.86    1.24
  -4  -1   2   44.34    1.24
  -4  -1   2   44.03    1.28
   4  -1  -2   43.57    1.29
   4  -1  -2   45.53    1.25
  -4  -1   2   45.05    1.32
  -4  -1   2   45.04    1.34
   4   1  -2   43.59    1.23
   4   1  -2   43.81    1.28
   4   1  -2   43.05    1.22
  -4   1   2   44.46    1.33
  -4   1   2   43.53    1.25
  -4   1   2   42.66    1.27
   4   1  -2   42.35    1.22
  -4   1   2   44.00    1.35
   4   1  -2   42.72    1.36
  -4   1   2   44.16    1.30
  -3  -1   2   36.16    1.03
  -3  -1   2   35.52    0.99
   3  -1  -2   35.39    1.04
  -3  -1   2   35.25    1.05
  -3  -1   2   36.78    1.07
  -3  -1   2   35.97    0.99
   3  -1  -2   35.79    1.00
  -3   1   2   35.30    1.08
   3   1  -2   36.56    0.98
  -3   1   2   36.74    1.02
  -3   1   2   36.36    1.01
  -3   1   2   35.28    1.05
   3   1  -2   29.69    1.10
  -3   1   2   35.83    1.06
   3   1  -2   35.72    1.00
   3   1  -2   35.87    1.03
  -2  -1   2   18.09    0.53
   2  -1  -2   17.50    0.51
  -2  -1   2   18.10    0.54
  -2  -1   2   17.85    0.54
  -2  -1   2   17.27    0.51
   2  -1  -2   18.30    0.55
  -2  -1   2   18.48    0.56
  -2  -1   2   18.14    0.51
   2  -1  -2   18.65    0.54
   2  -1  -2   17.82    0.51
   2   1  -2   18.63    0.53
   2   1  -2   18.06    0.52
  -2   1   2   18.60    0.56
  -2   1   2   18.26    0.56
   2   1  -2   18.39    0.54
  -2   1   2   17.90    0.53
   2   1  -2   18.48    0.51
  -2   1   2   18.64    0.57
  -2   1   2   18.46    0.52
  -1  -1   2  207.89    5.61
  -1  -1   2  197.55    5.65
   1  -1  -2  199.63    5.57
  -1  -1   2  207.43    5.65
   1  -1  -2  202.80    5.55
  -1  -1   2  196.29    5.55
   1  -1  -2  208.55    5.65
  -1  -1   2  210.90    5.68
   1  -1  -2  199.12    5.56
  -1  -1   2  203.10    5.55
  -1  -1   2  200.83    5.57
   1  -1  -2  200.16    5.60
   1  -1  -2  205.24    5.58
   1  -1  -2  215.00    5.56
   1  -1  -2  187.25    5.60
  -1  -1   2  200.73    5.60
  -1  -1   2  228.99    5.63
  -1   1   2  192.32    5.61
  -1   1   2  194.60    5.57
  -1   1   2  201.07    5.56
   1   1  -2  199.24    5.59
   1   1  -2  203.35    5.60
  -1   1   2  207.74    5.63
   1   1  -2  205.98    5.84
   1   1  -2  213.90    5.62
   1   1  -2  203.13    5.58
  -1   1   2  196.69    5.59
   1   1  -2  180.14    5.62
   1   1  -2  205.98    5.55
  -1   1   2  193.58    5.59
   0  -1   2  121.60    3.45
   0  -1   2  125.07    3.42
   0  -1   2  115.49    3.45
   0  -1   2  124.88    3.42
   0  -1   2  125.51    3.40
   0  -1  -2  121.15    3.43
   0  -1   2  113.07    3.41
   0  -1   2  119.19    3.49
   0  -1  -2  117.34    3.46
   0  -1   2  133.89    3.45
   0  -1   2  127.04    3.77
   0  -1  -2  103.86    3.40
   0  -1   2  133.01    3.44
   0  -1   2  120.18    3.44
   0  -1  -2  134.42    3.51
   0  -1  -2  119.94    3.44
   0  -1   2  114.84    3.43
   0  -1  -2  131.54    3.45
   0  -1   2  117.88    3.40
   0  -1  -2  124.20    3.43
   0  -1  -2  121.46    3.42
   0  -1  -2  128.46    3.43
   0  -1   2  125.17    3.44
   0   1  -2  135.79    3.41
   0   1   2  122.90    3.40
   0   1  -2  121.45    3.41
   0   1  -2  121.03    3.45
   0   1  -2  122.03    3.42
   0   1  -2  121.84    3.46
   0   1  -2  123.23    3.41
   0   1  -2  107.19    3.40
   0   1   2  122.45    3.42
   0   1   2  126.63    3.46
   0   1  -2  110.28    3.42
   0   1   2  120.53    3.45
   0   1  -2  130.72    3.44
   0   1   2  127.26    3.43
   0   1  -2  135.37    3.45
   0   1   2  120.76    3.42
   0   1   2  139.80    3.48
   0   1   2  122.13    3.46
   0   1  -2  141.42    3.89
   0   1  -2  121.41    3.42
   0   1   2  139.05    3.50
   0   1   2  125.00    3.41
   0   1   2  120.02    3.43
   0   1  -2  118.61    3.44
  -1  -1  -2   21.59    0.65
  -1  -1  -2   22.21    0.66
   1  -1   2   22.99    0.65
   1  -1   2   23.17    0.66
  -1  -1  -2   22.99    0.67
  -1  -1  -2   22.38    0.66
  -1  -1  -2   22.36    0.65
  -1  -1  -2   21.75    0.65
   1  -1   2   23.47    0.66
   1  -1   2   22.35    0.76
   1  -1   2   22.95    0.68
   1  -1   2   23.91    0.65
  -1  -1  -2   22.83    0.71
  -1  -1  -2   22.72    0.65
  -1  -1  -2   22.12    0.65
   1  -1   2   23.34    0.65
   1  -1   2   23.24    0.65
   1  -1   2   23.98    0.65
   1   1   2   24.02    0.66
  -1   1  -2   22.88    0.65
   1   1   2   22.43    0.68
   1   1   2   24.04    0.66
  -1   1  -2   21.96    0.65
   1   1   2   23.28    0.65
   1   1   2   24.45    0.65
  -1   1  -2   22.91    0.66
   1   1   2   24.24    0.67
  -1   1  -2   24.08    0.66
   1   1   2   22.92    0.65
   1   1   2   24.04    0.65
  -1   1  -2   24.42    0.66
  -1   1  -2   22.32    0.65
  -1   1  -2   22.92    0.66
  -1   1  -2   23.25    0.68
   1   1   2   23.57    0.65
  -1   1  -2   24.25    0.68
  -1   1  -2   22.78    0.65
  -1   1  -2   21.86    0.79
   2  -1   2   46.65    1.34
   2  -1   2   49.12    1.49
   2  -1   2   47.62    1.33
   2  -1   2   47.00    1.32
  -2  -1  -2   48.71    1.43
  -2  -1  -2   47.08    1.32
  -2  -1  -2   46.77    1.37
  -2  -1  -2   46.33    1.32
   2  -1   2   49.62    1.32
   2  -1   2   47.53    1.37
  -2  -1  -2   47.35    1.32
   2  -1   2   45.73    1.31
  -2  -1  -2   48.10    1.36
  -2  -1  -2   47.36    1.33
  -2  -1  -2   46.83    1.32
  -2  -1  -2   48.54    1.32
   2  -1   2   48.48    1.30
   2  -1   2   47.91    1.33
   2   1   2   48.29    1.32
  -2   1  -2   47.38    1.37
  -2   1  -2   46.75    1.31
  -2   1  -2   48.19    1.33
   2   1   2   48.51    1.32
   2   1   2   47.06    1.32
   2   1   2   47.55    1.36
   2   1   2   48.27    1.34
  -2   1  -2   46.97    1.34
   2   1   2   46.02    1.32
   2   1   2   46.13    1.37
   2   1   2   46.43    1.33
   2   1   2   46.29    1.39
  -2   1  -2   47.02    1.57
  -2   1  -2   46.76    1.38
  -2   1  -2   48.03    1.32
   2   1   2   47.71    1.33
   3  -1   2   39.51    1.11
   3  -1   2   40.32    1.11
  -3  -1  -2   40.43    1.15
   3  -1   2   39.93    1.11
   3  -1   2   41.26    1.32
   3  -1   2   39.46    1.13
  -3  -1  -2   38.31    1.18
   3  -1   2   38.80    1.08
  -3  -1  -2   39.83    1.10
  -3  -1  -2   38.56    1.30
   3  -1   2   40.22    1.17
  -3  -1  -2   37.23    1.11
   3  -1   2   40.25    1.13
  -3  -1  -2   39.02    1.12
  -3  -1  -2   38.52    1.16
   3   1   2   40.49    1.20
   3   1   2   40.79    1.11
   3   1   2   39.96    1.12
  -3   1  -2   40.47    1.21
  -3   1  -2   40.94    1.11
   3   1   2   38.96    1.12
  -3   1  -2   37.51    1.13
   3   1   2   39.33    1.11
   3   1   2   38.76    1.11
  -3   1  -2   32.87    1.40
   3   1   2   39.60    1.15
  -3   1  -2   38.56    1.16
  -3   1  -2   40.05    1.17
   4  -1   2    4.38    0.18
   4  -1   2    4.19    0.17
   4  -1   2    4.37    0.17
   4  -1   2    4.25    0.17
  -4  -1  -2    4.27    0.18
  -4  -1  -2    4.56    0.24
   4  -1   2    4.11    0.19
  -4  -1  -2    4.02    0.19
  -4   1  -2    4.06    0.24
   4   1   2    4.41    0.20
   4   1   2    4.51    0.21
   4   1   2    4.47    0.23
   4   1   2    4.55    0.17
  -4   1  -2    4.23    0.18
   4   1   2    4.10    0.17
  -4   1  -2    3.97    0.21
   4   1   2    4.41    0.17
  -4   1  -2    3.92    0.20
   4   1   2    4.31    0.18
  -4   1  -2    4.15    0.15
   5  -1   2    4.26    0.20
   5  -1   2    3.99    0.18
  -5  -1  -2    4.00    0.26
  -5  -1  -2    3.93    0.20
  -5  -1  -2    4.26    0.19
  -5  -1  -2    3.83    0.25
   5  -1   2    4.11    0.18
   5  -1   2    4.21    0.20
  -5   1  -2    4.10    0.24
  -5   1  -2    4.24    0.28
  -5   1  -2    3.94    0.19
  -5   1  -2    4.13    0.14
   5   1   2    3.99    0.19
   5   1   2    4.13    0.17
   5   1   2    3.91    0.21
  -5   1  -2    4.13    0.19
  -5   1  -2    4.40    0.24
   5   1   2    4.16    0.21
   5   1   2    4.17    0.19
   6  -1   2    5.32    0.23
   6  -1   2    5.34    0.25
  -6  -1  -2    4.87    0.32
  -6  -1  -2    5.55    0.34
  -6  -1  -2    5.33    0.24
   6  -1   2    5.67    0.29
   6  -1   2    5.53    0.26
  -6  -1  -2    5.01    0.26
   6   1   2    5.29    0.25
  -6   1  -2    4.78    0.31
   6   1   2    5.20    0.27
  -6   1  -2    5.39    0.36
  -6   1  -2    5.12    0.30
  -6   1  -2    5.50    0.26
   6   1   2    5.29    0.23
   6   1   2    5.74    0.29
  -6   1  -2    5.76    0.25
  -7  -1  -2    0.41    0.15
  -7  -1  -2    0.46    0.15
  -7  -1  -2    0.42    0.08
  -7  -1  -2    0.38    0.10
  -7   1  -2    0.46    0.15
  -7   1  -2    0.49    0.14
  -7   1  -2    0.53    0.09
  -7   1  -2    0.42    0.09
  -7  -2   2    0.89    0.18
  -7  -2   2    0.93    0.09
   7  -2  -2    1.02    0.12
  -7  -2   2    0.92    0.15
  -7   2   2    1.00    0.10
  -7   2   2    1.09    0.13
   7   2  -2    0.84    0.10
  -7   2   2    0.57    0.13
   7   2  -2    0.67    0.09
  -7   2   2    0.95    0.18
  -6  -2   2    4.52    0.30
   6  -2  -2    4.47    0.24
   6  -2  -2    4.43    0.21
  -6  -2   2    4.37    0.27
  -6  -2   2    4.46    0.19
  -6  -2   2    4.83    0.25
   6   2  -2    4.56    0.19
  -6   2   2    4.74    0.26
  -6   2   2    4.96    0.32
   6   2  -2    4.59    0.20
   6   2  -2    4.87    0.24
  -6   2   2    4.53    0.23
  -6   2   2    4.48    0.20
  -6   2   2    4.97    0.29
   6   2  -2    4.37    0.25
  -5  -2   2   10.71    0.35
   5  -2  -2   10.99    0.38
  -5  -2   2   11.59    0.44
   5  -2  -2   11.08    0.38
  -5  -2   2   11.02    0.46
  -5  -2   2   10.76    0.41
   5  -2  -2   11.59    0.42
  -5   2   2   10.88    0.37
  -5   2   2   10.77    0.45
   5   2  -2   10.92    0.41
  -5   2   2   11.27    0.39
  -5   2   2   10.98    0.48
  -5   2   2   11.69    0.44
   5   2  -2   11.05    0.35
  -4  -2   2    2.07    0.16
  -4  -2   2    2.43    0.14
  -4  -2   2    2.28    0.14
   4  -2  -2    2.23    0.11
   4  -2  -2    2.12    0.11
   4  -2  -2    2.02    0.13
  -4  -2   2    2.31    0.10
   4  -2  -2    2.11    0.09
   4   2  -2    2.39    0.13
  -4   2   2    2.23    0.17
  -4   2   2    2.53    0.12
  -4   2   2    2.34    0.16
   4   2  -2    2.14    0.09
  -4   2   2    2.53    0.11
   4   2  -2    2.00    0.09
  -4   2   2    2.48    0.16
   4   2  -2    2.10    0.09
   3  -2  -2   30.59    0.85
  -3  -2   2   29.43    0.88
  -3  -2   2   30.16    0.92
  -3  -2   2   29.37    0.85
  -3  -2   2   30.06    0.89
  -3  -2   2   30.27    0.86
   3  -2  -2   29.50    0.89
   3  -2  -2   29.56    0.86
   3   2  -2   31.03    0.84
   3   2  -2   29.98    0.83
   3   2  -2   29.29    0.88
   3   2  -2   30.21    0.84
  -3   2   2   30.16    0.91
  -3   2   2   30.30    0.87
  -3   2   2   30.17    0.87
  -3   2   2   30.61    0.94
  -3   2   2   29.51    0.92
  -2  -2   2   78.59    2.14
   2  -2  -2   74.34    2.11
  -2  -2   2   75.26    2.09
  -2  -2   2   74.46    2.10
  -2  -2   2   75.86    2.09
   2  -2  -2   76.40    2.09
  -2  -2   2   69.27    2.08
   2  -2  -2   79.16    2.09
  -2  -2   2   70.76    2.10
  -2  -2   2   76.85    2.12
  -2  -2   2   79.28    2.11
  -2   2   2   75.75    2.12
   2   2  -2   75.45    2.10
  -2   2   2   70.43    2.11
   2   2  -2   74.53    2.08
  -2   2   2   77.92    2.10
  -2   2   2   77.07    2.16
  -2   2   2   76.23    2.15
   2   2  -2   80.07    2.12
   2   2  -2   75.44    2.10
   2   2  -2   76.64    2.08
  -2   2   2   75.71    2.10
  -1  -2   2    2.89    0.14
   1  -2  -2    3.01    0.12
   1  -2  -2    2.71    0.15
  -1  -2   2    2.84    0.11
  -1  -2   2    3.08    0.12
  -1  -2   2    2.87    0.10
   1  -2  -2    2.63    0.11
  -1  -2   2    2.76    0.10
   1  -2  -2    2.69    0.10
  -1  -2   2    2.85    0.11
   1  -2  -2    2.60    0.13
  -1  -2   2    2.75    0.10
   1  -2  -2    2.69    0.10
   1  -2  -2    2.76    0.10
  -1  -2   2    3.08    0.11
   1   2  -2    2.62    0.10
  -1   2   2    2.86    0.10
   1   2  -2    2.64    0.09
   1   2  -2    2.58    0.10
  -1   2   2    2.78    0.10
   1   2  -2    2.95    0.10
   1   2  -2    2.78    0.11
  -1   2   2    3.01    0.12
   1   2  -2    2.74    0.16
   1   2  -2    2.66    0.09
   1   2  -2    2.99    0.10
  -1   2   2    2.87    0.14
  -1   2   2    2.91    0.14
  -1   2   2    2.79    0.09
  -1   2   2    2.75    0.11
  -1   2   2    2.80    0.11
  -1   2   2    2.83    0.11
   0  -2   2  182.82    4.99
   0  -2  -2  201.39    5.00
   0  -2   2  162.00    4.95
   0  -2   2  162.96    4.97
   0  -2   2  163.01    5.02
   0  -2  -2  154.91    4.99
   0  -2   2  168.84    5.01
   0  -2   2  206.24    5.05
   0  -2   2  154.59    4.94
   0  -2   2  173.86    5.01
   0  -2  -2  203.48    5.03
   0  -2  -2  197.37    5.10
   0  -2   2  172.27    5.53
   0  -2   2  188.57    5.02
   0  -2  -2  187.38    5.08
   0  -2   2  181.81    5.00
   0  -2  -2  149.99    5.01
   0  -2  -2  174.21    4.97
   0  -2   2  201.73    5.11
   0  -2  -2  184.59    4.97
   0  -2  -2  175.29    5.00
   0  -2   2  183.76    4.99
   0   2  -2  183.88    5.01
   0   2   2  181.68    4.97
   0   2  -2  195.33    5.00
   0   2   2  176.92    5.08
   0   2  -2  200.48    5.05
   0   2   2  168.28    4.98
   0   2  -2  200.85    5.09
   0   2  -2  182.66    5.04
   0   2  -2  163.06    4.95
   0   2   2  194.49    5.10
   0   2   2  165.95    4.97
   0   2  -2  197.80    5.04
   0   2  -2  193.98    5.01
   0   2  -2  199.47    5.05
   0   2  -2  198.02    5.02
   0   2   2  166.99    4.97
   0   2   2  170.43    4.97
   0   2  -2  177.97    5.44
   0   2   2  192.25    5.05
   0   2  -2  176.84    5.00
   0   2  -2  175.14    5.05
   0   2   2  161.66    5.01
   0   2   2  175.01    4.99
   1  -2   2   13.91    0.41
   1  -2   2   13.81    0.42
   1  -2   2   13.16    0.40
  -1  -2  -2   13.67    0.41
   1  -2   2   13.45    0.40
  -1  -2  -2   13.51    0.40
  -1  -2  -2   13.40    0.40
   1  -2   2   13.62    0.41
  -1  -2  -2   13.62    0.41
  -1  -2  -2   13.50    0.40
   1  -2   2   13.55    0.39
   1  -2   2   13.99    0.43
  -1  -2  -2   13.70    0.42
  -1  -2  -2   13.11    0.39
  -1   2  -2   12.95    0.40
  -1   2  -2   13.30    0.41
  -1   2  -2   13.57    0.44
   1   2   2   13.53    0.40
  -1   2  -2   14.29    0.44
   1   2   2   13.51    0.40
  -1   2  -2   13.63    0.41
  -1   2  -2   13.42    0.39
   1   2   2   12.99    0.42
  -1   2  -2   12.46    0.40
   1   2   2   13.71    0.39
  -1   2  -2   13.98    0.61
   1   2   2   13.84    0.41
   1   2   2   13.94    0.44
   1   2   2   12.81    0.41
  -1   2  -2   13.43    0.40
   1   2   2   13.34    0.40
   1   2   2   13.71    0.41
   1   2   2   13.39    0.39
   2  -2   2   59.70    1.77
   2  -2   2   62.73    1.72
  -2  -2  -2   61.85    1.72
  -2  -2  -2   60.90    1.71
   2  -2   2   59.15    1.71
   2  -2   2   63.27    1.72
  -2  -2  -2   61.02    1.71
  -2  -2  -2   63.27    1.75
  -2  -2  -2   61.93    1.73
   2  -2   2   63.36    1.73
   2  -2   2   64.78    1.76
  -2  -2  -2   61.58    1.72
   2  -2   2   61.45    1.73
   2  -2   2   63.70    1.96
  -2  -2  -2   60.81    1.71
  -2  -2  -2   65.13    1.78
   2   2   2   62.62    1.72
   2   2   2   60.01    1.72
   2   2   2   63.23    1.74
   2   2   2   60.06    1.73
  -2   2  -2   64.00    1.78
   2   2   2   60.31    1.75
  -2   2  -2   60.17    1.73
   2   2   2   61.38    1.77
  -2   2  -2   61.08    1.73
   2   2   2   60.71    1.71
   2   2   2   61.69    1.73
   2   2   2   58.47    1.72
  -2   2  -2   62.18    1.79
  -2   2  -2   61.62    1.72
   3  -2   2    1.96    0.09
  -3  -2  -2    1.70    0.09
  -3  -2  -2    1.84    0.09
   3  -2   2    1.86    0.10
  -3  -2  -2    1.81    0.07
   3  -2   2    1.80    0.08
  -3  -2  -2    1.77    0.15
   3  -2   2    1.85    0.13
  -3  -2  -2    1.86    0.11
   3  -2   2    1.90    0.10
   3  -2   2    1.89    0.07
  -3  -2  -2    1.71    0.07
   3  -2   2    1.82    0.11
   3   2   2    1.91    0.09
  -3   2  -2    1.45    0.24
  -3   2  -2    1.76    0.15
  -3   2  -2    1.89    0.14
  -3   2  -2    1.80    0.09
   3   2   2    1.78    0.10
  -3   2  -2    1.90    0.10
   3   2   2    1.77    0.09
   3   2   2    1.86    0.11
   3   2   2    1.95    0.10
   3   2   2    1.90    0.09
   3   2   2    1.88    0.09
   3   2   2    1.83    0.13
  -4  -2  -2   11.97    0.40
  -4  -2  -2   12.73    0.47
   4  -2   2   12.23    0.41
   4  -2   2   11.84    0.35
  -4  -2  -2   12.32    0.41
  -4  -2  -2   12.60    0.40
   4  -2   2   11.74    0.41
   4  -2   2   12.56    0.39
   4   2   2   11.61    0.42
   4   2   2   12.06    0.40
  -4   2  -2   11.96    0.43
  -4   2  -2   11.28    0.49
  -4   2  -2   12.68    0.41
   4   2   2   12.05    0.40
  -4   2  -2   13.29    0.47
  -4   2  -2   12.36    0.38
  -4   2  -2   12.59    0.46
   4   2   2   11.64    0.39
   4   2   2   12.16    0.38
   5  -2   2    6.39    0.26
  -5  -2  -2    6.13    0.33
  -5  -2  -2    5.78    0.26
   5  -2   2    6.19    0.26
  -5  -2  -2    6.71    0.25
   5  -2   2    6.53    0.24
  -5  -2  -2    5.84    0.32
  -5   2  -2    5.93    0.25
   5   2   2    6.14    0.26
   5   2   2    6.36    0.28
  -5   2  -2    6.15    0.25
   5   2   2    6.24    0.25
  -5   2  -2    6.01    0.31
   5   2   2    6.14    0.23
  -5   2  -2    5.98    0.30
  -5   2  -2    6.24    0.20
  -5   2  -2    5.79    0.35
  -5   2  -2    6.20    0.25
  -6  -2  -2    0.16    0.10
  -6  -2  -2    0.43    0.12
   6  -2   2    0.26    0.06
  -6  -2  -2    0.37    0.07
  -6  -2  -2    0.34    0.08
   6  -2   2    0.37    0.08
  -6   2  -2    0.45    0.13
  -6   2  -2    0.38    0.08
  -6   2  -2    0.40    0.11
  -6   2  -2    0.35    0.07
   6   2   2    0.47    0.10
   6   2   2    0.21    0.06
  -6   2  -2    0.30    0.10
   6   2   2    0.36    0.09
  -7  -2  -2    1.19    0.16
  -7  -2  -2    1.17    0.12
  -7  -2  -2    0.94    0.19
  -7  -2  -2    1.10    0.19
  -7   2  -2    1.22    0.19
  -7   2  -2    1.21    0.14
  -7   2  -2    1.37    0.14
  -7  -3   2    1.42    0.10
   7  -3  -2    1.35    0.15
  -7  -3   2    0.81    0.16
  -7  -3   2    1.49    0.19
  -7   3   2    1.37    0.22
  -7   3   2    1.31    0.20
  -7   3   2    1.51    0.12
   7   3  -2    1.35    0.13
   7   3  -2    1.33    0.14
   7   3  -2    1.37    0.12
   6  -3  -2    2.67    0.17
  -6  -3   2    2.88    0.24
   6  -3  -2    2.74    0.18
  -6  -3   2    2.56    0.19
  -6  -3   2    2.78    0.14
   6   3  -2    2.81    0.15
  -6   3   2    2.87    0.22
  -6   3   2    2.93    0.17
   6   3  -2    3.03    0.19
   6   3  -2    2.95    0.15
  -6   3   2    3.06    0.16
  -6   3   2    2.88    0.22
  -6   3   2    2.49    0.27
  -5  -3   2    8.17    0.33
   5  -3  -2    7.84    0.32
  -5  -3   2    7.70    0.37
  -5  -3   2    8.06    0.28
  -5  -3   2    8.54    0.34
   5  -3  -2    8.25    0.31
   5   3  -2    8.04    0.32
  -5   3   2    8.27    0.41
   5   3  -2    8.31    0.28
  -5   3   2    7.77    0.30
  -5   3   2    7.92    0.37
  -5   3   2    7.71    0.35
  -5   3   2    7.47    0.29
  -4  -3   2    8.11    0.31
  -4  -3   2    7.97    0.27
  -4  -3   2    8.02    0.31
  -4  -3   2    7.91    0.35
   4  -3  -2    8.54    0.31
  -4  -3   2    8.19    0.27
   4  -3  -2    7.99    0.26
   4  -3  -2    7.95    0.29
   4  -3  -2    8.31    0.29
   4   3  -2    7.89    0.27
  -4   3   2    8.42    0.36
   4   3  -2    8.48    0.26
  -4   3   2    8.12    0.38
   4   3  -2    8.02    0.26
   4   3  -2    8.19    0.30
  -4   3   2    7.89    0.28
  -4   3   2    8.46    0.29
  -4   3   2    8.02    0.33
   3  -3  -2    8.11    0.28
  -3  -3   2    8.59    0.27
  -3  -3   2    8.75    0.33
  -3  -3   2    8.92    0.28
   3  -3  -2    8.23    0.29
   3  -3  -2    7.98    0.29
  -3  -3   2    8.58    0.30
  -3  -3   2    8.37    0.29
  -3  -3   2    7.81    0.30
   3   3  -2    8.78    0.25
  -3   3   2    8.15    0.34
  -3   3   2    8.65    0.28
   3   3  -2    8.40    0.27
  -3   3   2    8.73    0.29
  -3   3   2    8.53    0.31
  -3   3   2    8.34    0.36
   3   3  -2    8.33    0.29
   3   3  -2    8.28    0.25
   3   3  -2    8.04    0.26
   3   3  -2    8.49    0.29
  -2  -3   2   21.21    0.62
   2  -3  -2   22.16    0.65
   2  -3  -2   21.45    0.63
  -2  -3   2   19.02    0.61
   2  -3  -2   21.21    0.63
  -2  -3   2   20.60    0.63
  -2  -3   2   20.75    0.62
  -2  -3   2   21.09    0.61
   2  -3  -2   21.23    0.63
  -2  -3   2   21.52    0.60
  -2  -3   2   21.34    0.64
  -2  -3   2   21.47    0.65
  -2   3   2   21.39    0.68
  -2   3   2   21.08    0.63
   2   3  -2   20.62    0.61
  -2   3   2   21.34    0.69
   2   3  -2   19.81    0.59
   2   3  -2   20.65    0.62
  -2   3   2   21.16    0.61
  -2   3   2   21.63    0.60
   2   3  -2   20.24    0.61
   2   3  -2   21.57    0.59
   2   3  -2   20.82    0.62
  -2   3   2   21.34    0.63
  -2   3   2   21.25    0.60
  -2   3   2   22.07    0.63
  -1  -3   2   57.13    1.55
  -1  -3   2   57.06    1.55
  -1  -3   2   56.66    1.53
  -1  -3   2   57.44    1.55
  -1  -3   2   49.45    1.54
  -1  -3   2   55.53    1.54
  -1  -3   2   53.88    1.54
   1  -3  -2   57.79    1.57
  -1  -3   2   56.76    1.53
  -1  -3   2   57.26    1.54
   1  -3  -2   53.88    1.55
   1  -3  -2   57.01    1.56
   1  -3  -2   54.83    1.55
   1  -3  -2   56.78    1.56
  -1  -3   2   54.85    1.53
  -1  -3   2   57.53    1.52
  -1  -3   2   59.67    1.64
   1   3  -2   57.93    1.54
   1   3  -2   52.78    1.54
   1   3  -2   57.57    1.59
   1   3  -2   52.95    1.52
   1   3  -2   54.31    1.55
  -1   3   2   53.27    1.54
  -1   3   2   56.82    1.54
   1   3  -2   52.42    1.53
  -1   3   2   57.12    1.59
  -1   3   2   56.81    1.56
  -1   3   2   53.10    1.55
   1   3  -2   49.44    1.56
   1   3  -2   54.87    1.54
  -1   3   2   53.45    1.54
   1   3  -2   54.06    1.54
  -1   3   2   52.91    1.56
   1   3  -2   55.95    1.55
   0  -3   2   26.64    0.73
   0  -3   2   23.75    0.72
   0  -3   2   24.77    0.74
   0  -3   2   26.30    0.72
   0  -3   2   26.39    0.76
   0  -3  -2   24.19    0.74
   0  -3  -2   24.78    0.72
   0  -3   2   25.55    0.74
   0  -3   2   26.39    0.90
   0  -3  -2   24.16    0.74
   0  -3  -2   25.61    0.75
   0  -3   2   26.52    0.73
   0  -3  -2   22.84    0.72
   0  -3   2   26.23    0.73
   0  -3   2   25.98    0.76
   0  -3  -2   25.79    0.74
   0  -3  -2   24.95    0.73
   0  -3   2   25.54    0.74
   0  -3   2   25.84    0.74
   0  -3   2   25.70    0.71
   0  -3   2   25.11    0.71
   0   3   2   25.47    0.76
   0   3   2   25.61    0.75
   0   3  -2   25.35    0.73
   0   3   2   25.58    0.72
   0   3  -2   24.41    0.74
   0   3   2   26.18    0.73
   0   3  -2   25.38    0.75
   0   3  -2   25.44    0.72
   0   3   2   26.37    0.78
   0   3   2   26.15    0.73
   0   3   2   25.44    0.72
   0   3   2   25.29    0.75
   0   3  -2   25.93    0.74
   0   3  -2   25.19    0.75
   0   3  -2   24.99    0.72
   0   3  -2   25.21    0.74
   0   3   2   26.06    0.74
   0   3   2   25.86    0.73
   0   3   2   25.36    0.74
   0   3  -2   27.04    0.75
   0   3  -2   25.14    0.74
   0   3  -2   25.80    0.72
   0   3  -2   24.98    0.77
  -1  -3  -2  117.56    3.26
   1  -3   2  120.16    3.27
   1  -3   2  123.63    3.53
  -1  -3  -2  122.72    3.26
  -1  -3  -2  121.38    3.29
   1  -3   2  113.93    3.25
   1  -3   2  130.95    3.34
   1  -3   2   99.44    3.26
  -1  -3  -2  117.46    3.26
  -1  -3  -2  116.08    3.28
   1  -3   2  120.89    3.27
   1  -3   2  120.29    3.25
   1  -3   2  120.89    3.29
   1  -3   2  125.16    3.32
  -1  -3  -2  114.31    3.30
  -1   3  -2  117.50    3.27
  -1   3  -2   99.17    3.25
   1   3   2  123.68    3.28
  -1   3  -2  114.39    3.26
  -1   3  -2   99.15    3.55
   1   3   2  121.58    3.28
   1   3   2  121.79    3.32
   1   3   2  119.61    3.28
   1   3   2  117.05    3.27
  -1   3  -2  119.84    3.27
   1   3   2  106.17    3.25
  -1   3  -2  119.29    3.32
  -1   3  -2  123.67    3.28
   1   3   2  121.38    3.26
   1   3   2  136.76    3.30
   1   3   2  114.68    3.27
  -1   3  -2  121.98    3.31
   1   3   2  121.07    3.27
   1   3   2  119.66    3.29
  -2  -3  -2   10.14    0.31
   2  -3   2   10.48    0.33
  -2  -3  -2   10.26    0.31
  -2  -3  -2   10.47    0.37
   2  -3   2   10.54    0.34
  -2  -3  -2   10.40    0.33
  -2  -3  -2   10.23    0.31
   2  -3   2   10.23    0.34
   2  -3   2   10.34    0.32
   2  -3   2   10.95    0.38
   2  -3   2   10.17    0.37
  -2  -3  -2   10.38    0.35
  -2  -3  -2   10.18    0.33
  -2  -3  -2   10.82    0.33
   2  -3   2    9.85    0.32
  -2   3  -2    8.42    0.57
  -2   3  -2   10.42    0.39
  -2   3  -2   10.42    0.33
   2   3   2   10.22    0.33
   2   3   2   10.00    0.33
  -2   3  -2   10.60    0.39
  -2   3  -2   10.48    0.34
   2   3   2   10.37    0.38
   2   3   2   10.69    0.34
   2   3   2   10.10    0.34
   2   3   2   10.20    0.32
   2   3   2   10.50    0.32
   2   3   2   10.31    0.36
   2   3   2   10.08    0.34
  -3  -3  -2   14.19    0.42
  -3  -3  -2   13.34    0.41
  -3  -3  -2   13.75    0.44
   3  -3   2   14.42    0.44
   3  -3   2   13.95    0.42
   3  -3   2   14.32    0.45
  -3  -3  -2   14.74    0.47
   3  -3   2   13.74    0.51
  -3  -3  -2   14.49    0.49
   3  -3   2   14.49    0.46
  -3  -3  -2   13.79    0.42
  -3  -3  -2   14.29    0.45
   3   3   2   14.28    0.46
  -3   3  -2   14.32    0.54
   3   3   2   14.12    0.45
   3   3   2   13.29    0.44
   3   3   2   14.39    0.46
  -3   3  -2   14.36    0.46
   3   3   2   14.06    0.51
   3   3   2   14.44    0.46
  -3   3  -2   14.09    0.44
  -3   3  -2   14.23    0.51
   3   3   2   14.86    0.43
  -3   3  -2   14.38    0.52
   4  -3   2    5.23    0.22
  -4  -3  -2    5.35    0.22
   4  -3   2    5.44    0.20
  -4  -3  -2    4.89    0.21
   4  -3   2    5.05    0.22
  -4  -3  -2    4.64    0.25
   4  -3   2    5.29    0.18
  -4  -3  -2    4.84    0.20
   4   3   2    4.85    0.20
  -4   3  -2    5.37    0.31
  -4   3  -2    5.38    0.22
  -4   3  -2    5.22    0.20
  -4   3  -2    5.33    0.27
   4   3   2    5.15    0.23
  -4   3  -2    5.19    0.24
   4   3   2    5.07    0.22
   4   3   2    5.30    0.19
  -4   3  -2    5.11    0.24
  -4   3  -2    4.59    0.27
  -4   3  -2    5.15    0.19
   5  -3   2    1.07    0.11
  -5  -3  -2    1.25    0.10
   5  -3   2    1.34    0.10
   5  -3   2    1.14    0.10
  -5  -3  -2    1.20    0.15
  -5  -3  -2    0.98    0.15
  -5  -3  -2    1.39    0.13
   5   3   2    1.28    0.13
  -5   3  -2    1.21    0.10
  -5   3  -2    1.39    0.10
  -5   3  -2    1.30    0.15
   5   3   2    1.28    0.12
  -5   3  -2    1.27    0.07
  -5   3  -2    1.14    0.18
   5   3   2    1.30    0.11
  -5   3  -2    1.27    0.16
   5   3   2    1.27    0.09
  -5   3  -2    1.15    0.11
  -6  -3  -2    1.67    0.12
   6  -3   2    1.66    0.13
  -6  -3  -2    1.48    0.20
  -6  -3  -2    1.54    0.16
   6  -3   2    1.78    0.13
  -6  -3  -2    1.85    0.22
  -6   3  -2    1.55    0.13
  -6   3  -2    1.92    0.26
  -6   3  -2    1.96    0.14
   6   3   2    1.70    0.13
   6   3   2    1.58    0.17
   6   3   2    1.61    0.15
  -6   3  -2    1.49    0.19
  -6   3  -2    1.68    0.21
  -7  -3  -2    0.40    0.13
  -7  -3  -2    0.75    0.13
  -7  -3  -2    0.66    0.10
  -7   3  -2    0.53    0.13
  -7   3  -2    0.67    0.10
   7  -4  -2    0.89    0.13
  -7  -4   2    1.11    0.16
  -7  -4   2    0.88    0.17
  -7  -4   2    1.05    0.09
   7   4  -2    0.93    0.11
   7   4  -2    0.95    0.12
  -7   4   2    1.02    0.12
  -7   4   2    0.97    0.17
   7   4  -2    0.90    0.12
   6  -4  -2    2.20    0.16
  -6  -4   2    2.11    0.12
   6  -4  -2    2.38    0.16
  -6  -4   2    1.67    0.18
  -6  -4   2    2.02    0.24
   6   4  -2    2.01    0.15
  -6   4   2    2.05    0.22
  -6   4   2    2.05    0.14
   6   4  -2    1.94    0.15
   6   4  -2    2.34    0.15
  -6   4   2    2.07    0.25
  -6   4   2    2.08    0.19
  -5  -4   2    1.04    0.08
   5  -4  -2    0.86    0.10
   5  -4  -2    0.80    0.10
  -5  -4   2    0.72    0.12
  -5  -4   2    0.97    0.12
   5   4  -2    0.94    0.11
   5   4  -2    1.16    0.12
   5   4  -2    0.88    0.09
  -5   4   2    0.93    0.10
  -5   4   2    1.20    0.17
  -5   4   2    0.86    0.13
  -5   4   2    0.88    0.09
  -5   4   2    1.17    0.18
  -4  -4   2   29.30    0.94
   4  -4  -2   30.94    0.92
  -4  -4   2   30.34    0.88
  -4  -4   2   29.97    0.93
  -4  -4   2   30.40    0.89
   4  -4  -2   28.77    0.92
  -4  -4   2   31.05    0.98
  -4  -4   2   30.40    0.92
   4   4  -2   30.83    0.91
   4   4  -2   30.48    0.88
  -4   4   2   28.75    1.02
  -4   4   2   30.45    1.00
  -4   4   2   32.03    0.92
  -4   4   2   30.88    0.89
  -4   4   2   30.52    0.95
   4   4  -2   30.85    0.92
   4   4  -2   29.72    0.89
   4   4  -2   30.52    0.89
  -3  -4   2   24.61    0.75
  -3  -4   2   26.15    0.75
   3  -4  -2   24.92    0.80
   3  -4  -2   25.97    0.77
  -3  -4   2   25.63    0.81
  -3  -4   2   26.27    0.74
   3  -4  -2   25.73    0.78
  -3  -4   2   25.65    0.79
  -3  -4   2   26.18    0.77
  -3  -4   2   25.32    0.75
   3  -4  -2   25.91    0.78
   3   4  -2   25.78    0.76
   3   4  -2   25.55    0.75
  -3   4   2   25.86    0.76
  -3   4   2   26.35    0.73
   3   4  -2   24.99    0.73
  -3   4   2   25.59    0.72
  -3   4   2   25.95    0.86
   3   4  -2   25.01    0.75
   3   4  -2   24.10    0.75
  -3   4   2   25.87    0.78
  -3   4   2   25.17    0.77
   3   4  -2   25.01    0.76
  -3   4   2   25.20    0.84
  -2  -4   2   10.01    0.33
  -2  -4   2    9.17    0.31
  -2  -4   2    9.44    0.30
  -2  -4   2    9.55    0.32
   2  -4  -2    9.87    0.33
  -2  -4   2    9.65    0.33
  -2  -4   2    9.74    0.34
   2  -4  -2   10.00    0.34
  -2  -4   2    9.21    0.32
   2  -4  -2    9.41    0.34
   2  -4  -2    9.70    0.32
   2   4  -2   10.03    0.32
   2   4  -2    9.77    0.31
  -2   4   2    9.15    0.31
   2   4  -2    9.52    0.31
   2   4  -2    9.46    0.29
  -2   4   2    9.85    0.38
  -2   4   2    9.37    0.31
  -2   4   2    9.38    0.38
   2   4  -2    9.75    0.29
  -2   4   2    9.52    0.30
   2   4  -2   10.05    0.31
   2   4  -2    9.18    0.31
  -2   4   2    9.61    0.33
  -1  -4   2   73.72    2.09
   1  -4  -2   77.11    2.12
   1  -4  -2   74.12    2.11
  -1  -4   2   74.31    2.09
  -1  -4   2   79.06    2.06
   1  -4  -2   76.48    2.13
  -1  -4   2   76.93    2.09
  -1  -4   2   76.07    2.09
  -1  -4   2   75.56    2.11
  -1  -4   2   76.27    2.07
   1  -4  -2   68.28    2.10
  -1  -4   2   80.64    2.11
  -1  -4   2   75.62    2.08
  -1  -4   2   78.17    2.11
  -1  -4   2   73.44    2.06
   1  -4  -2   73.53    2.12
  -1  -4   2   77.48    2.24
   1   4  -2   73.71    2.11
  -1   4   2   75.69    2.12
   1   4  -2   75.55    2.11
   1   4  -2   72.89    2.10
   1   4  -2   75.21    2.08
  -1   4   2   73.56    2.15
   1   4  -2   75.80    2.11
  -1   4   2   74.94    2.10
   1   4  -2   73.17    2.10
   1   4  -2   75.84    2.09
  -1   4   2   71.90    2.12
  -1   4   2   75.27    2.09
   1   4  -2   76.27    2.11
   0  -4   2   11.24    0.39
   0  -4  -2   11.69    0.37
   0  -4  -2   12.03    0.39
   0  -4  -2   12.09    0.37
   0  -4   2   11.21    0.38
   0  -4   2   11.21    0.39
   0  -4   2   11.15    0.34
   0  -4   2   11.81    0.36
   0  -4  -2   12.32    0.39
   0  -4   2   10.38    0.36
   0  -4   2   11.35    0.36
   0  -4   2   11.98    0.34
   0  -4   2   11.39    0.33
   0  -4   2   11.49    0.54
   0  -4   2   10.94    0.38
   0   4  -2   11.51    0.37
   0   4   2   11.09    0.37
   0   4  -2   11.79    0.37
   0   4  -2   11.63    0.37
   0   4   2   11.25    0.40
   0   4  -2   12.12    0.35
   0   4   2   11.15    0.35
   0   4  -2   11.69    0.36
   0   4   2   11.65    0.39
   0   4  -2   11.96    0.35
   0   4   2   11.00    0.38
   0   4  -2   11.81    0.38
   0   4  -2   11.89    0.39
   0   4   2   11.36    0.36
   0   4   2   11.10    0.34
   0   4  -2   12.04    0.40
   0   4  -2   12.44    0.39
   0   4   2   11.40    0.38
   0   4  -2   11.67    0.33
   1  -4   2    6.12    0.22
   1  -4   2    5.89    0.19
  -1  -4  -2    5.33    0.19
   1  -4   2    6.25    0.21
   1  -4   2    5.93    0.24
  -1  -4  -2    5.79    0.23
   1  -4   2    5.92    0.22
   1  -4   2    5.94    0.25
   1  -4   2    6.02    0.22
  -1  -4  -2    5.75    0.21
  -1  -4  -2    5.47    0.20
  -1  -4  -2    5.01    0.20
   1   4   2    6.13    0.24
   1   4   2    6.28    0.20
  -1   4  -2    5.87    0.23
   1   4   2    5.98    0.23
  -1   4  -2    5.69    0.22
  -1   4  -2    6.11    0.25
   1   4   2    6.12    0.20
   1   4   2    6.08    0.21
   1   4   2    6.19    0.21
   1   4   2    5.79    0.26
   1   4   2    5.82    0.22
  -1   4  -2    5.64    0.25
  -1   4  -2    5.77    0.28
   1   4   2    6.01    0.22
   1   4   2    6.07    0.23
  -1   4  -2    5.86    0.22
  -1   4  -2    5.82    0.21
  -2  -4  -2    6.94    0.29
  -2  -4  -2    6.70    0.25
   2  -4   2    7.14    0.24
   2  -4   2    7.33    0.26
   2  -4   2    6.95    0.24
   2  -4   2    7.35    0.30
  -2  -4  -2    7.37    0.27
   2  -4   2    7.24    0.29
  -2  -4  -2    6.89    0.23
   2  -4   2    6.88    0.26
   2  -4   2    7.11    0.25
  -2  -4  -2    7.15    0.25
  -2  -4  -2    7.19    0.24
  -2  -4  -2    7.40    0.25
  -2   4  -2    6.98    0.25
   2   4   2    7.10    0.25
  -2   4  -2    7.39    0.33
   2   4   2    7.11    0.24
   2   4   2    7.54    0.25
  -2   4  -2    6.94    0.31
   2   4   2    7.27    0.24
   2   4   2    6.75    0.26
   2   4   2    7.08    0.27
   2   4   2    6.94    0.26
  -2   4  -2    7.06    0.31
  -2   4  -2    7.29    0.27
   2   4   2    7.02    0.28
   2   4   2    7.04    0.31
   2   4   2    7.18    0.26
  -3  -4  -2   26.17    0.76
   3  -4   2   25.24    0.81
   3  -4   2   25.40    0.74
  -3  -4  -2   25.52    0.73
  -3  -4  -2   25.23    0.75
  -3  -4  -2   24.69    0.72
   3  -4   2   25.18    0.76
  -3  -4  -2   24.72    0.76
  -3  -4  -2   25.02    0.77
   3  -4   2   24.95    0.77
   3  -4   2   24.45    0.74
  -3   4  -2   25.20    0.84
  -3   4  -2   23.93    0.85
   3   4   2   25.26    0.77
  -3   4  -2   24.63    0.75
  -3   4  -2   24.80    0.85
  -3   4  -2   25.34    0.72
   3   4   2   24.42    0.76
  -3   4  -2   25.02    0.77
  -3   4  -2   25.14    0.77
   3   4   2   25.63    0.91
   3   4   2   25.13    0.78
   3   4   2   25.58    0.74
   3   4   2   25.62    0.76
  -4  -4  -2    4.78    0.25
  -4  -4  -2    4.75    0.20
   4  -4   2    4.85    0.20
  -4  -4  -2    4.45    0.20
   4  -4   2    4.75    0.21
  -4  -4  -2    4.82    0.22
   4  -4   2    5.12    0.23
   4  -4   2    4.82    0.18
   4   4   2    4.71    0.19
  -4   4  -2    4.63    0.18
   4   4   2    4.90    0.23
  -4   4  -2    4.53    0.30
  -4   4  -2    4.49    0.23
  -4   4  -2    4.53    0.27
   4   4   2    4.80    0.22
  -4   4  -2    4.85    0.19
  -4   4  -2    5.09    0.22
  -5  -4  -2    3.56    0.24
  -5  -4  -2    3.62    0.20
  -5  -4  -2    3.73    0.18
   5  -4   2    3.89    0.19
  -5  -4  -2    3.45    0.24
  -5  -4  -2    4.09    0.21
   5  -4   2    3.80    0.18
   5   4   2    3.43    0.18
  -5   4  -2    3.67    0.20
   5   4   2    4.07    0.21
  -5   4  -2    3.28    0.29
  -5   4  -2    3.80    0.15
  -5   4  -2    3.60    0.22
  -5   4  -2    3.76    0.27
  -5   4  -2    3.97    0.20
   5   4   2    3.95    0.17
   6  -4   2    3.26    0.19
  -6  -4  -2    3.54    0.27
  -6  -4  -2    2.89    0.25
  -6  -4  -2    3.64    0.19
  -6  -4  -2    3.33    0.22
   6  -4   2    3.51    0.18
  -6   4  -2    3.41    0.24
  -6   4  -2    2.86    0.31
   6   4   2    3.79    0.22
  -6   4  -2    2.79    0.29
  -6   4  -2    3.11    0.19
   6  -5  -2    3.95    0.23
  -6  -5   2    3.46    0.17
  -6  -5   2    3.47    0.23
  -6  -5   2    3.69    0.27
   6   5  -2    3.57    0.21
  -6   5   2    3.51    0.20
   6   5  -2    3.82    0.20
   6   5  -2    3.45    0.20
  -6   5   2    3.79    0.31
  -6   5   2    3.77    0.28
   5  -5  -2    7.61    0.32
  -5  -5   2    7.23    0.33
  -5  -5   2    7.79    0.37
   5  -5  -2    8.19    0.33
  -5  -5   2    7.34    0.28
   5   5  -2    7.36    0.31
  -5   5   2    8.19    0.43
   5   5  -2    7.86    0.31
  -5   5   2    7.65    0.31
  -5   5   2    7.38    0.39
   5   5  -2    7.43    0.31
  -5   5   2    7.46    0.33
   4  -5  -2    0.44    0.07
  -4  -5   2    0.39    0.06
   4  -5  -2    0.33    0.06
   4  -5  -2    0.30    0.06
  -4  -5   2    0.25    0.08
  -4  -5   2    0.41    0.05
  -4  -5   2    0.19    0.06
  -4  -5   2    0.38    0.08
  -4   5   2    0.28    0.06
   4   5  -2    0.34    0.06
   4   5  -2    0.22    0.05
  -4   5   2    0.32    0.10
   4   5  -2    0.27    0.05
  -4   5   2    0.34    0.07
  -4   5   2    0.32    0.09
   3  -5  -2    4.49    0.20
  -3  -5   2    4.34    0.17
  -3  -5   2    4.58    0.17
  -3  -5   2    4.50    0.18
   3  -5  -2    4.36    0.20
  -3  -5   2    4.41    0.22
  -3  -5   2    4.51    0.21
  -3  -5   2    4.36    0.19
   3   5  -2    4.43    0.19
   3   5  -2    4.38    0.18
  -3   5   2    4.50    0.20
   3   5  -2    4.46    0.16
  -3   5   2    4.02    0.19
  -3   5   2    4.21    0.26
  -3   5   2    4.33    0.16
   3   5  -2    4.37    0.19
  -3   5   2    4.31    0.27
   3   5  -2    4.44    0.19
  -3   5   2    4.55    0.19
  -2  -5   2   44.70    1.26
  -2  -5   2   40.79    1.18
  -2  -5   2   40.46    1.20
   2  -5  -2   40.67    1.21
   2  -5  -2   41.25    1.20
  -2  -5   2   41.45    1.19
   2  -5  -2   39.23    1.23
  -2  -5   2   41.90    1.20
  -2  -5   2   39.93    1.17
  -2  -5   2   40.85    1.20
  -2  -5   2   43.43    1.14
   2   5  -2   40.24    1.17
   2   5  -2   41.91    1.20
  -2   5   2   42.83    1.28
   2   5  -2   42.26    1.19
  -2   5   2   40.51    1.18
  -2   5   2   41.24    1.27
  -2   5   2   42.27    1.18
   2   5  -2   39.31    1.19
  -2   5   2   39.99    1.21
   2   5  -2   39.49    1.19
   2   5  -2   40.34    1.16
   2   5  -2   40.55    1.18
   1  -5  -2    1.93    0.17
  -1  -5   2    2.45    0.12
  -1  -5   2    2.56    0.10
  -1  -5   2    2.57    0.12
  -1  -5   2    2.65    0.09
   1  -5  -2    2.34    0.08
   1  -5  -2    2.32    0.14
  -1  -5   2    2.50    0.12
  -1  -5   2    2.56    0.10
   1  -5  -2    2.14    0.12
   1  -5  -2    2.29    0.13
  -1  -5   2    2.47    0.13
  -1  -5   2    2.58    0.21
  -1  -5   2    2.46    0.10
  -1  -5   2    2.53    0.08
   1  -5  -2    2.25    0.13
  -1  -5   2    2.49    0.09
  -1  -5   2    2.52    0.12
  -1  -5   2    2.37    0.12
   1   5  -2    2.21    0.13
   1   5  -2    2.16    0.13
   1   5  -2    2.05    0.10
  -1   5   2    2.32    0.13
   1   5  -2    2.39    0.12
   1   5  -2    2.23    0.10
   1   5  -2    2.38    0.11
  -1   5   2    2.41    0.14
  -1   5   2    2.51    0.12
  -1   5   2    2.48    0.16
   1   5  -2    1.92    0.12
   1   5  -2    2.22    0.12
  -1   5   2    2.40    0.11
   0  -5   2   42.74    1.25
   0  -5  -2   43.61    1.25
   0  -5   2   42.24    1.24
   0  -5  -2   43.26    1.28
   0  -5   2   42.42    1.26
   0  -5  -2   43.42    1.26
   0  -5  -2   44.16    1.29
   0  -5   2   42.28    1.21
   0  -5   2   44.96    1.22
   0  -5   2   39.45    1.28
   0  -5   2   45.50    1.24
   0  -5   2   44.87    1.29
   0  -5   2   44.15    1.22
   0   5   2   43.24    1.23
   0   5  -2   43.64    1.29
   0   5  -2   44.65    1.30
   0   5  -2   43.03    1.26
   0   5  -2   43.14    1.26
   0   5   2   43.46    1.22
   0   5  -2   41.78    1.23
   0   5   2   43.92    1.24
   0   5   2   44.09    1.28
   0   5   2   42.73    1.26
   0   5  -2   44.64    1.27
   0   5   2   44.37    1.26
   0   5  -2   43.51    1.22
   0   5   2   43.99    1.29
   0   5  -2   42.84    1.26
   0   5   2   44.99    1.27
   1  -5   2   40.01    1.18
   1  -5   2   39.03    1.17
   1  -5   2   38.86    1.15
  -1  -5  -2   39.47    1.17
   1  -5   2   39.72    1.20
  -1  -5  -2   39.03    1.13
  -1  -5  -2   40.59    1.14
   1  -5   2   38.47    1.14
   1   5   2   39.45    1.22
  -1   5  -2   39.60    1.19
   1   5   2   40.00    1.12
  -1   5  -2   37.67    1.15
   1   5   2   39.71    1.16
  -1   5  -2   39.86    1.15
   1   5   2   40.43    1.12
   1   5   2   40.28    1.13
  -1   5  -2   39.90    1.14
  -1   5  -2   40.06    1.16
   1   5   2   37.58    1.16
   1   5   2   39.17    1.18
   1   5   2   39.06    1.16
   1   5   2   39.45    1.16
   2  -5   2   21.38    0.70
  -2  -5  -2   21.91    0.68
  -2  -5  -2   21.30    0.63
  -2  -5  -2   21.10    0.64
   2  -5   2   20.36    0.66
   2  -5   2   20.82    0.67
  -2  -5  -2   21.73    0.65
   2  -5   2   21.24    0.72
  -2  -5  -2   21.69    0.66
   2  -5   2   20.77    0.63
  -2  -5  -2   20.50    0.62
   2  -5   2   21.99    0.65
   2   5   2   20.61    0.67
   2   5   2   21.24    0.69
   2   5   2   21.33    0.65
   2   5   2   21.10    0.66
   2   5   2   20.28    0.67
  -2   5  -2   21.38    0.73
   2   5   2   21.40    0.65
  -2   5  -2   20.90    0.67
  -2   5  -2   21.08    0.62
  -2   5  -2   22.14    0.66
   2   5   2   20.14    0.73
   2   5   2   20.83    0.66
  -2   5  -2   21.47    0.65
   2   5   2   22.39    0.63
  -2   5  -2   21.47    0.73
  -3  -5  -2    0.37    0.05
   3  -5   2    0.47    0.07
  -3  -5  -2    0.33    0.06
   3  -5   2    0.54    0.15
  -3  -5  -2    0.38    0.07
  -3  -5  -2    0.42    0.06
   3  -5   2    0.35    0.05
   3  -5   2    0.42    0.07
  -3  -5  -2    0.37    0.04
   3  -5   2    0.43    0.06
  -3   5  -2    0.54    0.11
   3   5   2    0.38    0.05
  -3   5  -2    0.28    0.08
   3   5   2    0.46    0.07
   3   5   2    0.40    0.08
  -3   5  -2    0.33    0.06
   3   5   2    0.43    0.07
  -3   5  -2    0.36    0.06
   3   5   2    0.37    0.06
  -3   5  -2    0.36    0.06
  -4  -5  -2   11.35    0.41
  -4  -5  -2   11.46    0.39
   4  -5   2   10.58    0.36
   4  -5   2   11.18    0.38
  -4  -5  -2   10.50    0.38
  -4  -5  -2   10.84    0.40
  -4  -5  -2   11.10    0.44
   4  -5   2   10.44    0.39
  -4  -5  -2   10.85    0.40
  -4   5  -2   11.77    0.42
  -4   5  -2   11.11    0.49
  -4   5  -2   10.99    0.37
   4   5   2   11.06    0.41
   4   5   2   11.25    0.37
  -4   5  -2   10.22    0.49
  -4   5  -2   10.84    0.40
   4   5   2   10.99    0.40
  -5  -5  -2    2.23    0.19
   5  -5   2    1.74    0.13
   5  -5   2    2.21    0.14
  -5  -5  -2    2.10    0.19
  -5  -5  -2    2.19    0.16
  -5  -5  -2    2.25    0.14
  -5  -5  -2    1.49    0.15
  -5   5  -2    2.06    0.15
  -5   5  -2    2.13    0.11
  -5   5  -2    1.93    0.16
   5   5   2    2.09    0.12
   5   5   2    2.20    0.16
  -5   5  -2    1.96    0.15
   5   5   2    1.98    0.15
   5   5   2    1.86    0.14
  -5   5  -2    1.86    0.23
  -5   5  -2    2.11    0.23
  -6  -5  -2   -0.01    0.05
   6  -5   2    0.06    0.04
  -6  -5  -2    0.02    0.03
  -6  -5  -2    0.06    0.07
   6   5   2   -0.01    0.05
  -6   5  -2    0.03    0.09
  -6   5  -2    0.00    0.04
  -6   5  -2   -0.04    0.09
  -6  -6   2    0.12    0.09
  -6  -6   2    0.11    0.07
  -6  -6   2    0.10    0.04
  -6   6   2    0.14    0.10
  -6   6   2    0.08    0.05
   6   6  -2    0.14    0.06
  -6   6   2    0.29    0.15
  -5  -6   2    4.76    0.27
  -5  -6   2    4.32    0.27
   5  -6  -2    4.92    0.24
  -5  -6   2    4.64    0.20
  -5  -6   2    4.50    0.24
   5  -6  -2    4.68    0.26
   5   6  -2    4.72    0.25
   5   6  -2    4.76    0.23
  -5   6   2    4.73    0.24
   5   6  -2    4.89    0.23
  -5   6   2    4.71    0.34
  -5   6   2    4.72    0.32
  -4  -6   2    8.50    0.30
   4  -6  -2    8.35    0.33
  -4  -6   2    8.01    0.36
  -4  -6   2    8.51    0.33
  -4  -6   2    8.45    0.37
   4  -6  -2    8.53    0.34
  -4  -6   2    8.49    0.31
   4  -6  -2    8.10    0.34
   4   6  -2    8.26    0.32
   4   6  -2    8.20    0.31
   4   6  -2    7.92    0.33
  -4   6   2    8.62    0.26
  -4   6   2    8.25    0.26
  -4   6   2    8.47    0.34
  -4   6   2    8.13    0.43
  -4   6   2    7.42    0.41
  -3  -6   2   11.77    0.39
  -3  -6   2   11.21    0.42
   3  -6  -2   10.81    0.41
   3  -6  -2   11.35    0.41
   3  -6  -2   11.87    0.42
  -3  -6   2   11.67    0.42
  -3  -6   2   11.48    0.40
  -3   6   2   10.41    0.49
   3   6  -2   11.48    0.40
   3   6  -2   11.19    0.38
  -3   6   2   12.23    0.42
  -3   6   2   11.57    0.37
   3   6  -2   11.33    0.36
  -3   6   2   11.23    0.43
  -3   6   2   10.96    0.49
   3   6  -2   10.94    0.41
  -2  -6   2    4.27    0.14
   2  -6  -2    4.46    0.21
  -2  -6   2    4.12    0.18
   2  -6  -2    4.30    0.20
  -2  -6   2    4.42    0.19
  -2  -6   2    4.41    0.19
  -2  -6   2    4.33    0.16
  -2  -6   2    4.19    0.16
  -2  -6   2    3.91    0.20
  -2   6   2    4.09    0.20
   2   6  -2    4.35    0.18
   2   6  -2    4.32    0.19
   2   6  -2    4.63    0.22
   2   6  -2    4.30    0.16
   2   6  -2    4.38    0.18
  -2   6   2    4.02    0.25
  -2   6   2    4.00    0.18
  -1  -6   2   24.96    0.72
   1  -6  -2   24.09    0.77
   1  -6  -2   24.20    0.76
  -1  -6   2   24.58    0.71
  -1  -6   2   23.94    0.68
   1  -6  -2   25.56    0.77
  -1  -6   2   24.56    0.69
  -1  -6   2   25.25    0.75
   1  -6  -2   24.62    0.79
  -1  -6   2   25.48    0.75
  -1  -6   2   24.41    0.76
  -1  -6   2   24.26    0.75
  -1  -6   2   25.13    0.69
   1   6  -2   24.37    0.77
  -1   6   2   23.17    0.76
  -1   6   2   24.84    0.75
   1   6  -2   23.57    0.75
   1   6  -2   24.07    0.72
  -1   6   2   23.78    0.81
   1   6  -2   24.34    0.71
   1   6  -2   23.64    0.77
  -1   6   2   24.55    0.74
  -1   6   2   24.39    0.78
   1   6  -2   24.41    0.74
   0  -6   2   19.58    0.63
   0  -6  -2   20.77    0.67
   0  -6   2   21.78    0.62
   0  -6   2   20.97    0.59
   0  -6   2   20.45    0.62
   0  -6   2   20.46    0.58
   0  -6  -2   20.27    0.63
   0  -6  -2   20.08    0.63
   0  -6   2   20.41    0.59
   0  -6  -2   18.04    0.66
   0  -6  -2   19.51    0.65
   0  -6   2   20.59    0.65
   0  -6   2   20.99    0.68
   0   6   2   19.88    0.64
   0   6   2   19.94    0.61
   0   6  -2   20.71    0.64
   0   6   2   20.42    0.60
   0   6  -2   19.62    0.62
   0   6   2   20.82    0.66
   0   6   2   20.21    0.68
   0   6  -2   20.43    0.68
   0   6   2   20.26    0.67
   0   6  -2   20.00    0.60
   0   6   2   20.09    0.62
   0   6  -2   20.66    0.66
   0   6  -2   20.15    0.61
   0   6  -2   19.52    0.64
  -1  -6  -2    0.03    0.03
   1  -6   2    0.03    0.03
   1  -6   2    0.07    0.04
   1  -6   2    0.11    0.05
   1  -6   2    0.06    0.04
  -1  -6  -2    0.08    0.04
   1  -6   2    0.04    0.02
  -1  -6  -2   -0.07    0.04
   1  -6   2    0.00    0.02
  -1  -6  -2    0.04    0.02
   1   6   2    0.03    0.02
  -1   6  -2    0.10    0.06
  -1   6  -2    0.11    0.06
   1   6   2    0.01    0.02
   1   6   2    0.09    0.04
   1   6   2    0.10    0.06
  -1   6  -2    0.08    0.03
   1   6   2    0.07    0.04
   1   6   2    0.03    0.03
  -1   6  -2    0.04    0.03
  -1   6  -2    0.02    0.02
  -1   6  -2    0.09    0.04
   1   6   2    0.08    0.04
  -2  -6  -2   15.93    0.51
  -2  -6  -2   16.68    0.52
   2  -6   2   16.15    0.51
   2  -6   2   15.39    0.53
   2  -6   2   15.54    0.49
  -2  -6  -2   15.67    0.52
   2  -6   2   15.44    0.56
  -2  -6  -2   15.03    0.54
  -2  -6  -2   15.68    0.51
  -2  -6  -2   15.64    0.60
  -2   6  -2   16.09    0.51
  -2   6  -2   15.20    0.60
   2   6   2   15.78    0.51
   2   6   2   16.09    0.49
   2   6   2   15.95    0.53
   2   6   2   16.12    0.51
  -2   6  -2   15.05    0.59
  -2   6  -2   15.37    0.52
   2   6   2   16.35    0.52
   3  -6   2   10.39    0.35
  -3  -6  -2    9.97    0.38
  -3  -6  -2   10.65    0.36
  -3  -6  -2    9.98    0.38
   3  -6   2   10.17    0.38
   3  -6   2   10.68    0.36
  -3  -6  -2   10.02    0.36
  -3  -6  -2   10.27    0.39
  -3  -6  -2   10.65    0.37
  -3  -6  -2   10.29    0.44
   3   6   2   10.47    0.37
   3   6   2    9.92    0.38
   3   6   2   10.76    0.35
  -3   6  -2   10.20    0.47
  -3   6  -2    9.56    0.46
  -3   6  -2   10.12    0.36
  -3   6  -2   10.45    0.39
  -4  -6  -2    1.05    0.14
  -4  -6  -2    1.20    0.12
  -4  -6  -2    0.92    0.11
   4  -6   2    1.31    0.10
  -4  -6  -2    1.17    0.10
  -4  -6  -2    1.04    0.10
   4  -6   2    1.26    0.11
   4  -6   2    1.23    0.10
  -4  -6  -2    1.19    0.13
   4   6   2    1.41    0.10
  -4   6  -2    1.18    0.18
  -4   6  -2    1.46    0.14
  -4   6  -2    1.03    0.17
   4   6   2    1.26    0.11
  -4   6  -2    1.20    0.09
   4   6   2    1.12    0.12
  -5  -6  -2    1.91    0.13
  -5  -6  -2    1.76    0.17
   5  -6   2    1.95    0.15
  -5  -6  -2    1.64    0.17
   5  -6   2    1.88    0.13
  -5  -6  -2    1.51    0.19
  -5   6  -2    1.73    0.14
  -5   6  -2    1.57    0.15
   5   6   2    1.73    0.14
  -5   6  -2    2.17    0.25
   5   6   2    1.94    0.15
  -5   6  -2    1.62    0.10
  -5   6  -2    1.61    0.24
   5   6   2    1.88    0.12
  -6  -6  -2    1.63    0.21
  -6  -6  -2    1.81    0.14
  -6  -6  -2    1.52    0.17
  -6   6  -2    1.84    0.16
   6   6   2    1.88    0.16
  -5  -7   2    0.87    0.15
  -5  -7   2    1.07    0.16
  -5  -7   2    0.95    0.13
   5   7  -2    0.51    0.08
  -5   7   2    0.80    0.18
  -5   7   2    0.75    0.16
  -5   7   2    0.80    0.11
   5   7  -2    0.88    0.10
   4  -7  -2    2.81    0.17
  -4  -7   2    2.61    0.17
   4  -7  -2    2.73    0.18
  -4  -7   2    2.30    0.18
  -4  -7   2    2.48    0.19
  -4  -7   2    2.31    0.15
  -4   7   2    2.57    0.14
   4   7  -2    2.83    0.15
  -4   7   2    2.88    0.25
  -4   7   2    2.70    0.11
  -4   7   2    2.73    0.18
  -4   7   2    2.61    0.26
   4   7  -2    2.39    0.15
  -4   7   2    2.34    0.11
   4   7  -2    2.72    0.19
  -3  -7   2   12.21    0.47
   3  -7  -2   12.49    0.46
  -3  -7   2   12.42    0.43
  -3  -7   2   12.17    0.43
   3  -7  -2   12.72    0.46
  -3  -7   2   12.02    0.46
   3   7  -2   12.26    0.40
  -3   7   2   12.81    0.46
   3   7  -2   12.55    0.47
  -3   7   2   12.78    0.41
  -3   7   2   11.13    0.52
   3   7  -2   12.49    0.44
   3   7  -2   13.25    0.43
  -3   7   2   12.23    0.43
  -3   7   2   12.03    0.47
  -2  -7   2    7.32    0.26
  -2  -7   2    8.28    0.29
  -2  -7   2    7.87    0.32
  -2  -7   2    8.11    0.25
  -2  -7   2    8.30    0.31
   2  -7  -2    8.05    0.33
  -2  -7   2    7.94    0.27
   2  -7  -2    8.76    0.34
   2   7  -2    8.41    0.37
   2   7  -2    7.76    0.34
   2   7  -2    8.17    0.29
  -2   7   2    8.07    0.30
  -2   7   2    7.78    0.39
  -2   7   2    8.50    0.34
   2   7  -2    8.23    0.31
   2   7  -2    7.96    0.28
  -2   7   2    7.91    0.30
  -1  -7   2   10.15    0.38
  -1  -7   2    9.98    0.37
  -1  -7   2   11.05    0.35
  -1  -7   2   10.66    0.32
  -1  -7   2   11.20    0.38
   1  -7  -2   10.32    0.42
  -1  -7   2   10.16    0.34
  -1  -7   2   10.68    0.39
   1  -7  -2   10.42    0.40
  -1   7   2   10.74    0.38
   1   7  -2   10.26    0.41
  -1   7   2   10.27    0.44
   1   7  -2   10.57    0.37
   1   7  -2   10.42    0.36
   1   7  -2   10.61    0.34
  -1   7   2   10.46    0.36
   1   7  -2   10.90    0.41
  -1   7   2   11.14    0.41
   0  -7   2    1.80    0.13
   0  -7   2    1.64    0.12
   0  -7  -2    1.77    0.14
   0  -7   2    1.90    0.09
   0  -7  -2    1.88    0.13
   0  -7   2    1.85    0.11
   0  -7   2    1.91    0.15
   0   7   2    1.69    0.12
   0   7  -2    1.85    0.11
   0   7   2    1.94    0.11
   0   7   2    1.86    0.18
   0   7  -2    1.88    0.13
   0   7   2    1.90    0.11
   0   7   2    2.00    0.15
   0   7   2    1.96    0.14
   0   7  -2    1.87    0.16
  -1  -7  -2   23.98    0.78
   1  -7   2   24.13    0.79
   1  -7   2   23.79    0.71
   1  -7   2   22.63    0.74
   1  -7   2   25.14    0.72
   1  -7   2   22.63    0.79
  -1  -7  -2   24.14    0.76
  -1  -7  -2   23.53    0.70
   1   7   2   24.40    0.74
  -1   7  -2   23.66    0.83
  -1   7  -2   24.50    0.74
  -1   7  -2   23.55    0.76
   1   7   2   23.77    0.71
   1   7   2   23.45    0.77
   1   7   2   23.47    0.72
   1   7   2   23.73    0.76
   2  -7   2    1.32    0.10
  -2  -7  -2    1.02    0.10
   2  -7   2    1.16    0.13
  -2  -7  -2    1.25    0.12
  -2  -7  -2    1.33    0.11
  -2  -7  -2    1.19    0.09
  -2  -7  -2    1.07    0.16
   2  -7   2    1.35    0.09
   2  -7   2    1.37    0.13
  -2   7  -2    1.05    0.16
  -2   7  -2    1.22    0.10
  -2   7  -2    0.91    0.11
   2   7   2    1.22    0.10
  -2   7  -2    1.34    0.17
   2   7   2    1.23    0.09
   2   7   2    1.21    0.11
   2   7   2    1.33    0.09
  -2   7  -2    1.20    0.10
   3  -7   2    3.91    0.19
  -3  -7  -2    3.46    0.23
   3  -7   2    3.97    0.22
  -3  -7  -2    3.96    0.19
   3  -7   2    4.01    0.18
  -3  -7  -2    3.59    0.20
  -3  -7  -2    4.07    0.19
  -3  -7  -2    3.82    0.20
  -3  -7  -2    3.82    0.20
  -3  -7  -2    3.60    0.18
  -3   7  -2    3.43    0.20
  -3   7  -2    3.97    0.19
   3   7   2    3.94    0.17
  -3   7  -2    3.87    0.27
   3   7   2    3.66    0.20
  -3   7  -2    3.12    0.27
   3   7   2    4.09    0.19
  -4  -7  -2    4.14    0.21
  -4  -7  -2    3.74    0.18
  -4  -7  -2    3.93    0.23
   4  -7   2    3.91    0.19
  -4  -7  -2    4.10    0.20
  -4  -7  -2    3.73    0.23
   4  -7   2    3.62    0.19
  -4  -7  -2    3.61    0.17
   4  -7   2    4.03    0.22
   4   7   2    4.33    0.22
  -4   7  -2    3.95    0.31
  -4   7  -2    3.70    0.18
   4   7   2    4.41    0.19
  -4   7  -2    3.55    0.29
  -4   7  -2    4.25    0.23
   4   7   2    4.03    0.20
  -5  -7  -2    2.35    0.21
  -5  -7  -2    2.57    0.18
  -5  -7  -2    2.68    0.16
  -5  -7  -2    2.32    0.22
  -5   7  -2    2.28    0.29
   5   7   2    2.50    0.18
   5   7   2    2.20    0.14
  -5   7  -2    2.66    0.31
  -5  -8   2    1.70    0.20
  -5  -8   2    1.41    0.16
  -5   8   2    1.67    0.17
   5   8  -2    1.61    0.14
  -4  -8   2    5.70    0.26
  -4  -8   2    5.02    0.30
  -4  -8   2    5.37    0.26
   4  -8  -2    5.43    0.26
   4   8  -2    5.45    0.24
   4   8  -2    5.55    0.26
  -4   8   2    5.49    0.20
  -4   8   2    5.11    0.27
  -4   8   2    4.99    0.34
  -4   8   2    5.60    0.24
  -3  -8   2    0.06    0.06
   3  -8  -2    0.05    0.05
   3  -8  -2    0.06    0.05
  -3  -8   2    0.02    0.04
  -3  -8   2    0.01    0.03
   3   8  -2    0.02    0.03
   3   8  -2    0.12    0.05
   3   8  -2    0.09    0.03
  -3   8   2    0.05    0.05
  -3   8   2    0.05    0.04
  -3   8   2    0.06    0.09
  -3   8   2    0.07    0.05
  -3   8   2    0.05    0.03
  -2  -8   2    9.53    0.31
   2  -8  -2   10.17    0.41
  -2  -8   2    9.41    0.31
  -2  -8   2    9.67    0.29
   2  -8  -2    9.36    0.38
  -2  -8   2    9.69    0.38
  -2  -8   2    9.68    0.37
  -2   8   2    9.67    0.36
  -2   8   2    9.55    0.39
  -2   8   2    9.12    0.45
   2   8  -2    9.20    0.34
   2   8  -2    9.76    0.36
  -2   8   2    8.73    0.42
  -2   8   2    9.56    0.35
   2   8  -2    9.66    0.33
   1  -8  -2    7.02    0.31
  -1  -8   2    7.13    0.30
   1  -8  -2    6.85    0.34
  -1  -8   2    6.96    0.30
  -1  -8   2    6.90    0.29
  -1  -8   2    7.39    0.22
  -1  -8   2    6.90    0.29
  -1   8   2    7.83    0.38
   1   8  -2    7.03    0.27
  -1   8   2    7.10    0.28
  -1   8   2    7.67    0.32
   1   8  -2    7.36    0.26
  -1   8   2    7.05    0.30
   1   8  -2    6.64    0.31
  -1   8   2    7.05    0.36
   1   8  -2    7.13    0.29
   0  -8   2    7.24    0.28
   0  -8  -2    6.74    0.30
   0  -8  -2    6.97    0.33
   0  -8   2    7.06    0.24
   0  -8   2    6.95    0.30
   0  -8   2    6.96    0.29
   0   8   2    7.17    0.34
   0   8   2    7.09    0.30
   0   8  -2    7.11    0.28
   0   8   2    7.35    0.28
   0   8   2    6.84    0.27
   0   8  -2    7.18    0.35
  -1  -8  -2   12.12    0.44
   1  -8   2   12.04    0.43
   1  -8   2   11.26    0.45
   1  -8   2   12.35    0.40
   1  -8   2   11.37    0.38
  -1  -8  -2   11.96    0.46
   1  -8   2   10.54    0.47
   1   8   2   11.82    0.39
   1   8   2   12.23    0.45
  -1   8  -2   11.05    0.42
   1   8   2   12.09    0.42
   1   8   2   11.39    0.45
  -1   8  -2   11.84    0.44
   1   8   2   12.02    0.41
  -1   8  -2   12.28    0.51
  -2  -8  -2    4.46    0.24
   2  -8   2    4.41    0.22
  -2  -8  -2    4.30    0.22
   2  -8   2    4.70    0.20
  -2  -8  -2    4.43    0.22
  -2  -8  -2    4.31    0.20
   2  -8   2    4.56    0.19
   2  -8   2    4.42    0.26
  -2   8  -2    4.87    0.22
  -2   8  -2    4.85    0.31
   2   8   2    4.26    0.22
   2   8   2    4.46    0.19
   2   8   2    4.50    0.21
  -2   8  -2    4.62    0.23
  -3  -8  -2    3.28    0.22
   3  -8   2    3.33    0.17
  -3  -8  -2    3.32    0.20
   3  -8   2    3.40    0.22
  -3  -8  -2    3.70    0.19
  -3  -8  -2    3.56    0.20
  -3  -8  -2    3.23    0.18
   3  -8   2    3.53    0.19
   3   8   2    3.42    0.18
  -3   8  -2    3.68    0.29
  -3   8  -2    3.02    0.26
   3   8   2    3.24    0.19
   3   8   2    3.70    0.17
  -3   8  -2    3.54    0.19
  -4  -8  -2    2.37    0.15
   4  -8   2    2.22    0.15
  -4  -8  -2    2.39    0.18
  -4  -8  -2    2.32    0.16
  -4   8  -2    2.15    0.26
   4   8   2    2.25    0.14
  -4   8  -2    2.38    0.14
   4   8   2    2.42    0.17
  -4   8  -2    2.59    0.30
  -4  -9   2    1.59    0.20
   4  -9  -2    2.06    0.16
   4   9  -2    2.13    0.16
  -4   9   2    2.27    0.18
   3  -9  -2    9.18    0.38
  -3  -9   2    9.65    0.38
  -3  -9   2    9.09    0.41
  -3   9   2    8.68    0.40
  -3   9   2    8.38    0.34
   3   9  -2    9.42    0.37
   3   9  -2    8.92    0.34
  -3   9   2    8.92    0.35
  -3   9   2    8.12    0.43
  -3   9   2    9.20    0.48
   2  -9  -2    3.37    0.20
  -2  -9   2    3.05    0.19
   2  -9  -2    3.14    0.23
  -2  -9   2    3.30    0.21
  -2  -9   2    3.14    0.11
  -2   9   2    2.64    0.23
  -2   9   2    3.30    0.18
  -2   9   2    3.25    0.18
   2   9  -2    3.40    0.17
   2   9  -2    3.59    0.19
   2   9  -2    3.07    0.16
  -2   9   2    3.07    0.26
  -1  -9   2    2.61    0.18
  -1  -9   2    2.84    0.16
   1  -9  -2    2.80    0.18
  -1  -9   2    2.57    0.17
  -1  -9   2    2.69    0.17
   1   9  -2    2.89    0.14
  -1   9   2    2.64    0.24
  -1   9   2    2.63    0.16
  -1   9   2    2.29    0.23
   1   9  -2    2.69    0.17
  -1   9   2    2.52    0.17
   1   9  -2    2.92    0.16
   0  -9   2    8.81    0.36
   0  -9   2    8.83    0.37
   0  -9   2    8.88    0.35
   0  -9  -2    9.05    0.37
   0  -9   2    8.99    0.30
   0   9   2    9.20    0.35
   0   9   2    9.51    0.38
   0   9  -2    9.34    0.35
   0   9  -2    9.44    0.43
   0   9   2    8.13    0.40
  -1  -9  -2    0.08    0.05
   1  -9   2    0.07    0.05
   1  -9   2    0.17    0.06
  -1  -9  -2    0.05    0.05
   1  -9   2    0.07    0.05
  -1  -9  -2    0.22    0.06
   1  -9   2    0.15    0.04
   1   9   2    0.11    0.05
   1   9   2    0.09    0.06
   1   9   2    0.12    0.04
   1   9   2    0.11    0.05
  -1   9  -2    0.08    0.05
  -1   9  -2    0.05    0.07
   2  -9   2    6.61    0.26
  -2  -9  -2    6.37    0.30
  -2  -9  -2    6.39    0.29
  -2  -9  -2    6.46    0.31
   2  -9   2    6.59    0.35
   2  -9   2    6.51    0.25
   2  -9   2    6.42    0.29
  -2   9  -2    6.34    0.28
   2   9   2    6.16    0.25
   2   9   2    6.29    0.27
  -2   9  -2    6.33    0.29
  -2   9  -2    6.84    0.39
   2   9   2    6.78    0.29
  -3  -9  -2    1.10    0.14
  -3  -9  -2    1.06    0.12
   3  -9   2    1.18    0.13
  -3  -9  -2    0.98    0.13
  -3  -9  -2    1.05    0.11
   3   9   2    1.02    0.10
   3   9   2    0.96    0.12
  -3   9  -2    0.85    0.18
  -3   9  -2    0.95    0.11
   2 -10  -2    1.67    0.15
  -2 -10   2    1.44    0.14
  -2 -10   2    1.50    0.17
   2  10  -2    1.63    0.12
   2  10  -2    1.65    0.16
  -2  10   2    1.47    0.21
  -2  10   2    1.65    0.21
  -2  10   2    1.63    0.13
   1 -10  -2    2.72    0.19
  -1 -10   2    2.57    0.16
  -1 -10   2    2.71    0.18
  -1 -10   2    2.74    0.17
  -1 -10   2    3.38    0.21
   1  10  -2    3.05    0.18
  -1  10   2    2.43    0.25
  -1  10   2    2.94    0.18
  -1  10   2    3.07    0.19
   0 -10   2    2.65    0.18
   0 -10   2    2.60    0.18
   0 -10   2    2.72    0.18
   0 -10  -2    2.83    0.19
   0 -10   2    2.77    0.12
   0 -10  -2    2.71    0.18
   0  10  -2    3.06    0.18
   0  10   2    2.69    0.17
   0  10  -2    2.36    0.24
   0  10   2    2.69    0.23
   1 -10   2    5.61    0.30
  -1 -10  -2    5.60    0.28
  -1 -10  -2    5.41    0.27
   1 -10   2    5.96    0.26
   1 -10   2    5.82    0.28
  -1 -10  -2    5.27    0.30
   1 -10   2    5.42    0.28
  -1  10  -2    5.49    0.35
   1  10   2    5.32    0.26
  -1  10  -2    5.58    0.26
   2 -10   2    1.55    0.14
  -2 -10  -2    1.50    0.15
  -2 -10  -2    1.42    0.13
  -2 -10  -2    1.25    0.15
  -2  10  -2    1.53    0.16
  -2  10  -2    1.67    0.23
   2  10   2    1.57    0.16
  -7   0   3    0.02    0.08
  -7   0   3   -0.09    0.07
  -7   0   3   -0.01    0.02
   7   0  -3   -0.07    0.05
   7   0  -3    0.00    0.04
  -7   0   3   -0.02    0.05
  -6   0   3   -0.02    0.05
  -6   0   3   -0.01    0.02
   6   0  -3    0.00    0.03
   6   0  -3    0.01    0.04
  -6   0   3   -0.03    0.04
  -6   0   3    0.02    0.06
   6   0  -3    0.01    0.04
  -5   0   3   -0.01    0.02
   5   0  -3    0.00    0.02
  -5   0   3   -0.02    0.03
  -5   0   3    0.00    0.05
   5   0  -3    0.01    0.02
  -5   0   3   -0.02    0.04
  -5   0   3    0.02    0.05
   5   0  -3   -0.01    0.04
   4   0  -3    0.01    0.06
   4   0  -3    0.00    0.01
   4   0  -3    0.05    0.03
  -4   0   3    0.00    0.01
  -4   0   3   -0.01    0.04
   4   0  -3    0.01    0.01
  -4   0   3   -0.04    0.03
  -4   0   3    0.01    0.03
  -4   0   3   -0.03    0.04
  -3   0   3   -0.01    0.02
  -3   0   3    0.02    0.03
  -3   0   3   -0.01    0.01
  -3   0   3   -0.01    0.02
  -3   0   3    0.01    0.03
   3   0  -3   -0.01    0.02
  -2   0   3   -0.04    0.01
   2   0  -3   -0.05    0.02
   2   0  -3   -0.05    0.02
  -2   0   3   -0.04    0.02
  -2   0   3   -0.04    0.02
  -2   0   3   -0.04    0.02
  -2   0   3   -0.06    0.02
  -2   0   3   -0.05    0.02
  -1   0   3    0.00    0.02
   1   0  -3    0.01    0.02
  -1   0   3    0.01    0.00
  -1   0   3    0.02    0.02
   1   0  -3   -0.03    0.01
  -1   0   3    0.01    0.02
  -1   0   3    0.01    0.02
   0   0   3   -0.08    0.02
   0   0  -3   -0.08    0.01
   0   0  -3   -0.08    0.01
   0   0  -3   -0.09    0.01
   0   0   3   -0.09    0.01
   0   0  -3   -0.10    0.01
   0   0  -3   -0.09    0.01
   0   0  -3   -0.09    0.01
   0   0   3   -0.09    0.01
   0   0  -3   -0.08    0.02
   0   0   3   -0.09    0.00
   0   0   3   -0.10    0.01
   0   0  -3   -0.08    0.02
   0   0  -3   -0.09    0.01
   0   0   3   -0.09    0.01
   0   0  -3   -0.09    0.01
   0   0   3   -0.09    0.01
   0   0  -3   -0.08    0.01
   0   0  -3   -0.12    0.01
  -1   0  -3    0.01    0.02
  -1   0  -3   -0.02    0.01
  -1   0  -3   -0.01    0.01
   1   0   3   -0.02    0.01
  -1   0  -3    0.00    0.01
   1   0   3    0.00    0.01
   1   0   3   -0.02    0.01
   1   0   3   -0.01    0.01
   1   0   3   -0.01    0.01
  -1   0  -3   -0.01    0.01
   1   0   3    0.02    0.01
  -1   0  -3   -0.01    0.01
  -1   0  -3    0.01    0.01
   1   0   3    0.00    0.01
   1   0   3   -0.02    0.02
  -1   0  -3    0.00    0.02
  -1   0  -3   -0.03    0.01
  -1   0  -3    0.00    0.01
   2   0   3    0.00    0.01
  -2   0  -3    0.01    0.03
  -2   0  -3   -0.01    0.01
   2   0   3   -0.02    0.01
   2   0   3    0.02    0.03
   2   0   3   -0.01    0.01
  -2   0  -3    0.01    0.01
  -2   0  -3    0.00    0.01
  -2   0  -3    0.01    0.03
   2   0   3    0.00    0.02
   2   0   3    0.00    0.01
   2   0   3    0.00    0.01
  -2   0  -3    0.01    0.04
   2   0   3    0.02    0.02
  -2   0  -3    0.00    0.02
  -2   0  -3   -0.01    0.01
  -2   0  -3   -0.01    0.01
  -2   0  -3    0.01    0.01
   3   0   3    0.01    0.03
  -3   0  -3   -0.01    0.02
   3   0   3    0.00    0.02
  -3   0  -3   -0.01    0.01
  -3   0  -3    0.06    0.04
   3   0   3    0.01    0.02
   3   0   3    0.00    0.02
   3   0   3   -0.02    0.02
   3   0   3    0.00    0.02
   3   0   3    0.00    0.02
   3   0   3    0.00    0.01
  -3   0  -3   -0.01    0.04
   3   0   3    0.00    0.02
   3   0   3   -0.02    0.02
  -3   0  -3   -0.02    0.04
  -3   0  -3   -0.01    0.03
   4   0   3   -0.01    0.02
   4   0   3    0.01    0.02
  -4   0  -3    0.01    0.02
   4   0   3   -0.03    0.03
  -4   0  -3   -0.05    0.05
  -4   0  -3    0.00    0.02
  -4   0  -3    0.03    0.04
   4   0   3   -0.04    0.02
   4   0   3   -0.01    0.02
  -4   0  -3    0.02    0.07
  -4   0  -3   -0.03    0.03
   4   0   3    0.00    0.02
  -5   0  -3    0.00    0.03
   5   0   3   -0.02    0.02
   5   0   3    0.00    0.04
   5   0   3   -0.04    0.03
  -5   0  -3    0.08    0.07
  -5   0  -3   -0.02    0.05
   5   0   3    0.04    0.03
  -5   0  -3    0.01    0.09
  -6   0  -3    0.04    0.05
   6   0   3    0.00    0.04
  -6   0  -3   -0.06    0.08
   6   0   3   -0.02    0.03
  -6   0  -3    0.02    0.04
   6   0   3    0.02    0.05
  -6   0  -3   -0.04    0.07
  -7   0  -3    0.02    0.06
  -7   0  -3    0.12    0.12
  -7   0  -3    0.01    0.05
  -7   0  -3   -0.10    0.08
  -7  -1   3    0.13    0.04
   7  -1  -3    0.12    0.05
  -7  -1   3    0.18    0.10
   7  -1  -3    0.13    0.07
  -7  -1   3    0.10    0.07
  -7   1   3    0.16    0.05
  -7   1   3    0.09    0.09
   7   1  -3    0.11    0.05
   7   1  -3    0.07    0.04
  -7   1   3    0.14    0.06
   7   1  -3    0.19    0.08
  -7   1   3    0.25    0.11
  -6  -1   3    0.62    0.10
   6  -1  -3    0.91    0.12
   6  -1  -3    0.67    0.08
  -6  -1   3    0.73    0.15
  -6  -1   3    0.83    0.13
  -6  -1   3    0.69    0.06
   6   1  -3    0.81    0.12
  -6   1   3    0.69    0.13
  -6   1   3    0.55    0.13
  -6   1   3    0.63    0.10
  -6   1   3    0.55    0.07
   6   1  -3    0.93    0.12
   6   1  -3    0.70    0.07
  -5  -1   3    8.57    0.37
  -5  -1   3    8.91    0.40
   5  -1  -3    8.85    0.30
  -5  -1   3    8.65    0.29
   5  -1  -3    8.90    0.35
  -5  -1   3    8.60    0.34
   5  -1  -3    9.05    0.28
   5   1  -3    8.74    0.36
  -5   1   3    8.54    0.33
   5   1  -3    8.63    0.29
  -5   1   3    8.85    0.34
  -5   1   3    8.74    0.29
  -5   1   3    9.18    0.40
   5   1  -3    8.39    0.34
   5   1  -3    8.94    0.28
  -5   1   3    8.46    0.39
  -4  -1   3    3.96    0.14
  -4  -1   3    3.86    0.22
   4  -1  -3    4.01    0.13
  -4  -1   3    4.10    0.19
  -4  -1   3    4.13    0.20
  -4  -1   3    3.98    0.14
   4  -1  -3    3.87    0.19
   4  -1  -3    4.02    0.15
   4   1  -3    3.99    0.13
   4   1  -3    4.14    0.18
  -4   1   3    4.03    0.18
  -4   1   3    4.07    0.15
  -4   1   3    3.59    0.21
  -4   1   3    3.97    0.22
  -4   1   3    4.04    0.19
  -3  -1   3   11.39    0.40
  -3  -1   3   10.51    0.32
  -3  -1   3   10.57    0.32
   3  -1  -3   10.76    0.32
   3  -1  -3   10.07    0.36
  -3  -1   3   10.86    0.36
  -3  -1   3   11.18    0.37
  -3   1   3   10.67    0.35
  -3   1   3   10.77    0.37
   3   1  -3   11.01    0.37
  -3   1   3   10.93    0.40
  -3   1   3   10.88    0.33
   3   1  -3   10.70    0.35
   3   1  -3   11.34    0.30
  -3   1   3   10.72    0.39
  -2  -1   3   14.22    0.45
  -2  -1   3   15.10    0.48
  -2  -1   3   14.01    0.44
  -2  -1   3   14.76    0.45
  -2  -1   3   14.53    0.44
   2  -1  -3   15.01    0.45
   2  -1  -3   15.11    0.41
  -2  -1   3   14.45    0.41
  -2   1   3   15.16    0.47
   2   1  -3   14.69    0.49
  -2   1   3   14.60    0.43
   2   1  -3   14.62    0.43
  -2   1   3   14.83    0.47
   2   1  -3   15.21    0.44
   2   1  -3   14.88    0.44
  -2   1   3   14.62    0.44
  -1  -1   3    2.93    0.11
   1  -1  -3    3.08    0.13
   1  -1  -3    2.90    0.09
  -1  -1   3    2.94    0.09
  -1  -1   3    3.13    0.13
   1  -1  -3    2.90    0.10
   1  -1  -3    3.00    0.09
   1  -1  -3    3.04    0.09
   1  -1  -3    2.81    0.09
  -1  -1   3    2.89    0.09
  -1  -1   3    2.97    0.11
  -1  -1   3    2.95    0.11
   1  -1  -3    2.92    0.13
  -1   1   3    3.04    0.11
  -1   1   3    2.88    0.13
  -1   1   3    2.98    0.11
   1   1  -3    2.83    0.09
   1   1  -3    2.86    0.15
  -1   1   3    2.93    0.11
  -1   1   3    2.82    0.09
   1   1  -3    2.45    0.10
  -1   1   3    2.86    0.09
  -1   1   3    2.98    0.10
  -1   1   3    2.95    0.12
   1   1  -3    2.99    0.11
   1   1  -3    2.86    0.09
   0  -1  -3   11.10    0.33
   0  -1  -3   11.29    0.35
   0  -1   3   10.58    0.32
   0  -1  -3   10.98    0.32
   0  -1   3   11.10    0.33
   0  -1   3   11.44    0.34
   0  -1  -3   10.96    0.33
   0  -1  -3   11.42    0.32
   0  -1   3   11.31    0.33
   0  -1  -3   11.28    0.33
   0  -1   3   11.60    0.41
   0  -1  -3   10.73    0.32
   0  -1  -3   11.24    0.33
   0  -1  -3   10.99    0.32
   0  -1   3   11.27    0.32
   0  -1   3   11.35    0.32
   0  -1  -3   11.13    0.35
   0  -1   3   11.61    0.33
   0  -1   3   10.83    0.31
   0  -1  -3   11.67    0.34
   0   1  -3   11.25    0.32
   0   1  -3   11.31    0.33
   0   1   3   11.16    0.32
   0   1  -3   11.00    0.32
   0   1  -3   10.86    0.33
   0   1  -3   11.37    0.32
   0   1  -3   11.69    0.32
   0   1   3   11.32    0.32
   0   1   3   10.88    0.33
   0   1   3   11.56    0.35
   0   1  -3   11.49    0.42
   0   1   3   11.19    0.33
   0   1   3   11.38    0.32
   0   1   3   11.21    0.32
   0   1   3   11.73    0.33
   0   1  -3    9.98    0.32
   0   1   3   11.38    0.33
   0   1  -3   11.38    0.34
   0   1  -3   11.30    0.33
   0   1   3   11.25    0.33
   1  -1   3    6.15    0.21
   1  -1   3    6.39    0.21
   1  -1   3    6.64    0.20
  -1  -1  -3    6.25    0.22
   1  -1   3    6.46    0.20
  -1  -1  -3    5.97    0.20
   1  -1   3    6.25    0.22
  -1  -1  -3    6.34    0.22
   1  -1   3    6.57    0.20
  -1  -1  -3    6.53    0.24
  -1  -1  -3    6.38    0.20
  -1  -1  -3    6.33    0.20
  -1  -1  -3    6.41    0.21
  -1  -1  -3    5.97    0.20
  -1  -1  -3    6.56    0.27
   1  -1   3    6.39    0.19
  -1  -1  -3    6.13    0.20
  -1  -1  -3    6.56    0.21
  -1   1  -3    6.03    0.20
   1   1   3    6.59    0.21
   1   1   3    6.18    0.20
  -1   1  -3    6.58    0.21
  -1   1  -3    6.39    0.23
   1   1   3    6.68    0.20
  -1   1  -3    6.50    0.21
   1   1   3    6.25    0.20
  -1   1  -3    6.71    0.33
   1   1   3    6.43    0.21
  -1   1  -3    6.71    0.21
  -1   1  -3    6.30    0.21
  -1   1  -3    6.45    0.20
   1   1   3    6.38    0.20
  -1   1  -3    6.09    0.20
   2  -1   3   24.80    0.72
   2  -1   3   24.92    0.71
   2  -1   3   23.67    0.70
  -2  -1  -3   24.06    0.70
   2  -1   3   26.68    0.87
  -2  -1  -3   24.48    0.76
   2  -1   3   24.04    0.71
   2  -1   3   24.88    0.71
   2  -1   3   24.38    0.75
  -2  -1  -3   24.70    0.71
  -2  -1  -3   24.59    0.70
  -2  -1  -3   23.96    0.71
  -2  -1  -3   24.45    0.75
  -2  -1  -3   24.59    0.70
   2  -1   3   23.63    0.71
  -2  -1  -3   25.59    0.82
   2  -1   3   24.14    0.72
  -2   1  -3   24.36    0.77
   2   1   3   25.53    0.71
   2   1   3   24.47    0.80
   2   1   3   25.01    0.71
  -2   1  -3   24.19    0.76
  -2   1  -3   24.78    0.70
   2   1   3   25.54    0.73
  -2   1  -3   23.74    0.69
   2   1   3   25.65    0.75
   2   1   3   25.05    0.71
  -2   1  -3   23.55    0.93
  -2   1  -3   24.51    0.72
   2   1   3   24.98    0.72
  -2   1  -3   24.90    0.71
   2   1   3   24.73    0.70
  -3  -1  -3    2.57    0.11
  -3  -1  -3    2.59    0.22
  -3  -1  -3    2.49    0.12
  -3  -1  -3    2.65    0.16
   3  -1   3    2.68    0.11
   3  -1   3    2.64    0.12
  -3  -1  -3    2.48    0.10
  -3  -1  -3    2.37    0.15
   3  -1   3    2.55    0.12
   3  -1   3    2.74    0.11
   3  -1   3    2.63    0.15
   3  -1   3    2.54    0.12
  -3  -1  -3    2.61    0.11
  -3  -1  -3    2.62    0.15
   3   1   3    2.60    0.15
  -3   1  -3    2.64    0.12
   3   1   3    2.70    0.11
   3   1   3    2.66    0.12
  -3   1  -3    2.98    0.18
   3   1   3    2.58    0.11
  -3   1  -3    2.62    0.16
   3   1   3    2.60    0.12
   3   1   3    2.52    0.17
  -3   1  -3    2.52    0.15
  -3   1  -3    2.56    0.11
   3   1   3    2.45    0.11
  -3   1  -3    2.55    0.10
   3   1   3    2.37    0.13
  -4  -1  -3    0.19    0.06
   4  -1   3    0.13    0.04
   4  -1   3    0.17    0.04
  -4  -1  -3    0.05    0.07
  -4  -1  -3    0.11    0.06
   4  -1   3    0.15    0.03
  -4  -1  -3    0.18    0.04
   4  -1   3    0.20    0.05
   4  -1   3    0.12    0.03
  -4  -1  -3    0.14    0.03
  -4  -1  -3    0.17    0.06
  -4   1  -3    0.12    0.07
  -4   1  -3    0.11    0.05
   4   1   3    0.16    0.04
  -4   1  -3    0.18    0.06
   4   1   3    0.11    0.03
   4   1   3    0.19    0.04
  -4   1  -3    0.16    0.12
  -4   1  -3    0.14    0.04
  -4   1  -3    0.12    0.03
   4   1   3    0.15    0.05
   4   1   3    0.13    0.05
   4   1   3    0.10    0.03
   4   1   3    0.12    0.03
   5  -1   3    0.04    0.04
  -5  -1  -3    0.00    0.06
   5  -1   3    0.09    0.04
   5  -1   3    0.06    0.04
  -5  -1  -3    0.08    0.02
  -5  -1  -3    0.01    0.03
  -5  -1  -3    0.05    0.05
  -5   1  -3    0.02    0.10
  -5   1  -3    0.05    0.04
   5   1   3    0.05    0.04
  -5   1  -3    0.02    0.04
  -5   1  -3    0.08    0.02
   5   1   3    0.02    0.03
  -5   1  -3   -0.02    0.06
   5   1   3    0.00    0.04
  -5   1  -3   -0.02    0.06
   5   1   3    0.05    0.03
   6  -1   3    0.17    0.05
   6  -1   3    0.12    0.07
  -6  -1  -3    0.18    0.10
  -6  -1  -3    0.14    0.07
  -6  -1  -3    0.22    0.06
  -6  -1  -3    0.27    0.10
   6  -1   3    0.26    0.06
   6   1   3    0.16    0.05
  -6   1  -3    0.10    0.09
  -6   1  -3    0.12    0.05
   6   1   3    0.22    0.07
  -6   1  -3    0.18    0.09
  -6   1  -3    0.09    0.06
   6   1   3    0.04    0.05
  -6   1  -3    0.19    0.08
  -7  -1  -3   -0.05    0.05
  -7  -1  -3    0.04    0.04
  -7  -1  -3    0.12    0.11
  -7  -1  -3    0.04    0.10
  -7   1  -3    0.09    0.05
  -7   1  -3    0.10    0.09
  -7   1  -3    0.05    0.06
  -7  -2   3    0.39    0.10
   7  -2  -3    0.12    0.05
  -7  -2   3    0.21    0.11
  -7  -2   3    0.31    0.05
  -7   2   3    0.14    0.10
  -7   2   3    0.30    0.06
   7   2  -3    0.31    0.06
   7   2  -3    0.32    0.06
  -7   2   3    0.28    0.08
  -7   2   3    0.26    0.12
  -6  -2   3    0.70    0.06
   6  -2  -3    0.56    0.08
   6  -2  -3    0.72    0.11
  -6  -2   3    0.81    0.15
  -6  -2   3    0.81    0.12
  -6   2   3    0.90    0.11
  -6   2   3    0.79    0.08
  -6   2   3    0.83    0.12
   6   2  -3    0.70    0.11
  -6   2   3    0.82    0.15
   6   2  -3    0.65    0.11
   6   2  -3    0.74    0.07
   6   2  -3    0.71    0.07
  -6   2   3    0.67    0.13
   5  -2  -3    8.81    0.31
   5  -2  -3    9.02    0.30
  -5  -2   3    9.16    0.36
  -5  -2   3    8.49    0.35
   5  -2  -3    8.12    0.34
  -5  -2   3    8.87    0.29
  -5  -2   3    8.16    0.39
  -5   2   3    9.23    0.42
   5   2  -3    8.27    0.33
  -5   2   3    9.23    0.37
  -5   2   3    8.80    0.33
  -5   2   3    8.65    0.30
   5   2  -3    9.01    0.29
  -5   2   3    8.77    0.39
  -4  -2   3    0.99    0.06
   4  -2  -3    0.95    0.09
  -4  -2   3    0.92    0.12
  -4  -2   3    0.79    0.09
   4  -2  -3    0.92    0.05
  -4  -2   3    0.93    0.10
   4  -2  -3    0.92    0.07
   4   2  -3    0.94    0.09
  -4   2   3    1.02    0.13
  -4   2   3    1.07    0.08
   4   2  -3    0.94    0.05
  -4   2   3    1.06    0.12
  -4   2   3    0.96    0.07
   4   2  -3    0.91    0.04
  -4   2   3    0.91    0.11
  -3  -2   3    1.86    0.09
   3  -2  -3    1.70    0.10
  -3  -2   3    1.93    0.11
  -3  -2   3    1.76    0.07
   3  -2  -3    1.77    0.08
  -3  -2   3    2.03    0.10
  -3  -2   3    1.92    0.13
   3   2  -3    1.86    0.10
  -3   2   3    1.81    0.10
  -3   2   3    1.93    0.14
   3   2  -3    1.89    0.07
  -3   2   3    1.78    0.12
   3   2  -3    1.91    0.10
  -3   2   3    1.80    0.09
  -3   2   3    1.88    0.13
  -2  -2   3    1.75    0.07
  -2  -2   3    1.84    0.07
  -2  -2   3    1.82    0.09
  -2  -2   3    1.75    0.07
  -2  -2   3    1.76    0.09
   2  -2  -3    1.84    0.08
   2  -2  -3    1.81    0.09
  -2  -2   3    1.80    0.09
  -2  -2   3    1.73    0.10
  -2  -2   3    1.78    0.11
   2   2  -3    1.92    0.11
   2   2  -3    1.80    0.06
   2   2  -3    1.81    0.07
  -2   2   3    1.93    0.13
   2   2  -3    1.72    0.08
  -2   2   3    1.79    0.08
  -2   2   3    1.92    0.09
  -2   2   3    1.82    0.12
   2   2  -3    1.71    0.08
  -2   2   3    1.79    0.10
  -1  -2   3   11.39    0.34
   1  -2  -3   11.42    0.35
  -1  -2   3   11.12    0.35
  -1  -2   3   11.45    0.36
   1  -2  -3   11.53    0.35
  -1  -2   3   11.86    0.36
   1  -2  -3   10.87    0.34
  -1  -2   3   11.83    0.36
   1  -2  -3   12.12    0.36
   1  -2  -3   12.22    0.35
  -1  -2   3   11.48    0.34
   1  -2  -3   11.39    0.35
  -1  -2   3   11.77    0.41
  -1  -2   3   11.67    0.37
   1   2  -3   11.99    0.35
   1   2  -3   11.33    0.34
  -1   2   3   11.24    0.34
  -1   2   3   10.90    0.35
  -1   2   3   11.03    0.35
   1   2  -3   11.40    0.33
   1   2  -3   11.87    0.43
  -1   2   3   11.41    0.35
   1   2  -3   11.59    0.33
  -1   2   3   11.98    0.39
  -1   2   3   12.47    0.33
  -1   2   3   12.05    0.33
   1   2  -3   11.59    0.34
  -1   2   3   11.51    0.34
   1   2  -3   11.48    0.34
   0  -2   3   31.22    0.86
   0  -2   3   30.57    0.85
   0  -2   3   30.10    0.86
   0  -2  -3   29.48    0.85
   0  -2  -3   30.14    0.86
   0  -2  -3   30.84    0.85
   0  -2  -3   30.27    0.86
   0  -2   3   31.05    0.86
   0  -2  -3   30.88    0.87
   0  -2  -3   29.57    0.86
   0  -2  -3   30.93    0.87
   0  -2  -3   29.32    0.85
   0  -2   3   31.10    0.84
   0  -2   3   30.06    0.84
   0  -2   3   27.23    0.86
   0  -2   3   31.24    0.84
   0  -2   3   29.87    0.96
   0  -2   3   31.40    0.85
   0  -2   3   29.69    0.83
   0  -2  -3   29.36    0.84
   0  -2  -3   31.51    0.89
   0   2   3   30.10    0.85
   0   2  -3   31.01    0.86
   0   2   3   30.66    0.87
   0   2   3   28.39    0.86
   0   2   3   28.69    0.85
   0   2  -3   30.73    0.84
   0   2   3   30.67    0.85
   0   2   3   31.02    0.88
   0   2  -3   31.28    0.85
   0   2  -3   28.89    0.85
   0   2  -3   30.77    0.86
   0   2  -3   30.53    0.86
   0   2   3   31.00    0.85
   0   2  -3   31.11    0.87
   0   2   3   30.34    0.86
   0   2  -3   28.95    0.84
   0   2  -3   30.39    0.86
   0   2   3   29.99    0.84
   0   2  -3   30.28    0.86
   0   2   3   30.31    0.85
   0   2  -3   29.52    0.84
   0   2  -3   30.33    0.86
   0   2  -3   31.30    0.88
   0   2   3   30.39    0.85
   0   2  -3   30.61    1.01
   0   2   3   30.96    0.88
  -1  -2  -3    2.03    0.09
  -1  -2  -3    2.01    0.09
   1  -2   3    2.13    0.09
   1  -2   3    2.29    0.18
  -1  -2  -3    2.17    0.11
  -1  -2  -3    2.05    0.14
  -1  -2  -3    1.95    0.12
  -1  -2  -3    1.90    0.09
   1  -2   3    2.11    0.08
   1  -2   3    2.05    0.11
   1  -2   3    1.95    0.09
   1  -2   3    2.19    0.07
   1  -2   3    2.00    0.09
  -1  -2  -3    2.20    0.08
   1  -2   3    2.17    0.11
  -1  -2  -3    2.09    0.09
   1   2   3    2.01    0.09
  -1   2  -3    2.04    0.10
   1   2   3    2.10    0.10
   1   2   3    2.00    0.08
  -1   2  -3    2.11    0.08
  -1   2  -3    2.09    0.09
  -1   2  -3    2.16    0.12
  -1   2  -3    2.14    0.08
   1   2   3    1.99    0.09
  -1   2  -3    2.11    0.09
  -1   2  -3    1.97    0.12
  -1   2  -3    2.07    0.09
   1   2   3    2.04    0.12
   1   2   3    1.92    0.09
   1   2   3    2.05    0.08
   1   2   3    2.37    0.10
   1   2   3    2.05    0.09
  -2  -2  -3   15.08    0.42
  -2  -2  -3   13.33    0.41
   2  -2   3   14.06    0.42
  -2  -2  -3   14.43    0.46
   2  -2   3   13.70    0.44
   2  -2   3   14.32    0.42
  -2  -2  -3   14.46    0.42
   2  -2   3   14.01    0.42
  -2  -2  -3   13.89    0.48
   2  -2   3   14.55    0.44
   2  -2   3   14.04    0.42
  -2  -2  -3   14.47    0.50
   2  -2   3   14.23    0.47
  -2  -2  -3   13.99    0.42
  -2  -2  -3   14.57    0.43
   2   2   3   13.73    0.46
  -2   2  -3   14.09    0.44
  -2   2  -3   13.86    0.43
   2   2   3   13.09    0.43
   2   2   3   13.95    0.42
  -2   2  -3   14.07    0.41
  -2   2  -3   13.95    0.43
   2   2   3   14.41    0.42
   2   2   3   13.59    0.42
   2   2   3   13.87    0.48
   2   2   3   13.68    0.44
  -2   2  -3   14.52    0.43
   2   2   3   14.01    0.44
  -2   2  -3   13.43    0.48
  -2   2  -3   14.01    0.70
  -2   2  -3   14.11    0.49
   2   2   3   14.02    0.44
   3  -2   3    3.54    0.14
  -3  -2  -3    3.09    0.13
   3  -2   3    3.27    0.13
  -3  -2  -3    3.10    0.11
   3  -2   3    3.16    0.15
  -3  -2  -3    3.37    0.13
   3  -2   3    3.34    0.14
   3  -2   3    3.29    0.12
  -3  -2  -3    3.18    0.12
  -3  -2  -3    3.52    0.14
   3  -2   3    3.29    0.18
  -3  -2  -3    3.28    0.17
   3  -2   3    3.35    0.13
  -3  -2  -3    3.27    0.22
  -3   2  -3    3.11    0.15
  -3   2  -3    2.57    0.32
   3   2   3    2.97    0.13
   3   2   3    3.29    0.15
  -3   2  -3    3.55    0.21
  -3   2  -3    3.24    0.13
   3   2   3    3.16    0.14
   3   2   3    3.30    0.15
   3   2   3    3.36    0.13
   3   2   3    3.19    0.14
  -3   2  -3    3.28    0.12
   3   2   3    3.22    0.15
  -3   2  -3    3.59    0.19
   3   2   3    3.30    0.17
  -4  -2  -3    0.39    0.06
   4  -2   3    0.36    0.05
  -4  -2  -3    0.28    0.07
  -4  -2  -3    0.51    0.08
   4  -2   3    0.35    0.05
   4  -2   3    0.44    0.07
   4  -2   3    0.41    0.05
  -4  -2  -3    0.28    0.10
   4  -2   3    0.40    0.05
  -4  -2  -3    0.41    0.06
   4   2   3    0.43    0.06
   4   2   3    0.36    0.06
  -4   2  -3    0.57    0.10
  -4   2  -3    0.42    0.06
   4   2   3    0.48    0.07
  -4   2  -3    0.32    0.07
  -4   2  -3    0.42    0.11
   4   2   3    0.50    0.05
   4   2   3    0.49    0.06
  -4   2  -3    0.44    0.05
  -4   2  -3    0.21    0.14
  -5  -2  -3    0.06    0.05
   5  -2   3    0.10    0.04
  -5  -2  -3    0.06    0.07
  -5  -2  -3    0.07    0.04
   5  -2   3    0.05    0.03
   5  -2   3    0.03    0.03
  -5  -2  -3    0.00    0.03
   5   2   3    0.07    0.04
  -5   2  -3   -0.15    0.07
   5   2   3    0.15    0.05
  -5   2  -3    0.05    0.07
  -5   2  -3    0.00    0.04
  -5   2  -3    0.06    0.04
  -5   2  -3    0.08    0.03
  -5   2  -3    0.07    0.05
   5   2   3    0.05    0.03
   5   2   3    0.13    0.06
  -5   2  -3    0.05    0.04
  -5   2  -3    0.06    0.06
  -6  -2  -3    0.17    0.10
   6  -2   3    0.05    0.04
   6  -2   3    0.08    0.04
  -6  -2  -3    0.08    0.07
  -6  -2  -3    0.10    0.05
  -6  -2  -3    0.13    0.07
  -6   2  -3   -0.01    0.08
  -6   2  -3    0.15    0.08
  -6   2  -3    0.05    0.05
  -6   2  -3    0.08    0.04
  -6   2  -3    0.14    0.08
   6   2   3    0.12    0.06
   6   2   3    0.13    0.05
   6   2   3    0.09    0.06
  -7  -2  -3    0.39    0.10
  -7  -2  -3    0.28    0.13
  -7  -2  -3    0.36    0.08
  -7  -2  -3    0.26    0.13
  -7   2  -3    0.29    0.08
  -7   2  -3    0.27    0.07
  -7   2  -3    0.17    0.10
  -7  -3   3    0.37    0.10
  -7  -3   3    0.24    0.11
   7  -3  -3    0.35    0.08
  -7  -3   3    0.36    0.06
  -7   3   3    0.41    0.07
   7   3  -3    0.36    0.08
   7   3  -3    0.43    0.07
  -7   3   3    0.34    0.14
  -7   3   3    0.26    0.11
   7   3  -3    0.41    0.07
  -6  -3   3    0.03    0.03
  -6  -3   3    0.03    0.06
   6  -3  -3    0.05    0.04
  -6  -3   3   -0.03    0.06
   6  -3  -3   -0.02    0.03
  -6   3   3    0.01    0.07
   6   3  -3    0.03    0.03
  -6   3   3    0.02    0.08
  -6   3   3    0.06    0.07
  -6   3   3    0.02    0.03
  -6   3   3    0.00    0.04
   6   3  -3    0.05    0.03
   6   3  -3    0.00    0.04
   6   3  -3    0.02    0.04
  -5  -3   3    0.79    0.13
  -5  -3   3    1.33    0.13
   5  -3  -3    1.20    0.10
  -5  -3   3    0.94    0.11
  -5  -3   3    1.21    0.07
   5  -3  -3    1.03    0.10
   5  -3  -3    1.23    0.13
   5   3  -3    1.15    0.09
   5   3  -3    1.27    0.07
   5   3  -3    1.28    0.11
  -5   3   3    1.29    0.15
  -5   3   3    1.18    0.09
   5   3  -3    1.31    0.08
  -5   3   3    1.25    0.15
  -5   3   3    1.39    0.19
  -5   3   3    1.25    0.12
   4  -3  -3    9.25    0.34
  -4  -3   3    9.49    0.34
   4  -3  -3    9.48    0.32
  -4  -3   3    9.80    0.30
   4  -3  -3    9.94    0.33
  -4  -3   3    9.18    0.39
  -4  -3   3    9.34    0.35
  -4  -3   3    9.61    0.32
  -4   3   3    9.24    0.42
  -4   3   3    9.78    0.33
   4   3  -3    9.40    0.30
  -4   3   3    9.67    0.39
  -4   3   3    9.40    0.38
   4   3  -3    9.69    0.33
  -4   3   3    9.49    0.33
   4   3  -3    9.46    0.34
  -3  -3   3   14.61    0.44
  -3  -3   3   14.38    0.43
   3  -3  -3   14.77    0.45
   3  -3  -3   14.23    0.45
  -3  -3   3   14.23    0.45
   3  -3  -3   14.34    0.47
  -3  -3   3   14.51    0.47
  -3  -3   3   15.45    0.51
  -3  -3   3   14.38    0.44
  -3  -3   3   14.59    0.49
  -3   3   3   14.91    0.45
   3   3  -3   14.65    0.42
   3   3  -3   14.02    0.43
  -3   3   3   15.78    0.55
   3   3  -3   14.67    0.46
   3   3  -3   14.56    0.43
  -3   3   3   15.09    0.52
   3   3  -3   14.91    0.45
  -3   3   3   14.27    0.46
  -3   3   3   14.18    0.49
  -2  -3   3   10.48    0.33
  -2  -3   3   10.89    0.34
   2  -3  -3   10.78    0.34
  -2  -3   3   10.81    0.36
  -2  -3   3   10.49    0.33
   2  -3  -3   10.62    0.35
   2  -3  -3   10.39    0.34
   2  -3  -3   10.70    0.33
  -2  -3   3   10.23    0.36
  -2  -3   3   10.53    0.35
  -2  -3   3   10.51    0.34
   2   3  -3   10.36    0.31
  -2   3   3   10.69    0.30
   2   3  -3   10.20    0.31
   2   3  -3   10.12    0.30
   2   3  -3   10.09    0.41
   2   3  -3   10.28    0.33
   2   3  -3   10.22    0.33
   2   3  -3   10.15    0.32
  -2   3   3   10.42    0.32
  -2   3   3   10.71    0.32
  -2   3   3   11.09    0.30
  -2   3   3   10.19    0.39
  -2   3   3   10.63    0.35
  -2   3   3   11.05    0.39
  -2   3   3   10.49    0.34
   1  -3  -3    2.89    0.11
  -1  -3   3    2.66    0.11
  -1  -3   3    2.82    0.17
  -1  -3   3    2.67    0.11
   1  -3  -3    2.70    0.12
   1  -3  -3    2.91    0.12
  -1  -3   3    2.66    0.11
  -1  -3   3    2.57    0.10
  -1  -3   3    2.66    0.12
   1  -3  -3    2.63    0.13
  -1  -3   3    2.65    0.12
  -1  -3   3    2.50    0.10
   1  -3  -3    2.76    0.12
   1   3  -3    2.76    0.10
   1   3  -3    2.30    0.12
  -1   3   3    2.66    0.12
  -1   3   3    2.76    0.13
   1   3  -3    2.73    0.10
   1   3  -3    2.62    0.11
  -1   3   3    2.61    0.09
   1   3  -3    2.71    0.13
   1   3  -3    2.74    0.10
  -1   3   3    2.71    0.10
   1   3  -3    2.49    0.10
   1   3  -3    2.67    0.21
   1   3  -3    2.65    0.09
  -1   3   3    2.68    0.10
  -1   3   3    2.79    0.11
   0  -3   3   21.28    0.63
   0  -3   3   21.33    0.62
   0  -3   3   21.16    0.62
   0  -3  -3   21.04    0.63
   0  -3   3   22.53    0.77
   0  -3   3   19.95    0.64
   0  -3   3   21.02    0.61
   0  -3   3   22.30    0.60
   0  -3   3   19.09    0.62
   0  -3   3   21.49    0.63
   0  -3  -3   21.30    0.63
   0  -3   3   22.16    0.62
   0  -3   3   21.77    0.63
   0  -3   3   21.10    0.60
   0  -3  -3   22.04    0.63
   0  -3  -3   20.95    0.62
   0  -3  -3   21.39    0.62
   0  -3  -3   20.53    0.63
   0  -3  -3   21.94    0.65
   0   3   3   21.28    0.60
   0   3   3   21.75    0.62
   0   3  -3   22.46    0.64
   0   3   3   21.33    0.61
   0   3  -3   21.06    0.62
   0   3  -3   21.30    0.63
   0   3  -3   20.05    0.83
   0   3  -3   21.30    0.66
   0   3  -3   21.59    0.61
   0   3   3   21.20    0.62
   0   3  -3   21.97    0.64
   0   3   3   21.44    0.60
   0   3   3   21.57    0.63
   0   3  -3   21.57    0.60
   0   3   3   21.13    0.65
   0   3   3   21.20    0.66
   0   3   3   20.99    0.64
   0   3  -3   21.58    0.60
   0   3   3   20.45    0.63
   0   3  -3   21.20    0.63
   0   3  -3   21.13    0.63
  -1  -3  -3    2.63    0.11
   1  -3   3    2.74    0.12
  -1  -3  -3    2.53    0.11
   1  -3   3    2.59    0.09
  -1  -3  -3    2.55    0.11
   1  -3   3    2.81    0.10
   1  -3   3    2.56    0.11
   1  -3   3    2.63    0.24
   1  -3   3    2.50    0.13
   1  -3   3    2.61    0.11
   1  -3   3    2.39    0.13
  -1  -3  -3    2.41    0.13
   1  -3   3    2.51    0.09
   1  -3   3    2.59    0.12
  -1  -3  -3    2.57    0.10
  -1   3  -3    2.60    0.12
   1   3   3    2.55    0.12
   1   3   3    2.55    0.11
  -1   3  -3    2.65    0.11
   1   3   3    2.68    0.13
  -1   3  -3    2.36    0.26
  -1   3  -3    2.58    0.14
   1   3   3    2.65    0.11
   1   3   3    2.66    0.15
   1   3   3    2.75    0.11
  -1   3  -3    2.57    0.12
  -1   3  -3    2.39    0.11
  -1   3  -3    2.59    0.15
   1   3   3    2.65    0.10
  -1   3  -3    2.77    0.10
   1   3   3    2.76    0.13
   1   3   3    2.58    0.12
  -1   3  -3    2.62    0.12
   1   3   3    2.65    0.10
   1   3   3    2.72    0.13
  -2  -3  -3    0.02    0.03
   2  -3   3    0.03    0.01
   2  -3   3    0.02    0.02
   2  -3   3    0.07    0.02
  -2  -3  -3    0.01    0.01
  -2  -3  -3    0.05    0.03
  -2  -3  -3    0.03    0.02
   2  -3   3    0.02    0.03
   2  -3   3    0.00    0.01
  -2  -3  -3    0.01    0.02
  -2  -3  -3    0.01    0.01
   2  -3   3    0.03    0.02
   2  -3   3    0.02    0.03
   2  -3   3    0.05    0.04
  -2  -3  -3    0.03    0.02
   2  -3   3    0.03    0.02
   2   3   3    0.03    0.02
   2   3   3    0.03    0.02
  -2   3  -3    0.02    0.07
   2   3   3    0.04    0.02
   2   3   3    0.03    0.02
   2   3   3    0.04    0.04
   2   3   3    0.01    0.03
   2   3   3    0.03    0.03
  -2   3  -3    0.01    0.04
   2   3   3    0.02    0.01
  -2   3  -3    0.01    0.03
  -2   3  -3    0.04    0.03
  -2   3  -3    0.04    0.02
  -2   3  -3    0.03    0.02
  -3  -3  -3    5.01    0.18
  -3  -3  -3    5.14    0.23
  -3  -3  -3    5.00    0.18
   3  -3   3    5.02    0.18
  -3  -3  -3    4.81    0.17
  -3  -3  -3    4.91    0.19
   3  -3   3    5.48    0.19
  -3  -3  -3    5.02    0.20
  -3  -3  -3    5.08    0.26
   3  -3   3    5.02    0.20
   3  -3   3    5.16    0.25
   3  -3   3    5.08    0.21
   3  -3   3    5.23    0.20
  -3   3  -3    5.21    0.26
   3   3   3    5.38    0.19
  -3   3  -3    5.43    0.28
   3   3   3    4.82    0.23
   3   3   3    5.27    0.21
   3   3   3    5.49    0.21
  -3   3  -3    4.34    0.44
   3   3   3    5.24    0.19
  -3   3  -3    5.33    0.20
   3   3   3    4.96    0.20
   3   3   3    5.15    0.26
  -3   3  -3    5.25    0.21
   3   3   3    4.84    0.21
  -4  -3  -3    2.31    0.15
   4  -3   3    2.63    0.13
   4  -3   3    2.69    0.13
   4  -3   3    2.42    0.11
  -4  -3  -3    2.69    0.18
   4  -3   3    2.68    0.15
   4  -3   3    2.53    0.14
  -4  -3  -3    2.63    0.14
  -4  -3  -3    2.70    0.14
  -4   3  -3    2.50    0.17
   4   3   3    2.41    0.12
   4   3   3    2.45    0.15
  -4   3  -3    2.73    0.15
  -4   3  -3    2.67    0.20
  -4   3  -3    2.47    0.22
   4   3   3    2.70    0.14
  -4   3  -3    2.66    0.12
  -4   3  -3    2.31    0.20
   4   3   3    2.78    0.16
  -5  -3  -3    0.07    0.04
  -5  -3  -3    0.01    0.03
  -5  -3  -3    0.07    0.07
  -5  -3  -3    0.06    0.04
   5  -3   3    0.06    0.04
   5  -3   3    0.08    0.04
  -5  -3  -3    0.01    0.06
  -5   3  -3    0.08    0.07
  -5   3  -3    0.18    0.07
   5   3   3    0.06    0.03
  -5   3  -3    0.04    0.04
  -5   3  -3    0.09    0.03
  -5   3  -3    0.08    0.04
   5   3   3    0.04    0.04
   5   3   3    0.02    0.03
  -5   3  -3    0.05    0.05
  -5   3  -3    0.01    0.07
  -5   3  -3    0.03    0.03
  -6  -3  -3    0.67    0.15
  -6  -3  -3    0.50    0.11
   6  -3   3    0.73    0.09
   6  -3   3    0.68    0.10
  -6  -3  -3    0.52    0.13
  -6  -3  -3    0.70    0.09
  -6   3  -3    0.66    0.14
   6   3   3    0.68    0.08
   6   3   3    0.73    0.12
  -6   3  -3    0.71    0.05
  -6   3  -3    0.78    0.15
   6   3   3    0.75    0.12
  -6   3  -3    0.54    0.16
  -6   3  -3    0.68    0.09
  -6   3  -3    0.65    0.10
  -7  -4   3    0.08    0.03
   7  -4  -3    0.12    0.06
  -7  -4   3    0.14    0.08
  -7  -4   3   -0.11    0.06
   7   4  -3    0.03    0.05
   7   4  -3    0.00    0.05
  -7   4   3    0.06    0.05
   7   4  -3    0.10    0.05
  -7   4   3    0.07    0.08
  -6  -4   3    0.73    0.15
  -6  -4   3    0.61    0.11
   6  -4  -3    0.58    0.09
   6  -4  -3    0.55    0.09
  -6  -4   3    0.57    0.07
  -6   4   3    0.50    0.08
  -6   4   3    0.58    0.14
   6   4  -3    0.43    0.07
  -6   4   3    0.55    0.12
  -6   4   3    0.55    0.11
   6   4  -3    0.44    0.07
   6   4  -3    0.63    0.10
  -5  -4   3    0.22    0.04
  -5  -4   3    0.19    0.07
  -5  -4   3    0.30    0.09
   5  -4  -3    0.38    0.07
   5  -4  -3    0.24    0.06
   5   4  -3    0.21    0.06
  -5   4   3    0.15    0.07
   5   4  -3    0.21    0.05
   5   4  -3    0.22    0.04
  -5   4   3    0.22    0.05
  -5   4   3    0.30    0.11
  -5   4   3    0.20    0.08
  -5   4   3    0.23    0.05
  -4  -4   3    3.41    0.14
  -4  -4   3    3.13    0.15
  -4  -4   3    3.10    0.18
  -4  -4   3    2.95    0.17
  -4  -4   3    3.09    0.16
   4  -4  -3    3.33    0.17
   4  -4  -3    3.29    0.17
  -4  -4   3    3.65    0.21
   4  -4  -3    3.48    0.17
   4   4  -3    3.20    0.14
  -4   4   3    3.39    0.16
   4   4  -3    3.27    0.13
   4   4  -3    3.67    0.16
   4   4  -3    3.31    0.16
  -4   4   3    3.13    0.14
  -4   4   3    3.08    0.22
  -4   4   3    3.14    0.19
  -4   4   3    3.23    0.23
  -3  -4   3    8.19    0.28
  -3  -4   3    8.70    0.34
  -3  -4   3    8.57    0.27
  -3  -4   3    8.32    0.30
   3  -4  -3    8.23    0.30
   3  -4  -3    8.15    0.30
   3  -4  -3    8.64    0.31
  -3  -4   3    8.53    0.29
  -3  -4   3    8.19    0.26
  -3  -4   3    7.84    0.31
  -3   4   3    8.06    0.35
  -3   4   3    8.21    0.31
   3   4  -3    7.68    0.27
   3   4  -3    8.14    0.28
  -3   4   3    8.62    0.30
   3   4  -3    8.20    0.29
  -3   4   3    8.27    0.27
   3   4  -3    8.33    0.26
   3   4  -3    8.13    0.27
  -3   4   3    8.32    0.37
   3   4  -3    8.10    0.25
  -2  -4   3    1.78    0.10
   2  -4  -3    1.95    0.11
  -2  -4   3    1.93    0.11
   2  -4  -3    1.85    0.11
  -2  -4   3    1.74    0.09
  -2  -4   3    1.68    0.10
   2  -4  -3    1.85    0.12
  -2  -4   3    1.86    0.12
  -2  -4   3    1.92    0.11
  -2  -4   3    1.86    0.09
   2  -4  -3    1.93    0.10
  -2   4   3    1.66    0.08
   2   4  -3    1.95    0.09
   2   4  -3    1.80    0.07
   2   4  -3    1.81    0.09
  -2   4   3    1.83    0.10
  -2   4   3    1.90    0.10
   2   4  -3    1.76    0.09
   2   4  -3    1.42    0.16
  -2   4   3    1.85    0.07
   2   4  -3    1.76    0.08
   2   4  -3    1.88    0.09
  -2   4   3    1.90    0.08
  -2   4   3    1.83    0.14
   2   4  -3    1.91    0.09
  -2   4   3    1.83    0.10
  -1  -4   3    1.15    0.06
  -1  -4   3    1.26    0.06
   1  -4  -3    1.28    0.08
  -1  -4   3    1.26    0.12
   1  -4  -3    1.23    0.08
  -1  -4   3    1.04    0.07
   1  -4  -3    1.35    0.09
  -1  -4   3    1.20    0.06
   1  -4  -3    1.22    0.09
  -1  -4   3    1.18    0.06
  -1  -4   3    1.14    0.08
  -1  -4   3    1.18    0.07
  -1  -4   3    1.21    0.05
  -1  -4   3    1.25    0.08
  -1  -4   3    1.31    0.07
  -1   4   3    1.20    0.07
   1   4  -3    1.17    0.07
  -1   4   3    1.30    0.10
   1   4  -3    1.30    0.09
   1   4  -3    0.99    0.10
   1   4  -3    0.94    0.16
  -1   4   3    1.10    0.08
  -1   4   3    1.29    0.09
   1   4  -3    1.21    0.07
  -1   4   3    1.22    0.07
   1   4  -3    1.21    0.06
  -1   4   3    1.48    0.14
   1   4  -3    1.17    0.06
  -1   4   3    1.10    0.06
   1   4  -3    1.27    0.08
   1   4  -3    1.20    0.08
   0  -4   3    2.75    0.11
   0  -4   3    2.56    0.12
   0  -4   3    2.65    0.12
   0  -4  -3    2.53    0.13
   0  -4  -3    2.71    0.11
   0  -4   3    2.25    0.13
   0  -4   3    2.56    0.12
   0  -4   3    2.44    0.13
   0  -4   3    2.94    0.12
   0  -4   3    2.57    0.09
   0  -4   3    2.65    0.12
   0  -4  -3    2.64    0.12
   0  -4   3    2.69    0.22
   0  -4   3    2.79    0.10
   0  -4  -3    2.60    0.14
   0   4  -3    2.48    0.12
   0   4   3    2.51    0.12
   0   4   3    2.51    0.10
   0   4  -3    2.61    0.11
   0   4   3    2.57    0.11
   0   4   3    2.57    0.10
   0   4   3    2.59    0.15
   0   4  -3    2.53    0.12
   0   4  -3    2.58    0.13
   0   4  -3    2.56    0.12
   0   4   3    3.04    0.16
   0   4  -3    2.61    0.10
   0   4   3    2.70    0.13
   0   4   3    2.82    0.14
   0   4  -3    2.68    0.14
   0   4  -3    2.70    0.13
   0   4  -3    2.51    0.16
   1  -4   3    6.67    0.22
   1  -4   3    7.26    0.28
   1  -4   3    7.01    0.22
  -1  -4  -3    6.93    0.24
   1  -4   3    6.28    0.24
   1  -4   3    7.35    0.23
  -1  -4  -3    6.61    0.24
  -1  -4  -3    7.03    0.27
   1  -4   3    7.09    0.27
   1  -4   3    6.88    0.25
   1  -4   3    7.02    0.25
  -1  -4  -3    6.82    0.24
  -1   4  -3    7.02    0.30
   1   4   3    7.12    0.23
  -1   4  -3    5.82    0.47
  -1   4  -3    7.06    0.24
   1   4   3    7.44    0.27
   1   4   3    6.93    0.26
   1   4   3    6.75    0.23
  -1   4  -3    7.01    0.26
  -1   4  -3    6.57    0.25
   1   4   3    7.33    0.25
   1   4   3    7.08    0.30
   1   4   3    7.19    0.26
   1   4   3    6.92    0.20
   1   4   3    7.16    0.26
  -1   4  -3    7.12    0.25
   1   4   3    6.77    0.23
   1   4   3    7.01    0.27
  -1   4  -3    6.98    0.28
  -2  -4  -3    1.49    0.09
   2  -4   3    1.60    0.10
   2  -4   3    1.57    0.08
  -2  -4  -3    1.58    0.13
   2  -4   3    1.58    0.09
   2  -4   3    1.53    0.10
  -2  -4  -3    1.55    0.08
  -2  -4  -3    1.61    0.11
   2  -4   3    1.62    0.12
  -2  -4  -3    1.56    0.07
   2  -4   3    1.53    0.09
   2   4   3    1.82    0.12
  -2   4  -3    1.49    0.14
   2   4   3    1.58    0.10
  -2   4  -3    1.69    0.15
  -2   4  -3    1.65    0.10
   2   4   3    1.45    0.10
   2   4   3    1.50    0.08
  -2   4  -3    1.76    0.10
   2   4   3    1.59    0.14
  -2   4  -3    1.66    0.10
   2   4   3    1.52    0.08
   2   4   3    1.52    0.09
   2   4   3    1.51    0.11
  -2   4  -3    1.41    0.26
   2   4   3    1.35    0.10
   3  -4   3    2.00    0.11
  -3  -4  -3    2.03    0.13
  -3  -4  -3    2.17    0.12
   3  -4   3    2.06    0.11
  -3  -4  -3    1.99    0.10
  -3  -4  -3    2.15    0.14
  -3  -4  -3    2.06    0.10
   3  -4   3    1.87    0.15
   3  -4   3    1.96    0.13
  -3  -4  -3    1.95    0.11
   3  -4   3    1.86    0.10
  -3   4  -3    1.97    0.12
  -3   4  -3    2.09    0.11
   3   4   3    1.96    0.12
   3   4   3    1.93    0.13
  -3   4  -3    2.02    0.17
   3   4   3    1.93    0.12
  -3   4  -3    2.09    0.18
  -3   4  -3    2.11    0.19
   3   4   3    2.02    0.10
   3   4   3    1.92    0.12
   4  -4   3    0.63    0.06
  -4  -4  -3    0.76    0.10
  -4  -4  -3    0.61    0.08
  -4  -4  -3    0.71    0.08
   4  -4   3    0.71    0.07
   4  -4   3    0.61    0.07
  -4   4  -3    0.80    0.06
   4   4   3    0.67    0.09
   4   4   3    0.68    0.07
  -4   4  -3    0.27    0.11
   4   4   3    0.87    0.09
  -4   4  -3    0.42    0.21
  -4   4  -3    0.62    0.12
  -4   4  -3    0.74    0.07
  -4   4  -3    0.64    0.14
  -4   4  -3    0.62    0.08
  -4   4  -3    0.65    0.09
   5  -4   3    0.25    0.06
  -5  -4  -3    0.31    0.06
  -5  -4  -3    0.22    0.05
  -5  -4  -3   -0.02    0.08
  -5  -4  -3    0.24    0.09
  -5  -4  -3    0.38    0.07
   5  -4   3    0.24    0.06
  -5  -4  -3    0.28    0.07
  -5  -4  -3    0.27    0.09
  -5   4  -3    0.24    0.04
  -5   4  -3    0.36    0.07
  -5   4  -3    0.20    0.07
  -5   4  -3    0.25    0.09
   5   4   3    0.24    0.05
  -5   4  -3    0.48    0.12
  -5   4  -3    0.33    0.13
   5   4   3    0.36    0.08
  -6  -4  -3    0.38    0.13
  -6  -4  -3    0.66    0.12
  -6  -4  -3    0.38    0.08
   6  -4   3    0.34    0.07
   6  -4   3    0.30    0.07
  -6  -4  -3    0.54    0.14
  -6   4  -3    0.53    0.10
  -6   4  -3    0.20    0.12
   6   4   3    0.33    0.06
  -6   4  -3    0.45    0.11
  -6   4  -3    0.37    0.12
  -6  -5   3    0.85    0.15
   6  -5  -3    0.71    0.11
  -6  -5   3    0.74    0.12
  -6  -5   3    0.65    0.07
  -6   5   3    0.88    0.19
   6   5  -3    0.82    0.11
  -6   5   3    0.95    0.11
  -6   5   3    0.81    0.15
   6   5  -3    0.85    0.11
   6   5  -3    0.67    0.10
  -5  -5   3    1.71    0.17
   5  -5  -3    1.49    0.13
   5  -5  -3    1.73    0.19
  -5  -5   3    1.67    0.10
   5  -5  -3    1.99    0.15
  -5  -5   3    1.59    0.18
   5   5  -3    1.72    0.12
  -5   5   3    1.78    0.13
  -5   5   3    1.78    0.15
  -5   5   3    1.69    0.20
  -5   5   3    2.19    0.26
   5   5  -3    1.89    0.13
   5   5  -3    1.71    0.12
  -4  -5   3    0.11    0.04
   4  -5  -3    0.04    0.04
  -4  -5   3    0.07    0.05
  -4  -5   3    0.14    0.06
   4  -5  -3    0.16    0.05
  -4  -5   3    0.04    0.05
  -4  -5   3    0.12    0.03
  -4   5   3    0.10    0.07
  -4   5   3    0.13    0.08
   4   5  -3    0.13    0.04
  -4   5   3    0.10    0.05
   4   5  -3    0.14    0.04
  -4   5   3    0.09    0.04
   4   5  -3    0.11    0.04
  -3  -5   3    0.18    0.05
  -3  -5   3    0.18    0.04
   3  -5  -3    0.25    0.05
   3  -5  -3    0.24    0.05
  -3  -5   3    0.27    0.07
  -3  -5   3    0.18    0.06
   3   5  -3    0.19    0.05
  -3   5   3    0.22    0.03
   3   5  -3    0.21    0.04
   3   5  -3    0.21    0.03
   3   5  -3    0.22    0.04
  -3   5   3    0.17    0.05
  -3   5   3    0.31    0.10
  -3   5   3    0.25    0.05
  -3   5   3    0.27    0.08
  -3   5   3    0.20    0.02
  -3   5   3    0.24    0.04
  -2  -5   3    1.14    0.11
   2  -5  -3    1.19    0.11
  -2  -5   3    1.27    0.07
  -2  -5   3    1.08    0.08
  -2  -5   3    0.96    0.08
  -2  -5   3    1.13    0.06
   2  -5  -3    1.25    0.11
   2  -5  -3    1.14    0.10
  -2  -5   3    1.15    0.08
  -2  -5   3    1.27    0.10
  -2  -5   3    1.15    0.09
   2  -5  -3    1.15    0.09
   2   5  -3    1.17    0.08
  -2   5   3    1.03    0.07
  -2   5   3    1.20    0.07
   2   5  -3    1.12    0.08
  -2   5   3    1.25    0.14
  -2   5   3    1.20    0.10
   2   5  -3    1.26    0.08
   2   5  -3    1.13    0.09
  -2   5   3    1.16    0.06
  -2   5   3    1.15    0.09
   2   5  -3    1.23    0.08
   2   5  -3    1.16    0.07
   2   5  -3    1.25    0.06
  -1  -5   3    5.91    0.21
  -1  -5   3    5.96    0.21
   1  -5  -3    5.66    0.23
  -1  -5   3    6.04    0.19
  -1  -5   3    5.63    0.19
  -1  -5   3    6.30    0.34
  -1  -5   3    5.87    0.20
   1  -5  -3    5.99    0.23
  -1  -5   3    5.70    0.21
  -1  -5   3    5.44    0.22
  -1  -5   3    5.74    0.22
   1  -5  -3    5.80    0.25
   1   5  -3    5.87    0.23
   1   5  -3    5.93    0.20
   1   5  -3    5.89    0.21
   1   5  -3    5.80    0.24
  -1   5   3    5.94    0.24
   1   5  -3    6.05    0.24
  -1   5   3    5.80    0.24
  -1   5   3    5.68    0.22
   1   5  -3    5.54    0.22
  -1   5   3    5.84    0.21
  -1   5   3    5.86    0.26
   1   5  -3    5.67    0.22
  -1   5   3    6.19    0.28
   1   5  -3    5.84    0.20
  -1   5   3    5.86    0.20
   0  -5  -3    3.06    0.16
   0  -5   3    3.10    0.15
   0  -5   3    3.21    0.11
   0  -5   3    3.35    0.14
   0  -5  -3    3.52    0.15
   0  -5   3    3.39    0.14
   0  -5   3    3.33    0.12
   0  -5   3    3.57    0.12
   0  -5   3    3.46    0.17
   0  -5   3    3.37    0.15
   0  -5  -3    3.28    0.17
   0  -5  -3    3.46    0.15
   0   5  -3    3.08    0.21
   0   5   3    3.39    0.16
   0   5  -3    3.37    0.16
   0   5   3    3.28    0.12
   0   5  -3    3.32    0.15
   0   5  -3    3.06    0.11
   0   5  -3    3.39    0.15
   0   5   3    3.33    0.14
   0   5  -3    3.21    0.16
   0   5  -3    3.23    0.15
   0   5  -3    3.39    0.13
   0   5   3    3.33    0.19
   0   5   3    3.07    0.18
   0   5   3    3.44    0.16
   0   5  -3    3.03    0.14
   0   5  -3    3.41    0.18
   0   5   3    3.24    0.13
   0   5   3    3.18    0.13
   0   5   3    3.10    0.17
   1  -5   3    9.77    0.35
   1  -5   3   10.10    0.32
   1  -5   3    9.73    0.36
  -1  -5  -3   10.14    0.37
   1  -5   3    9.60    0.31
   1  -5   3   10.00    0.38
   1  -5   3    9.99    0.34
  -1  -5  -3   10.04    0.33
  -1  -5  -3   10.17    0.34
   1  -5   3   10.66    0.32
   1  -5   3    9.80    0.37
  -1  -5  -3   10.42    0.34
   1   5   3    9.98    0.32
   1   5   3   10.06    0.37
  -1   5  -3   10.34    0.39
   1   5   3    9.82    0.31
   1   5   3    9.85    0.34
   1   5   3   10.37    0.41
  -1   5  -3    9.84    0.35
   1   5   3    9.69    0.33
   1   5   3    9.92    0.36
  -1   5  -3   10.01    0.36
  -1   5  -3   10.33    0.35
  -1   5  -3    9.87    0.39
   1   5   3    9.75    0.36
  -1   5  -3    9.65    0.33
   1   5   3    9.72    0.35
  -1   5  -3   10.52    0.44
   1   5   3   10.02    0.36
   2  -5   3    6.78    0.27
   2  -5   3    6.94    0.30
  -2  -5  -3    6.58    0.24
   2  -5   3    6.95    0.25
  -2  -5  -3    6.69    0.26
  -2  -5  -3    6.59    0.23
  -2  -5  -3    6.78    0.28
   2  -5   3    6.75    0.31
  -2  -5  -3    7.01    0.25
   2  -5   3    6.76    0.24
   2  -5   3    6.81    0.27
   2   5   3    6.85    0.20
  -2   5  -3    6.66    0.27
   2   5   3    6.99    0.26
   2   5   3    6.60    0.25
  -2   5  -3    6.40    0.32
  -2   5  -3    7.13    0.36
  -2   5  -3    7.34    0.33
   2   5   3    7.06    0.28
   2   5   3    6.93    0.27
   2   5   3    6.57    0.26
  -2   5  -3    7.19    0.26
   2   5   3    6.95    0.24
   2   5   3    6.79    0.33
   3  -5   3    1.27    0.09
  -3  -5  -3    1.31    0.09
   3  -5   3    1.28    0.13
   3  -5   3    1.38    0.10
   3  -5   3    1.40    0.09
  -3  -5  -3    1.42    0.14
  -3  -5  -3    1.28    0.10
  -3  -5  -3    1.27    0.09
  -3  -5  -3    1.41    0.12
  -3   5  -3    1.28    0.10
  -3   5  -3    1.37    0.11
   3   5   3    1.24    0.08
  -3   5  -3    0.82    0.27
   3   5   3    1.45    0.11
  -3   5  -3    1.23    0.16
   3   5   3    1.31    0.10
   3   5   3    1.27    0.11
  -3   5  -3    1.09    0.15
  -3   5  -3    1.60    0.10
   4  -5   3    1.42    0.09
   4  -5   3    1.19    0.10
  -4  -5  -3    1.26    0.10
   4  -5   3    1.27    0.10
  -4  -5  -3    1.25    0.12
  -4  -5  -3    1.24    0.12
  -4   5  -3    1.37    0.18
   4   5   3    1.31    0.09
  -4   5  -3    1.41    0.12
  -4   5  -3    1.31    0.09
   4   5   3    1.36    0.11
  -4   5  -3    1.33    0.11
   4   5   3    1.10    0.11
  -4   5  -3    1.30    0.19
  -5  -5  -3    0.18    0.08
  -5  -5  -3    0.36    0.10
   5  -5   3    0.33    0.07
  -5  -5  -3    0.30    0.06
  -5  -5  -3    0.26    0.07
  -5  -5  -3    0.35    0.08
   5  -5   3    0.29    0.06
   5   5   3    0.26    0.07
  -5   5  -3    0.32    0.11
  -5   5  -3    0.36    0.08
  -5   5  -3    0.31    0.05
  -5   5  -3    0.25    0.08
  -5   5  -3    0.37    0.13
   5   5   3    0.38    0.07
   5   5   3    0.22    0.07
  -6  -5  -3    0.27    0.07
  -6  -5  -3    0.35    0.09
  -6  -5  -3    0.17    0.10
  -6   5  -3    0.23    0.07
   6   5   3    0.28    0.08
  -6   5  -3    0.00    0.08
  -6  -6   3    0.54    0.11
  -6  -6   3    0.45    0.12
  -6   6   3    0.67    0.10
   6   6  -3    0.66    0.10
   6   6  -3    0.43    0.09
  -6   6   3    0.33    0.22
  -6   6   3    0.70    0.16
  -5  -6   3    0.02    0.06
   5  -6  -3    0.05    0.04
  -5  -6   3    0.05    0.05
   5  -6  -3    0.04    0.05
   5   6  -3    0.14    0.06
  -5   6   3    0.02    0.08
  -5   6   3   -0.01    0.07
   5   6  -3    0.04    0.04
   5   6  -3    0.00    0.04
  -5   6   3    0.10    0.05
  -4  -6   3    2.58    0.15
  -4  -6   3    2.38    0.18
   4  -6  -3    2.51    0.17
  -4  -6   3    2.70    0.17
  -4  -6   3    2.31    0.18
   4  -6  -3    2.60    0.16
   4  -6  -3    2.65    0.16
  -4   6   3    2.12    0.24
   4   6  -3    2.77    0.15
  -4   6   3    2.80    0.16
   4   6  -3    2.83    0.15
   4   6  -3    2.65    0.16
  -4   6   3    2.65    0.23
  -3  -6   3    2.99    0.18
  -3  -6   3    3.19    0.16
  -3  -6   3    3.18    0.18
   3  -6  -3    2.79    0.16
   3  -6  -3    3.30    0.18
  -3  -6   3    3.17    0.17
   3   6  -3    3.31    0.15
   3   6  -3    3.27    0.16
  -3   6   3    3.13    0.16
  -3   6   3    3.29    0.18
  -3   6   3    3.18    0.12
  -3   6   3    3.07    0.23
  -3   6   3    3.22    0.13
   3   6  -3    3.14    0.17
   3   6  -3    3.02    0.13
  -3   6   3    3.15    0.15
  -2  -6   3    7.41    0.30
   2  -6  -3    7.40    0.30
  -2  -6   3    7.35    0.27
   2  -6  -3    6.70    0.29
  -2  -6   3    7.51    0.28
  -2  -6   3    7.18    0.27
   2   6  -3    7.18    0.25
   2   6  -3    7.36    0.30
  -2   6   3    8.09    0.36
   2   6  -3    7.17    0.26
  -2   6   3    7.51    0.30
   2   6  -3    6.97    0.26
  -2   6   3    7.30    0.26
  -2   6   3    7.53    0.32
   2   6  -3    7.48    0.27
  -2   6   3    7.76    0.27
  -2   6   3    7.16    0.24
  -1  -6   3   11.17    0.39
  -1  -6   3   11.71    0.36
   1  -6  -3   12.14    0.41
   1  -6  -3   11.91    0.44
  -1  -6   3   11.43    0.40
  -1  -6   3   11.64    0.36
  -1  -6   3   11.78    0.35
  -1  -6   3   11.70    0.39
  -1  -6   3   11.97    0.38
   1  -6  -3   11.78    0.42
   1   6  -3   11.65    0.38
   1   6  -3   11.10    0.40
  -1   6   3   11.67    0.39
   1   6  -3   11.46    0.36
   1   6  -3   12.12    0.43
   1   6  -3   11.81    0.37
  -1   6   3   11.66    0.42
  -1   6   3   11.37    0.38
  -1   6   3   11.11    0.36
  -1   6   3   11.33    0.46
  -1   6   3   11.99    0.46
  -1   6   3   11.11    0.41
   1   6  -3   11.70    0.42
   0  -6   3    1.46    0.10
   0  -6   3    1.61    0.07
   0  -6   3    1.54    0.10
   0  -6  -3    1.55    0.11
   0  -6   3    1.65    0.10
   0  -6   3    1.61    0.08
   0  -6   3    1.40    0.07
   0  -6   3    1.61    0.12
   0  -6   3    1.61    0.10
   0  -6  -3    1.72    0.13
   0   6  -3    1.69    0.10
   0   6   3    1.68    0.13
   0   6   3    1.68    0.11
   0   6  -3    1.70    0.11
   0   6   3    1.64    0.09
   0   6   3    1.70    0.12
   0   6   3    1.40    0.08
   0   6   3    1.64    0.10
   0   6   3    1.78    0.16
   0   6  -3    1.70    0.14
   0   6   3    1.52    0.13
   0   6   3    1.58    0.08
   0   6  -3    0.98    0.25
   0   6  -3    1.57    0.12
   1  -6   3    2.59    0.14
  -1  -6  -3    2.63    0.16
   1  -6   3    2.62    0.16
   1  -6   3    2.81    0.17
  -1  -6  -3    2.77    0.14
   1  -6   3    2.66    0.12
   1  -6   3    2.39    0.16
   1  -6   3    2.64    0.17
   1  -6   3    2.68    0.12
   1   6   3    2.55    0.16
  -1   6  -3    2.57    0.13
   1   6   3    2.86    0.14
   1   6   3    2.93    0.13
  -1   6  -3    2.34    0.17
  -1   6  -3    2.70    0.15
  -1   6  -3    2.76    0.15
   1   6   3    2.62    0.15
   1   6   3    2.72    0.12
   1   6   3    2.85    0.20
  -1   6  -3    2.45    0.18
   1   6   3    2.40    0.15
   2  -6   3    0.94    0.07
  -2  -6  -3    1.11    0.09
   2  -6   3    1.19    0.14
   2  -6   3    1.03    0.09
  -2  -6  -3    0.91    0.11
  -2  -6  -3    1.02    0.08
   2  -6   3    1.05    0.10
   2  -6   3    0.96    0.07
   2   6   3    1.08    0.11
   2   6   3    0.73    0.09
  -2   6  -3    1.07    0.09
  -2   6  -3    1.16    0.15
   2   6   3    1.16    0.11
   2   6   3    0.98    0.08
  -2   6  -3    0.67    0.12
  -2   6  -3    0.63    0.25
  -2   6  -3    0.83    0.09
   2   6   3    0.95    0.07
  -2   6  -3    1.18    0.12
   3  -6   3    0.47    0.06
  -3  -6  -3    0.54    0.08
   3  -6   3    0.55    0.07
  -3  -6  -3    0.49    0.08
  -3  -6  -3    0.37    0.06
  -3  -6  -3    0.44    0.07
   3  -6   3    0.54    0.08
   3   6   3    0.51    0.07
   3   6   3    0.44    0.06
  -3   6  -3    0.48    0.12
  -3   6  -3    0.52    0.08
   3   6   3    0.47    0.08
  -3   6  -3    0.38    0.10
  -3   6  -3    0.42    0.08
   4  -6   3    4.34    0.19
   4  -6   3    4.21    0.22
  -4  -6  -3    4.36    0.22
  -4  -6  -3    4.55    0.25
  -4  -6  -3    4.25    0.22
  -4  -6  -3    4.21    0.22
  -4  -6  -3    4.37    0.20
   4  -6   3    4.34    0.20
  -4  -6  -3    3.74    0.29
   4   6   3    4.49    0.19
  -4   6  -3    4.33    0.20
  -4   6  -3    4.30    0.23
  -4   6  -3    4.53    0.31
   4   6   3    4.71    0.23
  -4   6  -3    4.29    0.30
   4   6   3    4.36    0.21
  -5  -6  -3    0.13    0.07
   5  -6   3    0.16    0.05
  -5  -6  -3    0.16    0.10
   5  -6   3    0.06    0.05
  -5  -6  -3    0.01    0.06
  -5  -6  -3    0.11    0.05
  -5  -6  -3    0.11    0.06
   5   6   3    0.13    0.05
  -5   6  -3    0.15    0.06
  -5   6  -3    0.12    0.04
  -5   6  -3    0.17    0.07
   5   6   3    0.08    0.05
  -5   6  -3    0.12    0.10
   5   6   3    0.14    0.06
  -5   6  -3    0.04    0.09
  -5  -7   3    1.50    0.18
  -5  -7   3    1.77    0.20
  -5  -7   3    1.81    0.18
   5   7  -3    2.23    0.14
   5   7  -3    1.81    0.16
  -5   7   3    1.92    0.24
   5   7  -3    2.40    0.15
  -5   7   3    1.82    0.15
   4  -7  -3    0.32    0.08
  -4  -7   3    0.43    0.10
   4  -7  -3    0.33    0.07
  -4  -7   3    0.42    0.08
  -4  -7   3    0.49    0.10
  -4  -7   3    0.47    0.09
   4   7  -3    0.43    0.07
   4   7  -3    0.41    0.07
  -4   7   3    0.34    0.12
  -4   7   3    0.42    0.08
   4   7  -3    0.29    0.08
   3  -7  -3    0.09    0.05
   3  -7  -3    0.05    0.04
  -3  -7   3    0.05    0.04
  -3  -7   3    0.14    0.06
   3  -7  -3    0.15    0.08
  -3  -7   3    0.01    0.03
   3   7  -3    0.12    0.06
   3   7  -3    0.07    0.03
  -3   7   3    0.05    0.03
  -3   7   3    0.08    0.05
  -3   7   3    0.03    0.04
   3   7  -3    0.07    0.04
  -3   7   3    0.05    0.08
  -3   7   3    0.06    0.03
   2  -7  -3    0.59    0.09
  -2  -7   3    0.46    0.07
  -2  -7   3    0.53    0.09
  -2  -7   3    0.48    0.06
  -2   7   3    0.56    0.07
  -2   7   3    0.54    0.09
   2   7  -3    0.49    0.06
  -2   7   3    0.41    0.09
  -2   7   3    0.29    0.10
   2   7  -3    0.63    0.07
   2   7  -3    0.54    0.07
  -2   7   3    0.49    0.07
   2   7  -3    0.42    0.08
  -1  -7   3    6.46    0.25
  -1  -7   3    6.31    0.24
  -1  -7   3    6.67    0.22
  -1  -7   3    6.14    0.26
   1  -7  -3    6.45    0.29
  -1  -7   3    6.22    0.26
  -1   7   3    6.49    0.26
   1   7  -3    6.23    0.24
  -1   7   3    5.86    0.31
   1   7  -3    6.16    0.25
   1   7  -3    6.22    0.23
   1   7  -3    6.35    0.29
  -1   7   3    7.06    0.29
  -1   7   3    6.22    0.25
  -1   7   3    6.38    0.32
   1   7  -3    5.78    0.28
   0  -7   3    1.28    0.07
   0  -7   3    1.21    0.12
   0  -7   3    1.18    0.10
   0  -7   3    1.23    0.10
   0  -7   3    1.39    0.10
   0  -7  -3    1.28    0.12
   0  -7  -3    1.43    0.13
   0   7   3    1.26    0.09
   0   7  -3    1.13    0.14
   0   7  -3    1.18    0.09
   0   7   3    1.31    0.11
   0   7   3    1.26    0.09
   0   7   3    1.21    0.11
   0   7   3    1.59    0.19
   0   7   3    1.52    0.16
   1  -7   3    2.46    0.18
   1  -7   3    2.50    0.13
  -1  -7  -3    2.37    0.17
   1  -7   3    2.60    0.12
  -1  -7  -3    2.46    0.16
   1  -7   3    2.44    0.14
   1  -7   3    2.51    0.17
   1   7   3    2.76    0.17
  -1   7  -3    2.75    0.16
   1   7   3    2.58    0.16
   1   7   3    2.48    0.12
   1   7   3    2.28    0.20
   1   7   3    2.77    0.15
  -1   7  -3    2.70    0.14
   1   7   3    2.68    0.14
  -1   7  -3    2.65    0.18
  -1   7  -3    2.50    0.20
   2  -7   3    4.04    0.23
   2  -7   3    4.58    0.24
  -2  -7  -3    4.27    0.23
  -2  -7  -3    4.71    0.21
   2  -7   3    4.30    0.21
  -2  -7  -3    4.45    0.20
   2  -7   3    4.47    0.18
  -2  -7  -3    4.76    0.22
   2  -7   3    4.61    0.18
  -2  -7  -3    4.46    0.20
  -2   7  -3    4.37    0.20
   2   7   3    4.51    0.21
   2   7   3    4.39    0.18
  -2   7  -3    4.41    0.29
   2   7   3    4.48    0.23
   2   7   3    4.33    0.20
  -2   7  -3    4.32    0.21
   2   7   3    4.10    0.21
   3  -7   3    0.29    0.05
  -3  -7  -3    0.22    0.05
   3  -7   3    0.30    0.07
  -3  -7  -3    0.29    0.07
   3  -7   3    0.31    0.06
  -3  -7  -3    0.34    0.06
  -3  -7  -3    0.43    0.09
  -3  -7  -3    0.28    0.06
  -3  -7  -3    0.20    0.06
  -3   7  -3    0.23    0.12
   3   7   3    0.32    0.05
   3   7   3    0.30    0.07
  -3   7  -3    0.38    0.07
   3   7   3    0.43    0.07
  -3   7  -3    0.27    0.10
  -4  -7  -3    0.37    0.10
  -4  -7  -3    0.28    0.07
   4  -7   3    0.51    0.09
   4  -7   3    0.36    0.07
  -4  -7  -3    0.42    0.08
   4  -7   3    0.39    0.07
  -4  -7  -3    0.37    0.10
  -4  -7  -3    0.26    0.07
  -4  -7  -3    0.33    0.08
   4   7   3    0.30    0.07
   4   7   3    0.46    0.08
  -4   7  -3    0.38    0.07
   4   7   3    0.43    0.07
  -4   7  -3    0.40    0.14
  -4   7  -3    0.17    0.08
  -4   7  -3    0.52    0.14
  -5  -7  -3    0.56    0.11
  -5  -7  -3    0.40    0.11
  -5  -7  -3    0.66    0.11
  -5  -7  -3    0.70    0.10
   5   7   3    0.57    0.11
  -5   7  -3    0.29    0.13
  -5   7  -3    0.32    0.14
   5   7   3    0.61    0.10
  -5  -8   3    1.64    0.20
  -5  -8   3    1.57    0.17
  -5   8   3    1.85    0.16
   5   8  -3    1.87    0.15
  -4  -8   3    1.32    0.14
  -4  -8   3    1.26    0.14
  -4  -8   3    1.54    0.18
   4  -8  -3    1.21    0.14
  -4   8   3    1.29    0.14
  -4   8   3    1.09    0.19
   4   8  -3    1.26    0.13
   4   8  -3    1.28    0.12
   3  -8  -3    1.79    0.15
   3  -8  -3    1.69    0.15
  -3  -8   3    1.70    0.18
  -3  -8   3    1.89    0.14
  -3  -8   3    1.59    0.12
  -3   8   3    1.67    0.12
  -3   8   3    1.97    0.24
  -3   8   3    1.83    0.15
  -3   8   3    1.78    0.15
   3   8  -3    1.83    0.13
   3   8  -3    1.76    0.12
  -3   8   3    1.84    0.11
   2  -8  -3    0.99    0.12
  -2  -8   3    1.13    0.13
   2  -8  -3    0.95    0.13
  -2  -8   3    1.21    0.11
  -2   8   3    0.93    0.14
   2   8  -3    1.18    0.10
  -2   8   3    1.06    0.13
   2   8  -3    0.99    0.09
  -2   8   3    1.02    0.16
  -2   8   3    1.09    0.11
   2   8  -3    1.13    0.08
  -1  -8   3    2.26    0.13
  -1  -8   3    1.69    0.12
  -1  -8   3    1.68    0.13
  -1  -8   3    1.66    0.13
   1  -8  -3    1.39    0.16
   1  -8  -3    1.54    0.14
  -1  -8   3    1.49    0.11
  -1   8   3    1.29    0.16
  -1   8   3    1.68    0.12
   1   8  -3    1.41    0.11
  -1   8   3    1.65    0.14
  -1   8   3    1.62    0.12
   1   8  -3    1.50    0.16
  -1   8   3    1.71    0.20
   1   8  -3    1.63    0.11
   1   8  -3    1.61    0.10
   0  -8   3    0.47    0.09
   0  -8   3    0.39    0.07
   0  -8  -3    0.43    0.08
   0  -8   3    0.36    0.07
   0  -8   3    0.40    0.07
   0  -8   3    0.43    0.04
   0   8   3    0.31    0.09
   0   8   3    0.38    0.06
   0   8   3    0.41    0.09
   0   8  -3    0.25    0.05
   0   8   3    0.30    0.06
   0   8  -3    0.41    0.10
   0   8   3    0.26    0.07
   1  -8   3    1.56    0.18
   1  -8   3    1.56    0.09
   1  -8   3    1.69    0.11
  -1  -8  -3    1.85    0.14
   1  -8   3    1.57    0.12
  -1  -8  -3    1.70    0.15
   1  -8   3    1.55    0.14
  -1   8  -3    1.64    0.20
   1   8   3    1.71    0.15
   1   8   3    1.74    0.12
   1   8   3    1.27    0.10
   1   8   3    1.66    0.10
   1   8   3    1.59    0.14
  -1   8  -3    1.52    0.12
  -2  -8  -3    0.98    0.13
   2  -8   3    1.23    0.11
  -2  -8  -3    1.08    0.11
  -2  -8  -3    0.67    0.10
   2  -8   3    1.02    0.08
   2  -8   3    1.08    0.10
   2  -8   3    1.28    0.16
  -2  -8  -3    0.95    0.09
   2  -8   3    1.03    0.14
  -2   8  -3    1.01    0.12
  -2   8  -3    0.81    0.16
   2   8   3    1.00    0.10
   2   8   3    1.10    0.12
  -2   8  -3    0.90    0.10
  -2   8  -3    1.06    0.16
   2   8   3    1.07    0.09
   3  -8   3    1.22    0.11
   3  -8   3    1.48    0.17
   3  -8   3    1.15    0.10
  -3  -8  -3    1.44    0.14
  -3  -8  -3    1.08    0.11
  -3  -8  -3    1.32    0.12
  -3  -8  -3    1.22    0.11
  -3  -8  -3    1.24    0.14
  -3   8  -3    1.16    0.18
   3   8   3    1.35    0.11
  -3   8  -3    1.26    0.13
   3   8   3    1.14    0.12
   3   8   3    1.42    0.10
  -3   8  -3    1.29    0.21
  -4  -8  -3    0.15    0.07
  -4  -8  -3    0.18    0.06
  -4  -8  -3    0.21    0.07
  -4  -8  -3    0.13    0.07
  -4  -8  -3    0.26    0.06
   4   8   3    0.26    0.06
  -4   8  -3    0.19    0.06
   4   8   3    0.17    0.06
  -4   8  -3    0.17    0.12
  -4  -9   3    0.52    0.12
   4  -9  -3    0.44    0.09
  -4  -9   3    0.47    0.09
  -4   9   3    0.25    0.08
   4   9  -3    0.40    0.08
   3  -9  -3    1.28    0.15
  -3  -9   3    1.48    0.13
  -3  -9   3    1.35    0.16
  -3   9   3    1.17    0.19
  -3   9   3    1.20    0.12
  -3   9   3    1.83    0.18
   3   9  -3    1.13    0.11
   3   9  -3    1.38    0.13
  -3   9   3    1.16    0.14
  -2  -9   3    1.84    0.15
  -2  -9   3    2.26    0.20
   2  -9  -3    1.71    0.16
   2  -9  -3    1.85    0.18
   2   9  -3    1.99    0.14
  -2   9   3    1.72    0.21
   2   9  -3    1.84    0.12
  -2   9   3    1.69    0.13
  -2   9   3    1.79    0.18
   2   9  -3    1.81    0.12
  -2   9   3    2.00    0.13
  -2   9   3    1.94    0.24
  -1  -9   3    3.54    0.20
  -1  -9   3    3.33    0.20
  -1  -9   3    3.27    0.16
  -1  -9   3    3.23    0.17
   1  -9  -3    3.63    0.22
  -1   9   3    3.26    0.19
  -1   9   3    3.41    0.25
  -1   9   3    3.20    0.25
   1   9  -3    3.56    0.19
  -1   9   3    3.43    0.18
   0  -9   3    1.88    0.09
   0  -9   3    2.09    0.15
   0  -9   3    2.03    0.15
   0  -9   3    1.92    0.14
   0  -9  -3    1.81    0.15
   0   9   3    2.12    0.16
   0   9  -3    1.81    0.20
   0   9   3    1.96    0.20
   0   9   3    2.12    0.14
   0   9  -3    2.03    0.14
   1  -9   3    0.77    0.10
   1  -9   3    0.65    0.10
  -1  -9  -3    0.59    0.10
   1  -9   3    0.62    0.07
   1  -9   3    0.50    0.10
  -1  -9  -3    0.74    0.12
  -1   9  -3    0.63    0.09
   1   9   3    0.60    0.11
   1   9   3    0.56    0.07
   1   9   3    0.59    0.09
   1   9   3    0.71    0.09
  -1   9  -3    0.69    0.15
  -2  -9  -3    0.37    0.08
   2  -9   3    0.40    0.08
   2  -9   3    0.32    0.06
  -2  -9  -3    0.49    0.10
   2  -9   3    0.32    0.10
  -2  -9  -3    0.36    0.09
   2   9   3    0.49    0.07
  -2   9  -3    0.42    0.08
   2   9   3    0.47    0.09
   2   9   3    0.50    0.08
  -2   9  -3    0.63    0.15
   3  -9   3    0.28    0.07
  -3  -9  -3    0.37    0.09
  -3  -9  -3    0.25    0.08
  -3  -9  -3    0.25    0.07
  -3   9  -3    0.32    0.11
  -3   9  -3    0.17    0.06
   3   9   3    0.29    0.08
  -3   9  -3    0.29    0.13
  -2 -10   3    0.12    0.07
  -2 -10   3    0.04    0.05
   2 -10  -3    0.10    0.06
   2  10  -3    0.11    0.05
  -2  10   3    0.12    0.10
  -2  10   3    0.13    0.08
   2  10  -3    0.07    0.04
  -2  10   3    0.08    0.05
  -1 -10   3    4.22    0.24
  -1 -10   3    4.12    0.18
   1 -10  -3    4.55    0.25
  -1 -10   3    4.51    0.24
  -1 -10   3    4.11    0.18
  -1  10   3    4.37    0.22
  -1  10   3    4.64    0.24
   1  10  -3    4.33    0.23
  -1  10   3    4.71    0.31
   0 -10   3    1.56    0.13
   0 -10   3    1.82    0.15
   0 -10  -3    1.69    0.15
   0 -10   3    1.81    0.17
   0  10   3    1.58    0.14
   0  10   3    1.65    0.19
   0  10  -3    1.94    0.15
   0  10   3    1.73    0.15
   1 -10   3    0.28    0.08
  -1 -10  -3    0.39    0.09
   1 -10   3    0.23    0.07
   1 -10   3    0.36    0.08
   1 -10   3    0.24    0.04
  -1 -10  -3    0.34    0.08
  -1  10  -3    0.23    0.12
   1  10   3    0.25    0.07
  -1  10  -3    0.33    0.07
   2 -10   3    2.21    0.16
  -2 -10  -3    2.15    0.18
  -2 -10  -3    1.83    0.18
  -2 -10  -3    1.99    0.16
   2  10   3    2.06    0.16
  -2  10  -3    1.71    0.26
  -7   0   4    1.42    0.16
   7   0  -4    1.46    0.12
  -7   0   4    1.69    0.10
  -7   0   4    1.69    0.23
   7   0  -4    1.83    0.19
   6   0  -4    3.31    0.21
  -6   0   4    3.24    0.25
  -6   0   4    3.18    0.19
  -6   0   4    3.38    0.14
   6   0  -4    3.10    0.15
   6   0  -4    3.31    0.20
  -6   0   4    3.14    0.23
   5   0  -4   22.44    0.62
  -5   0   4   21.10    0.66
   5   0  -4   21.88    0.70
  -5   0   4   20.55    0.69
  -5   0   4   21.43    0.76
   5   0  -4   20.54    0.71
   5   0  -4   21.84    0.63
  -5   0   4   21.50    0.63
  -5   0   4   20.95    0.74
   4   0  -4   18.23    0.53
   4   0  -4   18.82    0.52
  -4   0   4   18.13    0.53
  -4   0   4   18.96    0.63
  -4   0   4   18.37    0.57
  -4   0   4   18.69    0.59
  -4   0   4   19.19    0.65
   4   0  -4   18.05    0.60
  -3   0   4    2.23    0.13
  -3   0   4    2.23    0.12
   3   0  -4    2.76    0.13
  -3   0   4    2.20    0.11
  -3   0   4    2.18    0.14
  -3   0   4    2.25    0.08
  -2   0   4    8.38    0.27
   2   0  -4    7.79    0.28
  -2   0   4    8.31    0.27
  -2   0   4    8.41    0.30
  -2   0   4    8.03    0.23
   2   0  -4    7.96    0.27
  -2   0   4    8.13    0.27
  -1   0   4  125.71    3.58
  -1   0   4  136.14    3.62
  -1   0   4  130.58    3.58
  -1   0   4  127.35    3.60
   1   0  -4  128.66    3.59
  -1   0   4  132.44    3.59
   0   0   4   41.11    1.09
   0   0  -4   40.32    1.11
   0   0  -4   39.56    1.10
   0   0  -4   38.30    1.10
   0   0  -4   40.24    1.10
   0   0  -4   39.89    1.14
   0   0  -4   36.99    1.09
   0   0  -4   40.56    1.10
   0   0   4   39.52    1.10
   0   0  -4   38.05    1.09
   0   0   4   38.17    1.10
   0   0   4   41.94    1.09
   0   0   4   39.11    1.21
   0   0   4   40.52    1.09
   0   0  -4   38.66    1.21
   0   0   4   39.41    1.08
   0   0  -4   39.49    1.10
   0   0  -4   38.63    1.10
  -1   0  -4    9.63    0.31
   1   0   4   10.84    0.30
   1   0   4   10.43    0.41
  -1   0  -4   10.68    0.34
  -1   0  -4   10.36    0.32
  -1   0  -4    9.84    0.31
  -1   0  -4   10.03    0.31
   1   0   4   10.41    0.29
  -1   0  -4   10.41    0.42
  -1   0  -4    9.62    0.31
   1   0   4   10.78    0.31
   1   0   4   10.34    0.33
  -1   0  -4   10.42    0.31
   1   0   4   10.72    0.31
  -1   0  -4    8.74    0.30
   1   0   4   10.84    0.31
  -1   0  -4    9.90    0.31
   2   0   4  202.60    6.40
  -2   0  -4  212.54    6.12
   2   0   4  237.12    6.10
  -2   0  -4  221.88    6.02
   2   0   4  221.61    6.06
   2   0   4  220.41    6.03
   2   0   4  221.62    6.02
  -2   0  -4  232.65    6.16
  -2   0  -4  199.08    6.07
  -2   0  -4  209.07    6.64
   2   0   4  216.23    6.02
   2   0   4  246.35    6.17
  -2   0  -4  230.79    6.13
   2   0   4  237.69    6.13
  -2   0  -4  188.18    6.03
   2   0   4  215.27    6.03
   3   0   4    1.09    0.08
  -3   0  -4    1.28    0.07
  -3   0  -4    0.99    0.10
  -3   0  -4    1.05    0.04
   3   0   4    1.05    0.07
  -3   0  -4    1.04    0.17
   3   0   4    1.10    0.08
   3   0   4    1.06    0.07
   3   0   4    1.03    0.09
  -3   0  -4    1.14    0.06
   3   0   4    0.96    0.08
  -3   0  -4    0.91    0.11
  -3   0  -4    1.17    0.11
  -3   0  -4    1.29    0.07
   3   0   4    1.16    0.08
  -3   0  -4    1.13    0.08
   3   0   4    1.08    0.10
  -4   0  -4    0.99    0.07
  -4   0  -4    0.88    0.12
  -4   0  -4    0.87    0.12
   4   0   4    0.95    0.07
  -4   0  -4    0.53    0.17
   4   0   4    0.86    0.07
  -4   0  -4    0.94    0.14
   4   0   4    0.95    0.10
   4   0   4    0.78    0.08
   4   0   4    0.93    0.10
   5   0   4    4.82    0.23
  -5   0  -4    5.05    0.19
   5   0   4    5.61    0.22
  -5   0  -4    5.01    0.32
  -5   0  -4    5.26    0.27
  -5   0  -4    5.30    0.26
  -5   0  -4    5.34    0.23
   5   0   4    5.14    0.26
   6   0   4    0.51    0.08
  -6   0  -4    0.40    0.08
   6   0   4    0.57    0.09
  -6   0  -4    0.55    0.09
   6   0   4    0.43    0.10
  -6   0  -4    0.48    0.14
  -6   0  -4    0.42    0.12
  -7  -1   4    1.67    0.23
   7  -1  -4    1.74    0.13
   7  -1  -4    2.11    0.18
  -7  -1   4    1.90    0.20
  -7  -1   4    1.71    0.10
  -7   1   4    1.66    0.17
   7   1  -4    1.89    0.12
  -7   1   4    1.90    0.24
  -7   1   4    1.93    0.24
  -7   1   4    1.83    0.11
   7   1  -4    1.86    0.18
  -6  -1   4    4.79    0.28
   6  -1  -4    5.27    0.21
  -6  -1   4    4.90    0.26
  -6  -1   4    4.86    0.31
   6  -1  -4    4.80    0.26
  -6  -1   4    5.02    0.18
  -6   1   4    4.78    0.30
  -6   1   4    4.67    0.24
   6   1  -4    5.07    0.20
   6   1  -4    5.53    0.26
  -6   1   4    5.09    0.19
  -6   1   4    4.86    0.30
   6   1  -4    5.17    0.27
   5  -1  -4    3.41    0.14
  -5  -1   4    3.21    0.20
   5  -1  -4    3.13    0.18
  -5  -1   4    3.30    0.19
   5  -1  -4    3.36    0.12
  -5  -1   4    3.35    0.13
  -5  -1   4    3.53    0.23
  -5   1   4    3.59    0.18
   5   1  -4    3.12    0.12
  -5   1   4    3.47    0.14
   5   1  -4    3.15    0.17
  -5   1   4    3.45    0.18
   5   1  -4    3.14    0.13
  -5   1   4    3.41    0.23
  -5   1   4    3.69    0.23
   4  -1  -4    7.08    0.23
  -4  -1   4    7.05    0.23
  -4  -1   4    7.32    0.24
  -4  -1   4    7.72    0.30
   4  -1  -4    6.78    0.28
  -4  -1   4    7.35    0.29
  -4  -1   4    7.29    0.33
  -4   1   4    7.74    0.33
  -4   1   4    7.38    0.32
   4   1  -4    7.69    0.22
   4   1  -4    7.26    0.27
  -4   1   4    7.43    0.24
  -4   1   4    7.55    0.29
  -4   1   4    7.58    0.28
   3  -1  -4   79.93    2.15
  -3  -1   4   77.86    2.20
  -3  -1   4   77.91    2.15
  -3  -1   4   78.60    2.25
   3  -1  -4   73.83    2.20
  -3  -1   4   78.01    2.17
  -3  -1   4   80.71    2.21
  -3   1   4   79.16    2.24
   3   1  -4   78.18    2.19
  -3   1   4   78.64    2.20
   3   1  -4   76.47    2.18
  -3   1   4   79.61    2.16
  -3   1   4   78.39    2.21
   3   1  -4   78.78    2.19
  -2  -1   4   55.43    1.50
  -2  -1   4   53.48    1.50
  -2  -1   4   54.65    1.53
   2  -1  -4   50.25    1.49
   2  -1  -4   53.28    1.46
  -2  -1   4   54.49    1.51
  -2   1   4   53.96    1.47
  -2   1   4   53.18    1.50
   2   1  -4   51.39    1.49
   2   1  -4   51.64    1.47
   2   1  -4   53.06    1.49
   2   1  -4   52.16    1.48
  -2   1   4   52.50    1.46
  -2   1   4   54.10    1.53
  -2   1   4   53.91    1.50
   2   1  -4   52.82    1.57
  -2   1   4   53.59    1.52
   1  -1  -4   13.73    0.39
  -1  -1   4   13.69    0.42
   1  -1  -4   13.87    0.41
   1  -1  -4   14.23    0.40
  -1  -1   4   14.00    0.40
  -1  -1   4   13.95    0.42
  -1  -1   4   13.97    0.44
   1  -1  -4   14.17    0.40
   1  -1  -4   14.21    0.39
  -1  -1   4   13.53    0.39
   1  -1  -4   13.60    0.39
   1  -1  -4   14.18    0.40
  -1   1   4   14.02    0.41
   1   1  -4   13.56    0.39
  -1   1   4   13.85    0.44
   1   1  -4   14.13    0.42
  -1   1   4   13.68    0.40
  -1   1   4   14.05    0.42
   1   1  -4   14.78    0.50
   1   1  -4   14.13    0.39
  -1   1   4   13.49    0.39
   0  -1  -4  132.28    3.35
   0  -1   4  126.35    3.31
   0  -1  -4  121.17    3.29
   0  -1  -4  115.44    3.41
   0  -1  -4  134.64    3.32
   0  -1   4  118.26    3.29
   0  -1  -4  134.24    3.35
   0  -1  -4  123.73    3.38
   0  -1   4  119.31    3.29
   0  -1  -4  121.59    3.32
   0  -1  -4  112.25    3.33
   0  -1  -4  118.05    3.30
   0  -1  -4  124.55    3.29
   0  -1   4  123.12    3.32
   0  -1   4  130.07    3.41
   0  -1   4  119.16    3.32
   0  -1  -4  113.95    3.33
   0  -1   4  115.85    3.30
   0   1  -4  110.43    3.31
   0   1   4  122.19    3.32
   0   1  -4  111.28    3.55
   0   1  -4  117.66    3.31
   0   1  -4  118.74    3.32
   0   1  -4  122.27    3.34
   0   1  -4  102.11    3.32
   0   1   4  114.10    3.32
   0   1   4  127.13    3.36
   0   1  -4  106.50    3.31
   0   1   4  123.93    3.30
   0   1   4  114.57    3.33
   0   1  -4  133.65    3.34
   0   1   4  125.31    3.33
   0   1  -4  116.91    3.32
   0   1   4  102.43    3.32
   0   1   4  132.14    3.33
   0   1   4  112.07    3.31
   0   1   4  118.64    3.31
   0   1  -4  118.21    3.29
  -1  -1  -4   41.43    1.18
  -1  -1  -4   41.50    1.15
   1  -1   4   39.97    1.15
   1  -1   4   42.27    1.28
   1  -1   4   41.17    1.14
   1  -1   4   42.37    1.13
  -1  -1  -4   41.74    1.14
   1  -1   4   40.77    1.13
   1  -1   4   38.19    1.15
  -1  -1  -4   42.75    1.27
   1  -1   4   41.74    1.15
  -1  -1  -4   37.78    1.14
  -1  -1  -4   40.54    1.14
  -1  -1  -4   41.75    1.19
  -1  -1  -4   40.39    1.14
   1  -1   4   40.54    1.17
  -1   1  -4   39.70    1.13
  -1   1  -4   41.46    1.16
  -1   1  -4   39.96    1.15
  -1   1  -4   41.52    1.14
   1   1   4   41.87    1.15
   1   1   4   40.89    1.14
  -1   1  -4   41.16    1.12
   1   1   4   40.41    1.17
  -1   1  -4   39.13    1.15
   1   1   4   39.60    1.15
  -1   1  -4   38.49    1.14
  -1   1  -4   42.02    1.15
   1   1   4   38.68    1.14
  -1   1  -4   43.78    1.34
  -1   1  -4   41.74    1.18
   2  -1   4    7.19    0.24
   2  -1   4    7.63    0.23
  -2  -1  -4    6.56    0.23
  -2  -1  -4    7.30    0.28
   2  -1   4    7.51    0.24
  -2  -1  -4    6.30    0.24
  -2  -1  -4    6.89    0.23
  -2  -1  -4    7.18    0.34
   2  -1   4    7.67    0.24
   2  -1   4    7.33    0.25
  -2  -1  -4    6.61    0.23
  -2  -1  -4    6.87    0.23
   2  -1   4    7.38    0.23
   2  -1   4    7.54    0.24
   2   1   4    7.28    0.33
  -2   1  -4    7.55    0.29
   2   1   4    7.31    0.27
   2   1   4    7.14    0.25
  -2   1  -4    6.58    0.28
   2   1   4    7.45    0.24
   2   1   4    7.54    0.23
  -2   1  -4    6.48    0.24
   2   1   4    7.32    0.24
  -2   1  -4    7.12    0.42
  -2   1  -4    6.80    0.24
  -2   1  -4    7.05    0.23
   2   1   4    7.28    0.25
   2   1   4    7.35    0.24
   3  -1   4   14.22    0.50
  -3  -1  -4   14.15    0.63
  -3  -1  -4   14.52    0.51
   3  -1   4   14.04    0.45
  -3  -1  -4   14.81    0.43
  -3  -1  -4   13.54    0.50
   3  -1   4   14.34    0.44
  -3  -1  -4   14.24    0.49
  -3  -1  -4   14.08    0.42
   3  -1   4   13.79    0.45
   3  -1   4   14.00    0.45
  -3  -1  -4   13.57    0.41
  -3  -1  -4   14.37    0.42
  -3  -1  -4   14.32    0.45
   3  -1   4   14.03    0.44
   3  -1   4   14.43    0.44
  -3  -1  -4   13.51    0.42
  -3   1  -4   14.12    0.45
  -3   1  -4   14.37    0.50
  -3   1  -4   14.23    0.44
   3   1   4   13.99    0.45
  -3   1  -4   14.09    0.50
  -3   1  -4   14.22    0.42
   3   1   4   14.14    0.43
   3   1   4   13.76    0.46
   3   1   4   13.94    0.55
   3   1   4   14.80    0.50
   3   1   4   14.33    0.44
  -3   1  -4   13.99    0.42
  -3   1  -4   13.34    0.72
   3   1   4   14.56    0.45
  -3   1  -4   14.52    0.53
   3   1   4   13.93    0.44
   3   1   4   14.33    0.46
  -4  -1  -4   11.53    0.48
  -4  -1  -4   11.56    0.46
   4  -1   4   12.24    0.39
  -4  -1  -4   10.37    0.61
   4  -1   4   11.90    0.40
  -4  -1  -4   12.09    0.45
  -4  -1  -4   12.18    0.41
  -4  -1  -4   11.90    0.37
   4  -1   4   12.39    0.41
   4  -1   4   12.11    0.39
   4   1   4   11.88    0.41
  -4   1  -4   12.03    0.46
   4   1   4   12.05    0.38
  -4   1  -4   11.26    0.49
  -4   1  -4   12.27    0.38
   4   1   4   12.54    0.41
  -4   1  -4   12.61    0.41
  -4   1  -4   11.31    0.45
   4   1   4   12.03    0.43
  -5  -1  -4    1.46    0.20
   5  -1   4    1.58    0.11
   5  -1   4    1.52    0.10
  -5  -1  -4    1.32    0.13
  -5  -1  -4    1.24    0.10
   5  -1   4    1.32    0.14
   5   1   4    1.41    0.10
  -5   1  -4    1.25    0.08
  -5   1  -4    1.41    0.11
   5   1   4    1.24    0.13
  -5   1  -4    0.79    0.25
   5   1   4    1.29    0.11
  -5   1  -4    1.33    0.13
  -5   1  -4    1.44    0.20
  -5   1  -4    1.56    0.17
   6  -1   4    0.87    0.13
  -6  -1  -4    0.66    0.15
  -6  -1  -4    0.67    0.14
   6  -1   4    0.72    0.09
  -6  -1  -4    0.96    0.11
   6  -1   4    0.91    0.11
  -6  -1  -4    0.85    0.12
  -6   1  -4    0.64    0.13
   6   1   4    0.85    0.12
  -6   1  -4    0.85    0.14
  -6   1  -4    0.73    0.10
  -6   1  -4    0.65    0.17
  -6   1  -4    0.81    0.11
   6   1   4    0.85    0.10
   6   1   4    0.79    0.11
  -7  -2   4    1.66    0.23
   7  -2  -4    1.94    0.14
  -7  -2   4    1.86    0.20
  -7  -2   4    1.94    0.10
  -7   2   4    2.15    0.25
  -7   2   4    1.88    0.18
  -7   2   4    1.73    0.11
   7   2  -4    1.79    0.18
  -7   2   4    1.95    0.24
   7   2  -4    1.63    0.12
   7   2  -4    1.87    0.12
  -6  -2   4    1.82    0.21
   6  -2  -4    2.23    0.16
  -6  -2   4    2.40    0.18
  -6  -2   4    2.09    0.10
   6  -2  -4    2.28    0.13
   6   2  -4    2.28    0.16
  -6   2   4    1.60    0.19
  -6   2   4    2.16    0.12
  -6   2   4    2.12    0.15
   6   2  -4    2.20    0.11
   6   2  -4    2.04    0.17
  -6   2   4    1.79    0.22
   5  -2  -4    9.78    0.34
  -5  -2   4   10.11    0.31
  -5  -2   4    9.98    0.39
   5  -2  -4    9.49    0.38
  -5  -2   4    9.48    0.38
  -5  -2   4   10.10    0.44
   5  -2  -4   10.10    0.31
  -5   2   4   10.43    0.45
   5   2  -4   10.17    0.31
  -5   2   4    9.81    0.37
   5   2  -4    9.87    0.37
  -5   2   4    9.90    0.33
  -5   2   4   10.03    0.43
  -5   2   4   10.23    0.40
  -4  -2   4   21.09    0.61
   4  -2  -4   20.31    0.67
  -4  -2   4   21.20    0.66
  -4  -2   4   21.48    0.68
  -4  -2   4   20.58    0.72
   4  -2  -4   21.27    0.63
  -4   2   4   20.88    0.70
  -4   2   4   21.89    0.66
   4   2  -4   21.88    0.61
  -4   2   4   21.75    0.74
   4   2  -4   22.03    0.66
   4   2  -4   21.52    0.66
  -4   2   4   20.41    0.71
  -4   2   4   21.71    0.63
  -3  -2   4    2.97    0.13
  -3  -2   4    3.05    0.13
  -3  -2   4    3.07    0.10
   3  -2  -4    2.95    0.14
   3  -2  -4    2.90    0.12
  -3  -2   4    3.06    0.17
  -3   2   4    3.07    0.13
  -3   2   4    2.97    0.12
   3   2  -4    2.93    0.13
  -3   2   4    3.28    0.19
   3   2  -4    2.93    0.09
   3   2  -4    2.82    0.12
   3   2  -4    3.00    0.16
  -3   2   4    3.25    0.17
  -3   2   4    3.13    0.17
  -2  -2   4   40.16    1.13
  -2  -2   4   41.33    1.19
   2  -2  -4   41.84    1.14
  -2  -2   4   40.22    1.16
  -2  -2   4   41.27    1.17
   2  -2  -4   38.60    1.15
  -2  -2   4   41.43    1.16
   2   2  -4   40.10    1.13
   2   2  -4   40.66    1.14
   2   2  -4   42.66    1.23
  -2   2   4   40.26    1.15
  -2   2   4   39.14    1.13
  -2   2   4   40.27    1.19
  -2   2   4   41.47    1.18
  -2   2   4   39.75    1.15
   2   2  -4   40.80    1.14
  -1  -2   4   75.51    2.11
   1  -2  -4   76.68    2.12
   1  -2  -4   79.16    2.13
  -1  -2   4   76.40    2.12
  -1  -2   4   79.22    2.23
   1  -2  -4   78.38    2.11
   1  -2  -4   78.70    2.13
   1  -2  -4   77.00    2.11
  -1  -2   4   79.66    2.13
  -1  -2   4   78.14    2.15
   1  -2  -4   74.95    2.11
   1  -2  -4   76.64    2.10
  -1  -2   4   77.82    2.13
  -1  -2   4   75.14    2.14
  -1   2   4   76.24    2.13
   1   2  -4   78.37    2.11
  -1   2   4   74.93    2.12
  -1   2   4   77.47    2.13
   1   2  -4   74.04    2.10
  -1   2   4   76.31    2.11
  -1   2   4   69.52    2.11
   1   2  -4   75.87    2.11
   1   2  -4   75.97    2.11
   1   2  -4   82.20    2.25
  -1   2   4   79.40    2.17
   1   2  -4   70.18    2.10
   0  -2   4    3.48    0.13
   0  -2  -4    3.43    0.16
   0  -2  -4    3.54    0.12
   0  -2  -4    3.35    0.14
   0  -2  -4    3.32    0.13
   0  -2  -4    3.31    0.14
   0  -2  -4    3.24    0.12
   0  -2  -4    3.25    0.13
   0  -2   4    3.60    0.11
   0  -2   4    3.74    0.21
   0  -2   4    3.62    0.12
   0  -2   4    3.65    0.11
   0  -2   4    3.76    0.12
   0  -2  -4    3.36    0.12
   0  -2  -4    3.18    0.12
   0  -2   4    3.55    0.12
   0   2   4    3.70    0.14
   0   2  -4    3.47    0.14
   0   2  -4    3.30    0.12
   0   2  -4    3.37    0.13
   0   2  -4    3.25    0.13
   0   2  -4    3.44    0.14
   0   2  -4    3.39    0.23
   0   2   4    3.63    0.12
   0   2   4    3.65    0.13
   0   2  -4    3.21    0.12
   0   2  -4    3.18    0.12
   0   2  -4    3.57    0.13
   0   2  -4    3.33    0.11
   0   2   4    3.52    0.12
   0   2  -4    3.18    0.12
   0   2   4    3.60    0.11
   0   2   4    3.57    0.12
   0   2   4    3.59    0.12
   0   2   4    3.49    0.12
   0   2   4    3.47    0.12
   0   2  -4    3.38    0.15
   0   2  -4    3.34    0.12
   0   2   4    3.49    0.13
   1  -2   4   68.25    1.83
   1  -2   4   69.13    1.83
  -1  -2  -4   67.71    1.96
   1  -2   4   67.46    1.86
  -1  -2  -4   76.42    1.88
  -1  -2  -4   65.55    1.89
  -1  -2  -4   63.78    1.87
   1  -2   4   71.17    2.02
   1  -2   4   67.61    1.82
   1  -2   4   61.96    1.84
  -1  -2  -4   66.59    1.83
   1  -2   4   66.55    1.84
  -1  -2  -4   64.61    1.84
  -1  -2  -4   66.88    1.83
  -1  -2  -4   61.71    1.83
   1  -2   4   68.85    1.87
   1  -2   4   64.75    1.84
  -1  -2  -4   66.84    1.83
  -1   2  -4   62.60    1.84
   1   2   4   65.56    1.83
  -1   2  -4   66.90    1.84
   1   2   4   62.63    1.83
   1   2   4   64.59    1.84
  -1   2  -4   65.82    1.82
  -1   2  -4   67.41    1.85
   1   2   4   58.34    1.84
  -1   2  -4   62.03    1.84
   1   2   4   57.13    1.89
  -1   2  -4   63.67    1.82
  -1   2  -4   67.78    1.88
  -1   2  -4   66.69    2.10
   1   2   4   69.75    1.87
  -1   2  -4   67.17    1.88
   1   2   4   66.58    1.82
   1   2   4   65.62    1.83
   2  -2   4    9.32    0.29
  -2  -2  -4    8.94    0.30
  -2  -2  -4    9.46    0.39
  -2  -2  -4    9.49    0.29
   2  -2   4    8.84    0.30
  -2  -2  -4    9.14    0.29
   2  -2   4    8.92    0.29
   2  -2   4    8.97    0.29
   2  -2   4    8.94    0.31
  -2  -2  -4    8.93    0.29
   2  -2   4    9.13    0.29
  -2  -2  -4    9.39    0.36
   2  -2   4    9.27    0.29
  -2  -2  -4    8.71    0.33
  -2   2  -4    9.51    0.36
  -2   2  -4    8.34    0.52
  -2   2  -4    9.24    0.30
   2   2   4    9.41    0.31
  -2   2  -4    8.82    0.30
   2   2   4    9.15    0.29
  -2   2  -4    9.21    0.31
   2   2   4    9.08    0.30
   2   2   4    8.79    0.28
  -2   2  -4    9.41    0.28
   2   2   4    8.78    0.31
  -2   2  -4    9.11    0.31
   2   2   4    9.23    0.29
   2   2   4    9.35    0.33
  -2   2  -4    8.96    0.35
   2   2   4    8.97    0.31
  -3  -2  -4   16.06    0.54
   3  -2   4   16.22    0.51
   3  -2   4   15.83    0.48
  -3  -2  -4   15.76    0.48
  -3  -2  -4   15.06    0.47
   3  -2   4   15.79    0.48
  -3  -2  -4   15.62    0.49
  -3  -2  -4   16.02    0.48
  -3  -2  -4   15.09    0.47
  -3  -2  -4   15.37    0.63
   3  -2   4   16.31    0.48
   3  -2   4   15.39    0.49
  -3  -2  -4   15.94    0.56
   3  -2   4   15.63    0.47
   3  -2   4   15.67    0.54
   3  -2   4   15.71    0.50
   3   2   4   15.70    0.48
  -3   2  -4   16.06    0.50
  -3   2  -4   15.64    0.49
  -3   2  -4   15.68    0.58
   3   2   4   16.11    0.49
  -3   2  -4   15.35    0.56
   3   2   4   15.29    0.51
   3   2   4   16.01    0.49
   3   2   4   16.34    0.54
   3   2   4   16.06    0.50
   3   2   4   14.46    0.50
   3   2   4   16.11    0.51
   4  -2   4    1.03    0.10
   4  -2   4    0.94    0.08
   4  -2   4    1.09    0.08
  -4  -2  -4    0.99    0.08
  -4  -2  -4    0.96    0.16
  -4  -2  -4    1.05    0.09
   4  -2   4    1.08    0.08
  -4  -2  -4    0.80    0.12
  -4  -2  -4    1.05    0.12
   4   2   4    1.01    0.08
  -4   2  -4    0.95    0.07
   4   2   4    1.18    0.11
   4   2   4    1.10    0.09
  -4   2  -4    1.06    0.09
  -4   2  -4    0.88    0.26
  -4   2  -4    1.13    0.15
  -4   2  -4    0.84    0.15
  -4   2  -4    0.86    0.12
   4   2   4    0.99    0.09
   5  -2   4    3.07    0.17
  -5  -2  -4    3.23    0.19
  -5  -2  -4    3.19    0.25
   5  -2   4    3.07    0.16
  -5  -2  -4    3.45    0.17
   5   2   4    3.18    0.16
  -5   2  -4    3.26    0.25
  -5   2  -4    3.12    0.20
  -5   2  -4    3.39    0.18
   5   2   4    3.60    0.20
  -5   2  -4    3.08    0.26
   5   2   4    3.06    0.18
  -5   2  -4    3.13    0.14
   6  -2   4    1.89    0.13
   6  -2   4    1.81    0.14
  -6  -2  -4    1.96    0.14
  -6  -2  -4    1.67    0.17
  -6  -2  -4    1.82    0.23
  -6  -2  -4    1.43    0.20
  -6   2  -4    1.62    0.08
  -6   2  -4    1.57    0.11
  -6   2  -4    1.66    0.24
  -6   2  -4    1.47    0.19
   6   2   4    1.87    0.15
  -6   2  -4    1.68    0.20
   6   2   4    1.92    0.13
   6   2   4    1.55    0.16
  -6   2  -4    1.71    0.14
  -6   2  -4    1.75    0.14
  -7  -3   4    2.01    0.26
   7  -3  -4    2.58    0.17
  -7  -3   4    2.44    0.12
  -7  -3   4    2.15    0.21
  -7   3   4    2.47    0.26
   7   3  -4    2.58    0.15
   7   3  -4    2.42    0.14
  -7   3   4    2.24    0.25
  -7   3   4    2.58    0.30
  -7   3   4    2.37    0.14
  -6  -3   4    4.27    0.17
  -6  -3   4    3.99    0.29
  -6  -3   4    4.49    0.25
   6  -3  -4    4.55    0.24
   6  -3  -4    4.12    0.21
  -6   3   4    4.20    0.27
  -6   3   4    4.37    0.19
   6   3  -4    4.40    0.21
   6   3  -4    4.80    0.23
  -6   3   4    4.54    0.31
   6   3  -4    4.40    0.18
  -6   3   4    4.43    0.27
  -6   3   4    4.39    0.22
  -5  -3   4    4.92    0.18
   5  -3  -4    5.11    0.24
  -5  -3   4    5.15    0.25
  -5  -3   4    4.70    0.28
   5  -3  -4    5.43    0.22
   5  -3  -4    5.35    0.21
  -5   3   4    5.35    0.23
   5   3  -4    5.32    0.21
   5   3  -4    5.08    0.19
   5   3  -4    5.35    0.23
  -5   3   4    5.14    0.21
  -5   3   4    4.87    0.27
  -5   3   4    4.92    0.27
  -5   3   4    4.72    0.30
  -4  -3   4   15.36    0.45
   4  -3  -4   14.52    0.50
  -4  -3   4   14.56    0.47
   4  -3  -4   15.42    0.48
  -4  -3   4   14.48    0.51
  -4  -3   4   14.68    0.55
  -4  -3   4   14.79    0.48
   4  -3  -4   14.62    0.46
   4   3  -4   15.06    0.44
  -4   3   4   15.28    0.55
   4   3  -4   15.05    0.49
  -4   3   4   15.03    0.54
   4   3  -4   14.79    0.47
  -4   3   4   15.71    0.48
  -4   3   4   14.92    0.47
  -4   3   4   15.44    0.59
   3  -3  -4   11.91    0.37
  -3  -3   4   11.74    0.38
  -3  -3   4   11.31    0.35
  -3  -3   4   12.06    0.40
   3  -3  -4   10.96    0.38
   3  -3  -4   11.76    0.36
  -3  -3   4   11.60    0.34
  -3  -3   4   11.08    0.42
  -3   3   4   11.30    0.37
   3   3  -4   11.70    0.37
   3   3  -4   11.81    0.43
   3   3  -4   11.53    0.36
   3   3  -4   11.77    0.34
  -3   3   4   11.16    0.41
  -3   3   4   11.33    0.37
  -3   3   4   11.45    0.43
  -3   3   4   11.35    0.45
  -2  -3   4   11.60    0.36
  -2  -3   4   11.37    0.37
  -2  -3   4   11.18    0.42
  -2  -3   4   11.08    0.38
  -2  -3   4   11.46    0.37
  -2  -3   4   11.49    0.35
   2  -3  -4   11.50    0.36
   2  -3  -4   11.41    0.36
   2  -3  -4   11.81    0.38
   2  -3  -4   11.69    0.36
  -2  -3   4   11.93    0.40
   2   3  -4   11.29    0.34
   2   3  -4   11.11    0.34
  -2   3   4   11.90    0.42
  -2   3   4   11.38    0.38
  -2   3   4   11.63    0.34
   2   3  -4   10.98    0.32
   2   3  -4   10.97    0.35
  -2   3   4   11.40    0.37
   2   3  -4   11.17    0.34
  -2   3   4   11.36    0.35
   2   3  -4   11.68    0.47
   2   3  -4   11.55    0.35
  -1  -3   4   22.06    0.65
  -1  -3   4   22.22    0.66
   1  -3  -4   22.45    0.68
  -1  -3   4   21.43    0.64
   1  -3  -4   22.24    0.65
  -1  -3   4   23.23    0.76
  -1  -3   4   22.31    0.67
   1  -3  -4   22.07    0.66
  -1  -3   4   22.39    0.67
   1  -3  -4   22.58    0.67
  -1  -3   4   22.40    0.66
  -1   3   4   23.12    0.67
  -1   3   4   23.15    0.64
   1   3  -4   21.75    0.62
   1   3  -4   21.52    0.64
   1   3  -4   21.93    0.63
   1   3  -4   22.46    0.63
   1   3  -4   22.53    0.64
   1   3  -4   22.38    0.65
  -1   3   4   22.46    0.64
   1   3  -4   21.69    0.65
  -1   3   4   21.09    0.65
  -1   3   4   22.71    0.65
  -1   3   4   23.07    0.66
  -1   3   4   23.72    0.63
   1   3  -4   22.82    0.83
   1   3  -4   22.08    0.63
  -1   3   4   23.45    0.66
  -1   3   4   23.16    0.71
   0  -3  -4   41.43    1.19
   0  -3   4   42.25    1.18
   0  -3  -4   42.48    1.20
   0  -3   4   41.83    1.18
   0  -3   4   44.72    1.35
   0  -3   4   42.04    1.15
   0  -3   4   41.97    1.15
   0  -3   4   41.94    1.19
   0  -3  -4   41.57    1.21
   0  -3   4   41.68    1.16
   0  -3   4   42.17    1.19
   0  -3   4   41.35    1.17
   0  -3  -4   42.80    1.18
   0  -3  -4   42.42    1.20
   0   3   4   42.94    1.19
   0   3   4   42.72    1.21
   0   3   4   41.08    1.17
   0   3   4   41.79    1.18
   0   3   4   41.82    1.23
   0   3   4   43.12    1.17
   0   3  -4   41.92    1.20
   0   3  -4   42.05    1.20
   0   3   4   42.32    1.18
   0   3   4   41.83    1.22
   0   3   4   41.93    1.18
   0   3   4   40.85    1.20
   0   3   4   41.54    1.17
   0   3  -4   42.71    1.19
   0   3  -4   42.45    1.44
   0   3  -4   39.90    1.19
   0   3  -4   42.59    1.17
   0   3  -4   40.59    1.22
   0   3  -4   40.15    1.18
   1  -3   4   16.18    0.47
  -1  -3  -4   15.44    0.51
  -1  -3  -4   15.43    0.47
  -1  -3  -4   15.30    0.48
   1  -3   4   16.37    0.51
   1  -3   4   16.57    0.49
   1  -3   4   16.17    0.46
   1  -3   4   15.59    0.50
   1  -3   4   15.61    0.48
   1  -3   4   15.47    0.46
   1  -3   4   15.76    0.48
   1  -3   4   16.10    0.46
  -1  -3  -4   15.57    0.48
   1  -3   4   16.84    0.49
  -1  -3  -4   15.44    0.48
  -1   3  -4   15.43    0.49
   1   3   4   15.37    0.50
  -1   3  -4   15.93    0.48
   1   3   4   16.21    0.48
  -1   3  -4   16.04    0.53
  -1   3  -4   15.64    0.50
   1   3   4   16.10    0.46
   1   3   4   16.04    0.48
   1   3   4   15.80    0.51
   1   3   4   15.18    0.49
  -1   3  -4   15.45    0.52
   1   3   4   15.80    0.49
   1   3   4   16.14    0.45
  -1   3  -4   14.74    0.74
  -1   3  -4   15.50    0.47
   1   3   4   16.19    0.51
   1   3   4   16.36    0.53
  -1   3  -4   15.72    0.46
  -1   3  -4   15.10    0.48
   1   3   4   15.89    0.47
   1   3   4   15.79    0.47
  -2  -3  -4   39.68    1.14
   2  -3   4   39.72    1.18
  -2  -3  -4   38.71    1.13
   2  -3   4   40.37    1.13
  -2  -3  -4   38.89    1.13
  -2  -3  -4   41.15    1.25
   2  -3   4   39.06    1.15
  -2  -3  -4   38.55    1.18
   2  -3   4   38.99    1.13
   2  -3   4   40.32    1.15
   2  -3   4   40.37    1.13
   2  -3   4   39.87    1.19
   2  -3   4   40.80    1.13
  -2   3  -4   40.67    1.15
  -2   3  -4   40.14    1.21
   2   3   4   39.57    1.12
   2   3   4   39.85    1.16
   2   3   4   40.80    1.18
   2   3   4   39.25    1.13
   2   3   4   37.60    1.16
   2   3   4   38.79    1.13
   2   3   4   40.41    1.15
  -2   3  -4   39.91    1.16
  -2   3  -4   39.84    1.15
  -2   3  -4   39.92    1.12
   2   3   4   38.88    1.21
  -2   3  -4   38.74    1.21
   2   3   4   39.90    1.14
   3  -3   4    4.54    0.17
  -3  -3  -4    4.18    0.16
   3  -3   4    4.41    0.18
  -3  -3  -4    4.60    0.26
   3  -3   4    4.26    0.17
   3  -3   4    4.59    0.17
  -3  -3  -4    4.63    0.17
  -3  -3  -4    4.47    0.22
   3  -3   4    4.53    0.20
  -3  -3  -4    4.14    0.16
  -3  -3  -4    4.40    0.18
  -3   3  -4    4.28    0.25
   3   3   4    4.32    0.18
  -3   3  -4    3.20    0.40
   3   3   4    4.15    0.19
  -3   3  -4    4.48    0.18
  -3   3  -4    4.50    0.19
  -3   3  -4    4.47    0.25
   3   3   4    4.54    0.25
   3   3   4    4.09    0.20
   3   3   4    4.44    0.19
   3   3   4    4.52    0.17
   3   3   4    4.46    0.19
  -4  -3  -4    4.13    0.18
   4  -3   4    4.18    0.18
   4  -3   4    4.17    0.18
  -4  -3  -4    4.16    0.19
   4  -3   4    4.02    0.18
  -4  -3  -4    3.85    0.21
   4   3   4    4.48    0.21
  -4   3  -4    4.29    0.28
  -4   3  -4    4.28    0.27
  -4   3  -4    4.10    0.17
  -4   3  -4    4.25    0.20
   4   3   4    4.28    0.18
   4   3   4    3.78    0.18
   5  -3   4    1.62    0.11
  -5  -3  -4    1.56    0.14
  -5  -3  -4    1.53    0.13
  -5  -3  -4    1.53    0.11
   5  -3   4    1.40    0.11
  -5  -3  -4    1.92    0.22
  -5   3  -4    1.19    0.17
  -5   3  -4    1.48    0.17
   5   3   4    1.65    0.11
  -5   3  -4    1.41    0.11
  -5   3  -4    1.45    0.15
  -5   3  -4    1.45    0.09
  -5   3  -4    1.46    0.12
  -5   3  -4    0.81    0.29
  -5   3  -4    1.48    0.22
  -5   3  -4    1.66    0.25
   5   3   4    1.68    0.14
  -6  -3  -4    0.20    0.09
   6  -3   4    0.21    0.06
  -6  -3  -4    0.27    0.08
  -6  -3  -4    0.29    0.11
   6  -3   4    0.37    0.07
  -6  -3  -4    0.30    0.07
   6   3   4    0.37    0.10
  -6   3  -4    0.18    0.06
   6   3   4    0.28    0.06
  -6   3  -4    0.23    0.07
   6   3   4    0.21    0.07
  -6   3  -4    0.37    0.11
  -6   3  -4    0.35    0.08
  -6   3  -4    0.22    0.12
  -6   3  -4    0.27    0.10
  -7  -4   4    0.30    0.10
   7  -4  -4    0.34    0.09
  -7  -4   4    0.30    0.05
  -7  -4   4    0.20    0.11
   7   4  -4    0.27    0.07
   7   4  -4    0.44    0.07
  -7   4   4    0.39    0.11
  -7   4   4    0.39    0.07
  -6  -4   4    2.86    0.24
   6  -4  -4    2.56    0.18
  -6  -4   4    2.75    0.20
   6  -4  -4    2.86    0.18
  -6  -4   4    2.96    0.13
   6   4  -4    3.06    0.17
   6   4  -4    2.73    0.15
  -6   4   4    3.23    0.32
  -6   4   4    3.20    0.24
  -6   4   4    2.96    0.23
   6   4  -4    3.01    0.18
  -6   4   4    2.85    0.16
  -5  -4   4    5.87    0.21
  -5  -4   4    5.74    0.32
   5  -4  -4    5.62    0.25
   5  -4  -4    5.90    0.26
  -5  -4   4    5.80    0.28
   5   4  -4    5.53    0.25
  -5   4   4    5.80    0.29
  -5   4   4    5.83    0.35
  -5   4   4    5.86    0.32
   5   4  -4    6.11    0.24
  -5   4   4    6.13    0.24
  -5   4   4    5.90    0.24
   5   4  -4    5.91    0.21
   4  -4  -4    1.93    0.13
  -4  -4   4    1.98    0.16
   4  -4  -4    2.05    0.13
  -4  -4   4    2.21    0.14
  -4  -4   4    2.28    0.10
  -4  -4   4    2.03    0.12
   4  -4  -4    2.13    0.13
  -4   4   4    2.00    0.18
  -4   4   4    2.04    0.11
   4   4  -4    2.20    0.09
  -4   4   4    2.15    0.19
   4   4  -4    1.98    0.11
  -4   4   4    2.29    0.13
   4   4  -4    1.75    0.10
   4   4  -4    1.95    0.12
  -4   4   4    2.39    0.16
  -3  -4   4   50.19    1.48
   3  -4  -4   48.38    1.44
  -3  -4   4   48.57    1.44
  -3  -4   4   48.64    1.46
   3  -4  -4   50.48    1.44
  -3  -4   4   48.58    1.41
   3  -4  -4   50.02    1.44
  -3  -4   4   50.72    1.44
  -3   4   4   50.42    1.43
   3   4  -4   49.01    1.38
   3   4  -4   50.66    1.42
  -3   4   4   51.59    1.45
  -3   4   4   50.42    1.51
   3   4  -4   48.43    1.41
   3   4  -4   50.49    1.42
  -3   4   4   50.42    1.53
  -2  -4   4   35.00    1.02
   2  -4  -4   35.30    1.02
  -2  -4   4   35.21    1.08
  -2  -4   4   34.50    1.00
  -2  -4   4   35.82    1.04
  -2  -4   4   35.48    1.00
  -2  -4   4   34.80    1.02
  -2  -4   4   34.83    1.03
   2  -4  -4   34.47    1.02
   2  -4  -4   34.71    1.04
   2  -4  -4   35.64    1.01
  -2   4   4   29.30    0.98
  -2   4   4   35.82    0.97
   2   4  -4   35.96    1.00
   2   4  -4   35.68    0.99
   2   4  -4   33.91    1.00
  -2   4   4   35.88    0.97
  -2   4   4   34.62    1.08
   2   4  -4   34.86    0.98
  -2   4   4   34.29    0.99
   2   4  -4   34.36    1.00
  -2   4   4   34.32    1.02
   2   4  -4   34.49    0.97
  -2   4   4   35.46    0.98
   2   4  -4   33.92    0.99
  -1  -4   4    8.41    0.37
  -1  -4   4    7.57    0.27
  -1  -4   4    7.94    0.26
   1  -4  -4    8.43    0.29
  -1  -4   4    7.78    0.26
  -1  -4   4    7.55    0.28
   1  -4  -4    8.17    0.27
   1  -4  -4    7.72    0.28
   1  -4  -4    8.10    0.30
  -1  -4   4    8.16    0.28
  -1   4   4    7.87    0.26
  -1   4   4    7.76    0.28
  -1   4   4    8.03    0.28
   1   4  -4    7.98    0.24
  -1   4   4    8.21    0.29
   1   4  -4    8.10    0.27
   1   4  -4    7.45    0.45
   1   4  -4    7.69    0.27
   1   4  -4    7.69    0.31
  -1   4   4    7.98    0.32
  -1   4   4    7.76    0.24
   1   4  -4    7.95    0.25
  -1   4   4    7.79    0.26
   1   4  -4    7.75    0.26
  -1   4   4    7.59    0.25
   1   4  -4    7.61    0.27
   0  -4  -4   53.39    1.49
   0  -4   4   53.32    1.46
   0  -4   4   52.07    1.45
   0  -4   4   51.73    1.50
   0  -4  -4   54.87    1.50
   0  -4   4   46.20    1.49
   0  -4  -4   53.83    1.53
   0  -4   4   54.18    1.48
   0  -4  -4   54.10    1.50
   0  -4   4   52.31    1.49
   0  -4   4   55.43    1.46
   0  -4   4   53.31    1.50
   0  -4  -4   51.61    1.51
   0  -4  -4   53.31    1.51
   0  -4   4   53.09    1.49
   0  -4   4   51.01    1.49
   0   4  -4   51.75    1.50
   0   4   4   52.34    1.46
   0   4   4   52.86    1.48
   0   4   4   54.50    1.47
   0   4  -4   47.74    1.81
   0   4   4   52.97    1.54
   0   4  -4   53.13    1.50
   0   4   4   53.76    1.52
   0   4  -4   51.03    1.50
   0   4   4   53.59    1.52
   0   4   4   52.78    1.48
   0   4  -4   54.93    1.51
   0   4  -4   54.32    1.49
   0   4   4   50.64    1.48
   0   4   4   53.71    1.54
   0   4  -4   53.18    1.55
   0   4   4   52.69    1.50
   0   4  -4   54.21    1.51
   1  -4   4    6.38    0.26
  -1  -4  -4    6.75    0.24
  -1  -4  -4    7.11    0.24
   1  -4   4    6.61    0.25
   1  -4   4    6.63    0.24
   1  -4   4    6.82    0.22
  -1  -4  -4    6.64    0.27
   1  -4   4    6.27    0.26
   1  -4   4    6.62    0.22
   1  -4   4    6.61    0.24
  -1  -4  -4    7.25    0.24
   1  -4   4    6.25    0.21
   1   4   4    6.52    0.24
  -1   4  -4    7.10    0.28
   1   4   4    6.81    0.27
   1   4   4    6.68    0.22
   1   4   4    6.66    0.23
  -1   4  -4    6.87    0.26
   1   4   4    6.44    0.29
  -1   4  -4    6.89    0.25
  -1   4  -4    7.07    0.25
   1   4   4    6.70    0.26
   1   4   4    6.45    0.26
  -1   4  -4    6.92    0.30
   1   4   4    6.50    0.25
   1   4   4    6.60    0.23
   1   4   4    6.81    0.21
  -1   4  -4    7.24    0.24
  -2  -4  -4    6.57    0.24
   2  -4   4    6.46    0.23
   2  -4   4    6.59    0.25
   2  -4   4    6.41    0.28
  -2  -4  -4    6.07    0.31
   2  -4   4    6.56    0.20
   2  -4   4    6.44    0.24
  -2  -4  -4    6.42    0.27
   2  -4   4    6.23    0.25
   2  -4   4    6.58    0.28
  -2  -4  -4    6.08    0.22
   2  -4   4    6.70    0.22
   2   4   4    6.62    0.24
   2   4   4    6.51    0.22
   2   4   4    6.58    0.23
   2   4   4    6.13    0.27
   2   4   4    6.90    0.25
  -2   4  -4    6.10    0.31
  -2   4  -4    6.12    0.25
  -2   4  -4    6.30    0.30
   2   4   4    6.32    0.25
  -2   4  -4    6.23    0.24
   2   4   4    6.49    0.25
   2   4   4    6.78    0.30
   3  -4   4    3.41    0.16
  -3  -4  -4    3.38    0.21
  -3  -4  -4    3.35    0.19
  -3  -4  -4    3.28    0.16
   3  -4   4    3.35    0.15
  -3  -4  -4    3.30    0.15
   3  -4   4    3.19    0.20
  -3  -4  -4    3.30    0.15
   3  -4   4    3.38    0.15
   3   4   4    3.28    0.16
  -3   4  -4    3.15    0.23
  -3   4  -4    3.32    0.23
   3   4   4    3.42    0.17
  -3   4  -4    3.39    0.16
  -3   4  -4    2.51    0.38
   3   4   4    3.21    0.14
   3   4   4    3.33    0.15
  -3   4  -4    3.15    0.16
   4  -4   4    8.21    0.29
  -4  -4  -4    7.24    0.33
   4  -4   4    8.21    0.35
   4  -4   4    7.92    0.29
  -4  -4  -4    7.50    0.29
  -4  -4  -4    7.72    0.30
   4  -4   4    7.51    0.29
   4   4   4    7.71    0.31
  -4   4  -4    7.79    0.31
  -4   4  -4    7.77    0.40
  -4   4  -4    7.23    0.37
  -4   4  -4    7.85    0.41
  -4   4  -4    8.14    0.29
   4   4   4    7.81    0.28
  -5  -4  -4    2.04    0.14
  -5  -4  -4    2.27    0.24
   5  -4   4    2.22    0.13
  -5  -4  -4    2.10    0.14
  -5  -4  -4    2.15    0.15
   5  -4   4    2.09    0.14
  -5   4  -4    1.87    0.17
  -5   4  -4    2.15    0.12
   5   4   4    2.41    0.16
  -5   4  -4    2.50    0.29
   5   4   4    2.19    0.13
  -5   4  -4    2.35    0.16
  -5   4  -4    2.25    0.24
  -6  -4  -4    0.84    0.17
   6  -4   4    0.75    0.12
  -6  -4  -4    0.82    0.10
  -6  -4  -4    0.56    0.14
  -6  -4  -4    0.64    0.11
   6  -4   4    1.02    0.17
   6   4   4    0.96    0.14
  -6   4  -4    0.65    0.14
   6   4   4    0.88    0.10
  -6   4  -4    0.51    0.17
  -6   4  -4    0.85    0.12
  -6   4  -4    0.89    0.17
  -6   4  -4    0.98    0.12
  -6  -5   4    1.45    0.17
  -6  -5   4    1.54    0.20
   6  -5  -4    1.09    0.14
  -6  -5   4    1.51    0.09
  -6   5   4    1.41    0.12
  -6   5   4    1.14    0.18
   6   5  -4    1.57    0.12
  -6   5   4    1.11    0.18
  -6   5   4    1.68    0.24
   6   5  -4    1.39    0.13
   6   5  -4    1.19    0.12
  -5  -5   4    7.80    0.34
  -5  -5   4    7.57    0.38
   5  -5  -4    8.71    0.34
   5  -5  -4    7.92    0.33
  -5   5   4    7.82    0.40
   5   5  -4    8.22    0.30
  -5   5   4    7.52    0.42
  -5   5   4    8.00    0.32
   5   5  -4    8.14    0.31
  -5   5   4    7.85    0.35
   5   5  -4    7.94    0.31
  -4  -5   4   13.30    0.46
   4  -5  -4   13.91    0.48
  -4  -5   4   13.21    0.51
   4  -5  -4   14.08    0.47
  -4  -5   4   13.83    0.49
  -4  -5   4   12.95    0.50
   4   5  -4   13.40    0.45
   4   5  -4   13.42    0.44
  -4   5   4   13.53    0.47
  -4   5   4   13.61    0.57
  -4   5   4   13.55    0.55
   4   5  -4   14.96    0.46
  -4   5   4   13.37    0.48
  -3  -5   4    0.58    0.09
   3  -5  -4    0.68    0.08
  -3  -5   4    0.53    0.08
  -3  -5   4    0.63    0.08
  -3  -5   4    0.51    0.07
  -3  -5   4    0.69    0.10
   3  -5  -4    0.70    0.08
  -3   5   4    0.51    0.07
   3   5  -4    0.76    0.06
   3   5  -4    0.59    0.07
  -3   5   4    0.51    0.11
   3   5  -4    0.76    0.08
   3   5  -4    0.63    0.07
  -3   5   4    0.66    0.08
  -2  -5   4    5.78    0.28
  -2  -5   4    5.52    0.22
  -2  -5   4    5.66    0.20
  -2  -5   4    5.41    0.22
  -2  -5   4    5.51    0.22
  -2  -5   4    5.76    0.23
   2  -5  -4    5.00    0.22
  -2  -5   4    5.33    0.23
   2  -5  -4    5.44    0.25
   2  -5  -4    5.78    0.24
  -2   5   4    5.80    0.20
   2   5  -4    5.62    0.20
   2   5  -4    5.60    0.22
  -2   5   4    5.69    0.18
  -2   5   4    5.83    0.19
   2   5  -4    5.40    0.21
  -2   5   4    5.52    0.22
  -2   5   4    5.16    0.27
   2   5  -4    5.50    0.19
   2   5  -4    5.30    0.21
  -2   5   4    5.45    0.23
   2   5  -4    5.23    0.22
   2   5  -4    5.20    0.21
   1  -5  -4   40.59    1.18
  -1  -5   4   41.59    1.11
  -1  -5   4   41.32    1.18
  -1  -5   4   40.29    1.14
   1  -5  -4   40.40    1.18
   1  -5  -4   40.21    1.23
  -1  -5   4   40.26    1.17
  -1  -5   4   40.45    1.11
  -1  -5   4   40.37    1.13
   1  -5  -4   40.61    1.21
  -1  -5   4   40.39    1.18
  -1  -5   4   40.17    1.15
  -1   5   4   41.16    1.16
  -1   5   4   39.84    1.19
   1   5  -4   40.62    1.16
  -1   5   4   40.27    1.18
  -1   5   4   40.28    1.14
   1   5  -4   38.15    1.17
  -1   5   4   40.18    1.15
   1   5  -4   40.05    1.17
  -1   5   4   40.55    1.23
   1   5  -4   39.42    1.25
   1   5  -4   40.29    1.14
   1   5  -4   35.86    1.47
  -1   5   4   41.46    1.21
   1   5  -4   40.17    1.19
   1   5  -4   41.33    1.14
   0  -5   4    3.75    0.16
   0  -5   4    3.78    0.16
   0  -5  -4    3.45    0.16
   0  -5   4    3.84    0.12
   0  -5   4    3.66    0.16
   0  -5  -4    3.37    0.18
   0  -5   4    3.77    0.12
   0  -5  -4    3.27    0.17
   0  -5  -4    3.50    0.16
   0  -5   4    3.60    0.14
   0  -5   4    3.77    0.17
   0  -5   4    3.95    0.15
   0   5   4    3.79    0.20
   0   5  -4    3.37    0.16
   0   5   4    3.89    0.17
   0   5   4    3.74    0.14
   0   5  -4    3.58    0.18
   0   5   4    3.70    0.18
   0   5   4    3.86    0.18
   0   5   4    4.00    0.21
   0   5  -4    3.38    0.16
   0   5  -4    3.49    0.22
   0   5  -4    3.56    0.19
   0   5  -4    3.30    0.16
   0   5   4    3.60    0.15
   0   5   4    3.69    0.14
   0   5  -4    3.55    0.15
   0   5   4    4.01    0.16
   0   5  -4    2.72    0.33
   1  -5   4   26.84    0.76
  -1  -5  -4   26.72    0.78
  -1  -5  -4   26.33    0.83
   1  -5   4   25.78    0.79
   1  -5   4   26.57    0.82
   1  -5   4   25.94    0.81
   1  -5   4   27.05    0.76
   1  -5   4   26.65    0.75
   1  -5   4   26.10    0.83
   1  -5   4   25.68    0.79
  -1  -5  -4   25.98    0.78
   1   5   4   27.48    0.81
  -1   5  -4   26.18    0.81
   1   5   4   26.32    0.76
   1   5   4   26.02    0.77
   1   5   4   26.90    0.77
   1   5   4   25.77    0.81
  -1   5  -4   25.87    0.80
   1   5   4   26.52    0.83
  -1   5  -4   26.90    0.84
   1   5   4   26.37    0.81
  -1   5  -4   25.71    0.88
   1   5   4   26.65    0.79
   1   5   4   26.77    0.86
  -1   5  -4   23.04    1.19
  -1   5  -4   25.16    0.78
  -1   5  -4   25.52    0.80
  -2  -5  -4   21.50    0.71
  -2  -5  -4   21.62    0.66
   2  -5   4   21.03    0.62
   2  -5   4   20.92    0.71
   2  -5   4   22.10    0.68
   2  -5   4   20.73    0.72
   2  -5   4   21.25    0.64
   2  -5   4   21.93    0.66
  -2  -5  -4   21.84    0.78
  -2   5  -4   20.81    0.74
   2   5   4   20.88    0.60
  -2   5  -4   20.85    0.74
   2   5   4   21.46    0.67
  -2   5  -4   21.38    0.67
   2   5   4   21.61    0.64
   2   5   4   20.79    0.69
   2   5   4   21.52    0.66
  -2   5  -4   22.79    0.69
   2   5   4   21.32    0.68
  -2   5  -4   21.77    0.78
   2   5   4   21.51    0.75
  -3  -5  -4    7.22    0.26
   3  -5   4    6.87    0.32
  -3  -5  -4    6.68    0.26
   3  -5   4    6.75    0.25
   3  -5   4    6.77    0.26
  -3  -5  -4    7.77    0.27
   3  -5   4    7.00    0.27
  -3  -5  -4    6.63    0.30
  -3  -5  -4    7.11    0.39
   3   5   4    7.04    0.28
  -3   5  -4    6.77    0.28
   3   5   4    6.85    0.25
   3   5   4    6.92    0.29
  -3   5  -4    7.05    0.27
   3   5   4    6.86    0.27
  -3   5  -4    6.33    0.35
  -3   5  -4    6.25    0.38
  -3   5  -4    6.15    0.34
   4  -5   4    0.42    0.06
   4  -5   4    0.48    0.08
  -4  -5  -4    0.32    0.08
  -4  -5  -4    0.38    0.07
  -4  -5  -4    0.40    0.07
   4  -5   4    0.41    0.07
  -4   5  -4    0.36    0.06
   4   5   4    0.35    0.06
  -4   5  -4    0.30    0.10
  -4   5  -4    0.25    0.19
  -4   5  -4    0.49    0.09
  -4   5  -4    0.27    0.10
  -4   5  -4    0.34    0.07
   4   5   4    0.45    0.08
   4   5   4    0.40    0.08
  -4   5  -4   -0.06    0.12
  -5  -5  -4    2.99    0.17
   5  -5   4    3.11    0.18
  -5  -5  -4    3.39    0.18
  -5  -5  -4    2.93    0.23
  -5  -5  -4    3.19    0.19
  -5  -5  -4    3.26    0.24
   5  -5   4    3.17    0.17
  -5  -5  -4    2.70    0.19
   5   5   4    2.86    0.19
  -5   5  -4    2.86    0.15
  -5   5  -4    3.16    0.19
   5   5   4    3.03    0.16
  -5   5  -4    3.27    0.26
  -5   5  -4    3.04    0.32
   5   5   4    3.20    0.19
  -6  -5  -4    0.59    0.14
  -6  -5  -4    0.66    0.21
  -6  -5  -4    0.68    0.10
  -6  -5  -4    0.75    0.12
   6   5   4    1.06    0.14
  -6   5  -4    0.72    0.24
  -6   5  -4    0.49    0.10
   6  -6  -4    2.87    0.21
  -6  -6   4    2.91    0.21
  -6  -6   4    2.86    0.24
   6   6  -4    2.89    0.17
   6   6  -4    2.99    0.20
  -6   6   4    2.78    0.29
  -6   6   4    2.77    0.18
   5  -6  -4    0.30    0.08
   5  -6  -4    0.20    0.06
   5  -6  -4    0.27    0.07
  -5  -6   4    0.35    0.08
  -5  -6   4    0.31    0.09
  -5   6   4    0.29    0.07
   5   6  -4    0.32    0.06
   5   6  -4    0.29    0.06
   5   6  -4    0.15    0.06
  -5   6   4    0.29    0.10
  -4  -6   4   10.20    0.41
   4  -6  -4    9.64    0.37
   4  -6  -4    9.98    0.39
  -4  -6   4    9.34    0.41
  -4  -6   4   10.02    0.38
  -4  -6   4    9.88    0.37
  -4   6   4    9.58    0.46
   4   6  -4    9.25    0.36
   4   6  -4    9.77    0.35
   4   6  -4    9.57    0.35
  -4   6   4    9.84    0.38
   3  -6  -4   11.80    0.44
   3  -6  -4   11.30    0.42
  -3  -6   4   12.25    0.44
  -3  -6   4   11.56    0.45
  -3  -6   4   12.34    0.42
  -3  -6   4   11.64    0.42
  -3   6   4   12.24    0.35
  -3   6   4   12.16    0.35
  -3   6   4   11.71    0.39
   3   6  -4   12.19    0.41
  -3   6   4   11.76    0.50
   3   6  -4   11.94    0.39
  -3   6   4   12.18    0.43
   3   6  -4   11.38    0.42
   2  -6  -4   14.77    0.50
   2  -6  -4   14.66    0.50
  -2  -6   4   14.23    0.49
  -2  -6   4   14.53    0.45
  -2  -6   4   15.33    0.51
  -2  -6   4   14.76    0.48
  -2  -6   4   14.41    0.47
  -2   6   4   14.54    0.47
   2   6  -4   14.15    0.50
   2   6  -4   14.93    0.47
  -2   6   4   14.82    0.57
  -2   6   4   14.20    0.50
  -2   6   4   14.91    0.44
  -2   6   4   15.06    0.51
   2   6  -4   15.08    0.45
   2   6  -4   14.84    0.48
   2   6  -4   14.19    0.46
  -2   6   4   14.66    0.46
  -1  -6   4    4.06    0.15
  -1  -6   4    4.05    0.16
  -1  -6   4    3.71    0.15
  -1  -6   4    4.13    0.19
  -1  -6   4    4.13    0.15
  -1  -6   4    4.18    0.14
   1  -6  -4    4.25    0.20
   1  -6  -4    4.16    0.20
  -1  -6   4    3.85    0.19
  -1  -6   4    4.06    0.13
   1   6  -4    4.24    0.16
  -1   6   4    3.97    0.23
   1   6  -4    4.15    0.20
  -1   6   4    4.12    0.22
   1   6  -4    4.23    0.21
  -1   6   4    4.06    0.20
   1   6  -4    4.21    0.18
   1   6  -4    4.14    0.16
  -1   6   4    4.21    0.17
  -1   6   4    3.92    0.20
  -1   6   4    4.01    0.16
  -1   6   4    4.26    0.18
   0  -6  -4   20.82    0.69
   0  -6   4   19.97    0.64
   0  -6   4   21.42    0.65
   0  -6  -4   20.32    0.65
   0  -6   4   20.26    0.62
   0  -6   4   20.99    0.59
   0  -6   4   19.52    0.63
   0  -6   4   20.59    0.65
   0  -6   4   20.78    0.60
   0   6   4   19.37    0.66
   0   6   4   20.49    0.67
   0   6  -4   20.11    0.65
   0   6   4   20.35    0.69
   0   6   4   20.12    0.60
   0   6  -4   20.30    0.63
   0   6   4   20.86    0.71
   0   6   4   21.03    0.63
   0   6   4   20.46    0.65
   0   6   4   19.74    0.62
   0   6  -4   21.12    0.67
   0   6  -4   20.85    0.69
   1  -6   4   13.40    0.45
   1  -6   4   13.53    0.41
   1  -6   4   13.96    0.49
   1  -6   4   13.03    0.47
  -1  -6  -4   14.24    0.45
  -1  -6  -4   13.65    0.49
   1  -6   4   13.13    0.43
   1  -6   4   13.27    0.49
   1   6   4   13.16    0.48
  -1   6  -4   13.69    0.44
  -1   6  -4   13.26    0.50
   1   6   4   12.81    0.48
  -1   6  -4   13.49    0.46
  -1   6  -4   14.29    0.53
   1   6   4   13.68    0.42
   1   6   4   13.18    0.43
   1   6   4   13.75    0.47
   1   6   4   13.33    0.53
   1   6   4   13.54    0.45
  -2  -6  -4    0.03    0.04
   2  -6   4    0.01    0.02
   2  -6   4   -0.01    0.04
  -2  -6  -4    0.03    0.04
   2  -6   4    0.00    0.03
   2  -6   4    0.02    0.02
  -2  -6  -4    0.06    0.03
   2  -6   4    0.01    0.03
   2   6   4    0.03    0.03
  -2   6  -4    0.05    0.06
   2   6   4    0.04    0.03
  -2   6  -4    0.06    0.07
   2   6   4    0.01    0.02
  -2   6  -4    0.02    0.03
   2   6   4    0.00    0.04
  -2   6  -4    0.05    0.12
   2   6   4   -0.02    0.03
  -3  -6  -4    8.01    0.30
   3  -6   4    7.87    0.30
  -3  -6  -4    7.46    0.34
   3  -6   4    7.89    0.29
  -3  -6  -4    7.81    0.31
  -3  -6  -4    8.21    0.31
   3  -6   4    8.25    0.33
  -3   6  -4    7.67    0.30
  -3   6  -4    7.32    0.39
   3   6   4    8.00    0.32
  -3   6  -4    7.65    0.39
   3   6   4    7.85    0.30
   3   6   4    8.25    0.29
   4  -6   4    3.78    0.20
  -4  -6  -4    4.04    0.22
  -4  -6  -4    4.22    0.20
  -4  -6  -4    3.92    0.21
   4  -6   4    4.11    0.19
  -4   6  -4    3.99    0.19
   4   6   4    3.53    0.21
   4   6   4    3.69    0.18
  -4   6  -4    3.74    0.29
  -4   6  -4    3.62    0.28
   4   6   4    4.05    0.20
  -5  -6  -4    0.40    0.07
  -5  -6  -4    0.35    0.11
  -5  -6  -4    0.35    0.08
  -5  -6  -4    0.46    0.08
  -5  -6  -4    0.44    0.09
  -5  -6  -4    0.29    0.08
   5  -6   4    0.42    0.08
  -5  -6  -4    0.38    0.11
   5  -6   4    0.25    0.07
   5   6   4    0.31    0.08
  -5   6  -4    0.18    0.10
   5   6   4    0.37    0.07
  -5   6  -4    0.27    0.12
  -5   6  -4    0.32    0.12
  -5   6  -4    0.45    0.09
  -5  -7   4    5.70    0.33
  -5  -7   4    6.15    0.30
   5   7  -4    6.16    0.27
   5   7  -4    5.67    0.29
  -5   7   4    6.15    0.29
  -5   7   4    6.24    0.38
   5   7  -4    6.38    0.27
  -4  -7   4    1.57    0.16
   4  -7  -4    1.55    0.15
  -4  -7   4    1.67    0.13
   4  -7  -4    1.76    0.14
  -4  -7   4    1.50    0.18
   4  -7  -4    1.47    0.17
  -4  -7   4    1.84    0.14
   4   7  -4    1.57    0.12
  -4   7   4    1.78    0.22
   4   7  -4    1.79    0.15
  -4   7   4    1.64    0.14
   4   7  -4    1.62    0.11
  -3  -7   4    4.16    0.24
   3  -7  -4    4.44    0.23
   3  -7  -4    4.34    0.23
  -3  -7   4    4.62    0.22
  -3  -7   4    4.28    0.21
   3   7  -4    4.52    0.24
   3   7  -4    4.41    0.19
  -3   7   4    4.08    0.28
  -3   7   4    4.13    0.22
  -3   7   4    4.50    0.20
  -3   7   4    4.42    0.16
  -3   7   4    4.59    0.16
  -3   7   4    4.24    0.18
   3   7  -4    4.89    0.21
   2  -7  -4   16.10    0.56
  -2  -7   4   16.23    0.54
  -2  -7   4   15.90    0.50
   2  -7  -4   15.68    0.55
  -2  -7   4   16.00    0.55
  -2   7   4   15.91    0.55
   2   7  -4   15.44    0.49
   2   7  -4   15.24    0.56
  -2   7   4   15.53    0.56
   2   7  -4   15.29    0.50
  -2   7   4   15.41    0.50
  -2   7   4   15.55    0.51
   2   7  -4   16.26    0.52
  -2   7   4   15.52    0.61
  -1  -7   4    7.53    0.26
  -1  -7   4    7.88    0.25
  -1  -7   4    8.09    0.31
  -1  -7   4    8.17    0.31
   1  -7  -4    7.47    0.33
  -1  -7   4    7.87    0.27
   1   7  -4    7.95    0.27
   1   7  -4    7.94    0.29
   1   7  -4    7.58    0.28
  -1   7   4    8.38    0.34
   1   7  -4    8.11    0.34
   1   7  -4    7.79    0.34
  -1   7   4    7.59    0.30
  -1   7   4    7.78    0.29
  -1   7   4    7.69    0.33
  -1   7   4    7.68    0.36
  -1   7   4    7.72    0.36
   0  -7   4    7.69    0.23
   0  -7   4    7.99    0.28
   0  -7   4    7.13    0.29
   0  -7   4    7.49    0.29
   0  -7   4    7.66    0.31
   0  -7   4    7.93    0.30
   0  -7   4    7.35    0.25
   0   7  -4    7.07    0.35
   0   7  -4    7.57    0.29
   0   7   4    7.20    0.36
   0   7   4    7.56    0.30
   0   7   4    7.54    0.28
   0   7   4    7.51    0.28
   0   7   4    7.33    0.34
   0   7   4    7.67    0.32
   1  -7   4    1.34    0.13
   1  -7   4    1.38    0.10
   1  -7   4    1.10    0.14
  -1  -7  -4    1.42    0.13
  -1  -7  -4    1.40    0.12
   1  -7   4    1.58    0.11
   1  -7   4    1.41    0.12
   1  -7   4    1.48    0.08
   1   7   4    1.55    0.17
   1   7   4    1.55    0.18
  -1   7  -4    1.33    0.15
   1   7   4    1.16    0.13
   1   7   4    1.43    0.10
   1   7   4    1.53    0.12
  -1   7  -4    1.46    0.10
   1   7   4    1.30    0.08
  -1   7  -4    1.42    0.18
   1   7   4    1.40    0.10
   2  -7   4   13.49    0.50
  -2  -7  -4   13.63    0.45
   2  -7   4   12.93    0.42
   2  -7   4   13.06    0.43
  -2  -7  -4   12.75    0.50
   2  -7   4   12.03    0.49
   2  -7   4   12.96    0.45
  -2  -7  -4   13.01    0.47
  -2   7  -4   12.35    0.55
   2   7   4   13.13    0.42
  -2   7  -4   12.60    0.53
   2   7   4   13.31    0.44
   2   7   4   12.81    0.47
   2   7   4   12.74    0.46
   2   7   4   12.91    0.48
  -2   7  -4   12.87    0.46
  -3  -7  -4    0.60    0.09
   3  -7   4    0.66    0.11
  -3  -7  -4    0.78    0.10
  -3  -7  -4    0.85    0.12
   3  -7   4    0.71    0.08
   3  -7   4    0.65    0.09
  -3  -7  -4    0.57    0.08
   3   7   4    0.60    0.09
  -3   7  -4    0.68    0.10
   3   7   4    0.72    0.09
  -3   7  -4    0.69    0.15
   3   7   4    0.66    0.08
  -3   7  -4    0.56    0.14
  -4  -7  -4    0.92    0.11
  -4  -7  -4    0.99    0.12
  -4  -7  -4    0.71    0.10
   4  -7   4    0.99    0.13
   4  -7   4    0.94    0.10
  -4  -7  -4    0.94    0.12
  -4  -7  -4    0.68    0.12
   4   7   4    1.08    0.13
  -4   7  -4    0.91    0.17
   4   7   4    0.87    0.10
  -4   7  -4    0.97    0.11
  -4   7  -4    0.88    0.18
   4   7   4    0.87    0.10
  -5  -7  -4    1.67    0.17
  -5  -7  -4    1.40    0.19
  -5  -7  -4    1.55    0.17
  -5  -7  -4    1.72    0.14
  -5   7  -4    2.07    0.18
   5   7   4    1.64    0.17
  -5  -8   4    1.47    0.16
   5   8  -4    1.70    0.14
  -5   8   4    1.51    0.16
   4  -8  -4    2.83    0.20
  -4  -8   4    2.63    0.25
  -4  -8   4    2.72    0.18
  -4  -8   4    2.65    0.18
   4   8  -4    2.88    0.17
  -4   8   4    2.39    0.26
  -4   8   4    2.86    0.20
   4   8  -4    2.88    0.16
  -3  -8   4    7.72    0.35
   3  -8  -4    8.06    0.36
   3  -8  -4    7.91    0.36
  -3  -8   4    7.43    0.36
  -3  -8   4    8.29    0.34
  -3   8   4    8.29    0.31
  -3   8   4    7.54    0.30
   3   8  -4    8.10    0.32
  -3   8   4    7.66    0.42
  -3   8   4    7.89    0.27
   3   8  -4    8.48    0.30
   3   8  -4    7.42    0.37
  -3   8   4    7.79    0.35
  -2  -8   4    0.07    0.04
   2  -8  -4    0.04    0.05
   2  -8  -4    0.05    0.05
  -2  -8   4    0.05    0.05
  -2   8   4    0.12    0.06
   2   8  -4    0.12    0.04
   2   8  -4    0.03    0.03
  -2   8   4    0.19    0.07
   2   8  -4    0.03    0.03
  -2   8   4    0.11    0.04
  -2   8   4    0.06    0.04
  -2   8   4    0.10    0.07
  -1  -8   4    9.11    0.31
   1  -8  -4    9.34    0.40
  -1  -8   4    8.92    0.37
   1  -8  -4    8.82    0.40
  -1  -8   4    9.93    0.29
  -1  -8   4    9.24    0.37
  -1  -8   4    9.71    0.29
  -1  -8   4    9.24    0.31
  -1   8   4    9.72    0.36
   1   8  -4    9.53    0.40
   1   8  -4    9.48    0.35
  -1   8   4    9.70    0.35
  -1   8   4    9.45    0.43
   1   8  -4    9.63    0.33
  -1   8   4    9.39    0.39
  -1   8   4    9.88    0.44
   0  -8  -4    6.81    0.32
   0  -8   4    7.29    0.22
   0  -8   4    7.11    0.30
   0  -8   4    6.84    0.29
   0  -8   4    6.86    0.30
   0  -8   4    7.44    0.29
   0   8  -4    7.20    0.29
   0   8   4    6.93    0.30
   0   8  -4    7.08    0.36
   0   8   4    7.06    0.28
   0   8   4    7.16    0.37
   0   8   4    6.83    0.34
   0   8   4    7.67    0.29
  -1  -8  -4    4.56    0.24
   1  -8   4    4.85    0.18
   1  -8   4    4.61    0.21
   1  -8   4    4.41    0.24
   1  -8   4    5.10    0.23
  -1   8  -4    4.68    0.22
  -1   8  -4    4.68    0.30
   1   8   4    4.67    0.26
   1   8   4    4.66    0.24
   1   8   4    4.53    0.22
   1   8   4    4.87    0.21
   1   8   4    4.69    0.19
   2  -8   4    6.35    0.32
   2  -8   4    5.85    0.30
  -2  -8  -4    6.36    0.28
  -2  -8  -4    6.21    0.27
   2  -8   4    5.45    0.26
  -2  -8  -4    6.19    0.31
   2  -8   4    5.93    0.23
   2   8   4    6.07    0.26
  -2   8  -4    5.76    0.33
  -2   8  -4    5.99    0.36
   2   8   4    6.44    0.27
   2   8   4    6.31    0.24
   3  -8   4    1.84    0.14
  -3  -8  -4    1.91    0.16
  -3  -8  -4    1.63    0.13
  -3  -8  -4    1.68    0.16
  -3  -8  -4    1.86    0.14
   3  -8   4    1.83    0.12
   3  -8   4    1.86    0.17
  -3   8  -4    1.93    0.25
   3   8   4    1.87    0.13
   3   8   4    1.94    0.15
  -3   8  -4    1.29    0.18
  -3   8  -4    1.80    0.14
   3   8   4    2.04    0.12
  -4  -8  -4    1.71    0.16
  -4  -8  -4    1.71    0.17
  -4  -8  -4    1.53    0.14
  -4   8  -4    1.47    0.34
   4   8   4    1.50    0.15
  -4   8  -4    1.62    0.24
  -4  -9   4    1.74    0.16
   4  -9  -4    1.63    0.16
  -4  -9   4    2.01    0.22
  -4   9   4    1.85    0.19
   4   9  -4    1.41    0.14
  -3  -9   4    2.89    0.19
  -3  -9   4    2.81    0.22
   3  -9  -4    2.64    0.20
  -3   9   4    2.71    0.16
   3   9  -4    2.93    0.17
   3   9  -4    2.77    0.16
  -3   9   4    3.01    0.17
  -3   9   4    3.17    0.31
  -3   9   4    2.43    0.19
  -2  -9   4   10.87    0.43
  -2  -9   4   10.30    0.44
   2  -9  -4   10.97    0.48
   2  -9  -4   11.10    0.46
  -2   9   4   10.36    0.50
  -2   9   4   11.55    0.46
  -2   9   4   11.61    0.47
   2   9  -4   11.55    0.42
  -2   9   4   10.22    0.39
  -2   9   4   10.94    0.40
   2   9  -4   10.85    0.39
   1  -9  -4    2.75    0.20
  -1  -9   4    2.89    0.11
  -1  -9   4    3.09    0.19
  -1  -9   4    3.37    0.20
  -1  -9   4    2.89    0.11
  -1   9   4    3.09    0.17
  -1   9   4    2.92    0.23
  -1   9   4    2.88    0.18
  -1   9   4    3.29    0.24
   1   9  -4    3.18    0.18
   0  -9   4    2.11    0.16
   0  -9   4    2.35    0.15
   0  -9   4    2.19    0.16
   0  -9  -4    2.32    0.18
   0  -9   4    2.37    0.16
   0   9   4    2.30    0.15
   0   9   4    2.04    0.21
   0   9  -4    2.56    0.16
   0   9   4    2.51    0.17
   0   9  -4    2.32    0.24
  -1  -9  -4    4.69    0.26
   1  -9   4    5.29    0.24
   1  -9   4    5.23    0.26
   1  -9   4    4.66    0.25
   1  -9   4    5.15    0.19
   1   9   4    4.88    0.20
   1   9   4    5.50    0.25
   1   9   4    5.40    0.24
   1   9   4    4.67    0.26
   1   9   4    4.94    0.28
  -1   9  -4    4.69    0.32
  -1   9  -4    5.53    0.25
  -2  -9  -4    0.14    0.06
  -2  -9  -4    0.18    0.07
   2  -9   4    0.19    0.07
   2  -9   4    0.09    0.04
   2  -9   4    0.18    0.07
   2  -9   4    0.12    0.11
  -2  -9  -4    0.05    0.06
  -2   9  -4    0.19    0.11
   2   9   4    0.14    0.05
   2   9   4    0.23    0.07
   2   9   4    0.23    0.06
   3  -9   4    2.83    0.19
  -3  -9  -4    2.59    0.20
  -3  -9  -4    2.83    0.17
  -3  -9  -4    3.03    0.20
  -3   9  -4    2.87    0.29
  -3   9  -4    2.34    0.33
   3   9   4    2.67    0.18
  -2 -10   4    3.22    0.23
  -2 -10   4    3.34    0.21
   2 -10  -4    2.99    0.22
  -2  10   4    3.44    0.19
  -2  10   4    2.91    0.23
   2  10  -4    3.14    0.19
   1 -10  -4    1.99    0.17
  -1 -10   4    2.01    0.19
  -1 -10   4    2.01    0.16
   1  10  -4    1.78    0.14
  -1  10   4    1.54    0.20
  -1  10   4    1.64    0.13
  -1  10   4    1.60    0.21
   0 -10   4    2.14    0.15
   0 -10   4    2.13    0.16
   0 -10   4    1.87    0.16
   0 -10  -4    2.00    0.17
   0 -10   4    1.98    0.14
   0  10   4    2.05    0.17
   0  10   4    2.21    0.15
   0  10  -4    2.34    0.16
   0  10   4    2.08    0.22
  -1 -10  -4    2.68    0.19
  -1 -10  -4    2.56    0.18
   1 -10   4    2.46    0.18
   1 -10   4    2.50    0.18
   1  10   4    2.90    0.18
  -1  10  -4    2.49    0.17
  -1  10  -4    2.73    0.28
   2 -10   4    2.55    0.20
  -2 -10  -4    2.92    0.22
   2 -10   4    3.04    0.20
  -2 -10  -4    2.90    0.19
  -2 -10  -4    3.20    0.21
   2  10   4    2.72    0.18
  -7   0   5   -0.02    0.02
   7   0  -5   -0.06    0.05
  -7   0   5    0.07    0.07
  -7   0   5   -0.05    0.05
   7   0  -5   -0.03    0.03
   6   0  -5   -0.03    0.02
   6   0  -5    0.01    0.04
  -6   0   5   -0.01    0.02
  -6   0   5    0.00    0.05
  -6   0   5   -0.09    0.04
   6   0  -5    0.00    0.02
  -6   0   5    0.02    0.07
   6   0  -5    0.00    0.04
  -5   0   5    0.02    0.05
   5   0  -5    0.03    0.01
   5   0  -5    0.04    0.04
  -5   0   5    0.15    0.06
  -5   0   5    0.05    0.02
   5   0  -5    0.09    0.02
  -5   0   5   -0.02    0.05
  -5   0   5    0.04    0.04
   5   0  -5    0.07    0.04
  -4   0   5   -0.04    0.03
  -4   0   5    0.00    0.05
  -4   0   5   -0.03    0.03
  -4   0   5    0.02    0.03
   4   0  -5    0.01    0.03
  -4   0   5   -0.01    0.01
  -3   0   5   -0.02    0.03
   3   0  -5   -0.01    0.02
  -3   0   5    0.00    0.02
  -3   0   5    0.00    0.02
  -3   0   5    0.00    0.02
  -2   0   5   -0.01    0.01
  -2   0   5    0.02    0.02
  -2   0   5   -0.02    0.03
  -2   0   5   -0.02    0.02
  -2   0   5   -0.01    0.02
   2   0  -5   -0.02    0.02
  -1   0   5   -0.03    0.01
   1   0  -5   -0.02    0.00
  -1   0   5   -0.02    0.01
   1   0  -5   -0.03    0.01
   1   0  -5   -0.01    0.03
   1   0  -5   -0.03    0.01
   0   0  -5    0.03    0.02
   0   0  -5    0.01    0.02
   0   0  -5    0.00    0.01
   0   0   5    0.00    0.01
   0   0   5    0.01    0.01
   0   0  -5    0.02    0.01
   0   0   5    0.01    0.01
   0   0   5    0.00    0.01
   0   0  -5    0.01    0.03
   0   0   5    0.01    0.01
   0   0   5    0.01    0.01
   0   0  -5    0.03    0.02
   0   0  -5    0.03    0.01
   0   0  -5    0.01    0.01
   0   0   5    0.03    0.01
   0   0  -5    0.00    0.01
   0   0  -5    0.00    0.01
  -1   0  -5    0.00    0.01
  -1   0  -5    0.01    0.03
   1   0   5    0.00    0.01
   1   0   5   -0.03    0.02
   1   0   5   -0.01    0.01
   1   0   5   -0.02    0.02
  -1   0  -5    0.00    0.01
   1   0   5   -0.02    0.01
   1   0   5   -0.01    0.01
  -1   0  -5    0.00    0.01
  -1   0  -5   -0.01    0.02
  -1   0  -5   -0.01    0.01
  -1   0  -5   -0.02    0.01
   1   0   5    0.00    0.01
  -1   0  -5   -0.01    0.02
  -1   0  -5   -0.02    0.01
   1   0   5   -0.01    0.01
  -2   0  -5    0.02    0.05
   2   0   5   -0.01    0.02
   2   0   5   -0.01    0.03
   2   0   5   -0.01    0.01
   2   0   5    0.01    0.02
   2   0   5   -0.01    0.02
   2   0   5    0.00    0.02
   2   0   5    0.01    0.02
  -2   0  -5   -0.02    0.03
   2   0   5    0.00    0.01
  -2   0  -5    0.01    0.01
  -2   0  -5   -0.01    0.01
  -2   0  -5    0.01    0.01
  -2   0  -5    0.03    0.03
  -2   0  -5   -0.02    0.01
  -2   0  -5    0.01    0.01
   3   0   5    0.00    0.02
   3   0   5   -0.01    0.03
  -3   0  -5    0.01    0.06
  -3   0  -5    0.00    0.02
   3   0   5   -0.02    0.02
   3   0   5   -0.04    0.02
  -3   0  -5   -0.01    0.04
   3   0   5   -0.02    0.02
  -3   0  -5    0.00    0.02
   3   0   5   -0.03    0.02
  -3   0  -5    0.01    0.04
  -3   0  -5    0.00    0.04
  -3   0  -5    0.00    0.01
   3   0   5    0.00    0.02
   4   0   5   -0.01    0.02
  -4   0  -5   -0.02    0.04
   4   0   5    0.00    0.02
   4   0   5   -0.03    0.03
   4   0   5    0.01    0.03
  -4   0  -5    0.02    0.03
  -4   0  -5    0.00    0.07
  -4   0  -5   -0.01    0.05
  -4   0  -5    0.00    0.04
  -4   0  -5    0.01    0.02
  -5   0  -5   -0.03    0.05
  -5   0  -5    0.02    0.04
  -5   0  -5    0.15    0.07
  -5   0  -5    0.00    0.02
  -5   0  -5    0.01    0.10
   5   0   5   -0.01    0.03
  -5   0  -5   -0.02    0.06
   5   0   5    0.00    0.03
   5   0   5   -0.03    0.04
   6   0   5   -0.06    0.05
   6   0   5   -0.04    0.03
  -6   0  -5    0.09    0.08
  -6   0  -5    0.03    0.04
  -7  -1   5    0.44    0.05
  -7  -1   5    0.41    0.13
   7  -1  -5    0.43    0.07
  -7  -1   5    0.33    0.09
   7  -1  -5    0.42    0.10
   7   1  -5    0.41    0.09
  -7   1   5    0.36    0.11
  -7   1   5    0.36    0.05
  -7   1   5    0.37    0.09
   7   1  -5    0.49    0.07
  -6  -1   5    0.25    0.10
  -6  -1   5    0.42    0.09
   6  -1  -5    0.30    0.05
  -6  -1   5    0.33    0.04
   6  -1  -5    0.35    0.08
  -6   1   5    0.32    0.08
   6   1  -5    0.25    0.07
  -6   1   5    0.35    0.08
  -6   1   5    0.25    0.04
   6   1  -5    0.24    0.04
  -6   1   5    0.35    0.10
   6   1  -5    0.31    0.04
   6   1  -5    0.43    0.08
  -5  -1   5    1.57    0.13
  -5  -1   5    1.43    0.18
  -5  -1   5    1.34    0.06
  -5  -1   5    1.45    0.13
   5  -1  -5    1.41    0.08
   5  -1  -5    1.39    0.12
   5  -1  -5    1.47    0.07
   5   1  -5    1.40    0.11
  -5   1   5    1.41    0.17
  -5   1   5    1.39    0.12
  -5   1   5    1.48    0.08
   5   1  -5    1.41    0.13
   5   1  -5    1.48    0.07
  -5   1   5    1.50    0.12
  -4  -1   5   17.61    0.57
  -4  -1   5   16.69    0.61
  -4  -1   5   17.18    0.51
  -4  -1   5   17.41    0.57
  -4  -1   5   17.40    0.49
   4  -1  -5   18.12    0.57
   4  -1  -5   17.05    0.50
  -4   1   5   16.35    0.60
   4   1  -5   17.06    0.54
  -4   1   5   17.33    0.50
  -4   1   5   17.25    0.56
   4   1  -5   16.95    0.62
  -4   1   5   16.93    0.56
  -4   1   5   17.21    0.60
   3  -1  -5    6.98    0.25
  -3  -1   5    6.53    0.25
   3  -1  -5    6.58    0.19
  -3  -1   5    6.73    0.29
  -3  -1   5    6.53    0.25
   3   1  -5    6.53    0.24
  -3   1   5    6.56    0.21
   3   1  -5    6.56    0.31
  -3   1   5    7.02    0.29
   3   1  -5    6.59    0.21
   3   1  -5    6.52    0.23
   3   1  -5    6.47    0.23
  -3   1   5    6.63    0.26
  -3   1   5    6.98    0.28
  -3   1   5    6.59    0.25
  -2  -1   5   13.88    0.46
   2  -1  -5   14.31    0.42
   2  -1  -5   11.71    0.38
  -2  -1   5   12.95    0.43
  -2  -1   5   13.66    0.43
   2   1  -5   13.33    0.51
   2   1  -5   13.49    0.41
  -2   1   5   13.86    0.39
   2   1  -5   13.30    0.39
  -2   1   5   13.83    0.44
   2   1  -5   13.44    0.38
  -2   1   5   13.80    0.43
  -2   1   5   13.85    0.42
  -2   1   5   13.59    0.45
  -2   1   5   13.51    0.38
   2   1  -5   13.79    0.42
   1  -1  -5   12.08    0.35
  -1  -1   5   11.99    0.35
   1  -1  -5   12.19    0.36
  -1  -1   5   11.94    0.34
  -1  -1   5   12.26    0.38
   1  -1  -5   12.31    0.36
  -1  -1   5   12.20    0.39
   1  -1  -5   12.36    0.35
   1  -1  -5   11.95    0.35
  -1  -1   5   12.42    0.38
  -1   1   5   12.13    0.35
  -1   1   5   11.93    0.34
  -1   1   5   12.50    0.36
  -1   1   5   12.05    0.40
   1   1  -5   11.90    0.47
   1   1  -5   12.16    0.34
   1   1  -5   12.18    0.34
  -1   1   5   11.84    0.38
   0  -1  -5    1.74    0.07
   0  -1   5    1.70    0.06
   0  -1  -5    1.75    0.08
   0  -1  -5    1.73    0.07
   0  -1   5    1.67    0.06
   0  -1   5    1.68    0.09
   0  -1  -5    1.70    0.07
   0  -1   5    1.76    0.15
   0  -1   5    1.65    0.05
   0  -1  -5    1.66    0.07
   0  -1   5    1.73    0.06
   0  -1   5    1.71    0.06
   0  -1   5    1.63    0.08
   0  -1  -5    1.74    0.08
   0  -1  -5    1.69    0.09
   0  -1  -5    1.59    0.07
   0  -1  -5    1.64    0.08
   0  -1  -5    1.62    0.15
   0  -1   5    1.69    0.08
   0   1  -5    1.77    0.08
   0   1  -5    1.65    0.07
   0   1  -5    1.63    0.07
   0   1  -5    1.75    0.15
   0   1   5    1.79    0.08
   0   1   5    1.76    0.06
   0   1  -5    1.89    0.09
   0   1   5    1.72    0.08
   0   1   5    1.68    0.08
   0   1  -5    1.70    0.07
   0   1   5    1.76    0.07
   0   1   5    1.77    0.07
   0   1  -5    1.68    0.06
   0   1   5    1.73    0.08
   0   1  -5    1.78    0.07
   1  -1   5    6.51    0.23
   1  -1   5    6.53    0.20
   1  -1   5    6.58    0.22
  -1  -1  -5    6.97    0.33
   1  -1   5    6.85    0.20
  -1  -1  -5    6.18    0.22
   1  -1   5    6.33    0.21
  -1  -1  -5    6.96    0.22
  -1  -1  -5    6.54    0.22
  -1  -1  -5    7.00    0.23
  -1  -1  -5    6.78    0.27
  -1  -1  -5    6.79    0.22
   1  -1   5    6.57    0.24
  -1  -1  -5    6.22    0.24
  -1   1  -5    6.93    0.37
   1   1   5    6.77    0.20
   1   1   5    6.78    0.22
  -1   1  -5    6.12    0.20
  -1   1  -5    6.35    0.22
   1   1   5    6.93    0.21
  -1   1  -5    6.49    0.22
  -1   1  -5    6.48    0.22
   1   1   5    6.40    0.22
   1   1   5    6.64    0.22
   1   1   5    6.96    0.22
  -1   1  -5    6.73    0.21
   1   1   5    6.52    0.24
  -1   1  -5    6.44    0.21
  -1   1  -5    6.31    0.25
  -1   1  -5    6.51    0.22
  -1   1  -5    6.74    0.23
   2  -1   5    4.26    0.18
  -2  -1  -5    5.29    0.18
   2  -1   5    5.09    0.22
   2  -1   5    5.09    0.17
   2  -1   5    4.86    0.19
  -2  -1  -5    5.11    0.18
   2  -1   5    5.20    0.17
  -2  -1  -5    5.03    0.18
  -2  -1  -5    5.13    0.19
  -2  -1  -5    4.91    0.22
  -2  -1  -5    5.11    0.30
  -2  -1  -5    5.06    0.23
   2  -1   5    5.09    0.18
  -2   1  -5    5.18    0.18
   2   1   5    5.08    0.19
  -2   1  -5    4.72    0.19
   2   1   5    5.09    0.19
  -2   1  -5    4.94    0.23
   2   1   5    4.99    0.19
   2   1   5    5.31    0.22
   2   1   5    5.09    0.18
   2   1   5    4.58    0.19
   2   1   5    4.99    0.17
  -2   1  -5    5.41    0.24
   2   1   5    5.02    0.19
  -2   1  -5    4.75    0.35
  -2   1  -5    5.24    0.19
  -3  -1  -5    9.59    0.37
   3  -1   5    9.41    0.37
   3  -1   5    9.50    0.31
   3  -1   5    9.36    0.31
  -3  -1  -5    9.51    0.50
   3  -1   5    9.70    0.33
   3  -1   5    9.63    0.31
  -3  -1  -5    9.54    0.33
  -3  -1  -5    9.27    0.29
   3  -1   5    9.59    0.33
  -3  -1  -5    9.66    0.31
  -3  -1  -5    8.82    0.38
   3   1   5    9.78    0.31
  -3   1  -5    9.75    0.40
   3   1   5    9.35    0.34
  -3   1  -5    9.45    0.32
   3   1   5    9.57    0.37
   3   1   5    9.34    0.32
  -3   1  -5    9.16    0.58
  -3   1  -5    8.76    0.38
   3   1   5    9.38    0.32
  -3   1  -5    9.26    0.38
   3   1   5    9.84    0.32
  -3   1  -5    9.45    0.31
   3   1   5    9.11    0.31
  -3   1  -5    9.90    0.33
   4  -1   5    1.38    0.09
   4  -1   5    1.32    0.09
   4  -1   5    1.32    0.09
  -4  -1  -5    0.84    0.12
  -4  -1  -5    1.17    0.14
  -4  -1  -5    0.98    0.21
  -4  -1  -5    1.21    0.08
  -4  -1  -5    1.29    0.10
  -4  -1  -5    0.93    0.14
  -4   1  -5    1.24    0.08
   4   1   5    1.26    0.13
  -4   1  -5    1.24    0.09
  -4   1  -5    1.13    0.14
  -4   1  -5    0.87    0.15
   4   1   5    1.20    0.08
  -4   1  -5    1.24    0.17
   4   1   5    1.15    0.09
   4   1   5    1.22    0.09
  -4   1  -5    0.86    0.25
  -5  -1  -5    0.10    0.06
  -5  -1  -5   -0.06    0.06
   5  -1   5    0.03    0.05
  -5  -1  -5    0.08    0.04
  -5  -1  -5    0.02    0.02
   5  -1   5    0.03    0.03
   5  -1   5   -0.03    0.03
  -5   1  -5    0.01    0.07
   5   1   5    0.00    0.05
   5   1   5    0.01    0.03
   5   1   5    0.02    0.04
  -5   1  -5    0.03    0.11
  -5   1  -5    0.04    0.07
  -5   1  -5    0.03    0.02
  -5   1  -5    0.04    0.04
   6  -1   5    0.00    0.04
   6  -1   5    0.00    0.06
  -6  -1  -5   -0.10    0.05
  -6  -1  -5    0.03    0.08
  -6  -1  -5   -0.01    0.04
  -6   1  -5    0.10    0.08
   6   1   5    0.05    0.04
   6   1   5   -0.01    0.05
  -6   1  -5   -0.10    0.08
  -6   1  -5    0.02    0.02
  -6   1  -5    0.04    0.07
  -6   1  -5   -0.03    0.04
  -6   1  -5   -0.02    0.04
  -7  -2   5    0.79    0.06
   7  -2  -5    0.73    0.10
  -7  -2   5    0.95    0.14
  -7  -2   5    0.69    0.16
  -7   2   5    0.92    0.18
   7   2  -5    0.83    0.09
   7   2  -5    0.76    0.11
  -7   2   5    0.89    0.08
  -7   2   5    0.99    0.13
  -7   2   5    0.71    0.15
   6  -2  -5    0.98    0.12
   6  -2  -5    0.80    0.08
   6  -2  -5    0.86    0.09
  -6  -2   5    0.91    0.06
  -6  -2   5    0.87    0.15
  -6  -2   5    0.95    0.13
   6   2  -5    0.92    0.13
  -6   2   5    1.20    0.17
  -6   2   5    0.94    0.12
   6   2  -5    0.81    0.07
   6   2  -5    0.89    0.09
   6   2  -5    0.76    0.10
  -6   2   5    0.87    0.07
  -6   2   5    0.75    0.15
  -5  -2   5    1.67    0.20
  -5  -2   5    1.48    0.07
   5  -2  -5    1.48    0.12
   5  -2  -5    1.50    0.07
  -5  -2   5    1.15    0.12
   5  -2  -5    1.59    0.09
  -5   2   5    1.62    0.18
  -5   2   5    1.49    0.09
  -5   2   5    1.43    0.17
  -5   2   5    1.61    0.12
  -5   2   5    1.57    0.15
   5   2  -5    1.42    0.11
   5   2  -5    1.48    0.07
   5   2  -5    1.48    0.09
   4  -2  -5   15.33    0.47
  -4  -2   5   15.45    0.52
  -4  -2   5   15.71    0.44
  -4  -2   5   15.62    0.49
   4  -2  -5   14.55    0.51
  -4  -2   5   15.15    0.57
   4   2  -5   15.76    0.47
  -4   2   5   15.47    0.57
   4   2  -5   15.65    0.44
   4   2  -5   15.88    0.54
  -4   2   5   15.94    0.51
  -4   2   5   16.05    0.54
   4   2  -5   14.87    0.49
  -4   2   5   15.69    0.47
  -4   2   5   15.11    0.55
  -3  -2   5    0.80    0.07
  -3  -2   5    0.63    0.09
   3  -2  -5    0.70    0.06
  -3  -2   5    0.88    0.09
   3  -2  -5    0.76    0.05
  -3  -2   5    0.81    0.07
  -3   2   5    0.67    0.07
  -3   2   5    0.82    0.05
   3   2  -5    0.73    0.05
  -3   2   5    0.67    0.09
   3   2  -5    0.90    0.05
   3   2  -5    0.71    0.06
  -3   2   5    0.71    0.09
   3   2  -5    0.80    0.09
  -2  -2   5    3.01    0.14
   2  -2  -5    2.99    0.11
  -2  -2   5    2.93    0.13
  -2  -2   5    2.85    0.14
   2  -2  -5    3.11    0.10
   2  -2  -5    3.16    0.13
  -2  -2   5    3.13    0.16
  -2  -2   5    3.02    0.11
   2  -2  -5    3.01    0.12
  -2   2   5    3.15    0.13
   2   2  -5    2.94    0.12
   2   2  -5    3.23    0.19
  -2   2   5    3.01    0.11
  -2   2   5    3.25    0.16
   2   2  -5    2.98    0.11
  -2   2   5    3.04    0.15
   2   2  -5    3.09    0.11
  -2   2   5    2.95    0.13
  -2   2   5    3.10    0.12
   1  -2  -5    2.08    0.08
  -1  -2   5    2.06    0.08
   1  -2  -5    1.95    0.08
  -1  -2   5    2.07    0.11
  -1  -2   5    1.97    0.10
  -1  -2   5    2.04    0.16
   1  -2  -5    1.97    0.09
   1  -2  -5    2.08    0.10
   1  -2  -5    2.01    0.08
  -1  -2   5    2.08    0.10
  -1  -2   5    2.00    0.07
   1  -2  -5    2.14    0.09
   1   2  -5    2.00    0.07
  -1   2   5    1.99    0.12
   1   2  -5    2.03    0.08
   1   2  -5    2.01    0.08
   1   2  -5    2.12    0.07
   1   2  -5    1.97    0.08
  -1   2   5    2.01    0.08
  -1   2   5    2.04    0.10
  -1   2   5    2.10    0.09
   1   2  -5    2.07    0.17
  -1   2   5    2.03    0.07
  -1   2   5    2.03    0.09
   0  -2   5    5.41    0.19
   0  -2  -5    4.84    0.16
   0  -2   5    4.87    0.15
   0  -2   5    5.08    0.15
   0  -2   5    4.93    0.16
   0  -2  -5    4.89    0.18
   0  -2  -5    5.39    0.25
   0  -2   5    4.98    0.16
   0  -2   5    4.81    0.17
   0  -2  -5    4.95    0.19
   0  -2   5    5.05    0.28
   0  -2  -5    4.73    0.17
   0  -2  -5    4.90    0.17
   0  -2  -5    4.79    0.16
   0  -2   5    5.05    0.16
   0  -2  -5    4.98    0.17
   0  -2  -5    4.59    0.18
   0   2  -5    4.70    0.18
   0   2   5    4.93    0.17
   0   2   5    4.86    0.16
   0   2  -5    4.73    0.16
   0   2   5    4.86    0.15
   0   2   5    5.15    0.17
   0   2   5    5.05    0.18
   0   2  -5    4.93    0.19
   0   2   5    5.09    0.16
   0   2   5    4.88    0.16
   0   2   5    4.83    0.18
   0   2  -5    4.98    0.19
   0   2   5    4.86    0.16
   0   2  -5    4.94    0.20
   0   2  -5    4.74    0.17
   0   2  -5    4.98    0.16
   0   2   5    5.10    0.21
   0   2  -5    4.59    0.17
   0   2  -5    4.80    0.16
  -1  -2  -5   11.78    0.37
   1  -2   5   12.24    0.37
  -1  -2  -5   12.18    0.43
   1  -2   5   12.09    0.36
  -1  -2  -5   11.99    0.37
   1  -2   5   11.56    0.38
   1  -2   5   12.03    0.35
  -1  -2  -5   11.85    0.49
  -1  -2  -5   12.38    0.38
  -1  -2  -5   11.98    0.37
   1  -2   5   12.33    0.40
   1  -2   5   12.47    0.37
   1  -2   5   11.89    0.39
  -1  -2  -5   11.74    0.40
  -1  -2  -5   11.42    0.36
   1   2   5   12.04    0.35
  -1   2  -5   12.14    0.41
  -1   2  -5   11.73    0.36
   1   2   5   12.08    0.35
  -1   2  -5   11.70    0.36
  -1   2  -5   12.21    0.38
  -1   2  -5   11.81    0.37
  -1   2  -5   12.14    0.39
   1   2   5   12.27    0.40
   1   2   5   11.91    0.38
   1   2   5   12.02    0.37
  -1   2  -5   11.64    0.41
   1   2   5   11.70    0.36
  -1   2  -5   10.96    0.37
   1   2   5   12.03    0.38
  -2  -2  -5    0.10    0.03
   2  -2   5    0.06    0.02
  -2  -2  -5    0.09    0.02
   2  -2   5    0.07    0.02
  -2  -2  -5    0.11    0.05
   2  -2   5    0.08    0.03
  -2  -2  -5    0.07    0.02
  -2  -2  -5    0.05    0.04
   2  -2   5    0.11    0.04
  -2  -2  -5    0.07    0.02
   2  -2   5    0.09    0.02
   2  -2   5    0.07    0.03
  -2  -2  -5    0.06    0.03
   2   2   5    0.11    0.03
   2   2   5    0.01    0.02
   2   2   5    0.06    0.02
  -2   2  -5    0.09    0.03
  -2   2  -5    0.08    0.04
  -2   2  -5    0.08    0.02
   2   2   5    0.06    0.02
   2   2   5    0.14    0.03
  -2   2  -5    0.07    0.02
   2   2   5    0.05    0.03
  -2   2  -5    0.10    0.09
   2   2   5    0.10    0.03
  -2   2  -5    0.16    0.05
  -2   2  -5    0.08    0.03
   2   2   5    0.12    0.03
  -2   2  -5    0.06    0.03
   3  -2   5    6.58    0.23
   3  -2   5    6.50    0.23
   3  -2   5    6.56    0.23
  -3  -2  -5    6.31    0.22
  -3  -2  -5    6.38    0.31
  -3  -2  -5    6.79    0.23
  -3  -2  -5    6.63    0.24
   3  -2   5    6.08    0.25
  -3  -2  -5    6.50    0.29
   3  -2   5    6.41    0.23
  -3  -2  -5    6.06    0.22
  -3  -2  -5    6.54    0.37
  -3   2  -5    6.57    0.52
  -3   2  -5    6.33    0.30
   3   2   5    6.57    0.25
  -3   2  -5    6.54    0.24
  -3   2  -5    6.17    0.32
   3   2   5    6.45    0.25
   3   2   5    6.70    0.26
   3   2   5    6.38    0.24
   3   2   5    6.62    0.23
  -3   2  -5    6.53    0.25
   3   2   5    6.14    0.24
   4  -2   5    0.54    0.07
  -4  -2  -5    0.60    0.07
  -4  -2  -5    0.52    0.15
  -4  -2  -5    0.46    0.09
   4  -2   5    0.63    0.07
  -4  -2  -5    0.64    0.08
  -4  -2  -5    0.59    0.10
   4  -2   5    0.64    0.07
  -4  -2  -5    0.71    0.06
  -4  -2  -5    0.60    0.11
  -4   2  -5    0.70    0.09
   4   2   5    0.91    0.10
   4   2   5    0.65    0.07
   4   2   5    0.62    0.08
  -4   2  -5    0.36    0.18
   4   2   5    0.61    0.09
  -4   2  -5    0.63    0.07
  -4   2  -5    0.80    0.13
  -4   2  -5    0.44    0.11
   5  -2   5    0.25    0.05
   5  -2   5    0.22    0.05
  -5  -2  -5    0.03    0.07
  -5  -2  -5    0.13    0.07
  -5  -2  -5    0.31    0.07
  -5   2  -5    0.10    0.04
   5   2   5    0.28    0.07
   5   2   5    0.20    0.05
  -5   2  -5    0.07    0.09
  -5   2  -5    0.21    0.11
  -5   2  -5    0.12    0.14
  -5   2  -5    0.18    0.04
   5   2   5    0.21    0.06
   6  -2   5    0.01    0.04
  -6  -2  -5   -0.10    0.07
  -6  -2  -5    0.09    0.05
  -6  -2  -5    0.10    0.09
   6  -2   5   -0.02    0.05
  -6  -2  -5   -0.03    0.05
  -6   2  -5    0.08    0.09
  -6   2  -5   -0.02    0.07
  -6   2  -5   -0.01    0.05
  -6   2  -5    0.11    0.05
   6   2   5    0.04    0.04
  -6   2  -5   -0.03    0.04
  -6   2  -5    0.00    0.07
   6   2   5    0.02    0.06
  -7  -3   5    0.85    0.06
   7  -3  -5    0.82    0.11
  -7  -3   5    0.87    0.14
  -7  -3   5    0.64    0.14
   7   3  -5    0.78    0.09
  -7   3   5    0.66    0.08
  -7   3   5    0.71    0.13
  -7   3   5    0.83    0.18
   7   3  -5    0.73    0.08
  -7   3   5    0.57    0.14
  -6  -3   5    0.81    0.12
   6  -3  -5    0.96    0.12
  -6  -3   5    0.72    0.05
  -6  -3   5    0.67    0.14
   6  -3  -5    0.81    0.10
  -6   3   5    0.80    0.08
  -6   3   5    0.68    0.10
  -6   3   5    0.85    0.16
  -6   3   5    0.80    0.13
  -6   3   5    0.60    0.13
   6   3  -5    0.61    0.09
  -5  -3   5    0.05    0.06
  -5  -3   5    0.04    0.02
   5  -3  -5    0.04    0.04
   5  -3  -5    0.00    0.03
   5  -3  -5    0.06    0.03
  -5  -3   5    0.01    0.05
  -5   3   5    0.03    0.06
   5   3  -5    0.02    0.02
   5   3  -5    0.05    0.04
  -5   3   5    0.00    0.02
  -5   3   5    0.07    0.04
   5   3  -5    0.02    0.02
  -5   3   5    0.00    0.05
  -5   3   5    0.09    0.06
  -4  -3   5    1.20    0.14
   4  -3  -5    1.51    0.08
  -4  -3   5    1.56    0.12
   4  -3  -5    1.61    0.10
  -4  -3   5    1.48    0.10
   4  -3  -5    1.39    0.10
  -4   3   5    1.51    0.09
   4   3  -5    1.49    0.09
  -4   3   5    1.65    0.14
   4   3  -5    1.64    0.07
  -4   3   5    1.53    0.15
   4   3  -5    1.38    0.09
  -4   3   5    1.84    0.20
  -4   3   5    1.65    0.11
  -3  -3   5   11.61    0.39
   3  -3  -5   11.41    0.39
  -3  -3   5   12.06    0.41
   3  -3  -5   11.39    0.37
  -3  -3   5   11.79    0.43
   3  -3  -5   11.77    0.36
  -3  -3   5   11.90    0.40
  -3  -3   5   11.36    0.35
   3   3  -5   11.46    0.37
  -3   3   5   11.15    0.36
   3   3  -5   12.13    0.46
   3   3  -5   11.58    0.34
  -3   3   5   11.51    0.42
  -3   3   5   12.09    0.44
  -3   3   5   11.63    0.38
  -3   3   5   11.88    0.38
  -2  -3   5   16.79    0.53
   2  -3  -5   18.32    0.54
  -2  -3   5   17.70    0.55
  -2  -3   5   18.28    0.56
   2  -3  -5   18.58    0.53
  -2  -3   5   17.48    0.53
  -2  -3   5   18.54    0.58
   2  -3  -5   17.55    0.54
  -2  -3   5   17.83    0.55
   2   3  -5   18.59    0.52
   2   3  -5   17.42    0.52
   2   3  -5   17.61    0.52
   2   3  -5   17.43    0.53
   2   3  -5   17.64    0.50
  -2   3   5   18.37    0.60
  -2   3   5   17.76    0.55
  -2   3   5   17.65    0.52
   2   3  -5   19.10    0.68
  -2   3   5   17.27    0.52
   1  -3  -5   11.60    0.36
  -1  -3   5   11.65    0.36
   1  -3  -5   11.54    0.35
   1  -3  -5   11.11    0.36
  -1  -3   5   10.59    0.37
  -1  -3   5   11.27    0.35
  -1  -3   5   10.98    0.34
   1  -3  -5   11.60    0.38
  -1  -3   5   11.75    0.47
  -1  -3   5   11.28    0.36
   1   3  -5   11.20    0.33
   1   3  -5   11.66    0.52
  -1   3   5   11.69    0.40
   1   3  -5   11.24    0.33
  -1   3   5   11.75    0.35
   1   3  -5   11.16    0.35
  -1   3   5   11.12    0.35
  -1   3   5   10.97    0.34
  -1   3   5   11.59    0.36
   1   3  -5   11.10    0.32
   1   3  -5   11.00    0.34
   1   3  -5   11.33    0.33
  -1   3   5   11.47    0.33
  -1   3   5   10.70    0.36
  -1   3   5   11.69    0.33
   1   3  -5   11.24    0.35
   0  -3  -5    0.56    0.04
   0  -3   5    0.64    0.04
   0  -3  -5    0.64    0.05
   0  -3   5    0.57    0.05
   0  -3  -5    0.64    0.06
   0  -3  -5    0.62    0.05
   0  -3  -5    0.60    0.07
   0  -3   5    0.65    0.05
   0  -3  -5    0.60    0.08
   0  -3   5    0.64    0.05
   0  -3   5    0.59    0.03
   0  -3   5    0.59    0.03
   0  -3   5    0.59    0.04
   0  -3  -5    0.62    0.06
   0   3   5    0.61    0.04
   0   3  -5    0.62    0.04
   0   3   5    0.56    0.04
   0   3  -5    0.63    0.04
   0   3  -5    0.64    0.06
   0   3  -5    0.55    0.05
   0   3  -5    0.51    0.05
   0   3   5    0.56    0.05
   0   3  -5    0.58    0.04
   0   3   5    0.56    0.04
   0   3  -5    0.67    0.07
   0   3   5    0.54    0.03
   0   3   5    0.58    0.04
   0   3  -5    0.54    0.14
   0   3  -5    0.69    0.09
   0   3   5    0.55    0.04
   0   3  -5    0.59    0.06
   0   3   5    0.51    0.06
   0   3   5    0.61    0.05
   0   3   5    0.54    0.07
   0   3   5    0.53    0.06
   1  -3   5    8.47    0.26
  -1  -3  -5    8.35    0.34
   1  -3   5    8.36    0.25
   1  -3   5    8.01    0.28
  -1  -3  -5    8.28    0.40
  -1  -3  -5    8.14    0.27
  -1  -3  -5    7.88    0.26
   1  -3   5    7.78    0.25
  -1  -3  -5    8.24    0.27
   1  -3   5    8.34    0.28
   1  -3   5    7.81    0.27
  -1  -3  -5    8.02    0.27
   1  -3   5    7.84    0.29
  -1  -3  -5    8.53    0.31
   1  -3   5    8.25    0.30
   1   3   5    7.91    0.27
   1   3   5    8.29    0.26
   1   3   5    8.28    0.26
  -1   3  -5    8.09    0.51
  -1   3  -5    8.20    0.28
  -1   3  -5    8.37    0.28
  -1   3  -5    8.50    0.26
   1   3   5    8.34    0.28
   1   3   5    8.37    0.30
   1   3   5    8.15    0.29
  -1   3  -5    8.20    0.26
   1   3   5    8.04    0.25
   1   3   5    8.26    0.28
  -1   3  -5    8.09    0.32
  -1   3  -5    8.32    0.30
  -1   3  -5    8.26    0.32
   1   3   5    7.90    0.26
  -1   3  -5    8.10    0.28
   2  -3   5    1.41    0.11
   2  -3   5    1.33    0.08
  -2  -3  -5    1.32    0.08
  -2  -3  -5    1.22    0.07
   2  -3   5    1.18    0.10
  -2  -3  -5    1.33    0.08
   2  -3   5    1.31    0.08
  -2  -3  -5    1.26    0.11
   2  -3   5    1.26    0.09
   2  -3   5    1.35    0.07
  -2  -3  -5    1.30    0.08
  -2  -3  -5    1.39    0.14
   2  -3   5    1.31    0.08
  -2   3  -5    1.32    0.07
   2   3   5    1.39    0.08
  -2   3  -5    1.41    0.15
   2   3   5    1.14    0.11
  -2   3  -5    1.28    0.12
   2   3   5    1.32    0.09
  -2   3  -5    1.29    0.09
  -2   3  -5    1.28    0.24
   2   3   5    1.27    0.09
  -2   3  -5    1.42    0.09
   2   3   5    1.21    0.08
   2   3   5    1.32    0.07
   2   3   5    1.36    0.08
   3  -3   5    0.25    0.04
  -3  -3  -5    0.18    0.04
   3  -3   5    0.30    0.05
  -3  -3  -5    0.21    0.04
   3  -3   5    0.27    0.04
   3  -3   5    0.24    0.04
  -3  -3  -5    0.26    0.08
  -3  -3  -5    0.23    0.06
   3   3   5    0.29    0.06
   3   3   5    0.26    0.05
  -3   3  -5    0.09    0.11
   3   3   5    0.14    0.04
  -3   3  -5    0.20    0.05
  -3   3  -5    0.36    0.09
   3   3   5    0.20    0.05
  -3   3  -5    0.34    0.09
   3   3   5    0.19    0.04
  -3   3  -5    0.16    0.04
  -4  -3  -5    1.59    0.10
   4  -3   5    1.54    0.10
  -4  -3  -5    1.52    0.11
   4  -3   5    1.64    0.11
  -4  -3  -5    1.56    0.14
   4  -3   5    1.54    0.10
   4   3   5    1.61    0.10
  -4   3  -5    1.42    0.34
  -4   3  -5    1.85    0.21
  -4   3  -5    1.54    0.11
  -4   3  -5    1.76    0.22
   4   3   5    1.36    0.12
  -4   3  -5    1.74    0.11
  -5  -3  -5    1.19    0.12
  -5  -3  -5    1.11    0.17
   5  -3   5    1.31    0.10
  -5  -3  -5    1.26    0.15
   5  -3   5    1.08    0.10
  -5   3  -5    1.33    0.21
  -5   3  -5    1.09    0.19
  -5   3  -5    0.99    0.08
  -5   3  -5    0.57    0.26
   5   3   5    1.21    0.11
   5   3   5    1.07    0.10
  -5   3  -5    1.48    0.19
  -5   3  -5    1.40    0.14
   5   3   5    1.39    0.15
  -6  -3  -5    0.00    0.06
  -6  -3  -5    0.00    0.04
  -6  -3  -5   -0.07    0.06
  -6  -3  -5    0.01    0.08
   6   3   5    0.02    0.04
  -6   3  -5    0.03    0.09
  -6   3  -5    0.04    0.05
  -6   3  -5    0.08    0.09
  -6   3  -5    0.04    0.05
  -6   3  -5   -0.09    0.06
  -6  -4   5    0.33    0.09
   6  -4  -5    0.28    0.07
   6  -4  -5    0.15    0.06
  -6  -4   5    0.16    0.09
   6   4  -5    0.30    0.05
  -6   4   5    0.26    0.05
   6   4  -5    0.34    0.07
  -6   4   5    0.23    0.09
  -6   4   5    0.23    0.09
  -6   4   5    0.39    0.13
  -5  -4   5    0.75    0.13
   5  -4  -5    0.88    0.11
   5  -4  -5    0.75    0.09
  -5  -4   5    0.62    0.10
   5   4  -5    0.71    0.09
  -5   4   5    0.79    0.09
  -5   4   5    0.66    0.08
  -5   4   5    0.64    0.11
   5   4  -5    0.73    0.07
   5   4  -5    0.74    0.05
  -5   4   5    0.71    0.14
  -5   4   5    0.62    0.12
   5   4  -5    0.76    0.08
   4  -4  -5    0.25    0.06
  -4  -4   5    0.27    0.07
  -4  -4   5    0.31    0.08
   4  -4  -5    0.45    0.07
   4  -4  -5    0.35    0.06
  -4  -4   5    0.37    0.06
  -4   4   5    0.31    0.05
  -4   4   5    0.24    0.08
  -4   4   5    0.35    0.06
   4   4  -5    0.30    0.05
   4   4  -5    0.31    0.04
  -4   4   5    0.32    0.07
   4   4  -5    0.32    0.05
  -3  -4   5    4.13    0.22
  -3  -4   5    4.08    0.19
  -3  -4   5    4.23    0.20
   3  -4  -5    4.28    0.18
   3  -4  -5    4.18    0.18
  -3  -4   5    4.08    0.16
   3  -4  -5    3.91    0.18
  -3  -4   5    3.86    0.17
  -3   4   5    4.09    0.23
   3   4  -5    4.17    0.16
   3   4  -5    3.98    0.16
  -3   4   5    4.19    0.18
   3   4  -5    4.14    0.16
  -3   4   5    4.32    0.20
   3   4  -5    4.11    0.26
  -2  -4   5    9.91    0.42
  -2  -4   5   10.17    0.33
   2  -4  -5   10.09    0.33
   2  -4  -5   10.20    0.35
  -2  -4   5    9.90    0.34
  -2  -4   5   10.88    0.36
  -2  -4   5   10.08    0.33
  -2  -4   5    9.56    0.36
   2  -4  -5   10.20    0.35
  -2  -4   5    9.89    0.36
   2  -4  -5    9.43    0.36
   2   4  -5    9.87    0.32
  -2   4   5   10.33    0.40
   2   4  -5    9.52    0.29
   2   4  -5    9.92    0.32
   2   4  -5    9.37    0.49
  -2   4   5   10.32    0.31
   2   4  -5   10.09    0.30
   2   4  -5    9.42    0.32
   2   4  -5   10.11    0.31
  -2   4   5    9.89    0.32
  -2   4   5   10.49    0.35
   1  -4  -5    1.28    0.08
   1  -4  -5    1.41    0.10
  -1  -4   5    1.22    0.08
   1  -4  -5    1.37    0.09
  -1  -4   5    1.21    0.07
  -1  -4   5    1.08    0.09
   1  -4  -5    1.33    0.10
  -1  -4   5    1.14    0.08
   1   4  -5    1.29    0.08
  -1   4   5    1.43    0.09
  -1   4   5    1.47    0.14
   1   4  -5    1.36    0.09
  -1   4   5    1.31    0.07
  -1   4   5    1.33    0.07
  -1   4   5    1.27    0.06
   1   4  -5    1.36    0.07
  -1   4   5    1.25    0.07
   1   4  -5    1.30    0.19
  -1   4   5    1.32    0.07
   1   4  -5    1.31    0.08
  -1   4   5    1.42    0.09
   1   4  -5    1.36    0.06
   1   4  -5    1.30    0.06
   0  -4   5    1.65    0.09
   0  -4  -5    1.71    0.11
   0  -4   5    1.67    0.08
   0  -4   5    1.66    0.08
   0  -4   5    1.61    0.10
   0  -4   5    1.66    0.07
   0  -4  -5    1.62    0.09
   0  -4   5    1.65    0.08
   0  -4  -5    1.58    0.10
   0  -4  -5    1.68    0.10
   0  -4   5    1.67    0.09
   0  -4  -5    1.70    0.11
   0   4   5    1.74    0.11
   0   4  -5    1.70    0.09
   0   4   5    1.75    0.12
   0   4   5    1.66    0.07
   0   4   5    1.66    0.08
   0   4  -5    1.79    0.10
   0   4  -5    1.71    0.09
   0   4   5    1.54    0.08
   0   4  -5    1.63    0.08
   0   4   5    1.70    0.10
   0   4  -5    1.70    0.10
   0   4  -5    1.52    0.12
   0   4  -5    1.54    0.23
   0   4  -5    1.72    0.11
   0   4   5    1.57    0.08
   0   4  -5    1.48    0.10
   0   4   5    1.54    0.08
   0   4   5    1.63    0.12
   0   4   5    1.71    0.11
   1  -4   5    1.13    0.09
  -1  -4  -5    1.10    0.08
  -1  -4  -5    1.19    0.08
  -1  -4  -5    1.20    0.10
   1  -4   5    1.18    0.07
  -1  -4  -5    1.26    0.08
   1  -4   5    1.10    0.09
   1  -4   5    1.20    0.06
   1  -4   5    1.35    0.09
   1  -4   5    1.11    0.08
   1  -4   5    1.19    0.06
   1  -4   5    1.23    0.09
   1  -4   5    1.19    0.07
   1   4   5    1.28    0.09
  -1   4  -5    1.04    0.06
  -1   4  -5    1.04    0.12
   1   4   5    1.27    0.10
   1   4   5    1.11    0.07
   1   4   5    1.19    0.06
  -1   4  -5    1.12    0.08
   1   4   5    1.26    0.07
   1   4   5    1.28    0.09
  -1   4  -5    1.09    0.09
   1   4   5    1.13    0.10
  -1   4  -5    1.06    0.11
   1   4   5    1.23    0.08
   1   4   5    1.30    0.07
  -1   4  -5    1.13    0.08
  -1   4  -5    1.04    0.24
   1   4   5    1.18    0.12
   2  -4   5    4.04    0.21
   2  -4   5    3.91    0.15
  -2  -4  -5    3.75    0.20
   2  -4   5    3.82    0.17
  -2  -4  -5    4.15    0.26
  -2  -4  -5    4.24    0.17
   2  -4   5    4.23    0.16
   2  -4   5    4.21    0.18
   2  -4   5    3.78    0.20
  -2  -4  -5    3.79    0.16
  -2   4  -5    4.08    0.15
  -2   4  -5    3.80    0.18
   2   4   5    4.27    0.20
   2   4   5    3.73    0.17
   2   4   5    4.00    0.23
  -2   4  -5    4.00    0.18
   2   4   5    4.02    0.18
   2   4   5    4.22    0.19
   2   4   5    4.00    0.17
   2   4   5    4.00    0.18
   2   4   5    4.00    0.16
  -2   4  -5    4.09    0.24
  -2   4  -5    3.91    0.23
  -3  -4  -5    0.61    0.10
  -3  -4  -5    0.57    0.10
   3  -4   5    0.48    0.06
   3  -4   5    0.60    0.07
   3  -4   5    0.58    0.07
   3  -4   5    0.51    0.06
   3  -4   5    0.53    0.09
  -3  -4  -5    0.59    0.07
  -3  -4  -5    0.61    0.08
  -3   4  -5    0.53    0.07
   3   4   5    0.50    0.06
  -3   4  -5    0.56    0.08
   3   4   5    0.52    0.08
   3   4   5    0.46    0.07
  -3   4  -5    0.57    0.12
  -3   4  -5    0.67    0.13
  -3   4  -5    0.33    0.18
   4  -4   5    1.10    0.09
   4  -4   5    0.94    0.09
   4  -4   5    0.78    0.08
  -4  -4  -5    0.94    0.12
  -4  -4  -5    0.88    0.09
  -4  -4  -5    1.05    0.11
  -4   4  -5    1.19    0.19
   4   4   5    0.88    0.10
  -4   4  -5    0.97    0.08
   4   4   5    1.04    0.08
  -4   4  -5    0.54    0.24
  -4   4  -5    1.20    0.18
  -4   4  -5    0.75    0.10
   5  -4   5    0.57    0.08
  -5  -4  -5    0.51    0.10
  -5  -4  -5    0.57    0.08
   5  -4   5    0.51    0.08
  -5  -4  -5    0.58    0.13
  -5   4  -5    0.76    0.16
  -5   4  -5    0.43    0.14
   5   4   5    0.52    0.07
  -5   4  -5    0.20    0.17
  -5   4  -5    0.43    0.10
   5   4   5    0.37    0.07
  -5   4  -5    0.50    0.07
  -5   4  -5    0.56    0.13
  -6  -4  -5    0.02    0.10
  -6  -4  -5    0.08    0.05
  -6  -4  -5    0.25    0.08
  -6  -4  -5    0.08    0.08
  -6   4  -5    0.13    0.09
  -6   4  -5    0.16    0.09
  -6   4  -5    0.02    0.09
   6  -5  -5    0.30    0.08
  -6  -5   5    0.14    0.07
  -6  -5   5    0.26    0.10
   6   5  -5    0.30    0.07
  -6   5   5    0.13    0.09
  -6   5   5    0.28    0.06
  -6   5   5    0.40    0.12
   6   5  -5    0.30    0.07
  -6   5   5    0.19    0.09
  -5  -5   5    1.41    0.18
   5  -5  -5    1.31    0.14
   5  -5  -5    1.62    0.13
  -5  -5   5    1.13    0.14
  -5   5   5    1.66    0.15
  -5   5   5    1.43    0.11
  -5   5   5    1.31    0.17
   5   5  -5    1.62    0.11
   5   5  -5    1.47    0.10
   5   5  -5    1.73    0.11
   4  -5  -5    1.94    0.14
   4  -5  -5    1.81    0.12
  -4  -5   5    1.80    0.13
  -4  -5   5    1.80    0.16
  -4  -5   5    1.81    0.14
   4   5  -5    1.87    0.11
  -4   5   5    1.66    0.18
  -4   5   5    1.80    0.14
   4   5  -5    1.72    0.11
  -4   5   5    1.96    0.13
   4   5  -5    1.81    0.10
   4   5  -5    1.79    0.11
  -3  -5   5    0.22    0.05
  -3  -5   5    0.24    0.06
  -3  -5   5    0.21    0.06
   3  -5  -5    0.23    0.05
  -3  -5   5    0.21    0.04
   3  -5  -5    0.29    0.05
  -3  -5   5    0.23    0.04
  -3  -5   5    0.16    0.06
  -3   5   5    0.08    0.06
   3   5  -5    0.29    0.04
  -3   5   5    0.26    0.05
   3   5  -5    0.21    0.04
   3   5  -5    0.17    0.04
   3   5  -5    0.19    0.04
  -2  -5   5    0.06    0.03
   2  -5  -5    0.06    0.03
  -2  -5   5    0.08    0.04
  -2  -5   5    0.05    0.03
  -2  -5   5    0.07    0.04
   2  -5  -5    0.05    0.03
   2  -5  -5    0.05    0.06
  -2  -5   5    0.05    0.03
  -2  -5   5    0.01    0.02
  -2  -5   5    0.03    0.03
   2   5  -5    0.06    0.03
  -2   5   5    0.05    0.02
  -2   5   5    0.07    0.02
   2   5  -5    0.02    0.02
   2   5  -5    0.04    0.03
   2   5  -5    0.05    0.02
   2   5  -5    0.02    0.03
  -2   5   5    0.04    0.03
   2   5  -5    0.07    0.02
  -2   5   5    0.09    0.02
   2   5  -5    0.01    0.06
  -2   5   5    0.03    0.05
  -1  -5   5    0.69    0.06
  -1  -5   5    0.89    0.09
  -1  -5   5    0.74    0.06
  -1  -5   5    0.48    0.07
   1  -5  -5    0.71    0.08
  -1  -5   5    0.70    0.08
   1  -5  -5    0.84    0.09
   1  -5  -5    0.53    0.08
   1   5  -5    0.64    0.08
   1   5  -5    0.80    0.06
   1   5  -5    0.84    0.08
  -1   5   5    0.53    0.09
   1   5  -5    0.50    0.16
  -1   5   5    0.76    0.06
   1   5  -5    0.77    0.05
   1   5  -5    0.79    0.08
  -1   5   5    0.65    0.07
  -1   5   5    0.76    0.09
  -1   5   5    0.68    0.06
  -1   5   5    0.86    0.10
   1   5  -5    0.75    0.05
  -1   5   5    0.69    0.05
   0  -5   5    5.86    0.19
   0  -5  -5    5.55    0.21
   0  -5   5    5.73    0.20
   0  -5   5    5.72    0.23
   0  -5   5    5.50    0.21
   0  -5   5    5.84    0.22
   0  -5   5    5.67    0.22
   0  -5  -5    5.72    0.23
   0  -5   5    5.86    0.20
   0  -5  -5    5.58    0.25
   0   5   5    5.62    0.21
   0   5  -5    5.79    0.23
   0   5   5    5.74    0.19
   0   5  -5    5.43    0.23
   0   5   5    5.97    0.25
   0   5   5    5.93    0.19
   0   5  -5    6.04    0.42
   0   5   5    5.66    0.23
   0   5   5    6.09    0.25
   0   5   5    6.02    0.22
   0   5   5    5.57    0.26
   0   5   5    5.98    0.27
   0   5   5    5.58    0.20
   0   5  -5    6.34    0.25
   1  -5   5    1.31    0.07
   1  -5   5    1.34    0.11
   1  -5   5    1.32    0.08
  -1  -5  -5    1.27    0.09
   1  -5   5    1.34    0.10
  -1  -5  -5    1.19    0.08
   1  -5   5    1.19    0.09
  -1  -5  -5    1.24    0.11
   1  -5   5    1.31    0.09
   1  -5   5    1.22    0.11
   1  -5   5    1.32    0.07
  -1   5  -5    0.87    0.26
   1   5   5    1.38    0.11
   1   5   5    1.33    0.08
   1   5   5    1.38    0.10
  -1   5  -5    1.46    0.11
   1   5   5    1.24    0.06
  -1   5  -5    1.30    0.14
   1   5   5    1.34    0.08
  -1   5  -5    1.30    0.10
  -1   5  -5    1.25    0.08
   1   5   5    1.35    0.11
   1   5   5    1.20    0.11
  -1   5  -5    1.51    0.19
   1   5   5    1.28    0.07
   1   5   5    1.22    0.09
   1   5   5    1.39    0.13
   2  -5   5    4.29    0.19
   2  -5   5    4.23    0.23
   2  -5   5    4.32    0.17
   2  -5   5    4.77    0.21
  -2  -5  -5    4.29    0.19
  -2  -5  -5    4.45    0.28
   2  -5   5    4.20    0.17
  -2  -5  -5    4.22    0.23
   2  -5   5    4.36    0.22
   2   5   5    4.51    0.19
   2   5   5    4.37    0.17
  -2   5  -5    3.63    0.46
  -2   5  -5    4.58    0.20
   2   5   5    4.53    0.20
   2   5   5    4.36    0.15
  -2   5  -5    4.59    0.26
  -2   5  -5    4.47    0.30
   2   5   5    4.30    0.26
   2   5   5    4.44    0.21
   2   5   5    4.54    0.21
   3  -5   5    2.54    0.13
   3  -5   5    2.36    0.12
  -3  -5  -5    2.42    0.14
   3  -5   5    2.46    0.14
   3  -5   5    2.68    0.14
  -3  -5  -5    2.41    0.13
   3  -5   5    2.01    0.17
  -3  -5  -5    2.63    0.18
  -3   5  -5    2.22    0.25
  -3   5  -5    2.35    0.21
   3   5   5    2.36    0.12
   3   5   5    2.69    0.15
   3   5   5    2.59    0.14
   3   5   5    2.34    0.15
  -3   5  -5    2.42    0.14
  -3   5  -5    1.89    0.41
  -4  -5  -5    0.57    0.08
   4  -5   5    0.52    0.07
   4  -5   5    0.55    0.08
   4  -5   5    0.45    0.07
  -4  -5  -5    0.60    0.11
  -4  -5  -5    0.60    0.08
  -4   5  -5    0.58    0.14
   4   5   5    0.54    0.07
   4   5   5    0.52    0.08
  -4   5  -5    0.51    0.07
   4   5   5    0.49    0.08
  -4   5  -5    0.22    0.18
  -4   5  -5    0.09    0.15
  -4   5  -5    0.44    0.12
   5  -5   5    0.43    0.08
   5  -5   5    0.45    0.07
  -5  -5  -5    0.58    0.13
  -5  -5  -5    0.57    0.10
  -5  -5  -5    0.66    0.10
  -5  -5  -5    0.36    0.08
   5   5   5    0.44    0.08
  -5   5  -5    0.35    0.10
  -5   5  -5    0.50    0.15
  -5   5  -5    0.60    0.14
  -5   5  -5    0.52    0.07
   5   5   5    0.44    0.09
   5   5   5    0.46    0.07
  -6  -6   5    0.74    0.13
  -6  -6   5    0.90    0.17
   6  -6  -5    0.82    0.13
  -6   6   5    0.92    0.12
  -6   6   5    0.66    0.15
   6   6  -5    0.74    0.11
   5  -6  -5    1.56    0.13
  -5  -6   5    1.70    0.17
   5  -6  -5    1.39    0.14
  -5  -6   5    1.77    0.19
  -5   6   5    1.61    0.13
   5   6  -5    1.62    0.12
   5   6  -5    1.49    0.13
  -5   6   5    1.62    0.20
   5   6  -5    1.65    0.12
  -4  -6   5    0.09    0.06
  -4  -6   5    0.24    0.06
   4  -6  -5    0.19    0.06
  -4  -6   5    0.21    0.08
   4  -6  -5    0.15    0.06
   4   6  -5    0.14    0.04
   4   6  -5    0.08    0.03
  -4   6   5    0.11    0.05
  -4   6   5    0.08    0.07
   4   6  -5    0.31    0.06
   3  -6  -5    3.25    0.17
   3  -6  -5    3.01    0.18
  -3  -6   5    3.16    0.17
  -3  -6   5    3.12    0.18
  -3  -6   5    3.32    0.18
  -3  -6   5    2.80    0.19
  -3   6   5    2.87    0.22
  -3   6   5    2.98    0.17
   3   6  -5    3.12    0.14
   3   6  -5    2.94    0.15
  -3   6   5    3.23    0.15
  -2  -6   5    3.18    0.18
  -2  -6   5    2.96    0.17
   2  -6  -5    3.17    0.17
   2  -6  -5    3.35    0.18
  -2  -6   5    3.20    0.15
  -2  -6   5    3.03    0.14
   2   6  -5    3.43    0.17
  -2   6   5    3.21    0.14
  -2   6   5    3.41    0.23
  -2   6   5    3.27    0.12
   2   6  -5    3.26    0.15
  -2   6   5    3.14    0.18
   2   6  -5    3.24    0.18
   2   6  -5    3.07    0.14
  -2   6   5    3.41    0.13
  -2   6   5    3.04    0.16
   2   6  -5    3.37    0.13
  -1  -6   5    8.90    0.28
   1  -6  -5    8.69    0.32
  -1  -6   5    8.36    0.28
   1  -6  -5    8.60    0.33
  -1  -6   5    8.86    0.33
  -1  -6   5    8.51    0.32
  -1   6   5    8.17    0.37
  -1   6   5    8.83    0.34
  -1   6   5    8.59    0.30
   1   6  -5    6.71    0.55
   1   6  -5    8.36    0.28
   1   6  -5    8.05    0.28
  -1   6   5    8.73    0.34
   1   6  -5    7.77    0.33
  -1   6   5    8.48    0.28
   1   6  -5    8.26    0.33
  -1   6   5    8.22    0.29
  -1   6   5    8.65    0.33
   1   6  -5    8.00    0.29
   0  -6   5    7.63    0.29
   0  -6   5    7.58    0.27
   0  -6  -5    7.22    0.28
   0  -6   5    7.42    0.23
   0  -6   5    7.30    0.27
   0  -6   5    7.33    0.25
   0  -6   5    7.43    0.25
   0  -6   5    7.11    0.26
   0   6  -5    6.97    0.30
   0   6   5    6.91    0.32
   0   6   5    6.89    0.26
   0   6  -5    7.23    0.32
   0   6   5    7.07    0.28
   0   6   5    7.21    0.27
   0   6  -5    7.69    0.27
   0   6   5    6.84    0.30
   0   6  -5    7.37    0.28
   0   6   5    7.31    0.30
   0   6  -5    6.47    0.57
   0   6   5    7.25    0.33
  -1  -6  -5    1.47    0.10
   1  -6   5    1.43    0.08
  -1  -6  -5    1.41    0.13
   1  -6   5    1.44    0.09
   1  -6   5    1.43    0.11
   1  -6   5    1.48    0.13
   1  -6   5    1.49    0.12
   1  -6   5    1.33    0.11
   1  -6   5    1.48    0.08
  -1   6  -5    1.29    0.15
  -1   6  -5    1.49    0.10
   1   6   5    1.51    0.13
   1   6   5    1.53    0.15
   1   6   5    1.50    0.09
   1   6   5    1.41    0.08
  -1   6  -5    1.19    0.32
   1   6   5    1.41    0.12
   1   6   5    1.41    0.10
  -1   6  -5    1.50    0.15
   1   6   5    1.38    0.11
  -1   6  -5    1.34    0.11
  -2  -6  -5    1.47    0.11
   2  -6   5    1.72    0.10
   2  -6   5    1.62    0.14
   2  -6   5    1.66    0.09
   2  -6   5    1.71    0.13
  -2  -6  -5    1.76    0.18
  -2  -6  -5    1.65    0.14
   2  -6   5    1.77    0.12
  -2   6  -5    1.12    0.32
   2   6   5    1.66    0.12
  -2   6  -5    1.54    0.12
  -2   6  -5    1.49    0.19
   2   6   5    1.49    0.19
   2   6   5    1.67    0.11
   2   6   5    1.79    0.13
   2   6   5    1.69    0.10
  -2   6  -5    1.64    0.18
  -3  -6  -5    0.36    0.07
  -3  -6  -5    0.35    0.07
   3  -6   5    0.31    0.08
   3  -6   5    0.34    0.06
   3  -6   5    0.38    0.06
   3  -6   5    0.42    0.08
  -3  -6  -5    0.32    0.06
   3  -6   5    0.31    0.06
  -3  -6  -5    0.42    0.09
  -3   6  -5    0.33    0.10
   3   6   5    0.34    0.07
  -3   6  -5    0.26    0.20
  -3   6  -5    0.40    0.07
   3   6   5    0.20    0.05
   3   6   5    0.33    0.05
  -3   6  -5    0.34    0.12
   4  -6   5    0.27    0.06
  -4  -6  -5    0.25    0.07
  -4  -6  -5    0.19    0.06
  -4  -6  -5    0.23    0.07
   4  -6   5    0.27    0.07
  -4   6  -5    0.09    0.08
  -4   6  -5    0.30    0.12
   4   6   5    0.20    0.06
   4   6   5    0.18    0.06
  -4   6  -5    0.20    0.06
   4   6   5    0.23    0.05
   5  -6   5    1.03    0.17
  -5  -6  -5    1.73    0.17
  -5  -6  -5    1.49    0.19
  -5  -6  -5    1.34    0.13
  -5  -6  -5    0.77    0.28
  -5  -6  -5    1.47    0.15
  -5  -6  -5    1.24    0.13
  -5  -6  -5    1.23    0.18
  -5   6  -5    1.61    0.24
  -5   6  -5    1.46    0.22
   5   6   5    1.29    0.15
  -5  -7   5    1.75    0.18
   5  -7  -5    1.68    0.15
  -5   7   5    1.85    0.22
   5   7  -5    1.50    0.12
   5   7  -5    1.54    0.12
   5   7  -5    1.61    0.16
  -5   7   5    1.80    0.15
   4  -7  -5    3.41    0.20
   4  -7  -5    3.04    0.21
  -4  -7   5    3.05    0.19
  -4  -7   5    3.04    0.19
  -4  -7   5    2.99    0.22
  -4   7   5    2.95    0.19
   4   7  -5    3.44    0.17
  -4   7   5    3.10    0.25
   4   7  -5    3.27    0.16
   4   7  -5    3.09    0.20
  -3  -7   5    0.72    0.11
   3  -7  -5    0.79    0.10
  -3  -7   5    0.82    0.11
   3  -7  -5    0.76    0.11
  -3  -7   5    0.90    0.10
   3   7  -5    0.70    0.11
   3   7  -5    0.80    0.08
   3   7  -5    0.60    0.08
  -3   7   5    0.80    0.14
  -3   7   5    0.76    0.08
  -3   7   5    0.68    0.10
   2  -7  -5    0.08    0.05
   2  -7  -5    0.05    0.04
  -2  -7   5    0.03    0.05
  -2  -7   5    0.03    0.04
  -2  -7   5    0.05    0.03
   2   7  -5    0.04    0.05
  -2   7   5   -0.01    0.06
   2   7  -5    0.09    0.04
  -2   7   5    0.03    0.03
  -2   7   5    0.08    0.03
   2   7  -5    0.06    0.03
  -2   7   5    0.05    0.05
  -2   7   5    0.08    0.03
  -2   7   5    0.06    0.04
   1  -7  -5    0.13    0.06
  -1  -7   5    0.15    0.05
  -1  -7   5    0.13    0.05
  -1   7   5    0.18    0.07
   1   7  -5    0.23    0.04
   1   7  -5    0.06    0.11
  -1   7   5    0.15    0.04
   1   7  -5    0.16    0.06
  -1   7   5    0.20    0.07
   1   7  -5    0.19    0.07
  -1   7   5    0.21    0.08
  -1   7   5    0.18    0.05
   1   7  -5    0.14    0.04
   0  -7   5    5.86    0.21
   0  -7   5    5.81    0.24
   0  -7   5    5.79    0.20
   0  -7   5    5.93    0.24
   0  -7   5    5.98    0.22
   0  -7   5    5.92    0.24
   0  -7   5    5.82    0.26
   0   7   5    5.79    0.30
   0   7  -5    5.13    0.23
   0   7  -5    5.41    0.29
   0   7   5    5.75    0.23
   0   7   5    5.90    0.25
   0   7   5    5.43    0.29
   0   7   5    6.14    0.24
   0   7   5    6.09    0.28
   1  -7   5    0.85    0.06
   1  -7   5    0.79    0.10
   1  -7   5    0.82    0.09
   1  -7   5    0.78    0.11
   1  -7   5    0.77    0.10
  -1   7  -5    1.05    0.14
   1   7   5    0.77    0.11
   1   7   5    0.82    0.10
   1   7   5    0.86    0.14
   1   7   5    0.74    0.06
   1   7   5    0.86    0.10
  -1   7  -5    0.65    0.13
  -1   7  -5    0.83    0.09
   1   7   5    0.79    0.08
   1   7   5    0.70    0.11
  -1   7  -5    0.45    0.22
   2  -7   5    0.74    0.09
   2  -7   5    0.81    0.12
  -2  -7  -5    0.54    0.09
   2  -7   5    0.79    0.11
   2  -7   5    0.74    0.07
  -2  -7  -5    0.88    0.13
  -2   7  -5    0.70    0.13
   2   7   5    0.78    0.11
  -2   7  -5    0.52    0.26
   2   7   5    0.71    0.07
  -2   7  -5    0.78    0.14
   2   7   5    0.80    0.09
   3  -7   5    2.49    0.16
   3  -7   5    2.78    0.14
  -3  -7  -5    2.51    0.15
  -3  -7  -5    2.10    0.15
   3  -7   5    2.32    0.13
  -3  -7  -5    2.14    0.18
   3  -7   5    2.42    0.18
   3   7   5    2.34    0.15
  -3   7  -5    2.17    0.25
   3   7   5    2.50    0.17
  -3   7  -5    2.56    0.27
  -3   7  -5    2.62    0.16
   3   7   5    2.49    0.13
  -4  -7  -5    0.08    0.07
  -4  -7  -5    0.00    0.05
  -4  -7  -5    0.04    0.05
   4  -7   5    0.00    0.05
   4   7   5    0.02    0.06
  -4   7  -5    0.06    0.04
   4   7   5   -0.01    0.03
   4   7   5    0.10    0.06
  -4   7  -5   -0.06    0.07
  -4   7  -5    0.00    0.09
   4  -8  -5    3.41    0.22
  -4  -8   5    3.17    0.24
  -4  -8   5    3.53    0.21
  -4  -8   5    3.78    0.22
   4   8  -5    3.58    0.19
   4   8  -5    3.28    0.17
  -4   8   5    3.59    0.28
   4   8  -5    3.49    0.24
  -4   8   5    3.36    0.21
  -3  -8   5    1.79    0.15
   3  -8  -5    1.79    0.16
  -3  -8   5    1.64    0.18
  -3   8   5    2.10    0.16
  -3   8   5    1.33    0.19
   3   8  -5    1.85    0.12
   3   8  -5    1.96    0.17
   3   8  -5    1.98    0.13
  -3   8   5    1.85    0.12
  -2  -8   5    1.86    0.18
  -2  -8   5    1.78    0.15
   2  -8  -5    1.96    0.16
   2   8  -5    1.96    0.13
  -2   8   5    2.00    0.12
  -2   8   5    2.54    0.25
  -2   8   5    2.00    0.12
   2   8  -5    1.49    0.20
  -2   8   5    1.93    0.16
   2   8  -5    1.91    0.12
  -2   8   5    1.66    0.14
  -1  -8   5    0.96    0.12
  -1  -8   5    0.98    0.12
   1  -8  -5    0.76    0.12
  -1   8   5    1.14    0.15
   1   8  -5    1.00    0.14
   1   8  -5    0.80    0.09
  -1   8   5    0.92    0.10
  -1   8   5    0.81    0.09
  -1   8   5    0.91    0.12
  -1   8   5    0.87    0.14
   0  -8   5    1.27    0.12
   0  -8   5    1.24    0.10
   0  -8   5    1.36    0.13
   0  -8   5    1.34    0.11
   0  -8   5    1.30    0.07
   0   8   5    1.53    0.17
   0   8  -5    1.41    0.18
   0   8   5    1.45    0.18
   0   8   5    1.00    0.14
   0   8   5    1.47    0.14
   0   8   5    1.21    0.10
   0   8   5    1.32    0.10
   0   8  -5    1.30    0.11
   1  -8   5    0.04    0.04
   1  -8   5    0.05    0.05
   1  -8   5    0.06    0.02
   1  -8   5    0.16    0.05
   1  -8   5    0.09    0.03
  -1  -8  -5    0.05    0.05
  -1   8  -5    0.01    0.03
  -1   8  -5   -0.03    0.07
   1   8   5    0.05    0.03
   1   8   5   -0.01    0.05
   1   8   5    0.06    0.03
   1   8   5    0.12    0.06
   1   8   5    0.02    0.03
   2  -8   5    1.29    0.12
  -2  -8  -5    1.48    0.13
   2  -8   5    1.22    0.15
   2  -8   5    1.47    0.18
   2  -8   5    1.28    0.09
   2  -8   5    1.41    0.10
  -2  -8  -5    1.10    0.12
   2   8   5    1.34    0.10
  -2   8  -5    1.31    0.20
   2   8   5    1.54    0.12
   2   8   5    1.25    0.10
  -2   8  -5    1.73    0.20
  -3  -8  -5    0.83    0.10
   3  -8   5    0.78    0.09
  -3  -8  -5    0.79    0.13
  -3  -8  -5    0.88    0.12
   3  -8   5    0.65    0.10
   3  -8   5    0.82    0.09
   3  -8   5    0.74    0.13
   3   8   5    0.86    0.10
   3   8   5    0.87    0.12
   3   8   5    0.80    0.09
  -3   8  -5    1.00    0.18
  -3   8  -5    0.62    0.15
  -4  -8  -5    0.68    0.11
  -4  -8  -5    0.63    0.10
   4   8   5    0.58    0.10
  -4   8  -5    0.34    0.14
   3  -9  -5    0.46    0.10
  -3  -9   5    0.35    0.09
  -3  -9   5    0.27    0.10
   3   9  -5    0.46    0.08
  -3   9   5    0.46    0.08
  -3   9   5    0.38    0.10
  -3   9   5    0.45    0.13
   3   9  -5    0.39    0.07
  -2  -9   5    1.44    0.17
  -2  -9   5    0.89    0.12
   2  -9  -5    0.88    0.14
   2  -9  -5    1.06    0.14
   2   9  -5    1.01    0.10
  -2   9   5    1.29    0.19
  -2   9   5    1.20    0.15
  -2   9   5    0.73    0.09
  -2   9   5    1.04    0.09
   2   9  -5    1.11    0.12
  -2   9   5    1.22    0.13
  -1  -9   5    2.38    0.18
   1  -9  -5    2.68    0.20
  -1  -9   5    2.54    0.18
  -1   9   5    2.24    0.15
  -1   9   5    2.61    0.20
   1   9  -5    2.18    0.15
  -1   9   5    2.27    0.15
  -1   9   5    2.46    0.24
   0  -9  -5    2.07    0.17
   0  -9   5    2.18    0.10
   0  -9   5    2.16    0.16
   0  -9   5    2.13    0.13
   0  -9   5    2.04    0.16
   0  -9   5    2.19    0.13
   0   9   5    2.28    0.22
   0   9   5    2.28    0.16
   0   9   5    1.99    0.14
   0   9   5    2.34    0.21
   0   9  -5    2.18    0.23
   0   9  -5    2.23    0.15
   1  -9   5    1.29    0.12
   1  -9   5    1.42    0.09
   1  -9   5    1.45    0.14
   1  -9   5    1.45    0.10
  -1  -9  -5    1.31    0.16
   1   9   5    1.44    0.17
   1   9   5    1.53    0.13
  -1   9  -5    1.42    0.21
   1   9   5    1.27    0.15
  -1   9  -5    1.18    0.12
   1   9   5    1.41    0.11
  -2  -9  -5    0.44    0.09
   2  -9   5    0.44    0.08
   2  -9   5    0.35    0.09
   2  -9   5    0.50    0.09
  -2  -9  -5    0.48    0.09
   2  -9   5    0.41    0.05
   2   9   5    0.40    0.08
  -2   9  -5    0.34    0.13
  -3  -9  -5    0.14    0.07
  -3  -9  -5    0.16    0.08
   3  -9   5    0.22    0.07
   3   9   5    0.35    0.08
   2 -10  -5    1.77    0.17
  -2 -10   5    1.82    0.20
  -2 -10   5    1.69    0.16
   2  10  -5    1.78    0.14
  -2  10   5    2.06    0.14
   1 -10  -5    0.04    0.06
  -1 -10   5    0.10    0.07
  -1 -10   5    0.02    0.05
  -1  10   5   -0.08    0.06
   1  10  -5   -0.06    0.04
  -1  10   5    0.03    0.04
  -1  10   5   -0.04    0.07
   0 -10   5    3.58    0.23
   0 -10  -5    3.42    0.23
   0 -10   5    4.14    0.23
   0  10   5    4.08    0.28
   0  10   5    4.05    0.21
   0  10  -5    4.09    0.22
  -1 -10  -5    1.64    0.15
   1 -10   5    1.30    0.15
  -1  10  -5    1.35    0.21
   1  10   5    1.45    0.14
  -1  10  -5    1.52    0.15
  -7   0   6    7.65    0.35
   7   0  -6    7.55    0.34
  -7   0   6    6.28    0.40
  -7   0   6    7.39    0.23
   7   0  -6    7.28    0.28
   6   0  -6    4.37    0.17
  -6   0   6    4.23    0.15
   6   0  -6    4.16    0.16
  -6   0   6    4.63    0.30
   6   0  -6    4.18    0.22
   6   0  -6    4.99    0.26
  -6   0   6    4.14    0.23
  -5   0   6    7.44    0.36
   5   0  -6    7.37    0.23
   5   0  -6    7.25    0.31
   5   0  -6    7.62    0.30
  -5   0   6    7.36    0.33
  -5   0   6    6.96    0.30
   5   0  -6    7.23    0.22
  -5   0   6    7.10    0.22
  -4   0   6   26.76    0.83
  -4   0   6   27.19    0.81
  -4   0   6   26.71    0.88
   4   0  -6   26.80    0.84
   3   0  -6   25.16    0.77
   3   0  -6   25.23    0.71
  -3   0   6   24.75    0.81
  -3   0   6   26.52    0.78
   3   0  -6   25.70    0.71
  -3   0   6   25.64    0.77
  -3   0   6   25.55    0.78
   2   0  -6    0.50    0.05
  -2   0   6    0.73    0.03
  -2   0   6    0.74    0.07
   2   0  -6    0.50    0.10
  -2   0   6    0.61    0.08
  -2   0   6    0.59    0.06
  -2   0   6    0.64    0.07
  -2   0   6    0.64    0.03
   1   0  -6    5.88    0.32
  -1   0   6    5.65    0.18
   1   0  -6    5.93    0.18
   1   0  -6    6.02    0.19
   1   0  -6    5.98    0.18
  -1   0   6    5.93    0.21
   1   0  -6    5.91    0.18
   0   0  -6   63.21    1.76
   0   0  -6   65.40    1.76
   0   0  -6   60.01    1.76
   0   0  -6   60.76    1.93
   0   0  -6   63.61    1.78
   0   0   6   61.56    1.76
   0   0  -6   63.27    1.76
   0   0   6   65.07    1.74
   0   0   6   63.68    1.77
   0   0   6   65.19    1.74
   0   0   6   64.42    1.74
   0   0  -6   63.38    1.76
  -1   0  -6   14.12    0.43
  -1   0  -6   13.84    0.44
   1   0   6   14.19    0.44
   1   0   6   14.51    0.43
  -1   0  -6   13.74    0.42
  -1   0  -6   13.64    0.43
  -1   0  -6   13.75    0.47
  -1   0  -6   13.76    0.42
  -1   0  -6   13.28    0.43
   1   0   6   14.38    0.41
   1   0   6   14.38    0.42
  -1   0  -6   14.61    0.59
   1   0   6   13.74    0.42
  -2   0  -6    5.43    0.25
   2   0   6    5.84    0.18
  -2   0  -6    5.57    0.21
   2   0   6    5.77    0.21
   2   0   6    5.82    0.21
  -2   0  -6    5.79    0.37
  -2   0  -6    5.53    0.20
  -2   0  -6    5.32    0.20
   2   0   6    6.06    0.20
   2   0   6    5.52    0.21
   2   0   6    5.76    0.21
   2   0   6    5.53    0.24
  -2   0  -6    5.69    0.26
  -2   0  -6    5.73    0.20
   3   0   6   45.21    1.30
   3   0   6   46.17    1.31
  -3   0  -6   45.94    1.39
  -3   0  -6   45.19    1.44
  -3   0  -6   45.25    1.32
   3   0   6   44.73    1.29
   3   0   6   47.93    1.33
  -3   0  -6   46.55    1.65
  -3   0  -6   42.62    1.39
  -3   0  -6   45.43    1.31
  -4   0  -6    0.64    0.07
  -4   0  -6    0.62    0.08
   4   0   6    0.61    0.09
   4   0   6    0.69    0.06
  -4   0  -6    0.70    0.12
  -4   0  -6    0.70    0.21
  -4   0  -6    0.63    0.12
   4   0   6    0.58    0.07
   4   0   6    0.50    0.06
  -5   0  -6    0.12    0.04
  -5   0  -6    0.06    0.13
  -5   0  -6    0.08    0.05
   5   0   6    0.08    0.05
  -5   0  -6    0.05    0.07
  -5   0  -6    0.06    0.09
   5   0   6    0.12    0.06
   5   0   6    0.16    0.04
   6   0   6    1.14    0.13
  -6   0  -6    1.05    0.20
  -6   0  -6    1.34    0.14
   6   0   6    1.72    0.27
  -6   0  -6    1.15    0.17
  -7  -1   6    0.44    0.10
   7  -1  -6    0.42    0.07
   7  -1  -6    0.54    0.11
  -7  -1   6    0.49    0.14
  -7  -1   6    0.46    0.04
   7   1  -6    0.52    0.10
  -7   1   6    0.50    0.10
  -7   1   6    0.42    0.05
  -7   1   6    0.50    0.14
   7   1  -6    0.41    0.06
  -6  -1   6    3.27    0.21
  -6  -1   6    3.19    0.26
   6  -1  -6    3.41    0.15
   6  -1  -6    3.65    0.14
  -6  -1   6    3.47    0.12
   6  -1  -6    3.01    0.20
  -6   1   6    3.78    0.25
  -6   1   6    3.17    0.20
  -6   1   6    3.24    0.25
  -6   1   6    3.43    0.13
   6   1  -6    3.17    0.14
   6   1  -6    3.09    0.19
   6   1  -6    3.53    0.22
   6   1  -6    3.32    0.13
   5  -1  -6    9.03    0.37
  -5  -1   6    9.49    0.43
  -5  -1   6    8.91    0.36
   5  -1  -6    9.47    0.30
  -5  -1   6    9.54    0.37
  -5   1   6    9.48    0.36
  -5   1   6    9.40    0.29
   5   1  -6    8.98    0.38
  -5   1   6    9.50    0.42
   5   1  -6    9.12    0.34
   5   1  -6    9.58    0.28
  -5   1   6    9.16    0.40
  -5   1   6    9.40    0.36
   4  -1  -6    5.77    0.19
   4  -1  -6    5.95    0.25
  -4  -1   6    5.76    0.25
  -4  -1   6    5.75    0.29
   4   1  -6    5.72    0.23
  -4   1   6    6.11    0.25
  -4   1   6    6.16    0.19
  -4   1   6    5.98    0.29
   4   1  -6    5.99    0.31
  -4   1   6    6.67    0.26
   4   1  -6    5.63    0.20
  -3  -1   6   11.68    0.40
  -3  -1   6   12.83    0.45
   3  -1  -6   11.72    0.39
  -3  -1   6   11.66    0.40
   3  -1  -6   11.33    0.33
  -3   1   6   11.85    0.43
  -3   1   6   11.85    0.40
  -3   1   6   11.68    0.34
  -3   1   6   11.97    0.40
   3   1  -6   11.68    0.37
   3   1  -6   11.61    0.34
  -3   1   6   11.94    0.34
   3   1  -6   11.57    0.49
  -3   1   6   11.91    0.41
   3   1  -6   11.46    0.38
  -2  -1   6   83.08    2.35
   2  -1  -6   82.54    2.30
   2  -1  -6   82.64    2.27
  -2  -1   6   80.10    2.31
   2  -1  -6   79.84    2.26
   2  -1  -6   83.48    2.26
  -2  -1   6   81.86    2.26
  -2  -1   6   82.56    2.31
  -2   1   6   82.26    2.34
   2   1  -6   81.69    2.30
  -2   1   6   84.36    2.28
  -2   1   6   82.62    2.33
  -2   1   6   83.40    2.31
   2   1  -6   82.66    2.27
  -2   1   6   82.01    2.26
   2   1  -6   83.11    2.44
  -2   1   6   83.25    2.31
  -1  -1   6   36.75    1.02
   1  -1  -6   38.45    1.03
  -1  -1   6   36.17    1.06
   1  -1  -6   37.09    1.03
   1  -1  -6   37.23    1.02
   1  -1  -6   35.54    1.22
   1  -1  -6   37.36    1.03
   1  -1  -6   37.17    1.04
  -1  -1   6   36.96    1.03
  -1   1   6   34.93    1.06
   1   1  -6   37.83    1.02
   1   1  -6   36.39    1.02
  -1   1   6   36.68    1.04
  -1   1   6   37.54    1.01
  -1   1   6   37.56    1.09
   1   1  -6   36.22    1.20
  -1   1   6   36.44    1.03
   1   1  -6   37.29    1.03
   0  -1  -6    6.39    0.21
   0  -1  -6    6.35    0.34
   0  -1  -6    6.22    0.21
   0  -1   6    6.42    0.22
   0  -1  -6    6.54    0.23
   0  -1  -6    6.32    0.21
   0  -1  -6    6.58    0.20
   0  -1  -6    5.81    0.20
   0  -1   6    5.87    0.21
   0  -1  -6    6.09    0.21
   0  -1  -6    6.65    0.22
   0   1   6    6.30    0.19
   0   1   6    6.43    0.20
   0   1   6    6.43    0.22
   0   1  -6    6.34    0.21
   0   1  -6    6.29    0.21
   0   1  -6    6.43    0.21
   0   1  -6    6.81    0.35
   0   1   6    6.51    0.22
   0   1   6    6.44    0.21
   0   1  -6    6.30    0.19
   0   1  -6    6.38    0.23
   0   1  -6    6.52    0.20
   0   1   6    6.43    0.20
   0   1   6    6.42    0.20
  -1  -1  -6   38.75    1.12
   1  -1   6   41.48    1.15
   1  -1   6   38.74    1.10
   1  -1   6   39.94    1.10
  -1  -1  -6   39.07    1.13
   1  -1   6   39.75    1.14
  -1  -1  -6   39.79    1.12
  -1  -1  -6   37.56    1.16
  -1  -1  -6   40.16    1.30
  -1  -1  -6   37.95    1.11
   1  -1   6   40.29    1.11
  -1  -1  -6   39.47    1.12
   1  -1   6   39.51    1.12
  -1  -1  -6   39.53    1.18
  -1   1  -6   38.41    1.12
   1   1   6   40.06    1.14
  -1   1  -6   39.66    1.12
  -1   1  -6   39.12    1.12
   1   1   6   39.40    1.12
  -1   1  -6   40.04    1.14
   1   1   6   38.26    1.12
  -1   1  -6   41.28    1.35
   1   1   6   39.87    1.10
  -1   1  -6   40.05    1.11
  -1   1  -6   37.97    1.16
   1   1   6   39.24    1.11
  -1   1  -6   38.21    1.12
   2  -1   6   11.70    0.40
   2  -1   6   10.97    0.35
  -2  -1  -6   11.43    0.41
   2  -1   6   11.37    0.33
   2  -1   6   10.58    0.36
  -2  -1  -6   11.95    0.53
   2  -1   6   11.47    0.35
  -2  -1  -6   11.01    0.36
  -2  -1  -6   10.93    0.42
  -2  -1  -6   11.31    0.36
  -2  -1  -6   11.42    0.35
  -2  -1  -6   11.14    0.35
   2   1   6   10.87    0.34
  -2   1  -6   10.91    0.42
  -2   1  -6   11.38    0.35
   2   1   6   10.60    0.36
   2   1   6   11.43    0.36
  -2   1  -6   10.78    0.36
   2   1   6   10.70    0.33
   2   1   6   10.86    0.39
  -2   1  -6   11.16    0.59
   2   1   6   11.23    0.36
  -2   1  -6   11.63    0.36
  -3  -1  -6    2.75    0.27
   3  -1   6    2.96    0.13
  -3  -1  -6    2.31    0.10
   3  -1   6    2.74    0.11
  -3  -1  -6    2.40    0.25
  -3  -1  -6    2.24    0.12
   3  -1   6    2.74    0.12
  -3  -1  -6    2.52    0.14
  -3  -1  -6    2.33    0.17
   3   1   6    2.75    0.12
  -3   1  -6    2.52    0.13
  -3   1  -6    2.41    0.17
  -3   1  -6    2.69    0.20
  -3   1  -6    2.66    0.14
  -3   1  -6    2.11    0.29
   3   1   6    2.56    0.13
   3   1   6    2.61    0.12
   3   1   6    2.80    0.14
  -4  -1  -6    3.68    0.16
   4  -1   6    4.11    0.20
  -4  -1  -6    3.80    0.18
   4  -1   6    4.02    0.17
  -4  -1  -6    3.58    0.23
   4  -1   6    3.71    0.16
  -4  -1  -6    3.44    0.24
  -4  -1  -6    3.55    0.36
   4  -1   6    3.60    0.16
   4   1   6    3.66    0.16
   4   1   6    3.50    0.18
  -4   1  -6    3.05    0.39
  -4   1  -6    3.56    0.26
  -4   1  -6    3.71    0.18
  -4   1  -6    3.52    0.16
   4   1   6    3.52    0.16
  -4   1  -6    3.36    0.22
   4   1   6    3.62    0.19
  -5  -1  -6    3.15    0.18
   5  -1   6    3.07    0.20
  -5  -1  -6    2.87    0.22
  -5  -1  -6    3.05    0.26
   5  -1   6    3.38    0.16
  -5  -1  -6    3.09    0.14
   5  -1   6    3.18    0.16
  -5   1  -6    3.45    0.19
  -5   1  -6    3.34    0.25
  -5   1  -6    3.11    0.15
  -5   1  -6    2.89    0.26
   5   1   6    3.23    0.16
   5   1   6    3.14    0.19
  -5   1  -6    2.64    0.42
  -6  -1  -6    0.36    0.11
  -6  -1  -6    0.47    0.14
  -6  -1  -6    0.37    0.08
   6  -1   6    0.44    0.17
  -6   1  -6    0.06    0.11
  -6   1  -6    0.39    0.14
   6   1   6    0.44    0.09
  -7  -2   6    1.07    0.18
  -7  -2   6    1.11    0.15
   7  -2  -6    1.22    0.12
  -7  -2   6    1.13    0.05
  -7   2   6    1.06    0.22
  -7   2   6    1.11    0.19
  -7   2   6    1.19    0.14
  -7   2   6    1.12    0.08
   7   2  -6    1.16    0.14
   7   2  -6    1.21    0.09
  -6  -2   6    5.23    0.16
   6  -2  -6    5.16    0.20
  -6  -2   6    5.02    0.27
   6  -2  -6    5.23    0.22
  -6  -2   6    5.55    0.33
   6  -2  -6    5.09    0.26
   6   2  -6    5.37    0.25
  -6   2   6    4.67    0.31
  -6   2   6    5.12    0.19
   6   2  -6    4.97    0.18
   6   2  -6    5.05    0.19
   6   2  -6    4.87    0.28
  -6   2   6    5.29    0.25
  -6   2   6    4.65    0.30
  -5  -2   6    3.34    0.24
   5  -2  -6    3.82    0.20
   5  -2  -6    3.72    0.16
  -5  -2   6    3.44    0.20
   5   2  -6    3.63    0.13
  -5   2   6    3.57    0.19
  -5   2   6    3.52    0.14
  -5   2   6    3.65    0.21
  -5   2   6    3.75    0.24
  -5   2   6    3.72    0.24
   5   2  -6    3.69    0.16
   5   2  -6    3.76    0.18
   4  -2  -6   15.74    0.48
  -4  -2   6   16.44    0.59
  -4  -2   6   15.31    0.54
   4  -2  -6   15.23    0.53
   4   2  -6   15.92    0.50
  -4   2   6   16.32    0.53
  -4   2   6   15.33    0.57
  -4   2   6   16.69    0.56
   4   2  -6   16.15    0.48
   4   2  -6   17.08    0.59
  -4   2   6   15.96    0.48
  -4   2   6   15.94    0.47
   3  -2  -6   27.08    0.83
   3  -2  -6   28.50    0.80
  -3  -2   6   27.85    0.85
  -3  -2   6   27.36    0.84
  -3  -2   6   28.27    0.89
  -3   2   6   27.45    0.79
  -3   2   6   28.75    0.81
   3   2  -6   27.57    0.79
   3   2  -6   28.67    0.93
  -3   2   6   28.71    0.87
  -3   2   6   27.38    0.87
   3   2  -6   28.48    0.81
  -3   2   6   28.22    0.83
   3   2  -6   26.79    0.81
  -2  -2   6    2.53    0.10
   2  -2  -6    2.65    0.10
  -2  -2   6    2.51    0.13
  -2  -2   6    2.61    0.13
   2  -2  -6    2.84    0.12
   2  -2  -6    2.73    0.11
   2  -2  -6    2.79    0.09
   2  -2  -6    2.67    0.09
  -2  -2   6    2.53    0.15
   2   2  -6    2.66    0.09
   2   2  -6    2.69    0.10
  -2   2   6    2.74    0.10
  -2   2   6    2.79    0.15
   2   2  -6    2.72    0.09
   2   2  -6    2.70    0.19
  -2   2   6    2.51    0.11
  -2   2   6    2.59    0.13
   1  -2  -6   34.62    0.99
   1  -2  -6   35.39    0.97
  -1  -2   6   34.45    0.98
   1  -2  -6   34.43    0.97
   1  -2  -6   34.42    0.98
  -1  -2   6   33.17    1.02
  -1  -2   6   35.15    1.00
   1  -2  -6   33.48    0.97
  -1   2   6   35.13    0.96
  -1   2   6   34.95    1.00
   1   2  -6   36.88    1.17
  -1   2   6   34.66    1.04
   1   2  -6   34.32    0.96
   1   2  -6   34.65    0.97
   1   2  -6   33.93    0.95
  -1   2   6   35.02    0.98
  -1   2   6   34.29    0.99
   1   2  -6   33.47    0.96
   1   2  -6   34.64    0.98
  -1   2   6   34.20    0.98
   0  -2   6   36.84    1.04
   0  -2  -6   35.90    1.03
   0  -2   6   36.18    1.06
   0  -2  -6   36.59    1.06
   0  -2   6   35.96    1.04
   0  -2  -6   35.93    1.03
   0  -2  -6   37.17    1.04
   0  -2  -6   36.83    1.22
   0  -2   6   36.01    1.00
   0  -2  -6   36.82    1.03
   0  -2  -6   35.38    1.05
   0   2   6   37.14    1.04
   0   2   6   36.87    1.03
   0   2   6   35.90    1.03
   0   2  -6   37.30    1.02
   0   2  -6   36.15    1.04
   0   2   6   34.40    1.04
   0   2  -6   36.23    1.25
   0   2   6   35.51    1.01
   0   2   6   36.86    1.02
   0   2  -6   35.91    1.06
   0   2  -6   37.07    1.05
   0   2   6   35.22    1.08
   0   2  -6   36.47    1.02
   0   2  -6   36.53    1.04
   0   2   6   36.15    1.02
   0   2  -6   37.09    1.04
   0   2   6   35.46    1.02
   0   2  -6   36.37    1.02
  -1  -2  -6    2.44    0.14
   1  -2   6    2.92    0.12
   1  -2   6    2.79    0.14
  -1  -2  -6    2.87    0.13
   1  -2   6    2.90    0.14
  -1  -2  -6    2.67    0.12
  -1  -2  -6    2.61    0.12
  -1  -2  -6    2.71    0.12
  -1  -2  -6    2.79    0.21
   1  -2   6    2.81    0.12
   1  -2   6    2.88    0.10
   1  -2   6    2.88    0.11
   1  -2   6    2.95    0.10
  -1  -2  -6    2.60    0.16
   1  -2   6    2.72    0.13
  -1  -2  -6    2.58    0.11
   1   2   6    2.75    0.14
   1   2   6    3.02    0.11
  -1   2  -6    2.59    0.12
   1   2   6    2.86    0.11
  -1   2  -6    2.57    0.26
  -1   2  -6    2.70    0.12
  -1   2  -6    2.74    0.13
  -1   2  -6    2.80    0.12
  -1   2  -6    2.84    0.16
   1   2   6    2.87    0.09
  -1   2  -6    2.85    0.15
  -1   2  -6    2.49    0.10
   1   2   6    3.00    0.13
   1   2   6    2.93    0.13
  -1   2  -6    2.69    0.11
   1   2   6    2.89    0.12
  -1   2  -6    2.71    0.12
  -2  -2  -6   16.89    0.58
  -2  -2  -6   17.75    0.69
   2  -2   6   17.02    0.54
   2  -2   6   17.45    0.51
  -2  -2  -6   16.59    0.52
   2  -2   6   17.55    0.52
   2  -2   6   17.75    0.51
  -2  -2  -6   17.35    0.52
   2  -2   6   17.49    0.57
  -2  -2  -6   17.33    0.61
  -2  -2  -6   16.43    0.52
  -2  -2  -6   17.43    0.54
  -2   2  -6   17.37    0.51
  -2   2  -6   17.68    0.85
   2   2   6   17.96    0.54
  -2   2  -6   16.76    0.52
   2   2   6   16.66    0.55
   2   2   6   17.39    0.53
  -2   2  -6   16.86    0.55
  -2   2  -6   17.35    0.53
   2   2   6   17.39    0.51
  -2   2  -6   17.41    0.60
   2   2   6   16.76    0.57
  -2   2  -6   16.39    0.59
  -2   2  -6   17.29    0.54
   2   2   6   17.85    0.53
  -3  -2  -6    4.83    0.33
  -3  -2  -6    4.91    0.19
  -3  -2  -6    4.49    0.24
   3  -2   6    4.67    0.18
   3  -2   6    4.62    0.18
   3  -2   6    4.75    0.19
  -3  -2  -6    4.53    0.17
  -3  -2  -6    4.91    0.20
  -3   2  -6    4.77    0.19
   3   2   6    5.02    0.21
  -3   2  -6    4.37    0.44
   3   2   6    4.57    0.20
  -3   2  -6    4.80    0.26
  -3   2  -6    4.88    0.21
   3   2   6    4.68    0.18
   3   2   6    4.66    0.20
  -3   2  -6    4.64    0.27
   4  -2   6    3.52    0.16
  -4  -2  -6    3.11    0.22
  -4  -2  -6    3.31    0.17
   4  -2   6    3.28    0.15
  -4  -2  -6    3.21    0.32
  -4  -2  -6    3.32    0.21
   4  -2   6    3.49    0.15
  -4  -2  -6    3.28    0.15
  -4   2  -6    3.43    0.16
   4   2   6    3.39    0.15
   4   2   6    3.38    0.17
   4   2   6    3.66    0.19
   4   2   6    3.14    0.16
  -4   2  -6    2.95    0.24
  -4   2  -6    3.56    0.24
  -4   2  -6    2.91    0.17
   5  -2   6    0.37    0.06
   5  -2   6    0.36    0.06
  -5  -2  -6    0.24    0.06
  -5  -2  -6    0.28    0.09
  -5  -2  -6    0.32    0.11
   5   2   6    0.31    0.08
  -5   2  -6    0.25    0.05
  -5   2  -6    0.31    0.07
  -5   2  -6    0.16    0.10
   5   2   6    0.32    0.06
  -5   2  -6    0.35    0.12
  -5   2  -6    0.20    0.17
  -6  -2  -6    0.55    0.09
  -6  -2  -6    0.36    0.14
  -6  -2  -6    0.40    0.10
  -6   2  -6   -0.08    0.16
  -6   2  -6    0.63    0.14
  -6   2  -6    0.40    0.09
  -6   2  -6    0.23    0.12
  -6   2  -6    0.71    0.15
  -7  -3   6    2.49    0.29
  -7  -3   6    2.22    0.23
   7  -3  -6    1.90    0.15
  -7   3   6    1.65    0.22
   7   3  -6    1.90    0.11
  -7   3   6    1.87    0.11
   7   3  -6    1.78    0.11
  -7   3   6    1.91    0.18
  -6  -3   6    5.31    0.33
   6  -3  -6    5.36    0.26
  -6  -3   6    5.08    0.28
   6  -3  -6    5.43    0.24
  -6   3   6    5.30    0.29
  -6   3   6    5.72    0.34
  -6   3   6    5.27    0.25
   6   3  -6    5.48    0.25
  -6   3   6    5.31    0.31
  -6   3   6    5.11    0.21
   5  -3  -6    8.80    0.30
  -5  -3   6    8.77    0.37
   5  -3  -6    8.92    0.35
  -5  -3   6    8.43    0.41
   5  -3  -6    9.32    0.32
  -5   3   6    8.28    0.39
  -5   3   6    8.97    0.34
   5   3  -6    8.67    0.28
   5   3  -6    9.67    0.33
  -5   3   6    8.71    0.30
   5   3  -6    8.57    0.30
  -5   3   6    8.63    0.38
   4  -3  -6    7.11    0.24
   4  -3  -6    7.26    0.26
   4  -3  -6    7.56    0.28
  -4  -3   6    7.21    0.34
  -4  -3   6    7.00    0.30
   4   3  -6    7.09    0.26
  -4   3   6    6.93    0.24
  -4   3   6    6.88    0.32
  -4   3   6    7.26    0.26
  -4   3   6    7.17    0.27
   4   3  -6    7.20    0.25
   4   3  -6    7.33    0.22
  -4   3   6    7.42    0.33
   3  -3  -6   20.29    0.58
  -3  -3   6   19.86    0.67
  -3  -3   6   18.97    0.57
  -3  -3   6   18.94    0.63
   3  -3  -6   19.76    0.60
  -3  -3   6   19.43    0.63
  -3  -3   6   19.52    0.62
   3  -3  -6   20.23    0.61
  -3   3   6   18.78    0.58
   3   3  -6   20.76    0.73
  -3   3   6   21.28    0.68
   3   3  -6   19.88    0.56
  -3   3   6   19.75    0.65
   3   3  -6   20.05    0.59
  -3   3   6   19.59    0.60
   3   3  -6   19.75    0.58
  -2  -3   6   11.61    0.41
  -2  -3   6   11.44    0.38
   2  -3  -6   11.73    0.36
   2  -3  -6   11.69    0.36
  -2  -3   6   11.28    0.40
  -2  -3   6   11.57    0.38
   2  -3  -6   11.86    0.37
  -2  -3   6   10.93    0.35
  -2   3   6   11.63    0.42
   2   3  -6   11.19    0.35
  -2   3   6   11.38    0.34
   2   3  -6   11.44    0.34
   2   3  -6   11.44    0.33
  -2   3   6   11.39    0.35
   2   3  -6   11.44    0.35
   2   3  -6   11.87    0.51
  -2   3   6   11.35    0.37
  -2   3   6   11.60    0.38
  -1  -3   6    8.66    0.27
  -1  -3   6    8.82    0.32
   1  -3  -6    8.56    0.31
   1  -3  -6    9.00    0.30
   1  -3  -6    9.11    0.30
   1  -3  -6    8.92    0.28
  -1  -3   6    8.97    0.30
   1  -3  -6    9.00    0.28
  -1  -3   6    8.54    0.29
  -1   3   6    9.26    0.35
  -1   3   6    8.86    0.28
  -1   3   6    8.49    0.30
   1   3  -6    8.47    0.27
   1   3  -6    8.66    0.26
   1   3  -6    9.27    0.27
   1   3  -6    8.76    0.28
   1   3  -6    8.53    0.26
   1   3  -6    8.53    0.26
  -1   3   6    8.85    0.27
   1   3  -6    9.49    0.47
  -1   3   6    9.12    0.29
   1   3  -6    8.71    0.29
  -1   3   6    8.89    0.29
   0  -3   6   15.34    0.49
   0  -3  -6   15.32    0.51
   0  -3   6   15.71    0.45
   0  -3  -6   15.46    0.47
   0  -3   6   15.60    0.44
   0  -3   6   15.92    0.51
   0  -3   6   15.44    0.45
   0  -3   6   15.82    0.48
   0  -3  -6   16.35    0.49
   0  -3  -6   14.99    0.47
   0   3  -6   15.51    0.52
   0   3   6   16.02    0.48
   0   3  -6   15.57    0.50
   0   3  -6   16.47    0.50
   0   3   6   15.66    0.47
   0   3   6   16.29    0.46
   0   3   6   15.36    0.46
   0   3   6   15.67    0.49
   0   3  -6   15.37    0.48
   0   3   6   15.64    0.46
   0   3   6   15.77    0.48
   0   3  -6   15.58    0.47
   0   3  -6   15.62    0.72
   0   3   6   16.09    0.50
   0   3   6   15.29    0.47
   0   3   6   15.71    0.44
   0   3  -6   15.33    0.46
   0   3  -6   15.39    0.47
   0   3  -6   14.68    0.48
   0   3   6   16.47    0.53
   1  -3   6   17.89    0.53
  -1  -3  -6   18.22    0.56
  -1  -3  -6   18.42    0.72
   1  -3   6   18.25    0.56
  -1  -3  -6   17.26    0.55
   1  -3   6   18.22    0.52
   1  -3   6   17.64    0.51
  -1  -3  -6   18.18    0.59
   1  -3   6   17.81    0.57
   1  -3   6   17.92    0.55
  -1  -3  -6   17.09    0.54
  -1  -3  -6   18.23    0.54
   1  -3   6   18.45    0.57
   1  -3   6   17.73    0.56
  -1  -3  -6   17.22    0.62
   1   3   6   17.60    0.53
   1   3   6   18.17    0.54
   1   3   6   18.21    0.56
   1   3   6   18.29    0.52
  -1   3  -6   18.13    0.55
   1   3   6   18.30    0.52
  -1   3  -6   17.78    0.53
  -1   3  -6   17.47    0.85
   1   3   6   17.85    0.55
  -1   3  -6   17.36    0.53
  -1   3  -6   18.35    0.60
  -1   3  -6   17.86    0.57
  -1   3  -6   17.66    0.55
   1   3   6   18.27    0.58
  -1   3  -6   18.43    0.55
  -1   3  -6   17.82    0.61
   1   3   6   17.73    0.53
   1   3   6   17.60    0.57
  -2  -3  -6    7.26    0.25
  -2  -3  -6    7.17    0.25
  -2  -3  -6    6.85    0.33
  -2  -3  -6    7.65    0.39
  -2  -3  -6    7.02    0.26
   2  -3   6    7.51    0.25
  -2  -3  -6    7.14    0.31
   2  -3   6    7.32    0.27
   2  -3   6    7.29    0.30
   2  -3   6    7.34    0.25
   2  -3   6    7.54    0.27
   2  -3   6    7.01    0.24
  -2  -3  -6    6.92    0.25
   2  -3   6    7.41    0.30
   2   3   6    7.20    0.28
  -2   3  -6    6.75    0.54
   2   3   6    7.39    0.24
   2   3   6    7.53    0.25
   2   3   6    7.35    0.26
  -2   3  -6    7.19    0.27
  -2   3  -6    7.14    0.27
  -2   3  -6    6.99    0.28
  -2   3  -6    6.67    0.32
   2   3   6    7.71    0.28
  -2   3  -6    7.20    0.33
   2   3   6    7.38    0.30
   2   3   6    7.38    0.26
  -2   3  -6    7.13    0.24
  -3  -3  -6    9.58    0.33
  -3  -3  -6    9.95    0.48
  -3  -3  -6   10.00    0.35
  -3  -3  -6    9.43    0.39
   3  -3   6   10.03    0.33
  -3  -3  -6    9.87    0.32
   3  -3   6    9.55    0.33
   3  -3   6    9.58    0.34
   3  -3   6    9.27    0.39
   3  -3   6   10.09    0.33
  -3   3  -6    9.86    0.36
   3   3   6   10.06    0.37
   3   3   6    9.81    0.36
   3   3   6    9.61    0.35
   3   3   6    9.68    0.32
  -3   3  -6    9.76    0.34
  -3   3  -6    9.58    0.42
  -3   3  -6    9.73    0.43
  -4  -3  -6    1.56    0.16
   4  -3   6    1.88    0.11
  -4  -3  -6    2.01    0.13
  -4  -3  -6    1.74    0.11
   4  -3   6    1.74    0.11
   4  -3   6    1.79    0.11
  -4   3  -6    1.82    0.11
  -4   3  -6    1.80    0.13
   4   3   6    1.43    0.10
  -4   3  -6    1.46    0.20
   4   3   6    1.79    0.13
  -4   3  -6    2.01    0.22
  -4   3  -6    1.26    0.35
   5  -3   6    0.79    0.09
  -5  -3  -6    0.76    0.15
  -5  -3  -6    0.75    0.13
  -5  -3  -6    1.00    0.12
   5  -3   6    0.83    0.09
   5   3   6    0.85    0.09
  -5   3  -6    0.33    0.20
  -5   3  -6    0.88    0.17
   5   3   6    1.01    0.12
  -5   3  -6    0.80    0.09
  -5   3  -6    1.11    0.19
  -6  -3  -6    0.44    0.14
  -6  -3  -6    0.33    0.11
  -6   3  -6    0.29    0.12
  -6   3  -6    0.23    0.10
   6  -4  -6    0.29    0.07
  -6  -4   6    0.41    0.12
  -6  -4   6    0.19    0.08
   6   4  -6    0.40    0.07
  -6   4   6    0.15    0.05
  -6   4   6    0.17    0.09
   6   4  -6    0.29    0.05
  -6   4   6    0.24    0.09
   5  -4  -6    5.24    0.25
  -5  -4   6    5.65    0.31
   5  -4  -6    5.94    0.25
  -5  -4   6    5.20    0.27
  -5   4   6    5.41    0.29
   5   4  -6    5.26    0.22
  -5   4   6    5.34    0.23
   5   4  -6    5.45    0.23
  -5   4   6    5.39    0.22
   5   4  -6    5.22    0.20
  -5   4   6    5.99    0.31
   4  -4  -6   10.43    0.37
  -4  -4   6   10.30    0.40
   4  -4  -6   10.52    0.37
  -4  -4   6   11.24    0.45
  -4  -4   6   10.89    0.39
   4  -4  -6   10.21    0.38
  -4   4   6   10.31    0.36
  -4   4   6   11.16    0.45
   4   4  -6   10.84    0.36
   4   4  -6   10.66    0.35
  -4   4   6   10.16    0.41
   4   4  -6   10.61    0.34
  -3  -4   6    3.22    0.16
   3  -4  -6    2.64    0.14
  -3  -4   6    3.15    0.13
   3  -4  -6    2.74    0.15
  -3  -4   6    3.16    0.16
  -3  -4   6    3.19    0.18
  -3  -4   6    3.28    0.15
   3  -4  -6    3.15    0.15
  -3   4   6    3.16    0.20
   3   4  -6    2.82    0.13
   3   4  -6    2.84    0.23
  -3   4   6    3.16    0.15
   3   4  -6    2.93    0.12
   3   4  -6    2.72    0.12
  -2  -4   6   53.89    1.55
  -2  -4   6   52.09    1.53
  -2  -4   6   52.64    1.57
  -2  -4   6   55.57    1.56
   2  -4  -6   53.17    1.56
  -2  -4   6   55.23    1.58
   2  -4  -6   54.88    1.56
   2  -4  -6   54.21    1.54
   2   4  -6   53.82    1.53
  -2   4   6   53.65    1.53
   2   4  -6   54.25    1.52
   2   4  -6   55.17    1.80
  -2   4   6   54.10    1.51
  -2   4   6   54.20    1.62
   2   4  -6   53.31    1.50
  -2   4   6   55.28    1.56
   2   4  -6   55.42    1.51
   1  -4  -6   25.52    0.81
   1  -4  -6   27.81    0.78
   1  -4  -6   26.40    0.80
   1  -4  -6   27.49    0.79
  -1  -4   6   23.82    0.76
  -1  -4   6   24.61    0.80
  -1  -4   6   25.47    0.78
  -1  -4   6   26.51    0.78
  -1   4   6   26.49    0.74
   1   4  -6   25.75    0.74
  -1   4   6   26.39    0.77
   1   4  -6   25.85    0.78
  -1   4   6   25.72    0.84
   1   4  -6   26.11    0.74
   1   4  -6   26.28    0.76
   1   4  -6   26.85    0.78
  -1   4   6   25.97    0.75
  -1   4   6   25.45    0.80
   1   4  -6   26.77    0.78
   1   4  -6   27.54    1.07
  -1   4   6   26.69    0.75
   0  -4   6    5.35    0.20
   0  -4  -6    5.28    0.24
   0  -4   6    5.47    0.18
   0  -4  -6    5.09    0.19
   0  -4   6    5.29    0.22
   0  -4   6    5.54    0.17
   0  -4   6    5.56    0.18
   0  -4   6    5.19    0.18
   0  -4  -6    5.35    0.21
   0  -4   6    5.16    0.21
   0   4   6    5.23    0.24
   0   4  -6    5.11    0.21
   0   4  -6    5.06    0.24
   0   4   6    5.36    0.19
   0   4  -6    5.42    0.22
   0   4  -6    5.44    0.18
   0   4   6    5.44    0.19
   0   4   6    5.33    0.22
   0   4   6    5.31    0.20
   0   4   6    5.40    0.17
   0   4   6    4.98    0.18
   0   4   6    5.28    0.22
   0   4  -6    5.51    0.22
   0   4  -6    5.22    0.42
   0   4  -6    4.98    0.20
   0   4   6    5.45    0.20
   0   4  -6    5.44    0.19
  -1  -4  -6   24.44    0.71
   1  -4   6   23.26    0.66
   1  -4   6   23.50    0.67
  -1  -4  -6   22.67    0.69
   1  -4   6   23.33    0.72
   1  -4   6   23.58    0.72
  -1  -4  -6   23.12    0.88
   1  -4   6   22.59    0.65
  -1  -4  -6   21.42    0.74
   1  -4   6   22.76    0.71
   1  -4   6   22.33    0.69
  -1  -4  -6   23.67    0.69
   1  -4   6   23.62    0.71
   1   4   6   23.21    0.67
   1   4   6   23.03    0.72
   1   4   6   23.25    0.67
  -1   4  -6   23.37    0.67
  -1   4  -6   22.80    0.77
   1   4   6   23.26    0.71
   1   4   6   22.68    0.68
  -1   4  -6   22.44    0.70
  -1   4  -6   22.72    0.75
   1   4   6   23.32    0.74
   1   4   6   22.62    0.73
   1   4   6   22.92    0.68
  -1   4  -6   21.72    1.08
  -1   4  -6   23.18    0.73
   1   4   6   23.29    0.70
  -2  -4  -6    2.98    0.23
   2  -4   6    2.99    0.15
  -2  -4  -6    3.27    0.15
   2  -4   6    2.84    0.17
   2  -4   6    2.87    0.18
  -2  -4  -6    2.96    0.18
   2  -4   6    2.77    0.13
   2  -4   6    3.01    0.15
   2  -4   6    2.63    0.12
  -2   4  -6    2.33    0.35
   2   4   6    2.93    0.13
   2   4   6    2.93    0.16
   2   4   6    3.05    0.14
   2   4   6    2.91    0.16
  -2   4  -6    3.15    0.23
  -2   4  -6    2.89    0.20
  -2   4  -6    3.13    0.13
  -2   4  -6    3.18    0.15
   2   4   6    2.95    0.15
   3  -4   6    4.03    0.17
  -3  -4  -6    3.95    0.23
   3  -4   6    4.13    0.23
   3  -4   6    4.30    0.17
   3  -4   6    4.29    0.19
  -3  -4  -6    4.01    0.19
   3  -4   6    4.25    0.18
  -3  -4  -6    3.86    0.17
  -3  -4  -6    4.17    0.28
   3   4   6    4.05    0.19
  -3   4  -6    2.88    0.42
   3   4   6    3.97    0.20
  -3   4  -6    3.75    0.26
  -3   4  -6    4.20    0.31
   3   4   6    4.19    0.17
  -3   4  -6    4.08    0.19
  -4  -4  -6    1.16    0.15
   4  -4   6    1.19    0.09
   4  -4   6    1.18    0.10
  -4  -4  -6    1.30    0.10
   4  -4   6    1.28    0.10
  -4  -4  -6    1.29    0.11
   4   4   6    1.01    0.11
  -4   4  -6    1.23    0.10
  -4   4  -6    1.34    0.20
   4   4   6    0.99    0.09
  -4   4  -6    0.88    0.29
  -4   4  -6    1.20    0.19
  -5  -4  -6    1.79    0.22
  -5  -4  -6    1.66    0.16
  -5  -4  -6    1.86    0.14
   5  -4   6    1.54    0.12
   5  -4   6    1.55    0.18
   5   4   6    1.70    0.14
  -5   4  -6    1.52    0.11
   5   4   6    1.78    0.12
  -5   4  -6    1.49    0.23
  -5   4  -6    1.53    0.21
  -5   4  -6    1.05    0.42
  -5   4  -6    1.17    0.29
  -6  -5   6    6.06    0.36
   6  -5  -6    6.54    0.30
  -6  -5   6    6.56    0.33
  -6   5   6    6.38    0.27
   6   5  -6    6.16    0.26
  -6   5   6    5.90    0.35
  -6   5   6    6.50    0.36
  -5  -5   6    2.20    0.17
   5  -5  -6    2.11    0.15
  -5  -5   6    2.23    0.20
  -5  -5   6    2.03    0.15
   5  -5  -6    2.18    0.15
   5   5  -6    2.29    0.13
  -5   5   6    2.33    0.20
  -5   5   6    2.19    0.17
   5   5  -6    2.32    0.14
   5   5  -6    2.08    0.11
  -5   5   6    2.14    0.14
  -4  -5   6   11.61    0.44
   4  -5  -6   12.15    0.43
  -4  -5   6   12.27    0.48
   4  -5  -6   12.38    0.44
  -4  -5   6   12.06    0.45
   4   5  -6   11.68    0.38
   4   5  -6   12.01    0.40
  -4   5   6   12.25    0.45
  -4   5   6   11.61    0.42
  -4   5   6   12.55    0.51
   4   5  -6   12.38    0.40
   4   5  -6   11.77    0.40
  -3  -5   6   16.75    0.53
   3  -5  -6   16.99    0.56
  -3  -5   6   16.14    0.52
  -3  -5   6   15.90    0.56
  -3  -5   6   16.53    0.58
  -3  -5   6   16.31    0.55
   3  -5  -6   16.72    0.54
   3   5  -6   17.25    0.52
   3   5  -6   16.76    0.51
   3   5  -6   16.63    0.51
  -3   5   6   16.23    0.62
   3   5  -6   16.70    0.53
  -3   5   6   16.80    0.55
  -2  -5   6    0.49    0.06
   2  -5  -6    0.63    0.08
  -2  -5   6    0.51    0.08
  -2  -5   6    0.52    0.07
   2  -5  -6    0.58    0.07
  -2  -5   6    0.59    0.07
  -2  -5   6    0.50    0.08
   2   5  -6    0.56    0.06
   2   5  -6    0.54    0.07
  -2   5   6    0.52    0.08
   2   5  -6    0.59    0.07
   2   5  -6    0.59    0.17
   2   5  -6    0.61    0.05
  -2   5   6    0.42    0.09
  -2   5   6    0.47    0.05
   1  -5  -6    7.48    0.28
  -1  -5   6    7.22    0.26
  -1  -5   6    6.55    0.27
   1  -5  -6    6.88    0.27
  -1  -5   6    6.93    0.28
   1   5  -6    6.81    0.27
  -1   5   6    7.34    0.25
  -1   5   6    7.21    0.25
  -1   5   6    7.48    0.23
   1   5  -6    7.15    0.25
  -1   5   6    7.72    0.29
   1   5  -6    7.08    0.27
   1   5  -6    6.85    0.51
   1   5  -6    7.10    0.23
  -1   5   6    7.31    0.32
   0  -5   6   24.64    0.70
   0  -5   6   24.34    0.72
   0  -5   6   25.27    0.71
   0  -5   6   24.88    0.72
   0  -5   6   24.59    0.74
   0  -5   6   24.87    0.73
   0  -5   6   24.13    0.76
   0  -5  -6   25.19    0.76
   0   5   6   24.39    0.73
   0   5   6   25.22    0.78
   0   5  -6   25.29    0.78
   0   5   6   23.93    0.72
   0   5   6   24.18    0.75
   0   5   6   23.97    0.80
   0   5   6   24.24    0.71
   0   5  -6   25.51    0.74
   0   5   6   24.60    0.73
   0   5   6   24.88    0.77
   0   5  -6   25.28    0.82
   0   5   6   24.54    0.79
   0   5  -6   22.48    1.13
   0   5  -6   24.66    0.76
   1  -5   6    3.60    0.16
   1  -5   6    3.26    0.18
   1  -5   6    3.35    0.14
   1  -5   6    3.26    0.17
   1  -5   6    3.79    0.18
   1  -5   6    3.64    0.13
  -1  -5  -6    3.20    0.16
   1  -5   6    3.48    0.14
   1  -5   6    3.31    0.18
  -1  -5  -6    3.24    0.16
  -1  -5  -6    3.14    0.19
   1   5   6    3.32    0.21
   1   5   6    3.48    0.17
   1   5   6    3.37    0.19
   1   5   6    3.75    0.16
   1   5   6    3.80    0.14
  -1   5  -6    3.18    0.18
  -1   5  -6    3.24    0.17
   1   5   6    3.36    0.19
  -1   5  -6    3.32    0.20
   1   5   6    3.62    0.13
   1   5   6    3.67    0.19
   1   5   6    3.87    0.15
   2  -5   6   10.32    0.37
   2  -5   6   10.19    0.40
   2  -5   6   10.09    0.33
   2  -5   6    9.94    0.39
   2  -5   6    9.87    0.33
  -2  -5  -6   10.35    0.36
   2  -5   6   10.10    0.37
  -2  -5  -6    9.97    0.49
  -2  -5  -6    9.54    0.40
   2   5   6   10.11    0.38
   2   5   6   10.29    0.32
   2   5   6    9.71    0.36
   2   5   6   10.08    0.33
  -2   5  -6   10.06    0.37
   2   5   6   10.08    0.35
   2   5   6   10.27    0.39
   2   5   6   10.36    0.44
  -2   5  -6   10.23    0.43
   3  -5   6    8.91    0.33
   3  -5   6    9.02    0.31
   3  -5   6    8.52    0.38
  -3  -5  -6    8.85    0.32
   3  -5   6    8.70    0.33
   3  -5   6    8.47    0.30
  -3  -5  -6    9.35    0.34
  -3  -5  -6    8.69    0.39
  -3   5  -6    9.06    0.33
   3   5   6    8.66    0.34
  -3   5  -6    8.30    0.42
  -3   5  -6    7.05    0.71
   3   5   6    9.19    0.36
   3   5   6    8.78    0.31
   3   5   6    8.73    0.33
  -4  -5  -6    1.32    0.11
   4  -5   6    1.44    0.11
   4  -5   6    1.25    0.11
   4  -5   6    1.39    0.10
  -4  -5  -6    1.19    0.15
  -4  -5  -6    1.33    0.12
   4   5   6    1.12    0.12
   4   5   6    1.39    0.11
   4   5   6    1.35    0.10
  -4   5  -6    1.31    0.20
  -4   5  -6    1.35    0.11
  -4   5  -6    1.08    0.36
  -4   5  -6    1.29    0.19
  -5  -5  -6    0.20    0.08
  -5  -5  -6    0.26    0.11
  -5   5  -6    0.06    0.10
   5   5   6    0.29    0.09
  -5   5  -6    0.14    0.05
  -5   5  -6    0.40    0.13
   5   5   6    0.15    0.07
  -6  -6   6    3.33    0.23
   6  -6  -6    3.17    0.22
  -6  -6   6    3.17    0.26
  -6   6   6    3.08    0.19
   6   6  -6    3.46    0.20
  -6   6   6    3.90    0.46
  -5  -6   6    5.82    0.29
   5  -6  -6    5.68    0.27
   5  -6  -6    5.57    0.28
  -5  -6   6    5.53    0.31
   5   6  -6    5.10    0.23
  -5   6   6    5.58    0.26
  -5   6   6    5.58    0.33
   5   6  -6    5.38    0.24
  -4  -6   6    0.62    0.10
   4  -6  -6    0.46    0.09
  -4  -6   6    0.47    0.09
   4  -6  -6    0.38    0.07
  -4  -6   6    0.49    0.10
   4   6  -6    0.57    0.07
  -4   6   6    0.56    0.12
  -4   6   6    0.54    0.08
   4   6  -6    0.40    0.06
   4   6  -6    0.48    0.07
  -3  -6   6   13.19    0.48
   3  -6  -6   13.50    0.48
  -3  -6   6   12.56    0.45
  -3  -6   6   13.86    0.48
   3  -6  -6   12.95    0.46
  -3  -6   6   13.10    0.43
  -3  -6   6   12.16    0.49
   3   6  -6   13.33    0.42
   3   6  -6   12.79    0.45
  -3   6   6   13.20    0.54
  -3   6   6   13.36    0.47
  -3   6   6   13.40    0.43
   3   6  -6   13.22    0.43
  -2  -6   6   11.78    0.44
  -2  -6   6   12.22    0.40
  -2  -6   6   11.44    0.44
   2  -6  -6   11.63    0.43
  -2  -6   6   11.77    0.40
   2  -6  -6   11.86    0.43
  -2   6   6   12.46    0.44
  -2   6   6   11.80    0.39
  -2   6   6   12.44    0.35
  -2   6   6   12.71    0.36
  -2   6   6   11.51    0.49
   2   6  -6   12.42    0.43
   2   6  -6   12.43    0.40
   2   6  -6   12.11    0.42
   2   6  -6   12.07    0.38
   2   6  -6   10.91    0.68
  -1  -6   6   10.76    0.40
  -1  -6   6   11.55    0.41
  -1  -6   6   11.44    0.37
   1  -6  -6   11.64    0.41
   1  -6  -6   11.44    0.42
  -1   6   6   11.39    0.37
  -1   6   6   11.38    0.46
   1   6  -6   10.93    0.42
  -1   6   6   11.23    0.37
   1   6  -6   11.06    0.41
  -1   6   6   11.87    0.36
  -1   6   6   11.56    0.42
   1   6  -6   11.37    0.36
   1   6  -6   11.60    0.38
   1   6  -6    9.24    0.68
  -1   6   6   11.33    0.41
   0  -6  -6    3.06    0.17
   0  -6   6    3.24    0.16
   0  -6   6    3.00    0.13
   0  -6   6    3.04    0.13
   0  -6   6    2.88    0.14
   0  -6   6    2.91    0.11
   0  -6   6    3.05    0.14
   0  -6   6    2.90    0.17
   0   6  -6    2.97    0.39
   0   6   6    3.21    0.18
   0   6   6    3.36    0.21
   0   6   6    3.20    0.14
   0   6  -6    3.19    0.15
   0   6   6    3.44    0.19
   0   6   6    3.91    0.21
   0   6  -6    3.26    0.17
   0   6   6    3.15    0.16
   0   6   6    3.26    0.15
   0   6  -6    3.57    0.19
   1  -6   6   11.09    0.41
   1  -6   6   11.82    0.42
   1  -6   6   11.43    0.36
   1  -6   6   11.67    0.35
   1  -6   6   11.25    0.38
   1  -6   6   11.35    0.41
   1   6   6   11.69    0.44
   1   6   6   11.77    0.40
  -1   6  -6   10.30    0.80
   1   6   6   11.48    0.38
  -1   6  -6   11.51    0.45
   1   6   6   11.58    0.36
   1   6   6   11.46    0.42
   1   6   6   11.44    0.47
   1   6   6   11.51    0.44
   2  -6   6    5.85    0.22
   2  -6   6    5.71    0.21
   2  -6   6    6.36    0.28
   2  -6   6    5.54    0.27
   2  -6   6    5.51    0.25
  -2  -6  -6    6.15    0.37
   2   6   6    5.96    0.27
  -2   6  -6    5.95    0.31
   2   6   6    5.92    0.24
   2   6   6    6.22    0.33
  -2   6  -6    6.07    0.33
   2   6   6    5.65    0.22
  -2   6  -6    4.32    0.55
   2   6   6    5.89    0.25
   3  -6   6    0.09    0.04
   3  -6   6    0.02    0.03
  -3  -6  -6   -0.01    0.05
  -3  -6  -6    0.02    0.04
   3  -6   6    0.01    0.05
  -3  -6  -6    0.06    0.04
   3  -6   6    0.02    0.04
   3  -6   6    0.05    0.03
   3   6   6    0.05    0.04
  -3   6  -6    0.08    0.05
  -3   6  -6    0.05    0.07
   3   6   6    0.04    0.04
  -3   6  -6    0.15    0.10
   3   6   6    0.06    0.05
  -3   6  -6    0.02    0.12
   3   6   6    0.05    0.03
   4  -6   6    2.62    0.15
   4  -6   6    3.01    0.18
  -4  -6  -6    2.60    0.17
   4  -6   6    2.91    0.16
  -4  -6  -6    2.83    0.21
  -4   6  -6    2.34    0.27
  -4   6  -6    2.40    0.15
   4   6   6    2.46    0.18
  -4   6  -6    2.32    0.27
   4   6   6    2.79    0.15
   4   6   6    2.49    0.16
  -5  -6  -6    1.12    0.19
   5   6   6    1.32    0.16
  -5  -7   6    1.83    0.18
   5  -7  -6    1.79    0.18
  -5   7   6    1.89    0.15
   5   7  -6    1.66    0.16
  -5   7   6    1.77    0.22
   4  -7  -6    9.80    0.41
  -4  -7   6    9.78    0.40
  -4  -7   6    9.59    0.38
   4  -7  -6    9.90    0.39
   4   7  -6    9.14    0.34
   4   7  -6    9.73    0.35
   4   7  -6    9.02    0.38
  -4   7   6    8.50    0.45
  -4   7   6    9.46    0.38
  -3  -7   6    2.30    0.16
  -3  -7   6    2.21    0.18
  -3  -7   6    2.13    0.14
   3  -7  -6    2.20    0.15
   3  -7  -6    2.24    0.16
   3   7  -6    2.09    0.12
   3   7  -6    2.14    0.13
  -3   7   6    1.98    0.22
   3   7  -6    2.01    0.16
  -3   7   6    2.00    0.12
  -3   7   6    2.33    0.16
   2  -7  -6    4.75    0.25
   2  -7  -6    5.02    0.25
  -2  -7   6    5.09    0.21
  -2  -7   6    5.08    0.25
  -2  -7   6    5.25    0.26
   2   7  -6    5.42    0.22
  -2   7   6    5.32    0.19
   2   7  -6    5.07    0.20
  -2   7   6    5.40    0.26
  -2   7   6    4.94    0.17
  -2   7   6    5.18    0.21
  -2   7   6    4.74    0.30
   2   7  -6    4.80    0.25
  -1  -7   6   12.84    0.42
  -1  -7   6   12.60    0.47
  -1  -7   6   13.27    0.47
   1  -7  -6   12.66    0.49
   1   7  -6   12.91    0.49
  -1   7   6   12.18    0.51
  -1   7   6   12.70    0.43
  -1   7   6   12.97    0.43
  -1   7   6   13.03    0.48
   1   7  -6   13.29    0.49
   1   7  -6   13.02    0.44
  -1   7   6   12.73    0.48
   0  -7   6    6.03    0.26
   0  -7   6    6.41    0.28
   0  -7   6    6.31    0.23
   0  -7   6    6.10    0.23
   0  -7   6    5.82    0.22
   0  -7   6    6.24    0.21
   0  -7   6    6.37    0.20
   0   7  -6    6.50    0.25
   0   7   6    5.97    0.24
   0   7   6    5.76    0.30
   0   7   6    6.28    0.29
   0   7  -6    4.58    0.54
   0   7   6    6.12    0.26
   0   7   6    6.33    0.25
   0   7  -6    6.03    0.31
   0   7   6    6.21    0.31
   1  -7   6    2.34    0.15
   1  -7   6    2.90    0.11
   1  -7   6    2.86    0.13
   1  -7   6    2.86    0.14
   1  -7   6    2.89    0.17
   1  -7   6    2.73    0.17
   1  -7   6    2.99    0.15
  -1   7  -6    2.32    0.41
   1   7   6    2.79    0.22
   1   7   6    2.85    0.15
   1   7   6    2.93    0.16
  -1   7  -6    3.15    0.16
   1   7   6    2.83    0.19
   1   7   6    3.04    0.13
  -1   7  -6    2.88    0.22
   1   7   6    2.94    0.17
  -1   7  -6    2.98    0.19
   1   7   6    2.33    0.18
   2  -7   6    0.83    0.08
   2  -7   6    0.67    0.11
   2  -7   6    0.86    0.13
   2  -7   6    0.81    0.07
   2  -7   6    0.70    0.10
  -2   7  -6    0.96    0.16
   2   7   6    0.69    0.10
   2   7   6    0.91    0.11
   2   7   6    0.82    0.08
   2   7   6    0.66    0.08
  -2   7  -6    0.80    0.14
  -2   7  -6    0.60    0.29
  -3  -7  -6    4.81    0.28
   3  -7   6    4.74    0.24
   3  -7   6    4.73    0.21
  -3  -7  -6    4.72    0.23
   3  -7   6    4.67    0.26
  -3  -7  -6    4.67    0.23
   3  -7   6    4.79    0.20
   3  -7   6    4.36    0.27
   3   7   6    5.03    0.21
  -3   7  -6    4.46    0.32
  -3   7  -6    4.35    0.31
   3   7   6    4.90    0.23
   3   7   6    5.01    0.24
   4  -7   6    0.19    0.05
   4  -7   6    0.16    0.07
  -4  -7  -6    0.15    0.07
  -4  -7  -6    0.24    0.08
  -4   7  -6    0.23    0.06
   4   7   6    0.25    0.07
  -4   7  -6    0.25    0.11
  -4   7  -6    0.32    0.12
  -4  -8   6    2.12    0.16
  -4  -8   6    2.49    0.18
   4   8  -6    2.50    0.15
  -4   8   6    1.97    0.24
  -4   8   6    2.35    0.17
   4   8  -6    2.17    0.19
  -3  -8   6    3.03    0.20
   3  -8  -6    3.48    0.22
  -3  -8   6    2.85    0.22
   3   8  -6    2.99    0.21
  -3   8   6    3.09    0.26
  -3   8   6    3.52    0.21
   3   8  -6    3.14    0.16
   3   8  -6    3.32    0.17
  -3   8   6    3.08    0.16
  -2  -8   6    8.16    0.35
   2  -8  -6    7.90    0.36
  -2  -8   6    8.15    0.36
   2   8  -6    8.06    0.29
   2   8  -6    7.63    0.37
   2   8  -6    7.96    0.31
  -2   8   6    7.87    0.27
  -2   8   6    7.77    0.41
  -2   8   6    7.39    0.30
  -2   8   6    8.28    0.36
   1  -8  -6    0.33    0.08
  -1  -8   6    0.34    0.08
  -1  -8   6    0.38    0.08
  -1   8   6    0.35    0.08
  -1   8   6    0.48    0.10
  -1   8   6    0.48    0.07
  -1   8   6    0.39    0.07
  -1   8   6    0.37    0.10
   1   8  -6    0.38    0.07
   0  -8   6    5.55    0.21
   0  -8   6    5.59    0.27
   0  -8   6    5.78    0.26
   0  -8   6    5.89    0.20
   0  -8   6    5.61    0.21
   0  -8   6    5.64    0.19
   0   8   6    5.38    0.30
   0   8   6    5.53    0.26
   0   8   6    5.63    0.31
   0   8   6    5.84    0.24
   0   8  -6    5.76    0.25
   0   8   6    5.57    0.24
   0   8   6    5.61    0.29
   0   8  -6    5.97    0.33
   1  -8   6    5.15    0.25
   1  -8   6    5.04    0.24
   1  -8   6    5.23    0.26
   1  -8   6    5.26    0.20
   1   8   6    5.19    0.32
   1   8   6    5.25    0.20
   1   8   6    5.40    0.29
  -1   8  -6    5.40    0.24
  -1   8  -6    5.54    0.33
   1   8   6    5.43    0.26
   1   8   6    5.58    0.25
   1   8   6    5.24    0.23
   2  -8   6    1.93    0.16
   2  -8   6    2.12    0.12
   2  -8   6    1.93    0.21
  -2  -8  -6    1.98    0.16
   2  -8   6    1.86    0.15
   2  -8   6    1.96    0.10
   2   8   6    1.94    0.13
   2   8   6    1.99    0.17
  -2   8  -6    1.92    0.24
   2   8   6    2.36    0.15
   2   8   6    2.06    0.12
   3  -8   6    1.96    0.13
  -3  -8  -6    1.86    0.15
   3  -8   6    1.53    0.19
  -3  -8  -6    1.65    0.19
   3  -8   6    1.80    0.15
   3   8   6    2.05    0.15
  -3   8  -6    1.48    0.23
  -3   8  -6    2.10    0.25
   3  -9  -6    2.63    0.21
  -3  -9   6    2.74    0.20
  -3  -9   6    2.81    0.23
   3   9  -6    2.78    0.17
  -3   9   6    2.82    0.21
  -3   9   6    2.73    0.16
   2  -9  -6    2.69    0.21
  -2  -9   6    2.89    0.20
  -2  -9   6    2.76    0.21
   2  -9  -6    2.80    0.24
  -2   9   6    2.79    0.28
   2   9  -6    2.70    0.16
  -2   9   6    2.71    0.20
  -1  -9   6    8.98    0.39
  -1  -9   6    9.03    0.39
   1  -9  -6    8.18    0.40
  -1   9   6    9.16    0.35
  -1   9   6    9.39    0.44
  -1   9   6    9.29    0.35
   1   9  -6    9.96    0.37
  -1   9   6    8.81    0.40
  -1   9   6    9.40    0.45
   0  -9   6    1.91    0.15
   0  -9  -6    1.91    0.17
   0  -9   6    1.94    0.16
   0  -9   6    2.01    0.08
   0   9  -6    2.20    0.14
   0   9   6    2.00    0.15
   0   9   6    1.93    0.20
   0   9  -6    1.72    0.21
   0   9   6    1.91    0.21
   0   9   6    1.88    0.14
   1  -9   6    1.38    0.15
   1  -9   6    1.21    0.11
  -1  -9  -6    1.22    0.15
   1  -9   6    1.43    0.16
   1   9   6    1.51    0.20
  -1   9  -6    1.72    0.23
   1   9   6    1.38    0.15
   1   9   6    1.53    0.17
   1   9   6    1.24    0.13
  -2  -9  -6    1.49    0.15
   2  -9   6    1.36    0.14
   2  -9   6    1.87    0.10
   2  -9   6    1.70    0.16
  -2  -9  -6    1.75    0.15
  -2   9  -6    2.00    0.26
   2   9   6    1.68    0.14
  -1 -10   6    2.94    0.21
  -1 -10   6    2.87    0.21
   1 -10  -6    2.63    0.22
   1  10  -6    2.78    0.18
  -1  10   6    2.95    0.17
   0 -10  -6    1.25    0.16
   0 -10   6    1.69    0.16
   0  10   6    0.92    0.15
   0  10   6    1.34    0.14
   0  10  -6    1.43    0.14
   0  10   6    1.11    0.17
   7   0  -7    0.14    0.04
  -7   0   7    0.18    0.07
  -7   0   7    0.08    0.09
   6   0  -7    0.00    0.02
   6   0  -7    0.02    0.04
  -6   0   7    0.00    0.04
   6   0  -7   -0.03    0.04
   6   0  -7    0.01    0.02
  -6   0   7   -0.07    0.07
  -5   0   7    0.00    0.04
   5   0  -7   -0.01    0.03
   5   0  -7    0.00    0.03
  -5   0   7    0.03    0.06
   5   0  -7    0.02    0.01
  -4   0   7    0.00    0.03
   4   0  -7    0.02    0.03
  -4   0   7   -0.03    0.04
   4   0  -7    0.00    0.03
  -4   0   7    0.00    0.03
  -3   0   7    0.01    0.03
  -3   0   7    0.02    0.03
   3   0  -7   -0.01    0.02
  -3   0   7    0.01    0.03
  -3   0   7    0.01    0.04
   3   0  -7   -0.01    0.03
   2   0  -7    0.00    0.01
   2   0  -7   -0.02    0.01
   2   0  -7    0.00    0.01
  -2   0   7    0.04    0.03
  -2   0   7    0.00    0.01
  -2   0   7    0.02    0.03
  -2   0   7   -0.01    0.01
   2   0  -7    0.01    0.04
   1   0  -7    0.01    0.01
   1   0  -7    0.01    0.04
  -1   0   7   -0.01    0.01
   1   0  -7    0.01    0.01
   1   0  -7   -0.01    0.01
   1   0  -7   -0.02    0.01
  -1   0   7   -0.01    0.02
   0   0  -7    0.03    0.02
   0   0  -7    0.04    0.02
   0   0  -7    0.02    0.02
   0   0  -7    0.02    0.02
   0   0  -7    0.01    0.02
   0   0  -7    0.01    0.04
   0   0   7    0.03    0.02
   0   0   7    0.01    0.01
   0   0   7    0.00    0.02
   0   0  -7    0.02    0.02
  -1   0  -7    0.00    0.02
  -1   0  -7    0.01    0.02
   1   0   7    0.01    0.02
  -1   0  -7    0.01    0.02
   1   0   7   -0.01    0.02
   1   0   7   -0.02    0.01
  -1   0  -7    0.00    0.01
  -1   0  -7    0.00    0.02
  -1   0  -7    0.00    0.04
   1   0   7    0.00    0.02
  -1   0  -7    0.00    0.02
   1   0   7    0.00    0.01
  -1   0  -7   -0.02    0.01
   1   0   7    0.00    0.02
   2   0   7   -0.01    0.01
   2   0   7    0.00    0.01
   2   0   7   -0.03    0.02
  -2   0  -7   -0.02    0.01
  -2   0  -7    0.00    0.02
   2   0   7    0.00    0.03
  -2   0  -7    0.01    0.03
  -2   0  -7   -0.02    0.03
  -2   0  -7    0.02    0.05
   2   0   7    0.00    0.02
  -2   0  -7   -0.01    0.02
  -2   0  -7   -0.01    0.02
   2   0   7    0.01    0.02
  -3   0  -7    0.04    0.06
  -3   0  -7    0.00    0.07
   3   0   7    0.01    0.02
  -3   0  -7    0.03    0.05
   3   0   7    0.01    0.03
   3   0   7    0.01    0.02
  -3   0  -7    0.00    0.03
   3   0   7   -0.06    0.02
  -3   0  -7   -0.02    0.02
   4   0   7   -0.01    0.03
  -4   0  -7   -0.03    0.05
   4   0   7   -0.04    0.03
  -4   0  -7   -0.08    0.06
  -4   0  -7    0.04    0.06
   4   0   7    0.00    0.03
  -4   0  -7   -0.01    0.02
  -4   0  -7   -0.02    0.03
  -5   0  -7    0.07    0.07
  -5   0  -7   -0.05    0.07
   5   0   7    0.04    0.04
  -5   0  -7   -0.01    0.02
   5   0   7    0.04    0.05
  -6   0  -7   -0.17    0.08
  -7  -1   7    0.71    0.16
   7  -1  -7    0.75    0.09
  -7  -1   7    0.83    0.13
  -7   1   7    0.74    0.15
  -7   1   7    0.73    0.12
   7   1  -7    0.83    0.08
  -6  -1   7    1.00    0.14
  -6  -1   7    0.76    0.15
   6  -1  -7    1.01    0.08
   6  -1  -7    0.90    0.06
   6  -1  -7    0.75    0.11
   6  -1  -7    0.91    0.11
   6   1  -7    1.16    0.15
   6   1  -7    0.85    0.06
   6   1  -7    0.94    0.06
  -6   1   7    0.97    0.05
  -6   1   7    1.05    0.17
  -6   1   7    1.09    0.13
  -6   1   7    0.92    0.05
   6   1  -7    0.73    0.10
  -5  -1   7    0.55    0.12
   5  -1  -7    0.31    0.04
  -5  -1   7    0.46    0.09
   5  -1  -7    0.37    0.07
  -5   1   7    0.50    0.08
  -5   1   7    0.40    0.03
  -5   1   7    0.39    0.10
  -5   1   7    0.43    0.03
   5   1  -7    0.37    0.08
  -5   1   7    0.21    0.06
   5   1  -7    0.45    0.07
  -4  -1   7    1.79    0.16
   4  -1  -7    2.09    0.13
   4  -1  -7    1.99    0.08
  -4  -1   7    1.69    0.13
  -4   1   7    1.86    0.13
   4   1  -7    1.80    0.17
  -4   1   7    1.98    0.13
  -4   1   7    1.80    0.16
  -4   1   7    1.90    0.07
   4   1  -7    1.94    0.11
  -4   1   7    2.03    0.07
  -3  -1   7   20.37    0.65
   3  -1  -7   20.90    0.64
  -3  -1   7   20.14    0.69
  -3  -1   7   20.16    0.64
  -3   1   7   20.57    0.68
  -3   1   7   20.46    0.66
  -3   1   7   20.11    0.64
  -3   1   7   20.80    0.58
  -3   1   7   20.83    0.58
   3   1  -7   20.67    0.60
   3   1  -7   20.57    0.77
   2  -1  -7    5.61    0.18
   2  -1  -7    6.17    0.21
  -2  -1   7    5.71    0.23
  -2  -1   7    5.99    0.18
  -2  -1   7    6.11    0.23
   2  -1  -7    5.92    0.19
   2  -1  -7    5.70    0.18
   2   1  -7    5.73    0.32
   2   1  -7    5.80    0.17
  -2   1   7    6.02    0.19
   2   1  -7    5.99    0.22
  -2   1   7    6.08    0.23
  -2   1   7    5.74    0.24
  -2   1   7    5.95    0.20
  -1  -1   7    6.22    0.23
   1  -1  -7    6.28    0.19
   1  -1  -7    6.25    0.21
  -1  -1   7    6.18    0.18
   1  -1  -7    5.84    0.20
  -1  -1   7    6.23    0.20
   1  -1  -7    6.09    0.19
   1  -1  -7    5.99    0.35
   1  -1  -7    6.45    0.20
  -1   1   7    6.39    0.21
   1   1  -7    6.40    0.19
  -1   1   7    6.23    0.23
  -1   1   7    6.14    0.20
  -1   1   7    6.09    0.18
   1   1  -7    6.09    0.20
   1   1  -7    6.17    0.20
   1   1  -7    6.13    0.34
   0  -1  -7    3.72    0.14
   0  -1   7    3.76    0.15
   0  -1  -7    4.01    0.14
   0  -1  -7    3.54    0.26
   0  -1  -7    3.77    0.15
   0  -1  -7    3.92    0.15
   0  -1  -7    3.93    0.17
   0  -1  -7    3.56    0.14
   0  -1   7    3.56    0.14
   0   1  -7    3.79    0.15
   0   1  -7    3.76    0.14
   0   1  -7    3.69    0.16
   0   1   7    3.90    0.12
   0   1   7    3.65    0.12
   0   1   7    3.84    0.15
   0   1  -7    3.64    0.14
   0   1   7    3.74    0.12
   0   1  -7    3.51    0.14
   0   1   7    3.71    0.15
   0   1   7    3.60    0.14
   0   1  -7    3.63    0.11
   0   1  -7    3.81    0.27
  -1  -1  -7    0.43    0.05
   1  -1   7    0.45    0.05
   1  -1   7    0.46    0.05
   1  -1   7    0.52    0.03
   1  -1   7    0.51    0.06
  -1  -1  -7    0.37    0.04
   1  -1   7    0.54    0.06
  -1  -1  -7    0.44    0.07
  -1  -1  -7    0.39    0.05
   1  -1   7    0.55    0.06
  -1  -1  -7    0.42    0.11
  -1  -1  -7    0.43    0.05
  -1  -1  -7    0.52    0.06
   1  -1   7    0.49    0.04
  -1   1  -7    0.46    0.05
  -1   1  -7    0.39    0.06
   1   1   7    0.52    0.04
   1   1   7    0.48    0.06
  -1   1  -7    0.42    0.05
  -1   1  -7    0.43    0.12
  -1   1  -7    0.51    0.05
   1   1   7    0.45    0.05
   1   1   7    0.43    0.05
   1   1   7    0.49    0.03
  -1   1  -7    0.36    0.05
  -1   1  -7    0.43    0.05
  -1   1  -7    0.44    0.05
  -2  -1  -7    2.38    0.16
   2  -1   7    2.58    0.13
  -2  -1  -7    2.62    0.24
  -2  -1  -7    2.70    0.20
   2  -1   7    2.50    0.15
   2  -1   7    2.83    0.10
   2  -1   7    2.48    0.12
  -2  -1  -7    2.43    0.11
  -2  -1  -7    2.76    0.13
   2  -1   7    2.49    0.11
   2  -1   7    2.43    0.12
  -2  -1  -7    2.48    0.12
  -2  -1  -7    2.54    0.12
   2   1   7    2.43    0.11
  -2   1  -7    2.38    0.16
  -2   1  -7    2.63    0.12
   2   1   7    2.42    0.15
  -2   1  -7    2.36    0.27
   2   1   7    2.52    0.12
   2   1   7    2.58    0.13
  -2   1  -7    2.60    0.17
  -2   1  -7    2.48    0.11
   2   1   7    2.43    0.09
  -2   1  -7    2.43    0.12
   2   1   7    2.44    0.12
   3  -1   7    2.40    0.14
  -3  -1  -7    2.33    0.18
   3  -1   7    2.68    0.12
   3  -1   7    2.53    0.13
   3  -1   7    2.59    0.11
  -3  -1  -7    2.48    0.13
  -3  -1  -7    2.78    0.14
  -3  -1  -7    2.52    0.27
  -3   1  -7    2.46    0.20
  -3   1  -7    2.71    0.33
  -3   1  -7    2.43    0.18
   3   1   7    2.51    0.12
  -3   1  -7    2.50    0.13
   3   1   7    2.54    0.14
   3   1   7    2.40    0.11
   3   1   7    2.48    0.14
  -4  -1  -7    3.45    0.25
   4  -1   7    3.28    0.17
   4  -1   7    3.42    0.16
  -4  -1  -7    3.21    0.23
  -4  -1  -7    3.36    0.16
   4  -1   7    3.83    0.20
  -4  -1  -7    3.22    0.36
  -4  -1  -7    3.33    0.18
   4  -1   7    3.60    0.18
   4   1   7    3.49    0.18
  -4   1  -7    3.06    0.25
   4   1   7    3.45    0.16
  -4   1  -7    3.31    0.16
  -4   1  -7    2.87    0.39
   4   1   7    3.50    0.19
  -4   1  -7    3.07    0.23
   5  -1   7    0.42    0.09
  -5  -1  -7    0.22    0.09
  -5  -1  -7    0.47    0.06
  -5  -1  -7    0.35    0.12
   5  -1   7    0.47    0.07
  -5   1  -7    0.47    0.13
  -5   1  -7    0.16    0.11
  -5   1  -7    0.35    0.20
   5   1   7    0.46    0.07
   5   1   7    0.34    0.08
  -5   1  -7    0.36    0.06
  -6  -1  -7   -0.02    0.08
  -6   1  -7   -0.12    0.10
  -7  -2   7    0.67    0.13
  -7  -2   7    0.55    0.15
   7  -2  -7    0.49    0.08
  -7   2   7    0.68    0.15
  -7   2   7    0.58    0.11
  -7   2   7    0.57    0.05
   7   2  -7    0.56    0.07
   6  -2  -7    1.41    0.13
  -6  -2   7    1.35    0.15
  -6  -2   7    1.07    0.17
   6  -2  -7    1.38    0.10
   6   2  -7    1.38    0.16
  -6   2   7    1.57    0.15
  -6   2   7    1.04    0.16
  -6   2   7    1.49    0.08
   6   2  -7    1.42    0.12
  -5  -2   7    1.78    0.15
  -5  -2   7    1.95    0.21
   5  -2  -7    2.08    0.14
   5  -2  -7    1.76    0.10
  -5   2   7    1.93    0.14
  -5   2   7    1.97    0.18
   5   2  -7    1.93    0.07
   5   2  -7    1.90    0.12
  -5   2   7    1.76    0.09
  -5   2   7    1.85    0.08
  -5   2   7    2.05    0.15
  -4  -2   7    2.01    0.14
   4  -2  -7    2.15    0.10
  -4  -2   7    2.06    0.17
   4  -2  -7    2.04    0.13
  -4   2   7    2.10    0.15
  -4   2   7    2.05    0.09
   4   2  -7    2.07    0.11
  -4   2   7    2.03    0.08
  -4   2   7    1.99    0.13
  -4   2   7    1.84    0.16
   4   2  -7    2.03    0.17
  -3  -2   7   17.46    0.57
  -3  -2   7   18.12    0.62
  -3  -2   7   18.15    0.58
   3  -2  -7   17.67    0.53
   3  -2  -7   17.54    0.56
   3   2  -7   18.03    0.52
  -3   2   7   17.67    0.58
  -3   2   7   18.24    0.53
   3   2  -7   18.73    0.69
  -3   2   7   17.87    0.52
  -3   2   7   17.45    0.56
   3   2  -7   17.56    0.51
  -3   2   7   17.50    0.61
  -3   2   7   17.73    0.60
   2  -2  -7    0.38    0.05
  -2  -2   7    0.41    0.03
  -2  -2   7    0.35    0.06
  -2  -2   7    0.28    0.06
  -2  -2   7    0.47    0.07
   2  -2  -7    0.39    0.03
   2  -2  -7    0.34    0.04
  -2   2   7    0.30    0.04
  -2   2   7    0.42    0.03
   2   2  -7    0.37    0.02
  -2   2   7    0.42    0.06
   2   2  -7    0.46    0.05
  -2   2   7    0.23    0.06
   2   2  -7    0.36    0.02
   2   2  -7    0.34    0.03
   2   2  -7    0.35    0.02
   2   2  -7    0.42    0.10
   1  -2  -7    2.51    0.11
   1  -2  -7    2.48    0.11
  -1  -2   7    2.54    0.11
  -1  -2   7    2.48    0.12
   1  -2  -7    2.34    0.09
   1  -2  -7    2.44    0.10
   1  -2  -7    2.44    0.09
   1   2  -7    2.47    0.10
   1   2  -7    2.42    0.10
  -1   2   7    2.35    0.10
   1   2  -7    2.37    0.08
  -1   2   7    2.39    0.12
   1   2  -7    2.57    0.22
   1   2  -7    2.44    0.09
  -1   2   7    2.37    0.11
  -1   2   7    2.34    0.08
  -1   2   7    2.51    0.15
   1   2  -7    2.35    0.11
   0  -2  -7    1.25    0.09
   0  -2  -7    1.28    0.07
   0  -2   7    1.43    0.08
   0  -2  -7    1.26    0.09
   0  -2   7    1.18    0.08
   0  -2  -7    1.19    0.15
   0  -2   7    1.15    0.09
   0  -2   7    1.25    0.05
   0  -2  -7    1.43    0.08
   0  -2  -7    1.30    0.07
   0  -2  -7    1.31    0.07
   0   2  -7    1.31    0.06
   0   2  -7    1.21    0.08
   0   2  -7    1.20    0.09
   0   2   7    1.17    0.08
   0   2   7    1.31    0.06
   0   2  -7    1.36    0.08
   0   2   7    1.26    0.07
   0   2   7    1.31    0.07
   0   2  -7    1.48    0.08
   0   2  -7    1.22    0.07
   0   2   7    1.32    0.08
   0   2   7    1.27    0.06
   0   2  -7    1.39    0.18
   0   2   7    1.16    0.07
   0   2   7    1.24    0.07
   0   2  -7    1.36    0.07
   1  -2   7    1.01    0.08
   1  -2   7    1.11    0.09
  -1  -2  -7    1.12    0.15
   1  -2   7    0.99    0.08
  -1  -2  -7    1.08    0.07
  -1  -2  -7    1.06    0.07
   1  -2   7    0.99    0.06
   1  -2   7    0.98    0.05
   1  -2   7    1.09    0.07
  -1  -2  -7    0.94    0.07
  -1  -2  -7    0.89    0.08
   1  -2   7    1.03    0.08
   1  -2   7    0.94    0.04
  -1  -2  -7    0.88    0.09
  -1   2  -7    0.93    0.07
  -1   2  -7    1.04    0.18
  -1   2  -7    0.98    0.07
   1   2   7    0.92    0.06
  -1   2  -7    0.94    0.08
   1   2   7    0.97    0.08
   1   2   7    1.01    0.07
  -1   2  -7    1.04    0.06
   1   2   7    0.98    0.05
  -1   2  -7    1.08    0.10
   1   2   7    1.09    0.07
  -1   2  -7    0.82    0.10
  -1   2  -7    0.93    0.05
  -1   2  -7    0.90    0.07
   1   2   7    1.03    0.08
   1   2   7    1.09    0.08
  -1   2  -7    0.93    0.07
   2  -2   7    3.64    0.14
  -2  -2  -7    3.69    0.15
   2  -2   7    3.81    0.15
   2  -2   7    3.69    0.19
   2  -2   7    3.77    0.17
   2  -2   7    3.44    0.16
   2  -2   7    3.74    0.14
  -2  -2  -7    3.51    0.15
   2  -2   7    3.31    0.19
  -2  -2  -7    2.84    0.16
  -2  -2  -7    3.74    0.28
  -2  -2  -7    3.52    0.16
  -2  -2  -7    3.60    0.20
   2   2   7    3.83    0.17
  -2   2  -7    3.98    0.38
  -2   2  -7    3.20    0.20
   2   2   7    3.68    0.14
   2   2   7    3.64    0.15
   2   2   7    3.62    0.19
  -2   2  -7    3.41    0.16
  -2   2  -7    3.20    0.20
  -2   2  -7    3.56    0.14
   2   2   7    3.57    0.13
  -2   2  -7    3.48    0.16
   2   2   7    3.25    0.14
   2   2   7    3.37    0.17
  -2   2  -7    3.51    0.17
  -3  -2  -7    0.35    0.12
   3  -2   7    0.30    0.04
   3  -2   7    0.24    0.04
  -3  -2  -7    0.36    0.04
  -3  -2  -7    0.29    0.05
  -3  -2  -7    0.42    0.09
  -3  -2  -7    0.28    0.05
   3  -2   7    0.31    0.04
  -3   2  -7    0.36    0.09
   3   2   7    0.42    0.07
   3   2   7    0.32    0.05
   3   2   7    0.30    0.05
  -3   2  -7    0.25    0.05
  -3   2  -7    0.31    0.09
   3   2   7    0.32    0.05
  -3   2  -7    0.22    0.14
   3   2   7    0.24    0.06
  -4  -2  -7    2.45    0.30
  -4  -2  -7    2.44    0.20
  -4  -2  -7    2.65    0.15
   4  -2   7    2.48    0.13
  -4  -2  -7    2.36    0.13
  -4  -2  -7    2.24    0.20
   4  -2   7    2.56    0.13
   4  -2   7    2.60    0.14
   4   2   7    2.43    0.13
  -4   2  -7    2.30    0.14
   4   2   7    2.63    0.16
   4   2   7    2.64    0.16
  -4   2  -7    2.74    0.22
  -4   2  -7    2.86    0.25
  -5  -2  -7    0.15    0.08
  -5  -2  -7    0.15    0.09
   5  -2   7    0.22    0.08
   5  -2   7    0.08    0.04
   5   2   7    0.07    0.06
  -5   2  -7    0.11    0.16
  -5   2  -7    0.20    0.10
   5   2   7    0.15    0.05
  -5   2  -7    0.06    0.03
  -5   2  -7    0.00    0.08
  -6   2  -7   -0.23    0.15
  -6  -3   7    0.94    0.13
   6  -3  -7    0.96    0.11
  -6  -3   7    0.91    0.17
   6  -3  -7    1.25    0.14
   6  -3  -7    0.85    0.11
  -6   3   7    0.95    0.07
  -6   3   7    0.85    0.11
  -6   3   7    0.93    0.15
   6   3  -7    1.02    0.07
  -5  -3   7    1.09    0.13
   5  -3  -7    1.22    0.10
  -5  -3   7    0.99    0.15
   5  -3  -7    1.09    0.08
   5  -3  -7    1.13    0.10
   5   3  -7    1.28    0.07
   5   3  -7    1.20    0.09
  -5   3   7    1.15    0.15
  -5   3   7    1.28    0.15
  -5   3   7    1.13    0.08
  -5   3   7    0.98    0.11
   4  -3  -7    0.15    0.04
  -4  -3   7    0.25    0.08
   4  -3  -7    0.15    0.04
  -4  -3   7    0.17    0.06
   4  -3  -7    0.17    0.03
   4   3  -7    0.22    0.03
  -4   3   7    0.19    0.05
  -4   3   7    0.15    0.06
  -4   3   7    0.22    0.03
  -4   3   7    0.18    0.07
  -4   3   7    0.22    0.04
   4   3  -7    0.24    0.04
   4   3  -7    0.17    0.03
  -3  -3   7    2.02    0.13
  -3  -3   7    2.09    0.13
  -3  -3   7    2.13    0.15
   3  -3  -7    2.21    0.09
   3  -3  -7    2.10    0.11
  -3  -3   7    2.09    0.08
   3  -3  -7    1.91    0.11
  -3  -3   7    2.04    0.12
  -3   3   7    2.07    0.11
   3   3  -7    2.01    0.09
  -3   3   7    2.04    0.09
   3   3  -7    2.11    0.07
   3   3  -7    1.97    0.09
   3   3  -7    2.01    0.08
   3   3  -7    2.21    0.19
  -3   3   7    2.25    0.16
  -2  -3   7    8.87    0.32
   2  -3  -7    9.10    0.30
   2  -3  -7    8.97    0.30
  -2  -3   7    8.73    0.32
   2  -3  -7    8.74    0.28
   2  -3  -7    8.97    0.29
  -2  -3   7    9.01    0.28
  -2  -3   7    8.88    0.34
  -2   3   7    8.91    0.28
   2   3  -7    8.87    0.27
  -2   3   7    8.85    0.36
   2   3  -7    8.66    0.26
   2   3  -7    8.79    0.26
  -2   3   7    9.04    0.27
  -2   3   7    9.04    0.31
   2   3  -7    8.92    0.45
   2   3  -7    8.65    0.28
  -2   3   7    8.68    0.31
  -1  -3   7   12.23    0.44
   1  -3  -7   13.03    0.39
  -1  -3   7   12.89    0.42
   1  -3  -7   13.71    0.42
   1  -3  -7   13.67    0.43
   1  -3  -7   13.26    0.40
  -1  -3   7   12.54    0.37
  -1  -3   7   12.26    0.40
   1   3  -7   12.95    0.40
  -1   3   7   12.80    0.38
   1   3  -7   12.63    0.40
   1   3  -7   13.66    0.62
   1   3  -7   12.55    0.37
  -1   3   7   13.08    0.41
   1   3  -7   12.39    0.39
   1   3  -7   12.52    0.37
  -1   3   7   13.21    0.47
   1   3  -7   12.53    0.38
  -1   3   7   12.48    0.40
  -1   3   7   12.71    0.40
  -1   3   7   13.40    0.42
   1   3  -7   12.73    0.39
   1   3  -7   12.63    0.38
   0  -3   7    6.10    0.22
   0  -3  -7    6.03    0.25
   0  -3  -7    6.13    0.24
   0  -3   7    6.06    0.25
   0  -3  -7    5.98    0.22
   0  -3   7    6.24    0.23
   0  -3  -7    5.84    0.37
   0  -3  -7    5.94    0.21
   0  -3   7    6.04    0.19
   0  -3  -7    5.96    0.22
   0   3   7    6.19    0.24
   0   3  -7    6.08    0.20
   0   3   7    5.90    0.21
   0   3  -7    6.00    0.26
   0   3  -7    5.74    0.21
   0   3   7    6.02    0.20
   0   3   7    6.23    0.27
   0   3  -7    6.15    0.42
   0   3   7    6.03    0.21
   0   3   7    6.22    0.22
   0   3   7    6.07    0.22
   0   3  -7    5.96    0.22
   0   3  -7    6.22    0.24
   0   3   7    6.18    0.22
   0   3  -7    6.29    0.20
   0   3   7    6.30    0.20
   0   3   7    6.18    0.20
   0   3  -7    5.96    0.22
   0   3  -7    6.06    0.24
   1  -3   7    0.29    0.03
  -1  -3  -7    0.36    0.11
   1  -3   7    0.33    0.02
  -1  -3  -7    0.39    0.05
  -1  -3  -7    0.25    0.08
  -1  -3  -7    0.21    0.04
   1  -3   7    0.29    0.05
  -1  -3  -7    0.30    0.05
   1  -3   7    0.33    0.05
   1  -3   7    0.26    0.05
   1  -3   7    0.33    0.04
  -1  -3  -7    0.26    0.06
   1  -3   7    0.21    0.05
   1   3   7    0.34    0.05
  -1   3  -7    0.28    0.04
  -1   3  -7    0.32    0.06
   1   3   7    0.30    0.05
  -1   3  -7    0.34    0.07
   1   3   7    0.31    0.04
  -1   3  -7    0.37    0.08
   1   3   7    0.32    0.04
  -1   3  -7    0.30    0.05
   1   3   7    0.34    0.05
   1   3   7    0.31    0.04
   1   3   7    0.34    0.06
  -1   3  -7    0.26    0.14
   1   3   7    0.30    0.03
   1   3   7    0.28    0.04
  -1   3  -7    0.29    0.04
  -2  -3  -7    2.98    0.13
  -2  -3  -7    2.91    0.18
   2  -3   7    2.73    0.16
  -2  -3  -7    3.11    0.25
   2  -3   7    2.80    0.14
   2  -3   7    3.06    0.16
   2  -3   7    2.90    0.13
   2  -3   7    2.84    0.12
  -2  -3  -7    3.06    0.14
   2  -3   7    3.03    0.13
   2  -3   7    2.78    0.17
  -2  -3  -7    2.64    0.14
  -2   3  -7    2.74    0.35
   2   3   7    3.08    0.15
   2   3   7    2.79    0.12
   2   3   7    2.83    0.17
   2   3   7    2.86    0.16
  -2   3  -7    2.89    0.14
  -2   3  -7    2.69    0.12
  -2   3  -7    2.81    0.20
   2   3   7    2.87    0.13
  -3  -3  -7    0.50    0.13
   3  -3   7    0.52    0.07
   3  -3   7    0.59    0.06
   3  -3   7    0.39    0.08
  -3  -3  -7    0.46    0.10
  -3  -3  -7    0.53    0.07
  -3  -3  -7    0.46    0.06
   3  -3   7    0.46    0.06
   3  -3   7    0.51    0.06
  -3  -3  -7    0.54    0.07
  -3   3  -7    0.42    0.20
   3   3   7    0.51    0.07
  -3   3  -7    0.36    0.10
   3   3   7    0.47    0.06
   3   3   7    0.49    0.08
  -3   3  -7    0.47    0.07
   3   3   7    0.43    0.07
   4  -3   7    0.24    0.05
   4  -3   7    0.36    0.06
   4  -3   7    0.28    0.05
  -4  -3  -7    0.26    0.09
   4   3   7    0.27    0.07
   4   3   7    0.26    0.06
  -4   3  -7    0.25    0.18
  -4   3  -7    0.32    0.06
  -4   3  -7    0.20    0.09
   4   3   7    0.26    0.05
  -5  -3  -7    0.30    0.10
   5  -3   7    0.42    0.07
  -5  -3  -7    0.27    0.10
  -5   3  -7    0.08    0.09
  -5   3  -7    0.36    0.06
   5   3   7    0.40    0.07
   5   3   7    0.21    0.07
  -5   3  -7    0.27    0.13
  -5   3  -7    0.23    0.21
   6  -4  -7    1.38    0.14
  -6  -4   7    0.86    0.15
  -6  -4   7    1.15    0.15
  -6   4   7    1.05    0.09
  -6   4   7    1.17    0.17
  -6   4   7    1.39    0.17
  -5  -4   7    0.65    0.11
   5  -4  -7    0.63    0.09
   5  -4  -7    0.86    0.10
   5  -4  -7    0.69    0.11
  -5  -4   7    0.81    0.13
   5   4  -7    0.74    0.07
   5   4  -7    0.71    0.08
  -5   4   7    0.77    0.08
  -5   4   7    0.92    0.14
  -5   4   7    0.66    0.12
  -4  -4   7    0.54    0.09
  -4  -4   7    0.71    0.12
   4  -4  -7    0.63    0.08
  -4  -4   7    0.72    0.09
   4  -4  -7    0.69    0.08
   4  -4  -7    0.77    0.08
   4   4  -7    0.65    0.06
   4   4  -7    0.77    0.06
  -4   4   7    0.63    0.11
  -4   4   7    0.70    0.11
  -4   4   7    0.72    0.08
   4   4  -7    0.74    0.06
  -3  -4   7    0.17    0.06
   3  -4  -7    0.23    0.05
  -3  -4   7    0.23    0.06
   3  -4  -7    0.26    0.05
  -3  -4   7    0.25    0.06
  -3  -4   7    0.31    0.05
  -3  -4   7    0.25    0.04
   3  -4  -7    0.34    0.06
  -3   4   7    0.28    0.05
   3   4  -7    0.26    0.04
   3   4  -7    0.27    0.10
   3   4  -7    0.26    0.04
  -3   4   7    0.34    0.09
   3   4  -7    0.34    0.04
   2  -4  -7    3.32    0.16
  -2  -4   7    3.23    0.14
   2  -4  -7    3.47    0.16
  -2  -4   7    3.20    0.16
  -2  -4   7    3.43    0.16
   2  -4  -7    3.41    0.15
  -2  -4   7    3.19    0.17
  -2   4   7    3.52    0.16
  -2   4   7    3.06    0.20
  -2   4   7    3.14    0.16
   2   4  -7    3.18    0.12
   2   4  -7    3.15    0.29
   2   4  -7    3.30    0.13
   2   4  -7    3.45    0.14
  -2   4   7    3.31    0.12
   2   4  -7    3.36    0.12
   1  -4  -7    7.87    0.30
  -1  -4   7    7.97    0.28
  -1  -4   7    7.47    0.27
  -1  -4   7    7.48    0.25
  -1  -4   7    7.93    0.31
   1  -4  -7    7.84    0.29
   1  -4  -7    7.76    0.27
   1   4  -7    7.53    0.25
  -1   4   7    7.62    0.33
   1   4  -7    7.63    0.28
  -1   4   7    7.65    0.25
   1   4  -7    7.85    0.50
  -1   4   7    7.93    0.27
   1   4  -7    7.91    0.28
  -1   4   7    7.94    0.30
   1   4  -7    8.00    0.25
  -1   4   7    8.12    0.24
   1   4  -7    7.71    0.25
  -1   4   7    7.94    0.23
   1   4  -7    7.80    0.26
   1   4  -7    7.50    0.24
   0  -4   7    0.51    0.06
   0  -4  -7    0.56    0.05
   0  -4   7    0.48    0.06
   0  -4   7    0.46    0.07
   0  -4  -7    0.59    0.07
   0   4   7    0.52    0.04
   0   4  -7    0.50    0.07
   0   4  -7    0.56    0.07
   0   4  -7    0.62    0.07
   0   4   7    0.54    0.06
   0   4   7    0.63    0.09
   0   4  -7    0.41    0.15
   0   4   7    0.44    0.07
   0   4   7    0.56    0.05
   0   4   7    0.50    0.07
   0   4  -7    0.50    0.05
   0   4  -7    0.53    0.07
   0   4   7    0.44    0.05
   0   4   7    0.44    0.05
   1  -4   7    1.47    0.10
   1  -4   7    1.32    0.09
   1  -4   7    1.44    0.11
   1  -4   7    1.16    0.08
  -1  -4  -7    1.33    0.08
   1  -4   7    1.34    0.06
   1  -4   7    1.24    0.07
  -1  -4  -7    1.29    0.17
  -1  -4  -7    1.31    0.09
   1  -4   7    1.24    0.05
  -1   4  -7    1.35    0.30
   1   4   7    1.35    0.11
   1   4   7    1.25    0.08
   1   4   7    1.33    0.08
   1   4   7    1.22    0.08
  -1   4  -7    1.30    0.08
   1   4   7    1.30    0.11
   1   4   7    1.35    0.10
  -1   4  -7    1.34    0.11
  -1   4  -7    1.46    0.15
   1   4   7    1.44    0.07
   1   4   7    1.22    0.09
  -1   4  -7    1.49    0.10
   2  -4   7    0.77    0.09
   2  -4   7    0.82    0.10
   2  -4   7    0.77    0.06
   2  -4   7    0.71    0.05
  -2  -4  -7    0.73    0.15
   2  -4   7    0.56    0.08
   2  -4   7    0.80    0.10
  -2  -4  -7    0.57    0.11
  -2   4  -7    0.57    0.11
   2   4   7    0.62    0.05
  -2   4  -7    0.69    0.06
  -2   4  -7    0.77    0.09
   2   4   7    0.75    0.06
   2   4   7    0.74    0.07
   2   4   7    0.80    0.09
  -2   4  -7    0.67    0.24
   2   4   7    0.77    0.10
   2   4   7    0.76    0.09
  -3  -4  -7    1.78    0.11
   3  -4   7    1.78    0.10
  -3  -4  -7    1.45    0.15
  -3  -4  -7    1.83    0.20
   3  -4   7    1.93    0.11
   3  -4   7    1.73    0.12
   3  -4   7    1.64    0.15
   3  -4   7    1.72    0.11
  -3   4  -7    0.99    0.29
  -3   4  -7    1.88    0.12
   3   4   7    1.70    0.11
   3   4   7    1.73    0.13
   3   4   7    1.71    0.10
  -3   4  -7    1.59    0.19
   4  -4   7    0.15    0.04
   4  -4   7    0.22    0.07
   4  -4   7    0.30    0.05
  -4  -4  -7    0.16    0.08
   4   4   7    0.12    0.05
   4   4   7    0.25    0.05
  -4   4  -7    0.12    0.16
  -4   4  -7    0.20    0.05
  -4   4  -7    0.22    0.10
  -5  -4  -7    0.26    0.11
  -5  -4  -7    0.37    0.10
  -5   4  -7    0.29    0.06
   5   4   7    0.17    0.06
  -5   4  -7    0.06    0.10
  -6  -5   7    1.40    0.17
   6  -5  -7    1.16    0.14
  -6  -5   7    1.46    0.20
  -6   5   7    0.98    0.16
   6   5  -7    1.40    0.11
  -6   5   7    1.24    0.11
  -6   5   7    1.44    0.21
  -5  -5   7    0.64    0.13
  -5  -5   7    0.52    0.10
   5  -5  -7    0.59    0.09
   5  -5  -7    0.56    0.09
   5   5  -7    0.52    0.06
  -5   5   7    0.69    0.13
  -5   5   7    0.61    0.08
  -5   5   7    0.45    0.10
  -4  -5   7    1.91    0.10
  -4  -5   7    1.88    0.15
   4  -5  -7    2.00    0.14
   4  -5  -7    1.92    0.13
  -4  -5   7    1.81    0.14
  -4  -5   7    1.75    0.16
   4   5  -7    2.01    0.11
   4   5  -7    1.99    0.11
   4   5  -7    1.87    0.09
   4   5  -7    1.99    0.12
  -4   5   7    1.82    0.12
  -4   5   7    1.75    0.20
   3  -5  -7    1.25    0.12
  -3  -5   7    1.16    0.12
  -3  -5   7    1.28    0.08
  -3  -5   7    1.34    0.14
  -3  -5   7    1.30    0.10
   3  -5  -7    1.11    0.09
  -3  -5   7    1.25    0.11
  -3   5   7    1.29    0.10
   3   5  -7    1.21    0.09
   3   5  -7    1.36    0.08
   3   5  -7    1.19    0.08
   3   5  -7    1.16    0.07
  -3   5   7    1.37    0.17
   2  -5  -7    0.54    0.07
  -2  -5   7    0.64    0.07
  -2  -5   7    0.58    0.07
   2  -5  -7    0.58    0.07
  -2  -5   7    0.45    0.08
  -2   5   7    0.55    0.08
   2   5  -7    0.66    0.07
   2   5  -7    0.68    0.08
  -2   5   7    0.59    0.06
   2   5  -7    0.63    0.06
  -2   5   7    0.34    0.08
   2   5  -7    0.63    0.05
   2   5  -7    0.50    0.16
  -1  -5   7    0.08    0.04
  -1  -5   7    0.08    0.03
   1  -5  -7    0.05    0.03
   1  -5  -7    0.02    0.03
  -1   5   7    0.04    0.05
   1   5  -7    0.05    0.02
   1   5  -7    0.04    0.08
  -1   5   7    0.07    0.02
  -1   5   7    0.03    0.04
  -1   5   7    0.08    0.03
   1   5  -7    0.08    0.04
   1   5  -7    0.07    0.03
  -1   5   7    0.07    0.02
  -1   5   7    0.04    0.02
   0  -5   7    0.29    0.05
   0  -5  -7    0.31    0.06
   0  -5   7    0.33    0.06
   0   5   7    0.44    0.09
   0   5  -7    0.46    0.07
   0   5   7    0.30    0.06
   0   5   7    0.31    0.06
   0   5  -7    0.30    0.06
   0   5   7    0.30    0.04
   0   5  -7    0.38    0.04
   0   5   7    0.33    0.05
   0   5  -7    0.32    0.05
   0   5   7    0.33    0.05
   0   5   7    0.41    0.05
   0   5   7    0.28    0.04
   0   5  -7    0.38    0.17
   1  -5   7    3.65    0.12
   1  -5   7    3.59    0.14
   1  -5   7    3.65    0.16
   1  -5   7    3.68    0.19
   1  -5   7    3.81    0.18
  -1  -5  -7    3.71    0.30
   1  -5   7    3.68    0.17
   1   5   7    4.02    0.20
  -1   5  -7    3.31    0.20
   1   5   7    3.45    0.17
   1   5   7    3.54    0.18
   1   5   7    3.64    0.20
  -1   5  -7    2.85    0.40
   1   5   7    3.56    0.14
  -1   5  -7    3.62    0.20
   1   5   7    3.59    0.16
   1   5   7    3.62    0.21
   1   5   7    3.60    0.14
  -1   5  -7    3.50    0.15
   2  -5   7    0.31    0.07
   2  -5   7    0.34    0.04
   2  -5   7    0.12    0.05
   2  -5   7    0.26    0.06
   2  -5   7    0.27    0.07
   2  -5   7    0.27    0.04
  -2  -5  -7    0.31    0.10
   2   5   7    0.30    0.05
   2   5   7    0.29    0.04
  -2   5  -7    0.38    0.10
  -2   5  -7    0.07    0.13
   2   5   7    0.34    0.07
   2   5   7    0.32    0.07
   2   5   7    0.26    0.05
  -3  -5  -7    1.30    0.10
   3  -5   7    1.44    0.12
   3  -5   7    1.36    0.11
   3  -5   7    1.30    0.09
   3  -5   7    1.18    0.14
   3  -5   7    1.39    0.09
   3   5   7    1.29    0.09
   3   5   7    1.37    0.10
  -3   5  -7    1.20    0.18
   3   5   7    1.40    0.14
   3   5   7    1.47    0.12
  -3   5  -7    0.94    0.32
  -4  -5  -7    0.61    0.12
  -4  -5  -7    0.63    0.09
   4  -5   7    0.56    0.07
   4  -5   7    0.61    0.08
  -4   5  -7    0.63    0.09
   4   5   7    0.57    0.07
   4   5   7    0.69    0.10
   4   5   7    0.64    0.10
  -4   5  -7    0.76    0.16
  -5  -5  -7    0.16    0.11
  -5  -5  -7    0.01    0.07
   5   5   7    0.19    0.08
  -5   5  -7    0.04    0.09
  -5   5  -7    0.24    0.13
   5  -6  -7    0.93    0.12
  -5  -6   7    0.69    0.13
  -5  -6   7    0.74    0.12
   5  -6  -7    0.98    0.19
  -5   6   7    0.95    0.11
  -5   6   7    0.93    0.16
   5   6  -7    0.86    0.10
   4  -6  -7    2.43    0.17
  -4  -6   7    2.27    0.16
  -4  -6   7    2.14    0.18
   4  -6  -7    2.52    0.16
  -4  -6   7    2.67    0.18
  -4   6   7    2.70    0.16
   4   6  -7    2.47    0.13
   4   6  -7    2.28    0.14
  -4   6   7    2.77    0.27
  -3  -6   7    0.60    0.10
   3  -6  -7    0.60    0.09
  -3  -6   7    0.59    0.08
  -3  -6   7    0.57    0.07
   3  -6  -7    0.59    0.09
  -3   6   7    0.44    0.11
  -3   6   7    0.59    0.09
   3   6  -7    0.60    0.08
  -3   6   7    0.54    0.06
   3   6  -7    0.51    0.07
   3   6  -7    0.54    0.06
   2  -6  -7    2.13    0.14
  -2  -6   7    2.23    0.12
  -2  -6   7    1.97    0.12
   2  -6  -7    2.01    0.14
  -2  -6   7    2.17    0.15
   2   6  -7    1.55    0.27
  -2   6   7    2.07    0.15
  -2   6   7    2.22    0.11
   2   6  -7    2.15    0.11
  -2   6   7    2.21    0.19
   2   6  -7    2.10    0.10
   1  -6  -7    2.19    0.14
  -1  -6   7    1.90    0.14
   1  -6  -7    2.24    0.14
  -1  -6   7    2.05    0.12
  -1  -6   7    2.06    0.14
  -1   6   7    2.04    0.09
  -1   6   7    2.17    0.11
   1   6  -7    2.09    0.15
  -1   6   7    2.24    0.15
   1   6  -7    1.41    0.31
  -1   6   7    2.32    0.19
  -1   6   7    2.05    0.11
   0  -6  -7    5.81    0.26
   0  -6   7    5.48    0.24
   0  -6   7    5.87    0.23
   0  -6   7    5.93    0.27
   0   6   7    5.52    0.27
   0   6  -7    5.92    0.23
   0   6  -7    5.95    0.28
   0   6   7    6.07    0.24
   0   6   7    5.90    0.26
   0   6   7    5.87    0.23
   0   6   7    5.79    0.29
   0   6   7    5.69    0.22
   1  -6   7    3.05    0.16
  -1  -6  -7    3.11    0.29
   1  -6   7    3.22    0.13
   1  -6   7    3.05    0.18
   1  -6   7    3.11    0.17
   1   6   7    3.13    0.15
   1   6   7    3.20    0.19
  -1   6  -7    2.86    0.19
   1   6   7    3.37    0.21
   1   6   7    3.06    0.13
   1   6   7    3.21    0.16
   1   6   7    3.23    0.18
  -1   6  -7    2.49    0.41
   2  -6   7    0.92    0.12
  -2  -6  -7    0.92    0.16
   2  -6   7    0.90    0.06
   2  -6   7    0.95    0.07
   2  -6   7    0.91    0.11
   2  -6   7    0.85    0.11
  -2   6  -7    0.87    0.14
   2   6   7    1.00    0.12
  -2   6  -7    0.67    0.29
   2   6   7    1.00    0.07
   2   6   7    0.89    0.09
   2   6   7    0.81    0.10
   3  -6   7    0.68    0.10
   3  -6   7    0.66    0.07
  -3  -6  -7    0.55    0.08
   3  -6   7    0.72    0.10
   3  -6   7    0.76    0.08
   3  -6   7    0.56    0.11
  -3   6  -7    0.65    0.14
   3   6   7    0.74    0.12
  -3   6  -7    0.36    0.23
  -3   6  -7    0.54    0.14
   3   6   7    0.65    0.08
   3   6   7    0.70    0.10
   3   6   7    0.72    0.08
  -4  -6  -7    0.07    0.07
  -4  -6  -7    0.04    0.05
   4  -6   7    0.06    0.04
   4   6   7    0.05    0.05
  -4   6  -7    0.05    0.09
   4   6   7    0.09    0.05
  -4   6  -7    0.02    0.09
   5  -7  -7    1.53    0.17
  -5  -7   7    1.20    0.14
  -5   7   7    1.22    0.13
  -4  -7   7    1.44    0.15
   4  -7  -7    1.64    0.16
   4  -7  -7    1.71    0.14
  -4  -7   7    1.57    0.15
  -4   7   7    1.72    0.22
   4   7  -7    1.75    0.16
  -4   7   7    1.61    0.14
  -3  -7   7    3.56    0.22
  -3  -7   7    3.31    0.18
   3  -7  -7    3.48    0.20
   3  -7  -7    3.55    0.21
   3   7  -7    3.83    0.18
   3   7  -7    3.55    0.21
  -3   7   7    3.31    0.20
  -3   7   7    3.30    0.26
  -3   7   7    3.47    0.16
  -2  -7   7    0.89    0.12
  -2  -7   7    0.84    0.12
   2  -7  -7    0.87    0.11
   2  -7  -7    0.75    0.10
   2   7  -7    0.89    0.12
  -2   7   7    0.92    0.15
   2   7  -7    0.93    0.09
  -2   7   7    0.89    0.08
  -2   7   7    1.05    0.13
   2   7  -7    0.88    0.07
  -1  -7   7    0.13    0.06
  -1  -7   7    0.22    0.05
  -1  -7   7    0.26    0.07
   1  -7  -7    0.21    0.07
  -1   7   7    0.11    0.06
   1   7  -7    0.16    0.06
   1   7  -7    0.23    0.05
  -1   7   7    0.07    0.07
  -1   7   7    0.14    0.04
   1   7  -7    0.16    0.15
  -1   7   7    0.15    0.04
   1   7  -7    0.14    0.07
   0  -7   7    0.40    0.07
   0  -7   7    0.30    0.05
   0  -7   7    0.34    0.07
   0   7   7    0.54    0.10
   0   7   7    0.36    0.08
   0   7  -7    0.44    0.07
   0   7   7    0.35    0.06
   0   7   7    0.44    0.06
   0   7  -7    0.43    0.22
   0   7   7    0.34    0.05
   1  -7   7    3.42    0.16
   1  -7   7    3.14    0.14
   1  -7   7    3.24    0.17
   1  -7   7    3.31    0.20
   1  -7   7    3.54    0.18
   1   7   7    3.49    0.24
   1   7   7    3.20    0.19
   1   7   7    3.67    0.22
   1   7   7    3.50    0.17
   1   7   7    3.55    0.22
  -1   7  -7    2.94    0.24
  -1   7  -7    2.45    0.44
   1   7   7    3.24    0.16
   1   7   7    3.41    0.14
   2  -7   7    0.36    0.05
   2  -7   7    0.40    0.08
   2  -7   7    0.33    0.08
   2  -7   7    0.38    0.05
   2  -7   7    0.34    0.09
  -2   7  -7    0.30    0.22
  -2   7  -7    0.37    0.10
   2   7   7    0.35    0.06
  -2   7  -7    0.29    0.11
   2   7   7    0.27    0.06
   2   7   7    0.33    0.05
   2   7   7    0.45    0.09
   3  -7   7    0.07    0.05
   3  -7   7    0.11    0.04
   3  -7   7    0.09    0.04
  -3  -7  -7    0.14    0.06
   3  -7   7    0.23    0.08
   3  -7   7    0.10    0.06
  -3   7  -7    0.10    0.08
   3   7   7    0.18    0.05
   3   7   7    0.12    0.06
   3   7   7    0.09    0.05
  -3   7  -7    0.19    0.11
  -4  -7  -7    0.80    0.12
  -4  -7  -7    0.91    0.15
   4   7   7    1.04    0.13
  -4   7  -7    0.92    0.18
  -4  -8   7    0.38    0.10
  -4  -8   7    0.42    0.10
   4   8  -7    0.34    0.10
  -4   8   7    0.33    0.09
  -3  -8   7    4.23    0.25
   3  -8  -7    4.15    0.25
  -3   8   7    4.77    0.25
   3   8  -7    4.06    0.25
   3   8  -7    4.34    0.21
  -3   8   7    4.64    0.31
  -2  -8   7    1.57    0.15
   2  -8  -7    1.60    0.17
  -2  -8   7    1.44    0.16
  -2   8   7    1.45    0.11
  -2   8   7    1.40    0.19
   2   8  -7    1.67    0.12
  -2   8   7    1.83    0.16
   2   8  -7    1.66    0.17
  -1  -8   7    1.32    0.15
  -1  -8   7    1.30    0.14
   1   8  -7    0.91    0.31
  -1   8   7    1.27    0.10
  -1   8   7    1.47    0.10
  -1   8   7    1.48    0.16
  -1   8   7    1.44    0.18
   1   8  -7    1.20    0.10
   0  -8   7    0.62    0.10
   0  -8   7    0.44    0.08
   0   8   7    0.50    0.10
   0   8   7    0.48    0.11
   0   8   7    0.39    0.10
   0   8  -7    0.73    0.09
   0   8  -7    0.44    0.12
   0   8   7    0.37    0.07
   0   8  -7    0.24    0.21
   0   8   7    0.52    0.08
   0   8   7    0.56    0.08
   1  -8   7    0.62    0.08
   1  -8   7    0.67    0.06
   1  -8   7    0.58    0.10
   1  -8   7    0.76    0.09
  -1   8  -7    0.41    0.25
   1   8   7    0.68    0.09
  -1   8  -7    0.74    0.15
   1   8   7    0.59    0.10
   1   8   7    0.89    0.15
   1   8   7    0.77    0.13
   1   8   7    0.71    0.08
   2  -8   7    0.02    0.02
  -2  -8  -7    0.08    0.06
   2  -8   7    0.01    0.05
   2  -8   7    0.00    0.04
   2  -8   7    0.01    0.03
   2   8   7    0.07    0.05
   2   8   7   -0.01    0.03
   2   8   7   -0.02    0.04
   2   8   7   -0.02    0.04
  -2   8  -7    0.00    0.08
   3  -8   7    0.57    0.10
  -3  -8  -7    0.58    0.10
   3  -8   7    0.50    0.11
   3   8   7    0.64    0.10
  -3  -9   7    0.52    0.11
  -3   9   7    0.45    0.10
   3   9  -7    0.66    0.09
  -2  -9   7    0.61    0.12
  -2  -9   7    0.66    0.12
   2   9  -7    0.66    0.09
  -2   9   7    0.48    0.11
  -2   9   7    0.61    0.14
  -2   9   7    0.41    0.07
  -1  -9   7    0.61    0.11
  -1  -9   7    0.74    0.12
   1   9  -7    0.90    0.11
  -1   9   7    0.81    0.10
  -1   9   7    0.97    0.15
  -1   9   7    0.73    0.14
   0  -9   7    2.29    0.18
   0   9   7    1.95    0.21
   0   9   7    2.03    0.19
   0   9   7    2.06    0.14
   0   9  -7    2.02    0.14
   0   9  -7    1.65    0.24
   1  -9   7    0.91    0.09
  -1  -9  -7    0.81    0.13
   1  -9   7    0.91    0.09
   1   9   7    1.13    0.15
  -1   9  -7    0.78    0.17
   1   9   7    0.91    0.16
   1   9   7    1.12    0.12
  -2  -9  -7    0.75    0.12
  -2  -9  -7    0.51    0.10
   2  -9   7    0.65    0.12
   2   9   7    0.55    0.09
  -7   0   8    0.46    0.13
  -7   0   8    0.30    0.09
   7   0  -8    0.36    0.06
  -6   0   8   14.65    0.55
   6   0  -8   14.97    0.43
   6   0  -8   14.73    0.55
   6   0  -8   13.79    0.44
  -6   0   8   14.84    0.62
   5   0  -8    6.48    0.40
  -5   0   8    6.29    0.29
   5   0  -8    6.58    0.30
   5   0  -8    6.41    0.26
  -5   0   8    6.85    0.35
   4   0  -8   10.01    0.33
   4   0  -8    9.81    0.50
   4   0  -8    9.40    0.36
  -4   0   8   10.10    0.42
  -4   0   8    9.85    0.37
  -3   0   8   26.02    0.81
   3   0  -8   24.90    0.79
   3   0  -8   26.14    0.75
   3   0  -8   26.15    0.98
  -3   0   8   26.06    0.85
  -3   0   8   26.77    0.80
   2   0  -8   21.56    0.62
   2   0  -8   22.52    0.65
  -2   0   8   21.62    0.68
   2   0  -8   21.89    0.85
  -2   0   8   21.48    0.62
   2   0  -8   22.19    0.61
  -2   0   8   21.05    0.62
  -1   0   8    3.87    0.14
   1   0  -8    3.60    0.13
   1   0  -8    3.69    0.14
   1   0  -8    3.77    0.14
   1   0  -8    3.55    0.27
   1   0  -8    3.79    0.12
   0   0   8    3.44    0.15
   0   0  -8    3.82    0.14
   0   0  -8    3.60    0.14
   0   0  -8    3.66    0.15
   0   0  -8    3.56    0.14
   0   0  -8    3.74    0.15
   0   0  -8    3.83    0.28
   0   0  -8    3.91    0.19
  -1   0  -8   21.71    0.72
  -1   0  -8   23.44    0.91
   1   0   8   22.45    0.66
  -1   0  -8   21.08    0.67
   1   0   8   21.91    0.64
   1   0   8   22.33    0.62
  -1   0  -8   21.99    0.66
   1   0   8   22.24    0.66
  -1   0  -8   22.61    0.66
   1   0   8   22.55    0.67
  -1   0  -8   22.44    0.68
  -2   0  -8    3.86    0.17
   2   0   8    4.46    0.18
  -2   0  -8    3.90    0.33
   2   0   8    4.02    0.20
   2   0   8    4.11    0.15
  -2   0  -8    3.85    0.16
   2   0   8    4.13    0.18
   2   0   8    4.08    0.16
   3   0   8    2.44    0.14
   3   0   8    2.57    0.14
   3   0   8    2.49    0.12
  -3   0  -8    2.27    0.13
  -3   0  -8    2.20    0.29
  -3   0  -8    2.39    0.19
  -4   0  -8    7.21    0.60
  -4   0  -8    7.80    0.41
   4   0   8    7.88    0.31
  -4   0  -8    8.17    0.30
   4   0   8    7.99    0.29
   4   0   8    8.10    0.32
   5   0   8    0.32    0.06
  -5   0  -8    0.23    0.05
  -5   0  -8    0.16    0.09
  -5   0  -8    0.19    0.11
   5   0   8    0.28    0.08
  -7  -1   8    2.73    0.30
   7  -1  -8    2.51    0.14
  -7  -1   8    3.14    0.22
  -7   1   8    2.98    0.21
  -7   1   8    3.02    0.26
   7   1  -8    2.52    0.13
   6  -1  -8    0.98    0.06
   6  -1  -8    0.95    0.12
  -6  -1   8    1.07    0.17
  -6  -1   8    0.75    0.11
   6  -1  -8    0.95    0.07
   6   1  -8    1.12    0.14
   6   1  -8    0.96    0.06
   6   1  -8    1.02    0.05
  -6   1   8    1.02    0.13
  -6   1   8    0.91    0.15
  -5  -1   8    4.72    0.24
  -5  -1   8    4.31    0.28
   5  -1  -8    4.52    0.16
   5  -1  -8    4.50    0.23
   5   1  -8    4.67    0.24
  -5   1   8    4.33    0.27
  -5   1   8    4.87    0.23
   5   1  -8    4.70    0.21
  -5   1   8    4.61    0.23
  -4  -1   8   11.15    0.43
  -4  -1   8   11.83    0.43
   4  -1  -8   11.92    0.35
   4  -1  -8   11.94    0.42
  -4  -1   8   12.22    0.48
   4   1  -8   11.55    0.38
  -4   1   8   12.08    0.43
   4   1  -8   11.49    0.43
   4   1  -8   12.27    0.55
  -4   1   8   11.56    0.42
  -4   1   8   11.82    0.47
  -3  -1   8    6.27    0.29
  -3  -1   8    6.30    0.26
   3  -1  -8    6.20    0.20
  -3  -1   8    5.91    0.26
   3  -1  -8    6.33    0.24
  -3   1   8    6.59    0.20
   3   1  -8    6.22    0.20
  -3   1   8    6.37    0.27
  -3   1   8    6.64    0.29
   3   1  -8    6.29    0.36
  -3   1   8    6.21    0.26
  -3   1   8    6.60    0.26
  -3   1   8    6.39    0.19
   2  -1  -8   12.59    0.39
  -2  -1   8   12.57    0.37
   2  -1  -8   12.63    0.37
   2  -1  -8   12.61    0.38
  -2  -1   8   12.62    0.43
   2  -1  -8   12.36    0.59
   2  -1  -8   12.81    0.36
  -2   1   8   12.51    0.37
   2   1  -8   12.73    0.57
   2   1  -8   12.42    0.36
  -2   1   8   12.90    0.39
  -2   1   8   12.67    0.43
  -2   1   8   12.88    0.45
   2   1  -8   12.58    0.36
   1  -1  -8   50.14    1.37
   1  -1  -8   48.45    1.63
  -1  -1   8   49.11    1.35
  -1  -1   8   48.87    1.41
   1  -1  -8   51.30    1.35
   1  -1  -8   47.48    1.36
   1  -1  -8   49.95    1.38
  -1  -1   8   48.89    1.38
   1  -1  -8   50.01    1.37
   1  -1  -8   48.81    1.37
   1  -1  -8   49.31    1.35
  -1   1   8   48.37    1.37
  -1   1   8   48.63    1.34
   1   1  -8   48.51    1.36
  -1   1   8   49.63    1.38
   1   1  -8   49.22    1.37
   1   1  -8   45.59    1.37
   1   1  -8   47.99    1.37
  -1   1   8   50.33    1.41
   1   1  -8   47.94    1.60
   0  -1  -8   15.03    0.66
   0  -1  -8   14.82    0.45
   0  -1   8   15.36    0.47
   0  -1  -8   14.92    0.49
   0  -1   8   14.03    0.46
   0  -1  -8   14.79    0.45
   0  -1  -8   14.95    0.47
   0  -1  -8   15.20    0.46
   0  -1  -8   14.91    0.45
   0   1   8   14.75    0.47
   0   1  -8   15.09    0.45
   0   1   8   14.87    0.47
   0   1  -8   14.65    0.45
   0   1  -8   15.16    0.67
   0   1  -8   14.56    0.45
   0   1  -8   14.80    0.47
   0   1  -8   14.45    0.45
   0   1   8   14.55    0.46
   0   1   8   14.89    0.42
   1  -1   8    2.19    0.12
   1  -1   8    2.36    0.11
   1  -1   8    2.38    0.11
   1  -1   8    2.45    0.08
  -1  -1  -8    2.35    0.11
   1  -1   8    2.44    0.12
  -1  -1  -8    2.44    0.23
   1  -1   8    2.48    0.10
  -1  -1  -8    2.33    0.15
  -1  -1  -8    2.30    0.11
  -1  -1  -8    2.26    0.15
   1   1   8    2.48    0.10
   1   1   8    2.37    0.11
   1   1   8    2.37    0.11
  -1   1  -8    2.40    0.12
  -1   1  -8    2.25    0.15
   1   1   8    2.48    0.09
   1   1   8    2.34    0.12
   1   1   8    2.35    0.12
  -1   1  -8    2.36    0.12
  -1   1  -8    2.30    0.11
  -1   1  -8    2.42    0.25
  -1   1  -8    2.32    0.13
   2  -1   8   11.37    0.38
   2  -1   8   11.40    0.42
   2  -1   8   11.45    0.39
  -2  -1  -8   12.47    0.61
   2  -1   8   11.70    0.38
  -2  -1  -8   11.62    0.38
   2  -1   8   11.74    0.36
   2  -1   8   11.89    0.35
  -2  -1  -8   11.37    0.38
   2   1   8   11.82    0.38
  -2   1  -8   11.90    0.38
   2   1   8   11.98    0.36
   2   1   8   11.33    0.39
  -2   1  -8   12.30    0.46
  -2   1  -8   11.42    0.66
  -2   1  -8   12.01    0.39
   2   1   8   11.88    0.42
   2   1   8   11.95    0.39
   3  -1   8    2.69    0.15
  -3  -1  -8    2.59    0.29
  -3  -1  -8    2.41    0.13
   3  -1   8    2.56    0.14
   3  -1   8    2.43    0.12
  -3   1  -8    2.80    0.22
  -3   1  -8    2.57    0.14
   3   1   8    2.61    0.12
   3   1   8    2.40    0.14
   3   1   8    2.65    0.14
  -3   1  -8    2.71    0.34
  -4  -1  -8    1.04    0.17
   4  -1   8    0.94    0.10
  -4  -1  -8    1.01    0.09
  -4  -1  -8    0.92    0.24
   4  -1   8    1.12    0.12
   4  -1   8    1.11    0.08
   4   1   8    1.02    0.11
   4   1   8    0.98    0.08
  -4   1  -8    0.76    0.09
  -4   1  -8    0.87    0.27
   4   1   8    0.91    0.11
  -4   1  -8    1.00    0.17
   5  -1   8    0.52    0.07
   5  -1   8    0.52    0.10
  -5  -1  -8    0.70    0.08
  -5  -1  -8    0.42    0.12
  -5  -1  -8    0.51    0.14
  -5   1  -8    0.46    0.24
  -5   1  -8    0.69    0.16
   5   1   8    0.69    0.08
  -5   1  -8    0.58    0.08
   5   1   8    0.81    0.12
  -5   1  -8    0.73    0.19
  -6  -2   8    1.50    0.20
   6  -2  -8    1.71    0.15
  -6  -2   8    1.95    0.19
   6  -2  -8    1.64    0.11
   6   2  -8    1.78    0.17
  -6   2   8    1.78    0.07
  -6   2   8    1.84    0.22
  -6   2   8    1.88    0.07
  -6   2   8    1.88    0.17
  -5  -2   8    8.53    0.41
   5  -2  -8    8.89    0.35
  -5  -2   8    8.98    0.37
   5  -2  -8    8.62    0.30
  -5   2   8    9.04    0.35
  -5   2   8    8.47    0.40
  -5   2   8    8.75    0.37
  -5   2   8    8.88    0.27
  -5   2   8    9.11    0.27
   4  -2  -8    4.50    0.20
   4  -2  -8    4.41    0.17
  -4  -2   8    4.30    0.21
  -4  -2   8    3.87    0.25
  -4   2   8    4.55    0.24
   4   2  -8    4.74    0.29
   4   2  -8    4.52    0.17
  -4   2   8    4.21    0.21
  -4   2   8    4.54    0.16
  -4   2   8    4.47    0.25
  -4   2   8    4.38    0.15
  -3  -2   8   16.47    0.55
  -3  -2   8   16.32    0.55
  -3  -2   8   16.38    0.59
   3  -2  -8   16.43    0.50
   3  -2  -8   16.62    0.52
   3   2  -8   16.67    0.48
  -3   2   8   16.38    0.48
  -3   2   8   15.98    0.54
  -3   2   8   16.89    0.58
  -3   2   8   16.79    0.50
   3   2  -8   16.84    0.68
  -2  -2   8   23.33    0.74
   2  -2  -8   23.98    0.68
  -2  -2   8   23.85    0.69
   2  -2  -8   24.52    0.70
  -2  -2   8   23.48    0.74
   2  -2  -8   23.98    0.71
  -2   2   8   23.39    0.77
  -2   2   8   24.66    0.74
   2   2  -8   24.72    0.91
  -2   2   8   24.02    0.69
   2   2  -8   24.55    0.67
   2   2  -8   23.66    0.69
  -2   2   8   23.77    0.71
  -1  -2   8    1.88    0.12
   1  -2  -8    1.77    0.08
   1  -2  -8    1.82    0.10
   1  -2  -8    1.74    0.10
   1  -2  -8    1.71    0.20
   1  -2  -8    1.71    0.07
  -1  -2   8    1.66    0.09
  -1  -2   8    1.51    0.10
   1  -2  -8    1.87    0.07
   1   2  -8    1.75    0.09
   1   2  -8    1.77    0.08
  -1   2   8    1.54    0.13
  -1   2   8    1.61    0.08
  -1   2   8    1.70    0.10
   1   2  -8    1.82    0.20
   1   2  -8    1.85    0.09
  -1   2   8    1.71    0.10
   1   2  -8    1.75    0.09
  -1   2   8    1.64    0.07
   0  -2  -8   19.52    0.58
   0  -2  -8   19.16    0.58
   0  -2  -8   19.41    0.61
   0  -2  -8   20.35    0.60
   0  -2   8   19.47    0.61
   0  -2   8   18.64    0.60
   0  -2  -8   19.46    0.63
   0  -2  -8   20.20    0.82
   0   2   8   19.96    0.58
   0   2   8   19.91    0.56
   0   2  -8   19.47    0.56
   0   2   8   19.45    0.60
   0   2  -8   18.78    0.59
   0   2  -8   20.08    0.85
   0   2  -8   19.72    0.58
   0   2   8   20.00    0.60
   0   2  -8   19.76    0.58
   0   2  -8   19.69    0.59
   0   2   8   19.82    0.56
   0   2   8   19.77    0.56
   0   2  -8   19.78    0.61
   0   2   8   19.55    0.61
   1  -2   8   11.71    0.37
   1  -2   8   11.97    0.37
   1  -2   8   12.08    0.38
   1  -2   8   11.73    0.39
  -1  -2  -8   12.10    0.58
  -1  -2  -8   11.85    0.38
   1  -2   8   11.56    0.41
   1   2   8   12.21    0.40
  -1   2  -8   11.88    0.41
  -1   2  -8   11.35    0.43
  -1   2  -8   11.85    0.65
  -1   2  -8   11.67    0.39
   1   2   8   12.19    0.35
  -1   2  -8   11.58    0.36
   1   2   8   11.94    0.38
  -1   2  -8   12.01    0.37
   1   2   8   11.62    0.36
   1   2   8   12.15    0.39
   1   2   8   11.68    0.37
   1   2   8   12.01    0.40
  -2  -2  -8    1.35    0.09
   2  -2   8    1.37    0.07
   2  -2   8    1.35    0.08
   2  -2   8    1.35    0.12
   2  -2   8    1.40    0.11
  -2  -2  -8    1.61    0.20
  -2  -2  -8    1.34    0.09
   2  -2   8    1.60    0.09
   2  -2   8    1.48    0.10
  -2   2  -8    1.24    0.14
   2   2   8    1.56    0.08
   2   2   8    1.45    0.10
   2   2   8    1.52    0.11
  -2   2  -8    1.35    0.25
   2   2   8    1.44    0.09
   2   2   8    1.44    0.12
  -2   2  -8    1.26    0.09
  -2   2  -8    1.32    0.08
   3  -2   8    3.65    0.15
  -3  -2  -8    3.95    0.17
   3  -2   8    3.93    0.17
  -3  -2  -8    3.91    0.34
  -3   2  -8    3.81    0.26
   3   2   8    3.69    0.18
   3   2   8    3.78    0.19
   3   2   8    3.93    0.20
  -3   2  -8    3.53    0.17
  -3   2  -8    3.50    0.42
   3   2   8    3.79    0.16
   4  -2   8    1.90    0.11
   4  -2   8    1.71    0.12
  -4  -2  -8    1.97    0.12
   4  -2   8    1.96    0.15
  -4  -2  -8    2.00    0.29
  -4  -2  -8    1.69    0.21
   4   2   8    1.88    0.12
  -4   2  -8    1.91    0.12
   4   2   8    1.85    0.14
  -4   2  -8    1.52    0.37
   4   2   8    2.02    0.14
  -4   2  -8    1.78    0.23
   5  -2   8    0.45    0.10
  -5  -2  -8    0.72    0.16
   5  -2   8    0.28    0.07
  -5  -2  -8    0.28    0.09
   5   2   8    0.57    0.09
  -5   2  -8    0.40    0.07
  -5   2  -8    0.62    0.15
   5   2   8    0.47    0.08
  -5   2  -8    0.12    0.18
   6  -3  -8    3.94    0.25
   6  -3  -8    4.03    0.19
  -6  -3   8    4.07    0.25
   6  -3  -8    4.23    0.20
  -6  -3   8    3.44    0.27
  -6   3   8    4.08    0.16
   6   3  -8    4.15    0.16
  -6   3   8    4.33    0.22
  -6   3   8    3.88    0.27
   5  -3  -8    8.41    0.33
   5  -3  -8    8.00    0.27
  -5  -3   8    7.34    0.38
  -5  -3   8    8.12    0.35
   5  -3  -8    7.98    0.30
   5   3  -8    7.94    0.25
  -5   3   8    8.23    0.27
  -5   3   8    7.95    0.37
  -5   3   8    7.50    0.37
  -5   3   8    7.93    0.32
   4  -3  -8   11.86    0.39
   4  -3  -8   11.58    0.41
  -4  -3   8   11.31    0.47
  -4  -3   8   11.92    0.44
  -4  -3   8   12.00    0.43
  -4   3   8   11.41    0.37
   4   3  -8   11.45    0.34
  -4   3   8   11.78    0.46
  -4   3   8   11.80    0.36
  -4   3   8   11.52    0.46
  -3  -3   8    6.89    0.27
  -3  -3   8    5.52    0.27
   3  -3  -8    6.71    0.23
   3  -3  -8    6.89    0.25
  -3  -3   8    7.09    0.28
  -3  -3   8    6.73    0.31
  -3  -3   8    6.65    0.21
   3  -3  -8    6.60    0.25
  -3   3   8    6.89    0.25
   3   3  -8    7.10    0.22
  -3   3   8    6.79    0.31
   3   3  -8    7.08    0.39
   3   3  -8    6.66    0.20
   3   3  -8    6.73    0.22
  -3   3   8    6.50    0.22
  -2  -3   8   15.44    0.51
   2  -3  -8   15.91    0.49
  -2  -3   8   15.34    0.47
  -2  -3   8   15.21    0.51
  -2  -3   8   16.12    0.54
   2  -3  -8   16.26    0.48
   2  -3  -8   16.00    0.50
  -2   3   8   15.46    0.47
   2   3  -8   15.94    0.46
  -2   3   8   15.29    0.56
  -2   3   8   15.41    0.50
  -2   3   8   15.56    0.51
  -2   3   8   15.38    0.45
   2   3  -8   16.21    0.70
   2   3  -8   15.67    0.47
   2   3  -8   15.49    0.45
   1  -3  -8    8.24    0.26
   1  -3  -8    8.32    0.28
  -1  -3   8    8.12    0.32
   1  -3  -8    8.17    0.30
   1  -3  -8    8.27    0.32
  -1  -3   8    7.97    0.27
  -1  -3   8    7.92    0.29
  -1   3   8    7.58    0.33
  -1   3   8    7.97    0.29
  -1   3   8    8.01    0.25
   1   3  -8    7.63    0.25
   1   3  -8    7.72    0.28
  -1   3   8    7.92    0.27
  -1   3   8    8.00    0.29
   1   3  -8    7.79    0.27
   1   3  -8    7.84    0.27
   1   3  -8    8.15    0.48
   1   3  -8    7.78    0.27
   1   3  -8    7.81    0.25
  -1   3   8    7.83    0.26
   0  -3  -8    3.97    0.17
   0  -3  -8    4.06    0.32
   0  -3   8    4.74    0.21
   0  -3   8    4.03    0.18
   0  -3   8    3.82    0.15
   0  -3  -8    4.30    0.16
   0  -3  -8    3.86    0.19
   0   3  -8    4.08    0.19
   0   3  -8    4.24    0.23
   0   3   8    4.26    0.15
   0   3  -8    4.03    0.16
   0   3   8    4.09    0.16
   0   3  -8    4.19    0.20
   0   3   8    4.24    0.16
   0   3  -8    4.33    0.15
   0   3   8    4.13    0.16
   0   3   8    4.04    0.14
   0   3   8    4.46    0.15
   0   3   8    4.57    0.19
   0   3  -8    4.21    0.17
   0   3  -8    4.32    0.16
   0   3   8    4.30    0.17
   0   3  -8    4.18    0.36
  -1  -3  -8    7.29    0.25
   1  -3   8    6.94    0.25
   1  -3   8    6.98    0.23
   1  -3   8    6.74    0.24
   1  -3   8    6.84    0.26
  -1  -3  -8    7.46    0.43
  -1  -3  -8    7.05    0.26
   1  -3   8    6.76    0.28
   1   3   8    7.02    0.25
   1   3   8    6.87    0.24
   1   3   8    6.94    0.26
   1   3   8    6.80    0.27
  -1   3  -8    6.97    0.31
  -1   3  -8    6.87    0.52
   1   3   8    7.17    0.26
   1   3   8    6.62    0.27
   1   3   8    6.98    0.25
  -1   3  -8    6.95    0.28
  -1   3  -8    7.00    0.24
   1   3   8    7.24    0.22
   2  -3   8    5.56    0.21
   2  -3   8    5.44    0.25
   2  -3   8    5.39    0.24
  -2  -3  -8    5.48    0.21
   2  -3   8    5.40    0.19
   2  -3   8    5.38    0.25
  -2  -3  -8    5.49    0.37
   2  -3   8    5.27    0.21
  -2   3  -8    5.38    0.20
   2   3   8    5.53    0.23
   2   3   8    5.55    0.20
   2   3   8    5.88    0.25
   2   3   8    5.32    0.20
   2   3   8    5.56    0.21
   2   3   8    5.21    0.25
  -2   3  -8    5.47    0.29
  -2   3  -8    5.59    0.25
  -2   3  -8    5.44    0.51
   3  -3   8    2.81    0.13
   3  -3   8    2.72    0.14
  -3  -3  -8    2.76    0.14
   3  -3   8    2.65    0.19
  -3  -3  -8    3.01    0.28
  -3  -3  -8    2.72    0.13
  -3   3  -8    2.59    0.40
  -3   3  -8    2.86    0.15
   3   3   8    2.83    0.16
   3   3   8    2.80    0.15
  -3   3  -8    2.56    0.22
   3   3   8    2.57    0.13
   3   3   8    3.06    0.19
   4  -3   8    1.49    0.10
   4  -3   8    1.50    0.11
   4   3   8    1.57    0.14
  -4   3  -8    0.98    0.32
   4   3   8    1.39    0.10
  -4   3  -8    1.33    0.20
  -4   3  -8    1.55    0.11
   4   3   8    1.39    0.12
  -5  -3  -8    0.95    0.18
  -5  -3  -8    0.44    0.12
   5  -3   8    0.51    0.10
  -5   3  -8    0.52    0.08
   5   3   8    0.31    0.08
  -5   3  -8    0.68    0.17
   6  -4  -8    5.54    0.25
  -6  -4   8    5.06    0.33
  -6  -4   8    4.85    0.28
  -6   4   8    4.98    0.30
  -6   4   8    4.94    0.31
  -6   4   8    5.34    0.21
   5  -4  -8    0.03    0.04
   5  -4  -8    0.16    0.05
  -5  -4   8    0.15    0.08
  -5  -4   8    0.10    0.06
   5  -4  -8    0.06    0.04
   5   4  -8    0.17    0.04
  -5   4   8    0.10    0.04
  -5   4   8    0.01    0.06
  -5   4   8    0.04    0.06
   4  -4  -8    6.97    0.27
  -4  -4   8    7.26    0.31
  -4  -4   8    6.72    0.30
  -4  -4   8    6.81    0.29
   4  -4  -8    6.97    0.27
   4  -4  -8    6.65    0.27
  -4  -4   8    6.90    0.33
   4   4  -8    6.39    0.23
  -4   4   8    6.81    0.26
  -4   4   8    6.51    0.33
  -3  -4   8   12.14    0.43
  -3  -4   8   12.28    0.47
  -3  -4   8   12.07    0.44
  -3  -4   8   12.22    0.38
   3  -4  -8   12.99    0.43
   3  -4  -8   12.43    0.42
  -3  -4   8   12.68    0.46
   3  -4  -8   11.99    0.41
   3   4  -8   12.41    0.62
  -3   4   8   12.84    0.50
   3   4  -8   12.83    0.42
  -3   4   8   12.25    0.42
   3   4  -8   11.71    0.39
   3   4  -8   12.50    0.38
  -2  -4   8    3.50    0.19
   2  -4  -8    2.88    0.14
   2  -4  -8    3.14    0.16
   2  -4  -8    2.95    0.16
  -2  -4   8    3.07    0.16
  -2  -4   8    3.21    0.14
  -2  -4   8    3.28    0.16
   2   4  -8    3.06    0.14
  -2   4   8    3.43    0.21
  -2   4   8    3.38    0.12
   2   4  -8    2.84    0.12
  -2   4   8    3.37    0.16
   2   4  -8    2.92    0.11
   2   4  -8    3.06    0.30
   2   4  -8    2.99    0.11
  -2   4   8    3.47    0.16
   1  -4  -8   35.27    1.12
  -1  -4   8   35.79    1.11
  -1  -4   8   37.40    1.09
   1  -4  -8   37.82    1.07
   1  -4  -8   37.10    1.09
  -1  -4   8   38.33    1.13
   1   4  -8   35.49    1.07
  -1   4   8   36.11    1.15
  -1   4   8   36.88    1.04
   1   4  -8   35.44    1.04
   1   4  -8   37.69    1.05
   1   4  -8   36.92    1.43
  -1   4   8   37.12    1.07
   1   4  -8   36.12    1.05
  -1   4   8   38.12    1.10
   1   4  -8   36.19    1.08
   0  -4  -8   12.06    0.62
   0  -4   8   12.15    0.44
   0  -4  -8   12.64    0.41
   0  -4   8   11.96    0.41
   0   4  -8   12.33    0.73
   0   4   8   12.34    0.38
   0   4   8   12.07    0.39
   0   4   8   11.83    0.39
   0   4   8   12.61    0.43
   0   4   8   11.89    0.37
   0   4   8   11.44    0.40
   0   4  -8   12.16    0.42
   0   4   8   12.05    0.39
   0   4  -8   12.30    0.38
   0   4   8   12.17    0.46
   0   4  -8   12.21    0.43
   1  -4   8    3.04    0.15
   1  -4   8    3.40    0.15
   1  -4   8    3.30    0.18
   1  -4   8    3.35    0.14
  -1  -4  -8    3.24    0.28
   1  -4   8    3.57    0.13
  -1  -4  -8    3.26    0.16
  -1  -4  -8    3.26    0.15
   1   4   8    3.23    0.18
   1   4   8    3.44    0.17
  -1   4  -8    2.90    0.38
  -1   4  -8    3.19    0.19
   1   4   8    3.32    0.14
   1   4   8    3.47    0.15
  -1   4  -8    3.24    0.18
   1   4   8    3.31    0.12
   1   4   8    3.45    0.18
   1   4   8    3.50    0.14
  -1   4  -8    3.18    0.14
   2  -4   8    7.45    0.30
  -2  -4  -8    7.42    0.44
   2  -4   8    6.88    0.28
   2  -4   8    6.81    0.30
  -2  -4  -8    7.25    0.26
   2  -4   8    6.71    0.25
   2  -4   8    7.02    0.30
   2  -4   8    7.11    0.23
  -2   4  -8    5.95    0.59
   2   4   8    7.39    0.31
   2   4   8    7.26    0.25
   2   4   8    7.36    0.29
   2   4   8    7.29    0.28
   2   4   8    6.88    0.24
  -2   4  -8    6.55    0.34
   2   4   8    6.60    0.26
   3  -4   8    0.94    0.13
   3  -4   8    1.10    0.12
  -3  -4  -8    1.04    0.08
   3  -4   8    1.04    0.07
   3  -4   8    0.90    0.08
  -3  -4  -8    1.07    0.17
  -3   4  -8    1.05    0.17
   3   4   8    0.89    0.08
  -3   4  -8    0.60    0.26
   3   4   8    1.12    0.12
   3   4   8    0.95    0.11
   3   4   8    1.05    0.09
   4  -4   8    1.85    0.12
   4  -4   8    1.73    0.11
  -4   4  -8    1.62    0.23
  -4   4  -8    1.36    0.40
   4   4   8    1.82    0.11
  -4   4  -8    1.57    0.12
   4   4   8    1.65    0.13
  -5  -4  -8    0.34    0.12
  -5  -4  -8    0.22    0.10
  -5   4  -8    0.23    0.14
  -6  -5   8    1.77    0.19
   6  -5  -8    1.50    0.15
  -6  -5   8    1.72    0.22
   6   5  -8    1.33    0.10
  -6   5   8    1.57    0.11
  -6   5   8    1.29    0.18
  -5  -5   8   10.96    0.48
  -5  -5   8   10.56    0.43
   5  -5  -8   10.29    0.41
   5  -5  -8   10.95    0.41
  -5   5   8    9.75    0.47
  -5   5   8   10.70    0.38
  -4  -5   8    2.76    0.20
   4  -5  -8    2.77    0.17
  -4  -5   8    2.65    0.12
   4  -5  -8    2.74    0.16
  -4  -5   8    2.61    0.18
  -4  -5   8    2.51    0.18
  -4   5   8    2.96    0.16
  -4   5   8    2.81    0.22
   4   5  -8    2.60    0.14
  -3  -5   8   12.35    0.44
  -3  -5   8   13.19    0.48
   3  -5  -8   12.87    0.45
  -3  -5   8   12.08    0.43
   3  -5  -8   12.31    0.43
  -3  -5   8   12.77    0.41
   3   5  -8   12.39    0.42
  -3   5   8   12.08    0.51
  -3   5   8   11.92    0.44
   3   5  -8   11.87    0.39
   3   5  -8   12.72    0.39
   2  -5  -8   13.67    0.46
  -2  -5   8   13.04    0.45
   2  -5  -8   12.92    0.44
  -2  -5   8   12.71    0.48
   2   5  -8   13.53    0.41
   2   5  -8   12.56    0.72
   2   5  -8   12.77    0.43
   2   5  -8   13.12    0.44
  -2   5   8   13.20    0.40
  -2   5   8   13.21    0.46
  -2   5   8   11.56    0.50
   1  -5  -8    0.25    0.05
   1  -5  -8    0.12    0.04
  -1  -5   8    0.16    0.06
  -1  -5   8    0.23    0.05
  -1   5   8    0.20    0.02
  -1   5   8    0.14    0.05
  -1   5   8    0.16    0.03
   1   5  -8    0.28    0.04
   1   5  -8    0.22    0.04
  -1   5   8    0.05    0.06
   1   5  -8    0.13    0.11
   1   5  -8    0.22    0.06
  -1   5   8    0.17    0.04
   0  -5  -8    7.34    0.28
   0  -5   8    6.89    0.26
   0  -5   8    6.36    0.29
   0   5  -8    7.04    0.24
   0   5   8    6.32    0.31
   0   5  -8    6.60    0.29
   0   5   8    6.91    0.25
   0   5   8    7.12    0.30
   0   5   8    7.00    0.24
   0   5  -8    7.14    0.30
   0   5   8    6.80    0.25
   0   5   8    6.86    0.27
   0   5  -8    6.48    0.56
   0   5   8    6.65    0.24
   0   5   8    6.81    0.23
  -1  -5  -8    9.79    0.55
   1  -5   8    9.96    0.33
   1  -5   8   10.01    0.38
   1  -5   8    9.82    0.31
   1  -5   8    9.77    0.34
   1  -5   8    9.56    0.34
   1   5   8   10.11    0.35
   1   5   8   10.07    0.33
   1   5   8    9.55    0.38
  -1   5  -8    9.60    0.40
  -1   5  -8    9.84    0.33
   1   5   8    9.71    0.32
  -1   5  -8    9.10    0.73
   1   5   8    9.68    0.36
   1   5   8    9.89    0.31
   1   5   8    9.91    0.39
   2  -5   8    1.96    0.15
   2  -5   8    2.30    0.11
   2  -5   8    2.20    0.09
   2  -5   8    2.15    0.15
   2  -5   8    1.72    0.14
   2  -5   8    1.86    0.14
  -2  -5  -8    2.11    0.23
   2   5   8    2.28    0.15
   2   5   8    2.32    0.14
  -2   5  -8    1.66    0.19
   2   5   8    2.12    0.16
   2   5   8    2.12    0.11
  -2   5  -8    1.41    0.39
   2   5   8    2.13    0.12
   3  -5   8    2.42    0.12
   3  -5   8    2.77    0.17
  -3  -5  -8    2.48    0.14
   3  -5   8    2.73    0.14
   3  -5   8    2.39    0.19
  -3   5  -8    1.55    0.41
   3   5   8    2.64    0.15
   3   5   8    2.58    0.16
  -3   5  -8    2.61    0.23
   3   5   8    2.60    0.13
   3   5   8    2.64    0.17
   4  -5   8    2.60    0.14
   4  -5   8    2.57    0.15
   4   5   8    2.79    0.17
  -4   5  -8    2.60    0.30
   4   5   8    2.96    0.19
   4   5   8    2.60    0.16
  -5  -6   8    4.13    0.28
  -5  -6   8    4.52    0.25
   5  -6  -8    4.49    0.25
  -5  -6   8    4.51    0.26
  -5   6   8    4.21    0.22
  -5   6   8    4.26    0.30
   5   6  -8    4.28    0.20
   4  -6  -8    7.35    0.32
   4  -6  -8    7.52    0.31
  -4  -6   8    7.31    0.32
  -4  -6   8    7.14    0.33
  -4  -6   8    7.15    0.34
  -4   6   8    6.97    0.30
   4   6  -8    6.68    0.28
  -4   6   8    6.57    0.37
   3  -6  -8    0.38    0.08
  -3  -6   8    0.46    0.08
   3  -6  -8    0.48    0.08
  -3  -6   8    0.54    0.08
  -3  -6   8    0.50    0.09
  -3   6   8    0.53    0.12
   3   6  -8    0.46    0.06
  -3   6   8    0.55    0.09
   3   6  -8    0.51    0.08
  -2  -6   8   11.62    0.41
   2  -6  -8   11.71    0.43
   2  -6  -8   12.00    0.43
  -2  -6   8   11.23    0.45
  -2   6   8   11.56    0.50
  -2   6   8   11.87    0.38
  -2   6   8   12.14    0.44
   2   6  -8   11.89    0.39
   2   6  -8   11.31    0.43
   1  -6  -8    8.63    0.34
   1  -6  -8    8.39    0.34
  -1  -6   8    8.65    0.36
  -1  -6   8    8.32    0.32
   1   6  -8    8.96    0.36
  -1   6   8    8.65    0.40
  -1   6   8    9.09    0.30
  -1   6   8    8.72    0.27
   1   6  -8    8.99    0.31
  -1   6   8    8.60    0.28
  -1   6   8    8.91    0.36
   0  -6   8    5.54    0.23
   0  -6   8    5.58    0.27
   0   6   8    5.58    0.27
   0   6   8    5.34    0.22
   0   6  -8    5.86    0.28
   0   6   8    5.26    0.24
   0   6   8    5.47    0.22
   0   6   8    5.59    0.22
   0   6   8    5.12    0.28
   1  -6   8    0.96    0.08
   1  -6   8    1.18    0.07
   1  -6   8    1.14    0.08
   1  -6   8    1.17    0.13
   1  -6   8    1.20    0.09
  -1  -6  -8    1.16    0.19
   1  -6   8    1.17    0.09
   1   6   8    1.22    0.07
   1   6   8    1.22    0.12
  -1   6  -8    1.04    0.16
   1   6   8    1.17    0.09
   1   6   8    1.24    0.10
  -1   6  -8    0.74    0.28
   1   6   8    1.29    0.14
  -2  -6  -8    4.78    0.36
   2  -6   8    4.45    0.23
   2  -6   8    5.34    0.30
   2  -6   8    4.61    0.19
   2  -6   8    4.30    0.23
   2  -6   8    4.69    0.16
   2   6   8    4.59    0.18
   2   6   8    4.80    0.24
  -2   6  -8    4.34    0.28
   2   6   8    4.96    0.21
  -2   6  -8    3.84    0.55
   2   6   8    4.90    0.23
   3  -6   8    1.50    0.15
  -3  -6  -8    1.87    0.13
   3  -6   8    1.75    0.10
   3  -6   8    1.77    0.11
   3  -6   8    1.91    0.15
   3   6   8    2.10    0.15
  -3   6  -8    1.65    0.22
   3   6   8    1.74    0.12
   3   6   8    1.62    0.17
   3   6   8    1.80    0.11
  -4   6  -8    0.03    0.09
  -4   6  -8   -0.10    0.10
   4   6   8    0.10    0.05
   4  -7  -8    2.66    0.19
  -4  -7   8    2.54    0.19
  -4  -7   8    2.55    0.17
   4  -7  -8    2.41    0.17
  -4   7   8    2.58    0.27
   4   7  -8    2.47    0.18
  -4   7   8    2.56    0.18
  -3  -7   8   10.26    0.39
   3  -7  -8   10.52    0.42
  -3  -7   8   10.28    0.43
   3  -7  -8   10.34    0.41
   3   7  -8   10.71    0.42
  -3   7   8   10.76    0.42
   3   7  -8    9.71    0.41
  -3   7   8    9.77    0.48
  -2  -7   8    1.70    0.15
   2  -7  -8    1.74    0.14
   2  -7  -8    1.97    0.17
   2   7  -8    1.89    0.12
  -2   7   8    1.55    0.10
  -2   7   8    1.84    0.15
   2   7  -8    1.52    0.16
  -2   7   8    1.45    0.18
  -1  -7   8    4.17    0.23
  -1  -7   8    3.83    0.19
  -1   7   8    4.09    0.16
   1   7  -8    4.07    0.19
   1   7  -8    3.79    0.23
  -1   7   8    4.33    0.27
   1   7  -8    3.39    0.46
  -1   7   8    4.17    0.17
   1   7  -8    3.95    0.24
  -1   7   8    4.37    0.24
  -1   7   8    4.12    0.18
   0  -7   8    7.62    0.33
   0  -7   8    7.24    0.28
   0   7   8    7.23    0.33
   0   7   8    6.84    0.27
   0   7   8    7.28    0.28
   0   7   8    6.93    0.31
   0   7   8    7.49    0.28
   0   7  -8    6.13    0.65
   0   7  -8    6.63    0.35
   0   7   8    7.13    0.35
   1  -7   8    3.57    0.21
   1  -7   8    3.73    0.14
   1  -7   8    3.60    0.16
   1  -7   8    3.49    0.16
  -1  -7  -8    3.79    0.35
   1  -7   8    3.87    0.18
   1   7   8    3.76    0.24
   1   7   8    3.52    0.23
   1   7   8    3.75    0.20
  -1   7  -8    3.55    0.26
   1   7   8    3.66    0.18
  -1   7  -8    3.41    0.52
   1   7   8    3.75    0.18
   2  -7   8    0.50    0.09
   2  -7   8    0.50    0.06
   2  -7   8    0.37    0.09
   2   7   8    0.49    0.07
  -2   7  -8    0.60    0.14
   2   7   8    0.63    0.07
   2   7   8    0.41    0.09
   2   7   8    0.52    0.08
   3  -7   8    0.37    0.09
  -3  -7  -8    0.32    0.07
   3  -7   8    0.35    0.08
   3  -7   8    0.36    0.05
   3   7   8    0.22    0.07
  -3   7  -8    0.49    0.15
   3   7   8    0.29    0.09
   3   7   8    0.40    0.08
  -3   7  -8    0.36    0.12
   3  -8  -8    2.37    0.19
  -3  -8   8    2.04    0.18
  -3   8   8    1.94    0.23
   3   8  -8    2.31    0.19
  -3   8   8    2.28    0.18
  -2  -8   8    2.81    0.21
   2  -8  -8    2.75    0.20
   2   8  -8    2.99    0.16
  -2   8   8    2.85    0.20
  -2   8   8    2.43    0.26
   2   8  -8    2.63    0.21
  -1  -8   8    5.47    0.29
  -1   8   8    4.86    0.22
  -1   8   8    5.12    0.32
  -1   8   8    5.41    0.21
  -1   8   8    5.49    0.29
   1   8  -8    5.33    0.23
   0  -8   8    0.44    0.09
   0   8   8    0.57    0.08
   0   8  -8    0.62    0.13
   0   8  -8    0.43    0.25
   0   8   8    0.53    0.08
   0   8   8    0.58    0.12
   0   8   8    0.58    0.12
   1  -8   8    2.09    0.10
   1  -8   8    2.00    0.17
   1   8   8    2.01    0.14
   1   8   8    2.00    0.13
  -1   8  -8    2.04    0.23
   1   8   8    2.11    0.16
   1   8   8    1.94    0.20
   2  -8   8    2.28    0.16
   2  -8   8    3.13    0.21
   2  -8   8    3.27    0.22
   2   8   8    2.48    0.19
   2   8   8    2.95    0.18
  -2   8  -8    2.45    0.28
  -2  -9   8    2.84    0.22
  -2   9   8    3.41    0.23
   2   9  -8    3.39    0.18
  -1  -9   8    1.84    0.18
   1   9  -8    2.23    0.15
  -1   9   8    1.93    0.22
  -1   9   8    2.23    0.22
  -1   9   8    2.03    0.14
   0  -9   8    5.11    0.29
   0   9   8    4.50    0.30
   0   9   8    4.72    0.23
  -1  -9  -8    0.87    0.14
   1  -9   8    1.13    0.15
  -1   9  -8    0.90    0.18
   1   9   8    0.93    0.11
   6   0  -9    0.01    0.02
   6   0  -9    0.05    0.05
  -6   0   9    0.03    0.06
  -6   0   9   -0.04    0.07
   6   0  -9   -0.01    0.01
  -5   0   9    0.04    0.07
   5   0  -9    0.05    0.04
   5   0  -9   -0.02    0.05
  -5   0   9   -0.03    0.04
  -4   0   9   -0.01    0.04
  -4   0   9   -0.05    0.03
  -4   0   9    0.02    0.06
   4   0  -9    0.00    0.03
   4   0  -9    0.00    0.05
  -3   0   9   -0.02    0.03
   3   0  -9   -0.01    0.02
   3   0  -9    0.03    0.05
   2   0  -9   -0.01    0.04
   2   0  -9    0.00    0.01
  -2   0   9   -0.02    0.03
  -2   0   9    0.00    0.01
   2   0  -9    0.00    0.02
   2   0  -9   -0.01    0.02
  -2   0   9    0.00    0.02
   1   0  -9    0.01    0.02
   1   0  -9    0.01    0.01
   1   0  -9    0.01    0.05
   1   0  -9   -0.01    0.02
  -1   0   9    0.02    0.03
  -1   0   9    0.01    0.02
   1   0  -9   -0.02    0.02
   1   0  -9    0.00    0.01
   1   0  -9    0.00    0.02
   0   0  -9    0.00    0.02
   0   0  -9    0.03    0.03
   0   0   9   -0.01    0.02
   0   0  -9    0.00    0.02
   0   0   9   -0.01    0.02
   0   0  -9    0.01    0.03
   0   0  -9    0.01    0.02
   0   0  -9    0.00    0.05
   1   0   9    0.02    0.02
   1   0   9    0.00    0.02
  -1   0  -9    0.01    0.02
   1   0   9    0.00    0.02
   1   0   9    0.01    0.01
   1   0   9    0.00    0.02
   1   0   9    0.02    0.02
  -1   0  -9    0.04    0.06
   2   0   9    0.00    0.01
   2   0   9   -0.01    0.02
   2   0   9    0.02    0.03
  -2   0  -9    0.01    0.02
   2   0   9   -0.02    0.02
  -2   0  -9   -0.02    0.05
  -3   0  -9    0.00    0.02
   3   0   9    0.04    0.03
   3   0   9    0.00    0.02
  -3   0  -9   -0.02    0.07
  -3   0  -9   -0.02    0.05
   3   0   9   -0.02    0.03
  -4   0  -9    0.10    0.09
   4   0   9   -0.03    0.02
  -4   0  -9    0.04    0.03
   4   0   9    0.01    0.04
   4   0   9    0.04    0.04
  -4   0  -9   -0.02    0.09
  -5   0  -9   -0.04    0.09
  -5   0  -9   -0.02    0.03
   5   0   9   -0.04    0.05
  -6  -1   9    1.16    0.14
  -6  -1   9    1.24    0.18
   6  -1  -9    1.13    0.06
   6  -1  -9    0.99    0.08
   6  -1  -9    0.95    0.12
   6   1  -9    1.18    0.15
   6   1  -9    1.03    0.06
   6   1  -9    1.14    0.05
  -6   1   9    1.01    0.16
  -6   1   9    1.32    0.15
   5  -1  -9    1.40    0.20
  -5  -1   9    1.42    0.18
   5  -1  -9    1.34    0.12
  -5  -1   9    1.40    0.16
   5  -1  -9    1.43    0.08
   5   1  -9    1.55    0.13
  -5   1   9    1.43    0.18
  -5   1   9    1.31    0.14
  -5   1   9    1.60    0.16
  -4  -1   9    0.43    0.08
  -4  -1   9    0.34    0.08
   4  -1  -9    0.43    0.13
  -4  -1   9    0.41    0.10
   4  -1  -9    0.42    0.04
   4  -1  -9    0.46    0.07
  -4   1   9    0.33    0.07
   4   1  -9    0.38    0.11
  -4   1   9    0.34    0.09
   4   1  -9    0.44    0.08
  -4   1   9    0.31    0.07
   3  -1  -9    1.77    0.21
  -3  -1   9    1.65    0.12
  -3  -1   9    1.67    0.12
   3  -1  -9    1.85    0.08
   3  -1  -9    1.60    0.10
  -3   1   9    1.60    0.12
  -3   1   9    1.66    0.07
   3   1  -9    1.83    0.11
  -3   1   9    1.68    0.13
  -3   1   9    1.67    0.08
   3   1  -9    1.70    0.19
   2  -1  -9   15.53    0.45
   2  -1  -9   14.90    0.70
  -2  -1   9   15.10    0.51
   2  -1  -9   15.87    0.46
  -2  -1   9   15.19    0.45
   2  -1  -9   15.27    0.46
  -2   1   9   15.62    0.46
  -2   1   9   15.23    0.51
   2   1  -9   14.71    0.67
   2   1  -9   15.37    0.45
   2   1  -9   15.01    0.44
  -2   1   9   14.76    0.45
   1  -1  -9    3.00    0.13
  -1  -1   9    2.70    0.12
   1  -1  -9    2.88    0.26
  -1  -1   9    2.70    0.14
   1  -1  -9    2.86    0.11
   1  -1  -9    2.72    0.12
   1  -1  -9    2.79    0.09
   1  -1  -9    2.80    0.12
   1  -1  -9    2.61    0.12
   1   1  -9    2.76    0.10
  -1   1   9    2.75    0.13
   1   1  -9    2.69    0.12
   1   1  -9    2.78    0.11
   1   1  -9    2.70    0.11
   1   1  -9    2.49    0.11
   1   1  -9    2.75    0.11
   1   1  -9    2.75    0.25
  -1   1   9    2.71    0.12
  -1   1   9    2.74    0.14
   0  -1  -9    1.13    0.08
   0  -1   9    1.12    0.09
   0  -1  -9    1.10    0.07
   0  -1  -9    1.17    0.17
   0  -1  -9    1.14    0.09
   0  -1   9    1.05    0.09
   0  -1  -9    1.11    0.10
   0  -1  -9    1.12    0.08
   0   1  -9    1.12    0.08
   0   1   9    1.15    0.05
   0   1  -9    1.16    0.07
   0   1  -9    1.01    0.07
   0   1   9    1.29    0.09
   0   1  -9    1.10    0.09
   0   1   9    1.16    0.09
   0   1  -9    1.21    0.18
   1  -1   9    1.02    0.08
  -1  -1  -9    0.99    0.07
   1  -1   9    0.93    0.06
   1  -1   9    0.94    0.06
   1  -1   9    0.90    0.07
   1  -1   9    0.91    0.05
  -1  -1  -9    0.97    0.16
   1  -1   9    0.90    0.07
  -1   1  -9    1.05    0.19
   1   1   9    0.96    0.07
   1   1   9    0.93    0.08
   1   1   9    1.04    0.07
  -1   1  -9    0.98    0.10
   1   1   9    1.03    0.08
  -1   1  -9    0.90    0.07
   1   1   9    0.94    0.05
  -2  -1  -9    0.01    0.02
  -2  -1  -9    0.12    0.09
   2  -1   9    0.00    0.03
   2  -1   9    0.03    0.02
   2  -1   9    0.05    0.04
   2  -1   9    0.08    0.03
   2  -1   9    0.05    0.03
  -2  -1  -9    0.07    0.03
   2   1   9    0.04    0.02
  -2   1  -9    0.01    0.05
  -2   1  -9    0.10    0.10
   2   1   9    0.06    0.02
  -2   1  -9    0.04    0.02
   2   1   9    0.04    0.03
   2   1   9    0.04    0.03
   3  -1   9    0.75    0.06
  -3  -1  -9    0.72    0.08
   3  -1   9    0.77    0.08
  -3  -1  -9    0.98    0.24
   3  -1   9    0.82    0.09
  -3   1  -9    0.74    0.23
   3   1   9    1.01    0.10
  -3   1  -9    0.60    0.13
   3   1   9    0.86    0.07
   3   1   9    0.88    0.10
   4  -1   9    1.05    0.11
   4  -1   9    0.87    0.08
   4  -1   9    1.05    0.12
  -4  -1  -9    0.98    0.26
  -4  -1  -9    0.95    0.17
  -4  -1  -9    0.89    0.09
  -4   1  -9    0.86    0.17
   4   1   9    1.00    0.11
  -4   1  -9    0.98    0.10
   4   1   9    0.94    0.08
   4   1   9    0.80    0.10
  -4   1  -9    0.84    0.28
   5  -1   9    0.77    0.13
  -5  -1  -9    0.85    0.09
  -5  -1  -9    0.84    0.18
  -5   1  -9    0.97    0.11
   5   1   9    0.98    0.13
  -5   1  -9    0.89    0.19
  -6  -2   9    1.00    0.17
   6  -2  -9    1.03    0.12
   6  -2  -9    0.99    0.10
  -6  -2   9    0.87    0.14
  -6   2   9    0.62    0.10
   6   2  -9    0.89    0.20
  -6   2   9    0.79    0.15
   5  -2  -9    1.90    0.11
   5  -2  -9    1.89    0.14
  -5  -2   9    2.22    0.20
  -5  -2   9    1.65    0.17
   5   2  -9    2.08    0.16
  -5   2   9    2.12    0.19
  -5   2   9    1.64    0.14
  -5   2   9    2.05    0.16
   4  -2  -9    2.26    0.14
  -4  -2   9    2.54    0.20
  -4  -2   9    2.52    0.16
  -4  -2   9    2.76    0.17
   4  -2  -9    2.46    0.12
  -4   2   9    2.65    0.09
  -4   2   9    2.59    0.19
   4   2  -9    2.58    0.23
  -4   2   9    2.46    0.10
  -4   2   9    2.24    0.17
  -3  -2   9    2.09    0.14
   3  -2  -9    1.93    0.11
  -3  -2   9    2.13    0.14
   3  -2  -9    1.82    0.10
  -3   2   9    1.88    0.10
   3   2  -9    2.13    0.21
  -3   2   9    1.95    0.08
  -3   2   9    2.15    0.14
  -3   2   9    2.07    0.15
   2  -2  -9   12.34    0.64
   2  -2  -9   13.21    0.42
  -2  -2   9   13.39    0.45
   2  -2  -9   13.30    0.39
  -2  -2   9   12.70    0.40
   2  -2  -9   12.94    0.40
  -2   2   9   13.22    0.42
   2   2  -9   13.31    0.40
  -2   2   9   13.11    0.45
   2   2  -9   13.76    0.39
   2   2  -9   13.29    0.62
  -2   2   9   13.37    0.40
  -2   2   9   12.85    0.48
  -1  -2   9    0.13    0.03
   1  -2  -9    0.06    0.06
  -1  -2   9    0.04    0.03
   1  -2  -9    0.10    0.02
   1  -2  -9    0.08    0.04
   1  -2  -9    0.06    0.03
   1   2  -9    0.04    0.06
   1   2  -9    0.11    0.02
   1   2  -9    0.09    0.03
   1   2  -9    0.12    0.03
  -1   2   9    0.03    0.02
  -1   2   9    0.13    0.02
  -1   2   9    0.10    0.03
   1   2  -9    0.12    0.03
  -1   2   9    0.07    0.03
   0  -2  -9    1.23    0.18
   0  -2  -9    1.35    0.10
   0  -2  -9    1.43    0.09
   0   2   9    1.27    0.09
   0   2   9    1.33    0.07
   0   2  -9    1.32    0.08
   0   2  -9    1.50    0.21
   0   2   9    1.38    0.09
   0   2  -9    1.40    0.08
   0   2  -9    1.24    0.08
   0   2  -9    1.25    0.10
   0   2   9    1.35    0.06
   1  -2   9    0.68    0.05
   1  -2   9    0.73    0.05
   1  -2   9    0.64    0.05
  -1  -2  -9    0.71    0.16
  -1  -2  -9    0.76    0.07
   1  -2   9    0.68    0.06
   1  -2   9    0.65    0.06
  -1   2  -9    0.72    0.09
   1   2   9    0.66    0.08
   1   2   9    0.64    0.07
   1   2   9    0.70    0.06
   1   2   9    0.70    0.03
  -1   2  -9    0.43    0.08
  -1   2  -9    0.67    0.19
   1   2   9    0.63    0.08
  -1   2  -9    0.78    0.06
   1   2   9    0.65    0.05
   1   2   9    0.60    0.07
   2  -2   9    0.29    0.05
  -2  -2  -9    0.26    0.11
   2  -2   9    0.23    0.06
   2  -2   9    0.22    0.06
   2  -2   9    0.26    0.03
   2  -2   9    0.36    0.05
  -2   2  -9    0.26    0.14
  -2   2  -9    0.20    0.07
   2   2   9    0.22    0.06
   2   2   9    0.27    0.06
   2   2   9    0.24    0.04
   2   2   9    0.34    0.05
  -2   2  -9    0.22    0.04
   2   2   9    0.28    0.06
   3  -2   9    1.10    0.11
   3  -2   9    1.02    0.10
  -3  -2  -9    0.84    0.09
   3  -2   9    0.88    0.13
  -3  -2  -9    1.11    0.20
   3  -2   9    0.94    0.07
   3   2   9    0.93    0.10
   3   2   9    1.05    0.12
   3   2   9    1.01    0.07
   3   2   9    1.03    0.09
  -3   2  -9    0.63    0.22
  -3   2  -9    0.85    0.15
   4  -2   9    0.27    0.06
   4  -2   9    0.28    0.07
  -4  -2  -9    0.35    0.12
  -4  -2  -9    0.28    0.06
   4  -2   9    0.29    0.05
  -4   2  -9    0.25    0.18
  -4   2  -9    0.22    0.11
   4   2   9    0.34    0.07
   4   2   9    0.23    0.06
   4   2   9    0.25    0.05
  -5  -2  -9    0.57    0.16
  -5   2  -9    0.73    0.09
  -5   2  -9    0.80    0.18
   5   2   9    0.85    0.11
  -6  -3   9    0.14    0.08
  -6  -3   9    0.39    0.10
   6  -3  -9    0.22    0.05
   6  -3  -9    0.18    0.05
   6   3  -9    0.15    0.03
  -6   3   9    0.14    0.03
  -6   3   9    0.19    0.03
  -6   3   9    0.14    0.09
   5  -3  -9    0.99    0.07
   5  -3  -9    1.04    0.11
   5  -3  -9    1.04    0.10
  -5  -3   9    0.74    0.14
  -5  -3   9    1.02    0.14
  -5   3   9    1.05    0.07
  -5   3   9    1.09    0.15
   5   3  -9    1.04    0.06
  -5   3   9    0.98    0.06
  -5   3   9    1.26    0.15
  -4  -3   9    1.34    0.14
   4  -3  -9    1.73    0.11
  -4  -3   9    1.49    0.12
  -4  -3   9    1.32    0.16
   4  -3  -9    1.43    0.10
  -4   3   9    1.51    0.08
  -4   3   9    1.37    0.15
  -4   3   9    1.47    0.09
   4   3  -9    1.41    0.07
   4   3  -9    1.42    0.06
   3  -3  -9    0.15    0.04
  -3  -3   9    0.18    0.05
   3  -3  -9    0.23    0.04
   3  -3  -9    0.23    0.04
  -3  -3   9    0.21    0.06
  -3  -3   9    0.23    0.03
  -3   3   9    0.16    0.04
  -3   3   9    0.12    0.05
   3   3  -9    0.24    0.10
  -3   3   9    0.19    0.03
   3   3  -9    0.21    0.02
  -3   3   9    0.18    0.07
   3   3  -9    0.18    0.03
   2  -3  -9    2.54    0.13
   2  -3  -9    2.63    0.13
  -2  -3   9    2.45    0.11
   2  -3  -9    2.63    0.12
  -2  -3   9    2.54    0.15
  -2  -3   9    2.87    0.17
  -2   3   9    2.58    0.14
   2   3  -9    2.70    0.26
  -2   3   9    2.53    0.18
   2   3  -9    2.40    0.12
   2   3  -9    2.63    0.10
  -2   3   9    2.49    0.14
   1  -3  -9    4.14    0.35
   1  -3  -9    4.61    0.20
  -1  -3   9    4.34    0.18
   1  -3  -9    4.44    0.19
  -1  -3   9    4.39    0.22
   1  -3  -9    4.55    0.16
  -1  -3   9    4.17    0.20
  -1   3   9    4.31    0.23
  -1   3   9    4.39    0.19
   1   3  -9    4.30    0.16
   1   3  -9    4.30    0.18
   1   3  -9    4.31    0.18
   1   3  -9    4.24    0.16
  -1   3   9    4.42    0.19
   1   3  -9    4.56    0.37
  -1   3   9    4.32    0.15
   1   3  -9    4.11    0.18
   0  -3  -9    6.19    0.42
   0  -3   9    6.42    0.28
   0  -3   9    5.75    0.25
   0  -3  -9    6.42    0.24
   0   3   9    6.36    0.26
   0   3  -9    6.04    0.22
   0   3   9    6.28    0.20
   0   3   9    6.44    0.22
   0   3   9    6.41    0.24
   0   3   9    6.26    0.20
   0   3   9    6.58    0.21
   0   3  -9    5.98    0.22
   0   3  -9    6.02    0.26
   0   3  -9    5.98    0.46
   0   3  -9    6.40    0.26
   1  -3   9    2.11    0.09
  -1  -3  -9    2.16    0.24
   1  -3   9    2.30    0.15
   1  -3   9    2.10    0.10
  -1  -3  -9    2.19    0.12
   1  -3   9    1.85    0.10
   1  -3   9    2.01    0.10
   1   3   9    2.12    0.12
   1   3   9    2.24    0.10
   1   3   9    1.90    0.11
  -1   3  -9    1.88    0.30
  -1   3  -9    2.01    0.14
  -1   3  -9    1.91    0.16
   1   3   9    2.00    0.11
   1   3   9    2.19    0.08
   1   3   9    1.98    0.13
   1   3   9    2.12    0.14
  -1   3  -9    2.04    0.10
   1   3   9    2.10    0.11
   2  -3   9    0.37    0.07
  -2  -3  -9    0.44    0.13
   2  -3   9    0.28    0.07
   2  -3   9    0.43    0.04
   2  -3   9    0.43    0.06
  -2   3  -9    0.38    0.05
   2   3   9    0.45    0.05
   2   3   9    0.43    0.06
   2   3   9    0.39    0.08
  -2   3  -9    0.23    0.08
   2   3   9    0.39    0.05
   2   3   9    0.48    0.07
  -2   3  -9    0.52    0.20
   3  -3   9    0.87    0.07
  -3  -3  -9    0.99    0.10
   3  -3   9    1.02    0.09
  -3  -3  -9    1.18    0.20
   3  -3   9    0.85    0.12
  -3   3  -9    1.01    0.16
   3   3   9    1.00    0.11
  -3   3  -9    0.77    0.27
   3   3   9    0.98    0.08
   3   3   9    0.99    0.10
   4  -3   9    0.25    0.06
  -4  -3  -9    0.23    0.05
   4  -3   9    0.15    0.04
  -4   3  -9    0.09    0.08
   4   3   9    0.16    0.05
   4   3   9    0.32    0.08
  -4   3  -9    0.12    0.17
   4   3   9    0.17    0.05
  -6  -4   9    0.17    0.08
  -6  -4   9    0.23    0.10
   6  -4  -9    0.19    0.06
  -6   4   9    0.13    0.04
  -6   4   9    0.15    0.09
  -5  -4   9    1.29    0.18
   5  -4  -9    1.26    0.11
   5  -4  -9    1.21    0.12
  -5  -4   9    0.96    0.14
  -5   4   9    1.07    0.08
  -5   4   9    1.33    0.17
   5   4  -9    1.20    0.08
  -4  -4   9    1.26    0.13
  -4  -4   9    1.12    0.15
   4  -4  -9    1.29    0.10
  -4  -4   9    1.32    0.14
   4  -4  -9    1.24    0.11
   4  -4  -9    1.23    0.12
   4   4  -9    1.20    0.08
  -4   4   9    1.13    0.09
  -4   4   9    1.45    0.17
  -3  -4   9    0.47    0.08
   3  -4  -9    0.46    0.07
   3  -4  -9    0.49    0.07
   3  -4  -9    0.54    0.07
  -3  -4   9    0.41    0.07
  -3  -4   9    0.49    0.05
  -3  -4   9    0.44    0.08
   3   4  -9    0.52    0.15
  -3   4   9    0.35    0.06
  -3   4   9    0.31    0.09
   3   4  -9    0.44    0.04
   3   4  -9    0.59    0.06
   2  -4  -9    0.23    0.04
   2  -4  -9    0.20    0.06
   2  -4  -9    0.22    0.05
  -2  -4   9    0.19    0.05
  -2  -4   9    0.17    0.04
  -2  -4   9    0.27    0.07
  -2   4   9    0.25    0.06
   2   4  -9    0.14    0.04
   2   4  -9    0.22    0.04
  -2   4   9    0.25    0.08
  -2   4   9    0.25    0.05
   2   4  -9    0.19    0.04
   2   4  -9    0.26    0.12
   2   4  -9    0.20    0.03
   2   4  -9    0.20    0.03
   1  -4  -9    1.72    0.10
  -1  -4   9    1.62    0.14
   1  -4  -9    1.87    0.12
  -1  -4   9    1.50    0.11
  -1   4   9    1.72    0.11
  -1   4   9    1.98    0.17
   1   4  -9    1.88    0.09
   1   4  -9    2.07    0.20
  -1   4   9    1.80    0.13
  -1   4   9    1.75    0.08
   1   4  -9    1.81    0.09
   1   4  -9    1.82    0.26
   1   4  -9    1.64    0.12
   0  -4   9    4.00    0.18
   0  -4  -9    3.65    0.32
   0  -4   9    3.76    0.21
   0  -4  -9    3.95    0.18
   0   4   9    3.85    0.20
   0   4  -9    3.51    0.39
   0   4   9    4.03    0.17
   0   4  -9    3.48    0.19
   0   4  -9    3.97    0.20
   0   4   9    3.90    0.14
   0   4   9    3.51    0.15
   0   4   9    4.00    0.15
   0   4   9    3.96    0.15
   0   4  -9    3.87    0.15
   0   4   9    3.80    0.16
  -1  -4  -9    0.11    0.04
   1  -4   9    0.09    0.03
   1  -4   9    0.10    0.03
   1  -4   9    0.12    0.03
   1  -4   9    0.11    0.03
   1  -4   9    0.14    0.04
  -1  -4  -9    0.14    0.09
   1  -4   9    0.12    0.05
   1   4   9    0.07    0.04
   1   4   9    0.09    0.02
   1   4   9    0.10    0.05
   1   4   9    0.07    0.03
   1   4   9    0.11    0.05
  -1   4  -9    0.10    0.03
  -1   4  -9    0.10    0.05
  -1   4  -9    0.08    0.06
   1   4   9    0.09    0.03
  -1   4  -9    0.06    0.11
   1   4   9    0.10    0.03
   2  -4   9    0.75    0.05
   2  -4   9    0.98    0.11
   2  -4   9    0.64    0.09
   2  -4   9    0.85    0.07
   2  -4   9    0.73    0.10
  -2  -4  -9    0.85    0.19
   2   4   9    0.64    0.10
  -2   4  -9    0.73    0.13
   2   4   9    0.90    0.08
  -2   4  -9    0.98    0.31
   2   4   9    0.76    0.06
   2   4   9    0.92    0.08
   2   4   9    0.73    0.10
   2   4   9    0.71    0.09
   3  -4   9    0.40    0.05
   3  -4   9    0.53    0.10
  -3  -4  -9    0.37    0.14
   3  -4   9    0.39    0.06
  -3   4  -9    0.32    0.11
  -3   4  -9    0.40    0.22
   3   4   9    0.37    0.05
   3   4   9    0.48    0.09
   3   4   9    0.37    0.06
   3   4   9    0.35    0.07
   3   4   9    0.42    0.06
   4  -4   9    0.39    0.07
   4  -4   9    0.48    0.06
  -4   4  -9    0.37    0.13
   4   4   9    0.44    0.09
   4   4   9    0.48    0.08
   4   4   9    0.57    0.08
  -5  -5   9    1.77    0.18
   5  -5  -9    1.40    0.12
  -5  -5   9    1.72    0.20
   5  -5  -9    1.61    0.15
  -5   5   9    1.70    0.12
  -5   5   9    1.30    0.18
  -4  -5   9    0.89    0.06
  -4  -5   9    0.88    0.11
  -4  -5   9    0.93    0.14
  -4  -5   9    0.85    0.11
   4  -5  -9    0.91    0.10
  -4  -5   9    0.92    0.13
   4  -5  -9    0.79    0.10
  -4   5   9    1.00    0.16
   4   5  -9    0.78    0.09
  -4   5   9    0.98    0.10
  -3  -5   9    1.71    0.13
   3  -5  -9    1.78    0.13
   3  -5  -9    1.97    0.12
  -3  -5   9    1.81    0.13
  -3  -5   9    1.85    0.15
  -3   5   9    1.70    0.13
  -3   5   9    1.90    0.21
   3   5  -9    1.92    0.12
   3   5  -9    1.83    0.11
  -2  -5   9    0.56    0.08
   2  -5  -9    0.70    0.09
   2  -5  -9    0.61    0.08
  -2  -5   9    0.58    0.10
  -2   5   9    0.50    0.08
  -2   5   9    0.51    0.10
   2   5  -9    0.61    0.19
   2   5  -9    0.69    0.06
   2   5  -9    0.59    0.08
  -1  -5   9    0.73    0.11
   1  -5  -9    0.93    0.10
   1  -5  -9    0.89    0.10
  -1  -5   9    0.87    0.09
  -1   5   9    0.58    0.11
   1   5  -9    0.97    0.11
   1   5  -9    1.08    0.27
  -1   5   9    0.97    0.08
  -1   5   9    0.85    0.10
  -1   5   9    0.91    0.06
   1   5  -9    0.86    0.06
   0  -5   9    0.05    0.05
   0  -5  -9    0.14    0.05
   0  -5  -9    0.09    0.08
   0  -5   9    0.06    0.04
   0   5   9    0.13    0.04
   0   5   9    0.08    0.04
   0   5   9    0.11    0.04
   0   5   9    0.09    0.06
   0   5   9    0.08    0.04
   0   5   9    0.10    0.03
   0   5   9    0.13    0.04
   0   5  -9    0.03    0.02
   0   5  -9    0.09    0.05
   0   5  -9    0.01    0.10
   0   5   9    0.08    0.03
   1  -5   9    0.05    0.04
   1  -5   9    0.06    0.03
   1  -5   9   -0.02    0.04
   1  -5   9    0.08    0.02
  -1  -5  -9    0.05    0.07
  -1   5  -9   -0.02    0.05
   1   5   9    0.10    0.05
   1   5   9    0.08    0.04
   1   5   9    0.06    0.02
   1   5   9    0.00    0.03
  -1   5  -9    0.03    0.02
   1   5   9    0.06    0.04
   1   5   9    0.06    0.03
   1   5   9    0.07    0.05
  -1   5  -9    0.02    0.11
   2  -5   9    1.65    0.10
   2  -5   9    1.62    0.13
   2  -5   9    1.60    0.07
  -2  -5  -9    1.64    0.22
   2  -5   9    1.61    0.14
   2  -5   9    1.54    0.12
  -2   5  -9    1.67    0.42
   2   5   9    1.74    0.12
   2   5   9    1.67    0.15
   2   5   9    1.51    0.13
   2   5   9    1.70    0.09
   2   5   9    1.71    0.11
  -2   5  -9    1.74    0.20
   3  -5   9    0.02    0.02
  -3  -5  -9   -0.01    0.03
   3  -5   9    0.03    0.04
   3  -5   9    0.02    0.03
   3  -5   9    0.07    0.05
   3   5   9    0.01    0.03
   3   5   9    0.08    0.05
   3   5   9    0.05    0.05
  -3   5  -9    0.07    0.07
   3   5   9    0.01    0.04
   4   5   9    0.18    0.07
  -4   5  -9    0.23    0.11
   4   5   9    0.29    0.06
  -5  -6   9    0.03    0.05
  -5  -6   9    0.02    0.07
   5  -6  -9    0.04    0.05
  -5   6   9    0.01    0.08
   5   6  -9    0.00    0.04
  -5   6   9    0.02    0.04
  -4  -6   9    0.93    0.12
   4  -6  -9    0.90    0.12
   4  -6  -9    0.70    0.10
  -4  -6   9    0.84    0.13
  -4   6   9    0.55    0.09
  -4   6   9    0.50    0.13
   4   6  -9    0.77    0.10
  -3  -6   9    2.26    0.16
  -3  -6   9    2.77    0.19
  -3  -6   9    2.75    0.16
   3  -6  -9    2.37    0.17
   3  -6  -9    2.59    0.16
  -3   6   9    2.19    0.24
   3   6  -9    2.45    0.16
  -3   6   9    2.56    0.17
  -2  -6   9    0.79    0.10
   2  -6  -9    0.91    0.11
   2  -6  -9    0.72    0.10
  -2  -6   9    0.75    0.11
  -2   6   9    0.95    0.15
   2   6  -9    0.87    0.07
   2   6  -9    0.83    0.25
  -2   6   9    0.94    0.12
   2   6  -9    0.73    0.10
   1  -6  -9    0.71    0.10
  -1  -6   9    0.76    0.09
  -1  -6   9    0.73    0.11
  -1   6   9    0.83    0.11
   1   6  -9    0.78    0.25
  -1   6   9    0.83    0.07
   1   6  -9    0.81    0.11
  -1   6   9    0.95    0.15
   1   6  -9    0.78    0.08
   0  -6   9    1.30    0.10
   0  -6   9    1.16    0.14
   0   6  -9    1.11    0.13
   0   6  -9    0.91    0.28
   0   6   9    0.86    0.13
   0   6   9    1.40    0.15
   0   6   9    0.69    0.09
   0   6   9    0.99    0.08
   0   6   9    0.99    0.08
   0   6   9    1.12    0.09
  -1  -6  -9    2.68    0.30
   1  -6   9    2.69    0.11
   1  -6   9    2.81    0.19
   1  -6   9    2.48    0.15
   1  -6   9    2.65    0.10
   1   6   9    2.65    0.18
   1   6   9    2.55    0.15
   1   6   9    2.77    0.16
   1   6   9    2.56    0.13
   2  -6   9    0.85    0.12
   2  -6   9    1.10    0.11
  -2  -6  -9    1.10    0.24
   2  -6   9    1.00    0.08
   2  -6   9    1.02    0.10
   2   6   9    1.21    0.12
   2   6   9    1.02    0.12
  -2   6  -9    0.77    0.15
   2   6   9    1.05    0.07
  -2   6  -9    1.06    0.52
   2   6   9    0.91    0.10
   3  -6   9    0.34    0.07
  -3  -6  -9    0.34    0.07
   3  -6   9    0.23    0.07
   3  -6   9    0.43    0.09
   3  -6   9    0.35    0.04
   3   6   9    0.42    0.08
  -3   6  -9    0.24    0.12
   3   6   9    0.30    0.06
   3   6   9    0.34    0.08
  -4  -7   9    2.09    0.18
  -4  -7   9    1.85    0.17
   4  -7  -9    2.28    0.18
  -4   7   9    1.96    0.24
   4   7  -9    1.82    0.16
  -4   7   9    2.12    0.16
   3  -7  -9    1.03    0.13
   3  -7  -9    1.32    0.15
  -3  -7   9    1.01    0.14
  -3   7   9    1.00    0.17
   3   7  -9    1.19    0.14
  -3   7   9    1.03    0.13
  -2  -7   9    3.01    0.21
   2  -7  -9    2.76    0.20
  -2   7   9    2.40    0.25
  -2   7   9    3.01    0.20
   2   7  -9    2.46    0.19
  -1  -7   9    0.73    0.09
  -1  -7   9    0.63    0.10
   1   7  -9    0.69    0.08
  -1   7   9    0.52    0.11
   1   7  -9    0.54    0.11
  -1   7   9    0.57    0.11
  -1   7   9    0.73    0.08
   1   7  -9    0.42    0.22
   1   7  -9    0.66    0.12
   0  -7   9    0.18    0.05
   0  -7   9    0.24    0.08
   0   7   9    0.13    0.05
   0   7   9    0.28    0.08
   0   7   9    0.22    0.05
   0   7   9    0.20    0.08
   0   7   9    0.21    0.05
   0   7  -9    0.05    0.14
   1  -7   9    0.24    0.07
   1  -7   9    0.42    0.07
  -1  -7  -9    0.36    0.14
   1   7   9    0.16    0.07
   1   7   9    0.41    0.08
   1   7   9    0.29    0.06
   1   7   9    0.34    0.06
   2  -7   9    1.21    0.11
   2  -7   9    1.41    0.13
   2  -7   9    1.09    0.10
   2  -7   9    1.33    0.16
   2   7   9    1.29    0.10
   2   7   9    1.18    0.12
  -2   7  -9    1.00    0.18
   2   7   9    1.07    0.13
   2   7   9    1.22    0.08
  -3  -7  -9    0.15    0.06
   3  -7   9    0.16    0.08
   3   7   9    0.22    0.07
  -3  -8   9    0.29    0.09
  -3   8   9    0.23    0.08
   3   8  -9    0.15    0.08
  -2  -8   9    3.61    0.24
  -2   8   9    3.64    0.23
  -2   8   9    3.16    0.26
  -1  -8   9    0.69    0.12
  -1   8   9    1.15    0.15
  -1   8   9    0.83    0.15
   1   8  -9    1.10    0.11
   0  -8   9    0.54    0.11
   0   8   9    0.47    0.07
   0   8  -9    0.67    0.15
   0   8   9    0.42    0.11
   0   8   9    0.55    0.12
   1  -8   9    0.28    0.09
   1   8   9    0.18    0.06
   1   8   9    0.18    0.05
  -1   8  -9    0.10    0.10
   2  -8   9    0.28    0.06
   2  -8   9    0.15    0.07
   2   8   9    0.21    0.06
   6   0 -10    0.56    0.04
  -6   0  10    0.86    0.17
   6   0 -10    0.60    0.05
   6   0 -10    0.52    0.10
  -6   0  10    0.54    0.10
  -5   0  10   19.06    0.66
  -5   0  10   18.89    0.73
   5   0 -10   19.44    0.65
   4   0 -10    6.79    0.44
   4   0 -10    6.87    0.28
  -4   0  10    6.89    0.30
  -4   0  10    6.75    0.30
   3   0 -10    8.34    0.49
  -3   0  10    7.45    0.32
   3   0 -10    7.94    0.29
   3   0 -10    8.02    0.25
   3   0 -10    7.83    0.24
   2   0 -10   19.03    0.56
  -2   0  10   18.31    0.62
   2   0 -10   19.21    0.55
  -2   0  10   19.27    0.56
   2   0 -10   19.17    0.56
   2   0 -10   18.87    0.83
  -2   0  10   18.26    0.55
   1   0 -10   11.85    0.38
   1   0 -10   13.05    0.63
   1   0 -10   12.47    0.38
  -1   0  10   11.61    0.38
   1   0 -10   12.02    0.38
  -1   0  10   11.92    0.39
  -1   0  10   11.64    0.42
   1   0 -10   11.84    0.38
   0   0 -10    4.87    0.21
   0   0  10    5.05    0.21
   0   0 -10    4.77    0.18
   0   0 -10    4.72    0.20
   0   0 -10    4.53    0.36
  -1   0 -10    2.06    0.25
  -1   0 -10    1.89    0.10
   1   0  10    1.84    0.09
   1   0  10    1.85    0.12
   1   0  10    1.74    0.09
   1   0  10    1.77    0.09
   1   0  10    1.65    0.09
   2   0  10    6.19    0.27
  -2   0 -10    6.35    0.24
   2   0  10    6.37    0.20
   2   0  10    6.54    0.25
  -2   0 -10    6.34    0.49
   3   0  10    1.11    0.07
  -3   0 -10    0.69    0.14
  -3   0 -10    1.00    0.26
   3   0  10    0.98    0.11
   4   0  10    0.90    0.09
  -4   0 -10    0.56    0.23
  -4   0 -10    0.74    0.16
   4   0  10    0.82    0.10
  -6  -1  10    4.34    0.26
  -6  -1  10    4.50    0.31
   6  -1 -10    4.26    0.17
   6  -1 -10    4.55    0.31
  -6   1  10    4.20    0.24
  -6   1  10    4.06    0.29
   5  -1 -10    1.23    0.11
  -5  -1  10    1.16    0.17
   5  -1 -10    1.33    0.21
  -5  -1  10    1.16    0.14
   5  -1 -10    1.31    0.08
   5   1 -10    1.64    0.14
  -5   1  10    1.26    0.14
  -5   1  10    1.55    0.19
  -4  -1  10    4.57    0.27
  -4  -1  10    4.55    0.23
  -4  -1  10    4.32    0.23
   4  -1 -10    4.54    0.37
   4  -1 -10    4.78    0.21
   4  -1 -10    4.61    0.17
   4   1 -10    4.66    0.22
  -4   1  10    4.63    0.24
   4   1 -10    4.67    0.34
  -3  -1  10    9.87    0.38
   3  -1 -10   10.78    0.32
   3  -1 -10   10.09    0.57
   3  -1 -10   10.40    0.34
   3   1 -10   10.28    0.36
  -3   1  10   10.24    0.31
  -3   1  10    9.79    0.30
   3   1 -10    9.63    0.30
   3   1 -10    9.89    0.30
  -3   1  10   10.06    0.38
   3   1 -10   10.56    0.55
  -2  -1  10    4.08    0.20
  -2  -1  10    3.84    0.14
   2  -1 -10    3.73    0.32
   2  -1 -10    3.89    0.14
   2  -1 -10    3.82    0.14
   2  -1 -10    3.80    0.15
   2   1 -10    4.11    0.32
   2   1 -10    3.77    0.14
  -2   1  10    3.85    0.19
   2   1 -10    3.65    0.14
   2   1 -10    4.17    0.16
  -2   1  10    4.00    0.15
  -2   1  10    4.28    0.16
   1  -1 -10    8.85    0.31
  -1  -1  10    8.71    0.33
   1  -1 -10    8.86    0.31
   1  -1 -10    8.73    0.29
  -1  -1  10    9.16    0.30
   1  -1 -10    8.61    0.51
   1  -1 -10    9.05    0.30
   1  -1 -10    8.86    0.30
  -1   1  10    8.82    0.30
   1   1 -10    9.01    0.29
   1   1 -10    8.72    0.30
   1   1 -10    9.05    0.30
   1   1 -10    9.06    0.29
  -1   1  10    9.17    0.33
  -1   1  10    9.28    0.31
   1   1 -10    9.15    0.52
   0  -1 -10   20.97    0.63
   0  -1  10   20.17    0.66
   0  -1 -10   20.09    0.89
   0  -1 -10   20.29    0.65
   0   1 -10   21.34    0.92
   0   1 -10   20.78    0.62
   0   1  10   20.98    0.66
   0   1  10   21.42    0.65
   0   1 -10   20.70    0.63
   0   1 -10   20.38    0.65
  -1  -1 -10    4.77    0.37
  -1  -1 -10    4.00    0.17
   1  -1  10    3.99    0.14
   1  -1  10    4.10    0.15
   1  -1  10    4.12    0.19
  -1   1 -10    4.27    0.20
   1   1  10    4.01    0.19
   1   1  10    4.31    0.18
   1   1  10    3.88    0.16
   1   1  10    4.08    0.19
   1   1  10    3.96    0.16
   1   1  10    3.62    0.16
  -1   1 -10    4.00    0.37
   1   1  10    4.22    0.16
  -1   1 -10    3.74    0.16
  -2  -1 -10    0.86    0.21
   2  -1  10    0.81    0.05
   2  -1  10    0.86    0.08
   2  -1  10    0.83    0.10
   2  -1  10    0.87    0.09
  -2   1 -10    0.67    0.07
  -2   1 -10    0.59    0.11
   2   1  10    0.61    0.09
   2   1  10    0.79    0.10
   2   1  10    1.03    0.10
  -2   1 -10    0.86    0.24
   2   1  10    0.82    0.06
   2   1  10    0.83    0.05
  -3  -1 -10    3.26    0.37
   3  -1  10    2.99    0.16
   3  -1  10    2.97    0.13
   3   1  10    3.08    0.17
   3   1  10    2.97    0.13
  -3   1 -10    2.94    0.23
   3   1  10    3.01    0.16
   3   1  10    3.30    0.19
  -3   1 -10    3.11    0.41
  -4  -1 -10    0.38    0.13
   4  -1  10    0.39    0.07
  -4  -1 -10    0.41    0.19
   4  -1  10    0.34    0.05
   4   1  10    0.34    0.08
  -4   1 -10    0.39    0.22
   4   1  10    0.42    0.06
  -4   1 -10    0.30    0.12
  -6  -2  10    7.93    0.43
  -6  -2  10    8.12    0.38
   6  -2 -10    7.67    0.29
  -6   2  10    7.81    0.41
   5  -2 -10    2.11    0.12
   5  -2 -10    2.09    0.14
  -5  -2  10    2.00    0.22
  -5  -2  10    2.15    0.17
  -5   2  10    2.05    0.17
   5   2 -10    2.18    0.16
  -4  -2  10    9.41    0.38
   4  -2 -10    9.35    0.32
   4  -2 -10    9.73    0.34
  -4  -2  10    9.07    0.42
  -4  -2  10    8.63    0.37
  -4   2  10    9.48    0.39
  -4   2  10    9.24    0.29
  -4   2  10    9.09    0.28
   4   2 -10    9.70    0.51
   3  -2 -10    4.46    0.18
   3  -2 -10    4.19    0.36
  -3  -2  10    4.55    0.22
   3  -2 -10    4.27    0.18
   3   2 -10    4.54    0.15
  -3   2  10    4.39    0.24
   3   2 -10    4.32    0.14
   3   2 -10    4.46    0.33
  -3   2  10    4.52    0.17
  -3   2  10    4.28    0.16
  -3   2  10    4.20    0.21
   2  -2 -10   10.65    0.35
   2  -2 -10   10.78    0.60
   2  -2 -10   10.96    0.34
   2  -2 -10   11.11    0.36
  -2  -2  10   10.75    0.40
   2  -2 -10   11.02    0.34
  -2  -2  10   10.29    0.34
   2   2 -10   11.21    0.58
   2   2 -10   10.83    0.33
  -2   2  10   10.67    0.34
   2   2 -10   10.95    0.34
  -2   2  10   10.59    0.39
  -2   2  10   11.00    0.36
  -1  -2  10   13.98    0.44
  -1  -2  10   13.91    0.47
   1  -2 -10   13.63    0.44
   1  -2 -10   13.26    0.69
   1  -2 -10   13.95    0.46
  -1   2  10   13.86    0.45
   1   2 -10   13.16    0.43
   1   2 -10   13.71    0.44
   1   2 -10   14.12    0.42
  -1   2  10   13.63    0.47
   1   2 -10   14.07    0.70
   0  -2 -10    0.72    0.07
   0  -2  10    0.58    0.08
   0  -2 -10    0.85    0.19
   0   2  10    0.64    0.08
   0   2 -10    0.76    0.19
   0   2 -10    0.74    0.07
   0   2  10    0.76    0.05
   0   2  10    0.68    0.08
   0   2  10    0.72    0.05
   0   2 -10    0.73    0.09
   0   2 -10    0.84    0.06
  -1  -2 -10    8.21    0.30
   1  -2  10    7.77    0.31
   1  -2  10    8.06    0.25
   1  -2  10    8.34    0.25
  -1  -2 -10    8.17    0.51
   1   2  10    8.53    0.32
   1   2  10    8.28    0.28
  -1   2 -10    8.35    0.33
   1   2  10    8.14    0.29
   1   2  10    8.47    0.29
   1   2  10    8.44    0.31
  -1   2 -10    8.25    0.59
  -1   2 -10    7.88    0.35
  -1   2 -10    8.35    0.29
   1   2  10    8.53    0.27
   2  -2  10    2.85    0.10
   2  -2  10    3.12    0.14
   2  -2  10    2.79    0.16
   2  -2  10    2.91    0.16
  -2  -2 -10    3.38    0.33
   2   2  10    2.90    0.13
   2   2  10    2.83    0.15
  -2   2 -10    2.91    0.38
  -2   2 -10    3.23    0.22
   2   2  10    2.82    0.17
   2   2  10    2.75    0.15
  -2   2 -10    2.92    0.20
   2   2  10    2.96    0.11
   2   2  10    2.91    0.17
   3  -2  10    0.49    0.07
   3  -2  10    0.58    0.06
   3  -2  10    0.33    0.08
  -3  -2 -10    0.42    0.16
   3   2  10    0.36    0.07
   3   2  10    0.45    0.09
   3   2  10    0.60    0.07
  -3   2 -10    0.31    0.11
   3   2  10    0.50    0.06
  -3   2 -10    0.44    0.22
  -4  -2 -10    0.48    0.13
   4  -2  10    0.41    0.10
   4  -2  10    0.61    0.09
   4  -2  10    0.52    0.06
  -4   2 -10    0.41    0.13
   4   2  10    0.81    0.11
   4   2  10    0.48    0.06
  -6  -3  10    0.79    0.13
   6  -3 -10    0.79    0.10
  -6  -3  10    0.75    0.16
   6  -3 -10    0.71    0.09
   6   3 -10    0.61    0.06
   5  -3 -10    5.40    0.24
   5  -3 -10    6.45    0.27
   5  -3 -10    5.74    0.22
  -5  -3  10    5.49    0.29
  -5  -3  10    5.17    0.32
  -5   3  10    5.89    0.19
   5   3 -10    5.29    0.19
  -5   3  10    6.04    0.31
  -5   3  10    5.42    0.19
   4  -3 -10    9.00    0.32
   4  -3 -10    8.58    0.31
  -4  -3  10    8.61    0.36
  -4  -3  10    8.20    0.35
   4  -3 -10    8.40    0.29
   4   3 -10    8.29    0.27
  -4   3  10    8.49    0.27
   4   3 -10    8.09    0.25
  -4   3  10    8.57    0.29
  -4   3  10    8.72    0.38
  -3  -3  10    9.38    0.38
   3  -3 -10    9.81    0.34
  -3  -3  10    9.69    0.29
   3  -3 -10   10.22    0.35
   3  -3 -10    9.74    0.33
  -3   3  10    9.55    0.34
   3   3 -10   10.03    0.32
  -3   3  10    9.93    0.38
   3   3 -10    9.63    0.29
   3   3 -10   10.23    0.56
  -3   3  10    9.93    0.42
  -2  -3  10    4.78    0.23
   2  -3 -10    4.76    0.39
   2  -3 -10    4.95    0.21
   2  -3 -10    4.94    0.21
  -2  -3  10    4.89    0.19
   2   3 -10    4.64    0.19
  -2   3  10    4.91    0.22
  -2   3  10    4.75    0.26
   2   3 -10    4.83    0.17
   2   3 -10    5.00    0.39
  -2   3  10    4.93    0.21
   1  -3 -10    8.27    0.35
  -1  -3  10    8.49    0.33
   1  -3 -10    8.65    0.54
   1  -3 -10    8.91    0.31
   1   3 -10    8.82    0.29
   1   3 -10    8.56    0.28
   1   3 -10    8.61    0.30
  -1   3  10    8.53    0.32
   1   3 -10    8.63    0.55
  -1   3  10    8.47    0.32
   1   3 -10    8.78    0.31
   0  -3 -10    4.43    0.19
   0  -3  10    4.50    0.21
   0  -3  10    4.64    0.24
   0  -3 -10    4.66    0.37
   0   3 -10    4.43    0.21
   0   3  10    4.47    0.17
   0   3 -10    4.14    0.40
   0   3  10    4.66    0.16
   0   3 -10    4.64    0.22
   0   3  10    4.67    0.20
   0   3 -10    4.50    0.17
   0   3  10    4.77    0.22
  -1  -3 -10    1.39    0.10
   1  -3  10    1.34    0.11
  -1  -3 -10    1.32    0.20
   1   3  10    1.31    0.09
  -1   3 -10    1.41    0.09
   1   3  10    1.26    0.08
  -1   3 -10    1.40    0.12
   1   3  10    1.51    0.10
  -1   3 -10    1.24    0.15
   1   3  10    1.25    0.10
   1   3  10    1.29    0.11
   1   3  10    1.55    0.10
  -1   3 -10    1.59    0.33
   1   3  10    1.39    0.08
   2  -3  10    2.06    0.14
   2  -3  10    2.01    0.11
  -2  -3 -10    2.21    0.26
   2  -3  10    2.08    0.13
   2   3  10    2.08    0.17
   2   3  10    2.09    0.13
  -2   3 -10    1.94    0.21
   2   3  10    2.04    0.15
   2   3  10    2.30    0.14
   2   3  10    2.19    0.09
   2   3  10    2.26    0.11
  -2   3 -10    2.10    0.36
   3  -3  10    1.23    0.07
   3  -3  10    0.97    0.13
  -3  -3 -10    1.30    0.23
   3  -3  10    1.31    0.10
   3   3  10    1.13    0.10
  -3   3 -10    0.64    0.27
  -3   3 -10    1.12    0.18
   3   3  10    1.27    0.10
   3   3  10    1.06    0.12
   3   3  10    1.27    0.08
   4  -3  10    0.66    0.07
   4  -3  10    0.64    0.09
   4  -3  10    0.70    0.13
  -4   3 -10    0.86    0.17
   4   3  10    0.87    0.12
  -5  -4  10    6.76    0.37
   5  -4 -10    6.83    0.29
  -5  -4  10    6.59    0.32
   5  -4 -10    7.12    0.30
   5   4 -10    6.57    0.24
  -5   4  10    6.96    0.25
  -5   4  10    6.52    0.35
  -4  -4  10    0.23    0.07
   4  -4 -10    0.08    0.04
   4  -4 -10    0.13    0.04
   4  -4 -10    0.02    0.05
  -4  -4  10    0.16    0.06
   4   4 -10    0.17    0.04
  -4   4  10    0.20    0.05
  -4   4  10    0.21    0.08
   3  -4 -10    5.85    0.22
  -3  -4  10    5.50    0.19
   3  -4 -10    5.49    0.24
   3  -4 -10    5.58    0.25
  -3  -4  10    5.33    0.25
   3   4 -10    5.84    0.44
   3   4 -10    5.23    0.18
  -3   4  10    5.59    0.30
  -3   4  10    5.25    0.23
   3   4 -10    5.42    0.21
  -2  -4  10   10.13    0.39
  -2  -4  10    8.74    0.35
   2  -4 -10    9.02    0.33
  -2   4  10    8.81    0.34
  -2   4  10    9.51    0.34
   2   4 -10    8.81    0.31
  -2   4  10    8.46    0.39
   2   4 -10    8.65    0.28
   2   4 -10    8.70    0.28
   2   4 -10    8.49    0.31
   2   4 -10    8.99    0.59
  -1  -4  10    2.16    0.14
   1  -4 -10    1.99    0.26
  -1  -4  10    2.41    0.17
   1  -4 -10    2.31    0.14
  -1   4  10    2.21    0.18
  -1   4  10    2.06    0.13
   1   4 -10    1.92    0.10
   1   4 -10    2.14    0.14
   1   4 -10    2.21    0.10
   1   4 -10    1.89    0.28
  -1   4  10    2.55    0.15
   0  -4  10   16.64    0.56
   0  -4 -10   16.00    0.54
   0  -4  10   17.32    0.60
   0  -4 -10   16.14    0.80
   0   4 -10   15.71    0.57
   0   4  10   17.03    0.54
   0   4 -10   16.36    0.51
   0   4 -10   16.58    0.94
   0   4  10   16.76    0.57
   0   4  10   16.38    0.51
   0   4  10   17.50    0.51
   1  -4  10    3.74    0.19
  -1  -4 -10    4.24    0.36
   1  -4  10    3.87    0.22
   1   4  10    4.28    0.16
  -1   4 -10    4.12    0.24
   1   4  10    3.78    0.19
   1   4  10    3.75    0.18
   1   4  10    3.93    0.22
   1   4  10    3.98    0.18
  -1   4 -10    3.74    0.17
   1   4  10    3.83    0.18
  -1   4 -10    4.05    0.47
   2  -4  10    1.72    0.14
   2  -4  10    1.66    0.10
   2  -4  10    1.57    0.12
   2  -4  10    1.58    0.12
  -2  -4 -10    1.69    0.24
   2   4  10    1.74    0.15
   2   4  10    1.60    0.12
  -2   4 -10    1.46    0.18
   2   4  10    1.53    0.08
   2   4  10    1.84    0.10
  -2   4 -10    1.43    0.37
   2   4  10    1.55    0.11
   2   4  10    1.76    0.13
   3  -4  10    1.16    0.14
   3  -4  10    1.41    0.10
   3  -4  10    1.48    0.08
   3   4  10    1.54    0.14
  -3   4 -10    1.89    0.23
   3   4  10    1.42    0.09
   3   4  10    1.17    0.10
   3   4  10    1.65    0.13
   4  -4  10    0.16    0.07
   4   4  10    0.17    0.07
   4   4  10    0.29    0.08
  -4   4 -10    0.09    0.11
   5  -5 -10    2.06    0.16
  -5  -5  10    2.25    0.21
   5  -5 -10    1.63    0.19
  -5  -5  10    2.08    0.20
  -5   5  10    2.18    0.23
  -5   5  10    2.05    0.13
   4  -5 -10   11.43    0.42
  -4  -5  10   10.84    0.42
  -4  -5  10   10.50    0.43
   4  -5 -10   11.61    0.47
  -4   5  10   10.53    0.39
  -4   5  10   10.67    0.49
  -3  -5  10    3.12    0.20
  -3  -5  10    2.19    0.16
   3  -5 -10    2.75    0.16
  -3   5  10    2.47    0.15
  -3   5  10    2.59    0.21
   3   5 -10    2.47    0.14
  -2  -5  10    8.62    0.35
   2  -5 -10    9.17    0.35
  -2  -5  10    9.28    0.39
  -2   5  10    8.54    0.33
   2   5 -10    8.90    0.29
   2   5 -10    8.50    0.33
   2   5 -10    9.21    0.64
  -2   5  10    8.31    0.40
  -2   5  10    8.57    0.35
   1  -5 -10    6.71    0.28
  -1  -5  10    6.90    0.28
  -1  -5  10    6.79    0.32
   1   5 -10    6.83    0.58
  -1   5  10    6.42    0.29
   1   5 -10    6.14    0.29
   1   5 -10    6.53    0.23
  -1   5  10    6.63    0.26
  -1   5  10    6.64    0.34
   0  -5  10    0.03    0.04
   0  -5 -10    0.11    0.05
   0  -5 -10    0.07    0.07
   0  -5  10   -0.05    0.03
   0   5 -10    0.05    0.03
   0   5 -10    0.09    0.05
   0   5  10    0.04    0.03
   0   5  10    0.03    0.02
   0   5  10    0.05    0.05
   0   5  10    0.05    0.04
   0   5 -10    0.03    0.10
   0   5  10    0.04    0.02
   0   5  10    0.02    0.02
   1  -5  10    4.02    0.20
   1  -5  10    4.15    0.23
  -1  -5 -10    3.95    0.36
   1   5  10    4.32    0.23
   1   5  10    4.16    0.19
   1   5  10    4.30    0.19
   1   5  10    3.81    0.20
  -1   5 -10    3.64    0.17
   1   5  10    4.11    0.17
  -1   5 -10    3.52    0.48
  -2  -5 -10    2.71    0.30
   2  -5  10    2.53    0.18
   2  -5  10    2.34    0.14
   2  -5  10    2.71    0.13
   2  -5  10    2.39    0.14
  -2   5 -10    2.75    0.22
   2   5  10    2.46    0.11
   2   5  10    2.86    0.20
  -2   5 -10    2.58    0.58
   2   5  10    2.31    0.15
   2   5  10    2.68    0.14
   2   5  10    2.93    0.17
   3  -5  10    0.79    0.12
   3  -5  10    0.79    0.11
   3   5  10    0.83    0.07
   3   5  10    0.69    0.09
   3   5  10    0.83    0.12
   3   5  10    0.80    0.11
  -3   5 -10    0.87    0.16
  -4  -6  10    4.25    0.24
  -4  -6  10    4.94    0.27
  -4  -6  10    4.26    0.23
   4  -6 -10    4.63    0.24
  -4   6  10    4.67    0.31
  -4   6  10    4.00    0.21
   4   6 -10    4.10    0.21
  -3  -6  10    6.17    0.28
   3  -6 -10    5.99    0.28
  -3  -6  10    5.93    0.31
  -3   6  10    6.32    0.28
  -3   6  10    5.95    0.35
   3   6 -10    6.26    0.27
   2  -6 -10    0.32    0.07
  -2  -6  10    0.37    0.09
  -2  -6  10    0.35    0.07
   2   6 -10    0.29    0.18
  -2   6  10    0.41    0.09
   2   6 -10    0.28    0.07
  -2   6  10    0.21    0.09
  -1  -6  10    7.21    0.34
  -1  -6  10    6.87    0.29
   1  -6 -10    7.09    0.30
   1   6 -10    6.96    0.32
   1   6 -10    6.47    0.63
  -1   6  10    7.41    0.33
  -1   6  10    6.77    0.36
   0  -6  10    4.75    0.27
   0  -6  10    4.76    0.23
   0  -6 -10    4.96    0.43
   0   6  10    4.58    0.18
   0   6  10    4.91    0.18
   0   6  10    4.87    0.20
   0   6  10    4.70    0.26
   0   6 -10    5.27    0.59
   1  -6  10    1.62    0.13
   1  -6  10    1.76    0.16
  -1  -6 -10    1.90    0.26
  -1   6 -10    1.13    0.35
   1   6  10    1.79    0.12
   1   6  10    1.47    0.13
   1   6  10    1.76    0.11
   1   6  10    1.51    0.17
   1   6  10    1.29    0.11
   2  -6  10    0.33    0.07
   2  -6  10    0.47    0.06
   2  -6  10    0.26    0.05
   2  -6  10    0.36    0.09
   2  -6  10    0.39    0.06
   2   6  10    0.38    0.08
   2   6  10    0.35    0.07
   2   6  10    0.36    0.06
   2   6  10    0.38    0.05
   3  -6  10    1.29    0.13
   3   6  10    1.25    0.14
   3   6  10    1.40    0.15
  -3  -7  10    1.90    0.18
   3  -7 -10    2.01    0.18
   3   7 -10    1.92    0.17
  -3   7  10    2.68    0.27
  -3   7  10    1.81    0.15
  -2  -7  10    7.39    0.37
   2   7 -10    7.29    0.35
  -2   7  10    8.20    0.36
  -2   7  10    8.43    0.42
  -1  -7  10    0.83    0.13
  -1  -7  10    0.96    0.11
   1   7 -10    0.58    0.25
  -1   7  10    0.81    0.13
  -1   7  10    0.59    0.13
   1   7 -10    0.74    0.12
   0  -7 -10    2.19    0.38
   0  -7  10    2.25    0.15
   0  -7  10    2.07    0.18
   0   7  10    1.99    0.11
   0   7  10    2.31    0.23
   0   7  10    2.45    0.19
  -1  -7 -10    2.91    0.34
   1  -7  10    3.11    0.21
   1  -7  10    3.01    0.18
   1   7  10    2.85    0.15
   1   7  10    2.57    0.21
   1   7  10    2.65    0.16
   2  -7  10    1.80    0.19
   2  -7  10    1.69    0.13
   2   7  10    1.40    0.12
   2   7  10    1.65    0.13
  -2  -8  10    1.49    0.19
  -2   8  10    1.90    0.20
  -1  -8  10    1.28    0.17
  -1   8  10    1.48    0.22
  -1   8  10    1.82    0.20
   0  -8  10    2.02    0.19
   0   8 -10    1.82    0.23
   0   8  10    2.72    0.21
   0   8  10    2.34    0.24
   1  -8  10    0.39    0.10
  -1   8 -10    0.14    0.11
   1   8  10    0.41    0.08
  -6   0  11   -0.01    0.07
  -6   0  11   -0.05    0.05
   5   0 -11    0.00    0.03
   4   0 -11   -0.03    0.03
   4   0 -11   -0.02    0.05
  -4   0  11   -0.03    0.04
  -3   0  11   -0.02    0.04
   3   0 -11    0.00    0.01
   3   0 -11    0.00    0.05
   3   0 -11    0.03    0.02
  -2   0  11    0.02    0.02
  -2   0  11   -0.02    0.02
   2   0 -11   -0.01    0.02
   2   0 -11   -0.01    0.05
  -2   0  11    0.03    0.04
   2   0 -11   -0.01    0.02
   1   0 -11   -0.01    0.02
  -1   0  11    0.02    0.03
   1   0 -11   -0.02    0.02
   1   0 -11    0.04    0.03
   1   0 -11    0.01    0.06
   1   0 -11   -0.03    0.03
  -1   0  11    0.00    0.03
   0   0 -11    0.06    0.03
   0   0 -11    0.06    0.08
   0   0  11    0.01    0.04
   0   0 -11    0.06    0.03
  -1   0 -11    0.01    0.06
  -1   0 -11    0.02    0.03
   1   0  11    0.00    0.03
   2   0  11   -0.01    0.03
   2   0  11    0.00    0.03
   2   0  11   -0.03    0.03
   2   0  11    0.01    0.04
  -2   0 -11    0.01    0.08
  -3   0 -11   -0.09    0.05
   3   0  11    0.02    0.02
  -3   0 -11   -0.01    0.08
   3   0  11    0.02    0.04
   4   0  11    0.00    0.04
  -4   0 -11    0.02    0.08
  -6  -1  11    0.31    0.11
  -6  -1  11    0.42    0.10
   6  -1 -11    0.49    0.06
  -6   1  11    0.38    0.12
   5  -1 -11    1.37    0.15
  -5  -1  11    1.34    0.15
   5  -1 -11    1.39    0.23
   5  -1 -11    1.18    0.08
   5   1 -11    1.14    0.13
  -4  -1  11    1.74    0.15
   4  -1 -11    1.52    0.23
   4  -1 -11    1.65    0.09
   4   1 -11    1.88    0.23
  -4   1  11    1.68    0.14
   4   1 -11    1.62    0.12
  -3  -1  11    0.23    0.07
   3  -1 -11    0.28    0.04
   3  -1 -11    0.25    0.12
   3   1 -11    0.30    0.03
  -3   1  11    0.34    0.08
  -3   1  11    0.33    0.03
   3   1 -11    0.24    0.11
   3   1 -11    0.29    0.03
  -3   1  11    0.29    0.04
  -2  -1  11    1.00    0.06
   2  -1 -11    0.92    0.06
   2  -1 -11    0.91    0.06
   2  -1 -11    0.93    0.07
   2  -1 -11    0.96    0.07
  -2  -1  11    0.86    0.11
   2  -1 -11    1.07    0.19
  -2  -1  11    0.92    0.06
   2   1 -11    0.90    0.19
  -2   1  11    0.87    0.10
   2   1 -11    0.90    0.06
  -2   1  11    0.92    0.06
   2   1 -11    0.93    0.06
  -2   1  11    0.93    0.07
   1  -1 -11    6.88    0.25
   1  -1 -11    7.17    0.48
   1  -1 -11    6.60    0.26
  -1  -1  11    6.65    0.29
   1  -1 -11    6.92    0.26
   1   1 -11    7.04    0.24
   1   1 -11    6.99    0.25
   1   1 -11    7.01    0.26
  -1   1  11    6.96    0.29
  -1   1  11    6.75    0.26
   1   1 -11    6.82    0.25
   1   1 -11    7.21    0.48
   0  -1  11    0.73    0.10
   0  -1 -11    0.55    0.16
   0  -1 -11    0.79    0.08
   0   1  11    0.57    0.07
   0   1 -11    0.61    0.06
   0   1 -11    0.70    0.09
   0   1  11    0.51    0.08
   0   1 -11    0.76    0.20
   1  -1  11    0.07    0.04
  -1  -1 -11    0.05    0.03
  -1  -1 -11    0.08    0.09
   1   1  11    0.06    0.04
  -1   1 -11    0.10    0.03
   1   1  11    0.02    0.02
  -1   1 -11    0.01    0.04
   1   1  11    0.07    0.04
   1   1  11    0.09    0.02
  -1   1 -11    0.07    0.09
   2  -1  11    0.27    0.06
  -2  -1 -11    0.46    0.17
   2  -1  11    0.23    0.05
   2  -1  11    0.32    0.05
   2   1  11    0.33    0.07
  -2   1 -11    0.29    0.16
   2   1  11    0.23    0.06
   2   1  11    0.22    0.05
   2   1  11    0.36    0.07
  -2   1 -11    0.25    0.08
   3  -1  11    0.02    0.02
   3  -1  11    0.00    0.04
  -3  -1 -11   -0.03    0.08
   3  -1  11   -0.01    0.03
  -3   1 -11   -0.01    0.06
  -3   1 -11    0.01    0.11
   3   1  11    0.03    0.02
   3   1  11    0.02    0.04
   3   1  11   -0.03    0.04
   4  -1  11    0.24    0.09
  -4  -1 -11    0.31    0.12
   4   1  11    0.07    0.06
  -4   1 -11    0.06    0.09
   6  -2 -11    2.75    0.15
  -6  -2  11    2.92    0.21
  -6  -2  11    2.81    0.25
  -5  -2  11    0.89    0.13
   5  -2 -11    1.14    0.10
   5  -2 -11    0.78    0.20
   5   2 -11    0.86    0.12
   4  -2 -11    1.88    0.26
  -4  -2  11    1.61    0.14
   4  -2 -11    1.86    0.11
   4   2 -11    1.66    0.13
   4   2 -11    1.89    0.27
  -4   2  11    1.76    0.15
  -4   2  11    1.72    0.07
  -4   2  11    1.83    0.07
   3  -2 -11    2.40    0.12
  -3  -2  11    2.07    0.16
   3  -2 -11    2.64    0.30
   3   2 -11    2.28    0.10
  -3   2  11    2.23    0.10
   3   2 -11    2.34    0.26
  -3   2  11    2.57    0.12
  -3   2  11    2.18    0.15
   3   2 -11    2.40    0.09
  -2  -2  11    1.14    0.07
   2  -2 -11    1.27    0.21
  -2  -2  11    1.33    0.13
   2  -2 -11    1.39    0.09
   2  -2 -11    1.38    0.10
   2   2 -11    1.33    0.20
  -2   2  11    1.34    0.13
   2   2 -11    1.42    0.08
   2   2 -11    1.25    0.07
  -2   2  11    1.31    0.09
   1  -2 -11    6.11    0.26
   1  -2 -11    6.21    0.24
   1  -2 -11    6.77    0.47
  -1  -2  11    6.19    0.27
  -1   2  11    6.37    0.27
   1   2 -11    6.25    0.25
   1   2 -11    6.89    0.48
   1   2 -11    6.49    0.22
  -1   2  11    6.36    0.26
   1   2 -11    6.32    0.23
   0  -2  11    0.11    0.05
   0  -2 -11    0.06    0.03
   0  -2 -11    0.06    0.08
   0   2 -11    0.02    0.02
   0   2 -11    0.05    0.04
   0   2 -11    0.04    0.04
   0   2 -11    0.03    0.08
   0   2  11    0.04    0.04
   0   2  11    0.01    0.03
   1  -2  11    0.96    0.11
  -1  -2 -11    0.78    0.19
  -1  -2 -11    0.86    0.09
  -1   2 -11    0.74    0.07
   1   2  11    0.77    0.09
  -1   2 -11    0.66    0.21
   1   2  11    0.79    0.06
  -1   2 -11    0.92    0.11
  -1   2 -11    0.88    0.13
   1   2  11    0.97    0.11
   1   2  11    0.76    0.06
   2  -2  11    0.27    0.05
   2  -2  11    0.27    0.05
   2  -2  11    0.18    0.05
  -2  -2 -11    0.47    0.16
   2   2  11    0.24    0.06
   2   2  11    0.28    0.03
  -2   2 -11    0.29    0.17
  -2   2 -11    0.14    0.08
   2   2  11    0.23    0.05
   2   2  11    0.40    0.08
   2   2  11    0.17    0.05
   3  -2  11    0.14    0.05
   3  -2  11    0.11    0.03
  -3  -2 -11    0.18    0.13
   3  -2  11    0.13    0.06
   3   2  11    0.13    0.03
   3   2  11    0.19    0.06
   3   2  11    0.10    0.05
  -3   2 -11    0.09    0.20
  -3   2 -11    0.05    0.07
   4  -2  11    0.10    0.07
  -4  -2 -11    0.18    0.11
  -4   2 -11    0.10    0.10
   5  -3 -11   -0.01    0.03
   5  -3 -11    0.00    0.03
  -5  -3  11    0.02    0.06
   5   3 -11    0.02    0.04
  -5   3  11   -0.01    0.06
  -4  -3  11    1.41    0.15
   4  -3 -11    1.24    0.11
   4  -3 -11    0.91    0.09
  -4   3  11    1.33    0.10
   4   3 -11    1.05    0.07
   4   3 -11    0.98    0.05
  -4   3  11    0.92    0.14
  -4   3  11    1.10    0.08
   3  -3 -11    1.38    0.24
   3  -3 -11    1.63    0.11
  -3  -3  11    1.51    0.07
   3  -3 -11    1.48    0.11
  -3  -3  11    1.43    0.15
  -3   3  11    1.45    0.10
   3   3 -11    1.35    0.08
   3   3 -11    1.45    0.07
   3   3 -11    1.71    0.24
  -3   3  11    1.41    0.16
  -3   3  11    1.67    0.15
  -2  -3  11    0.12    0.05
   2  -3 -11    0.09    0.09
   2  -3 -11    0.11    0.05
  -2  -3  11    0.09    0.03
   2  -3 -11    0.04    0.03
  -2   3  11    0.09    0.05
   2   3 -11    0.11    0.09
   2   3 -11    0.05    0.03
   2   3 -11    0.02    0.03
   2   3 -11    0.04    0.02
   2   3 -11    0.02    0.02
  -2   3  11    0.00    0.03
   1  -3 -11    2.33    0.28
   1  -3 -11    2.37    0.14
  -1  -3  11    2.46    0.16
   1   3 -11    2.37    0.12
   1   3 -11    2.39    0.11
   1   3 -11    2.25    0.14
   1   3 -11    2.54    0.31
  -1   3  11    2.61    0.15
  -1   3  11    2.54    0.15
   0  -3  11    1.60    0.13
   0  -3 -11    1.57    0.11
   0  -3 -11    1.48    0.23
   0   3  11    1.55    0.12
   0   3 -11    1.59    0.09
   0   3 -11    1.39    0.12
   0   3  11    1.67    0.13
   0   3 -11    1.52    0.27
   0   3 -11    1.48    0.13
   1  -3  11    2.19    0.15
  -1  -3 -11    2.18    0.13
  -1  -3 -11    2.22    0.27
   1   3  11    2.29    0.11
   1   3  11    2.12    0.11
   1   3  11    2.34    0.12
   1   3  11    2.33    0.16
  -1   3 -11    2.20    0.34
   1   3  11    2.24    0.14
  -1   3 -11    2.31    0.19
   1   3  11    2.08    0.11
  -1   3 -11    3.08    0.34
  -1   3 -11    2.12    0.12
   2  -3  11    0.57    0.07
  -2  -3 -11    0.59    0.18
   2  -3  11    0.43    0.06
   2  -3  11    0.50    0.06
  -2   3 -11    0.49    0.11
   2   3  11    0.47    0.08
  -2   3 -11    0.43    0.21
   2   3  11    0.44    0.07
   2   3  11    0.40    0.07
   2   3  11    0.50    0.09
   2   3  11    0.43    0.07
   2   3  11    0.49    0.04
   3  -3  11    0.35    0.08
   3  -3  11    0.33    0.06
  -3  -3 -11    0.41    0.17
   3   3  11    0.33    0.07
  -3   3 -11    0.25    0.11
   3   3  11    0.27    0.04
   3   3  11    0.21    0.06
   4  -3  11    0.18    0.07
   4   3  11    0.17    0.06
  -4   3 -11    0.21    0.12
   5  -4 -11    0.17    0.06
  -5  -4  11    0.38    0.10
  -5   4  11    0.15    0.08
  -5   4  11    0.31    0.05
   5   4 -11    0.38    0.05
  -4  -4  11    0.56    0.10
   4  -4 -11    1.07    0.11
  -4   4  11    0.77    0.13
   4   4 -11    0.99    0.08
  -4   4  11    0.89    0.09
   3  -4 -11    1.34    0.12
  -3  -4  11    1.27    0.14
  -3  -4  11    1.32    0.07
  -3   4  11    1.27    0.10
   3   4 -11    1.27    0.26
   3   4 -11    1.27    0.09
  -3   4  11    1.63    0.15
  -3   4  11    1.20    0.16
   3   4 -11    1.20    0.07
  -2  -4  11    0.28    0.07
   2  -4 -11    0.30    0.14
   2  -4 -11    0.32    0.06
   2   4 -11    0.35    0.04
   2   4 -11    0.30    0.04
  -2   4  11    0.24    0.06
  -2   4  11    0.30    0.06
   2   4 -11    0.28    0.14
   2   4 -11    0.27    0.06
  -2   4  11    0.30    0.09
   1  -4 -11    0.20    0.05
  -1  -4  11    0.22    0.07
   1  -4 -11    0.23    0.12
  -1  -4  11    0.20    0.06
   1   4 -11    0.23    0.06
  -1   4  11    0.18    0.05
   1   4 -11    0.17    0.12
   1   4 -11    0.17    0.03
  -1   4  11    0.25    0.06
   0  -4 -11    0.49    0.16
   0  -4  11    0.71    0.11
   0  -4 -11    0.45    0.07
   0  -4  11    0.57    0.09
   0   4  11    0.47    0.09
   0   4 -11    0.70    0.24
   0   4  11    0.66    0.08
   0   4 -11    0.45    0.08
   0   4 -11    0.62    0.06
   1  -4  11    1.10    0.12
  -1  -4 -11    1.41    0.23
   1   4  11    1.21    0.14
   1   4  11    1.34    0.10
   1   4  11    1.29    0.09
  -1   4 -11    1.14    0.09
  -1   4 -11    1.38    0.36
   1   4  11    1.45    0.10
  -1   4 -11    1.10    0.16
   1   4  11    1.13    0.11
   2  -4  11    0.01    0.03
   2  -4  11    0.02    0.03
  -2  -4 -11    0.04    0.09
   2  -4  11    0.00    0.03
   2  -4  11   -0.06    0.03
   2   4  11    0.00    0.04
   2   4  11    0.03    0.04
   2   4  11    0.00    0.02
  -2   4 -11    0.02    0.07
   2   4  11    0.04    0.05
   2   4  11    0.01    0.04
   3  -4  11    0.22    0.06
  -3   4 -11    0.19    0.10
   3   4  11    0.37    0.08
   3   4  11    0.30    0.04
   3   4  11    0.56    0.09
   4  -5 -11    1.42    0.14
  -4  -5  11    1.48    0.15
  -4   5  11    1.15    0.17
  -4   5  11    1.31    0.11
   3  -5 -11    0.96    0.11
  -3  -5  11    0.83    0.11
  -3   5  11    0.99    0.15
   3   5 -11    0.87    0.09
  -3   5  11    0.98    0.11
  -2  -5  11    1.39    0.17
   2  -5 -11    1.35    0.13
  -2  -5  11    1.25    0.13
  -2   5  11    1.49    0.13
   2   5 -11    1.28    0.08
  -2   5  11    1.36    0.12
   2   5 -11    1.65    0.34
   2   5 -11    1.10    0.12
  -2   5  11    1.24    0.17
   1  -5 -11    0.43    0.16
   1  -5 -11    0.51    0.08
  -1  -5  11    0.34    0.07
  -1  -5  11    0.51    0.10
   1   5 -11    0.43    0.05
   1   5 -11    0.46    0.20
  -1   5  11    0.45    0.08
   1   5 -11    0.24    0.07
  -1   5  11    0.47    0.07
   0  -5  11    0.71    0.10
   0  -5 -11    0.82    0.21
   0  -5  11    0.86    0.12
   0   5 -11    0.80    0.08
   0   5  11    0.87    0.11
   0   5 -11    0.70    0.11
   0   5  11    0.69    0.11
   0   5 -11    0.71    0.26
  -1  -5 -11    0.04    0.08
   1  -5  11    0.18    0.06
   1  -5  11    0.10    0.06
   1   5  11    0.11    0.04
   1   5  11    0.17    0.07
  -1   5 -11   -0.03    0.13
   1   5  11    0.13    0.04
   1   5  11    0.14    0.05
   2  -5  11    0.02    0.02
   2  -5  11    0.03    0.05
  -2  -5 -11   -0.03    0.07
   2  -5  11    0.00    0.04
   2   5  11    0.00    0.06
   2   5  11    0.02    0.04
   2   5  11   -0.01    0.03
   3  -5  11    0.38    0.11
   3   5  11    0.61    0.10
  -3   5 -11    0.72    0.17
  -4  -6  11    0.19    0.07
   4  -6 -11    0.19    0.07
  -4   6  11    0.20    0.06
   4   6 -11    0.10    0.06
  -3  -6  11    0.58    0.11
  -3  -6  11    0.57    0.10
   3  -6 -11    0.62    0.10
  -3   6  11    0.51    0.12
  -3   6  11    0.43    0.09
   3   6 -11    0.53    0.09
  -2  -6  11    1.66    0.14
   2  -6 -11    1.69    0.15
  -2  -6  11    1.84    0.20
   2   6 -11    1.69    0.15
  -2   6  11    1.65    0.15
  -2   6  11    1.86    0.21
  -1  -6  11    0.64    0.12
  -1  -6  11    0.81    0.11
   1  -6 -11    0.58    0.13
  -1   6  11    0.69    0.13
   1   6 -11    0.60    0.25
  -1   6  11    0.87    0.13
   1   6 -11    0.89    0.12
   0  -6  11    0.18    0.06
   0  -6 -11    0.04    0.10
   0  -6  11    0.08    0.06
   0   6 -11    0.03    0.16
   0   6  11    0.19    0.07
   1  -6  11    0.50    0.11
  -1  -6 -11    0.33    0.16
   1  -6  11    0.41    0.08
   1   6  11    0.43    0.10
   1   6  11    0.30    0.06
   2  -6  11    0.74    0.12
   2  -6  11    0.75    0.10
   2   6  11    0.74    0.10
   3  -7 -11    1.91    0.18
  -3  -7  11    1.91    0.19
  -3   7  11    2.19    0.17
   3   7 -11    2.00    0.17
  -2  -7  11    0.37    0.10
   2   7 -11    0.44    0.10
  -2   7  11    0.52    0.14
  -2   7  11    0.50    0.10
  -1  -7  11    1.52    0.15
  -1  -7  11    1.53    0.19
  -1   7  11    1.35    0.17
  -1   7  11    1.49    0.19
   0  -7  11    0.33    0.08
   0  -7  11    0.37    0.10
   0   7  11    0.31    0.09
   1  -7  11    0.15    0.07
   1  -7  11    0.14    0.06
   1   7  11    0.05    0.05
   4   0 -12   17.93    0.85
  -4   0  12   16.73    0.61
   4   0 -12   16.68    0.50
  -3   0  12    4.76    0.25
  -3   0  12    4.97    0.15
   3   0 -12    4.70    0.18
   3   0 -12    4.68    0.17
   3   0 -12    4.83    0.40
   2   0 -12    3.68    0.15
  -2   0  12    3.71    0.15
   2   0 -12    4.03    0.16
  -2   0  12    3.42    0.20
   2   0 -12    3.71    0.15
   2   0 -12    3.85    0.15
  -2   0  12    3.83    0.16
   2   0 -12    4.08    0.36
   1   0 -12   10.87    0.35
   1   0 -12   10.92    0.64
   1   0 -12   10.37    0.37
  -1   0  12   10.04    0.40
  -1   0  12   11.04    0.37
   1   0 -12   10.31    0.37
   0   0 -12    5.72    0.46
   0   0  12    6.00    0.24
   0   0 -12    5.60    0.22
   0   0 -12    5.39    0.24
   0   0  12    5.14    0.25
  -1   0 -12    2.94    0.15
  -1   0 -12    3.20    0.36
   1   0  12    2.68    0.17
   2   0  12    0.50    0.07
  -2   0 -12    0.57    0.21
   2   0  12    0.61    0.09
   2   0  12    0.58    0.07
   2   0  12    0.57    0.07
   3   0  12    0.85    0.11
   3   0  12    1.28    0.11
   3   0  12    1.33    0.13
  -3   0 -12    1.17    0.19
   4   0  12    0.27    0.09
   5  -1 -12    4.59    0.18
   4  -1 -12    1.07    0.08
  -4  -1  12    1.01    0.13
   4  -1 -12    1.08    0.23
   4   1 -12    1.08    0.22
  -4   1  12    1.02    0.13
   3  -1 -12    3.53    0.15
  -3  -1  12    3.31    0.20
   3  -1 -12    3.55    0.35
  -3   1  12    3.67    0.14
  -3   1  12    3.75    0.21
   3   1 -12    3.33    0.13
   3   1 -12    3.66    0.34
  -3   1  12    3.37    0.13
   3   1 -12    3.54    0.14
   2  -1 -12    5.65    0.21
  -2  -1  12    5.79    0.21
   2  -1 -12    5.62    0.44
  -2  -1  12    5.97    0.21
   2  -1 -12    5.73    0.21
  -2  -1  12    5.83    0.27
   2  -1 -12    5.46    0.22
   2   1 -12    5.44    0.43
  -2   1  12    5.42    0.22
   2   1 -12    5.66    0.21
   2   1 -12    5.32    0.20
  -2   1  12    5.68    0.26
   2   1 -12    5.53    0.20
   2   1 -12    5.71    0.20
   1  -1 -12    1.61    0.24
   1  -1 -12    1.53    0.10
  -1  -1  12    1.45    0.12
   1  -1 -12    1.37    0.14
   1  -1 -12    1.41    0.11
   1   1 -12    1.46    0.11
   1   1 -12    1.34    0.09
   1   1 -12    1.59    0.24
  -1   1  12    1.41    0.10
   1   1 -12    1.13    0.09
  -1   1  12    1.51    0.12
   0  -1 -12    4.52    0.20
   0  -1 -12    4.67    0.41
   0  -1  12    4.65    0.23
   0   1 -12    4.96    0.43
   0   1 -12    4.48    0.19
   0   1  12    4.74    0.23
   0   1 -12    4.45    0.22
   0   1  12    4.89    0.22
  -1  -1 -12    6.39    0.25
   1  -1  12    6.26    0.28
  -1  -1 -12    6.82    0.51
   1   1  12    6.36    0.28
  -1   1 -12    6.46    0.54
  -1   1 -12    6.25    0.25
   1   1  12    6.98    0.29
   2  -1  12    0.56    0.06
   2  -1  12    0.81    0.11
   2  -1  12    0.54    0.06
   2  -1  12    0.71    0.07
  -2  -1 -12    0.72    0.21
   2   1  12    0.76    0.10
   2   1  12    0.56    0.07
  -2   1 -12    0.88    0.27
  -2   1 -12    0.53    0.12
   2   1  12    0.66    0.10
   2   1  12    0.56    0.08
   2   1  12    0.64    0.07
  -3  -1 -12    0.07    0.09
   3  -1  12    0.08    0.05
   3   1  12    0.29    0.07
   3   1  12    0.25    0.11
   3   1  12    0.21    0.06
  -3   1 -12    0.12    0.09
   5  -2 -12    8.37    0.30
   4  -2 -12    2.09    0.29
  -4  -2  12    2.08    0.16
   4  -2 -12    1.79    0.11
   4   2 -12    1.67    0.08
   4   2 -12    1.89    0.07
  -4   2  12    2.08    0.17
   3  -2 -12    5.92    0.23
   3  -2 -12    6.75    0.50
  -3  -2  12    5.78    0.29
   3  -2 -12    5.80    0.21
   3  -2 -12    5.78    0.23
  -3   2  12    6.16    0.23
   3   2 -12    6.36    0.46
   3   2 -12    5.98    0.21
   3   2 -12    6.04    0.20
  -3   2  12    6.28    0.24
  -3   2  12    6.09    0.28
   2  -2 -12    3.37    0.34
   2  -2 -12    3.11    0.15
  -2  -2  12    3.07    0.14
  -2  -2  12    2.88    0.19
   2  -2 -12    2.86    0.16
  -2   2  12    3.01    0.18
  -2   2  12    3.21    0.16
   2   2 -12    2.76    0.14
   2   2 -12    3.06    0.33
   2   2 -12    2.78    0.13
   2   2 -12    2.79    0.14
   2   2 -12    3.14    0.12
   1  -2 -12    5.02    0.42
   1  -2 -12    4.97    0.21
  -1  -2  12    4.72    0.24
   1   2 -12    5.07    0.20
  -1   2  12    4.54    0.23
   1   2 -12    5.13    0.44
   1   2 -12    4.95    0.19
  -1   2  12    4.88    0.22
   1   2 -12    4.50    0.22
   0  -2 -12    5.80    0.45
   0  -2  12    5.53    0.26
   0  -2 -12    5.59    0.23
   0   2 -12    5.46    0.21
   0   2 -12    5.49    0.27
   0   2  12    5.52    0.25
   0   2 -12    5.50    0.25
   0   2  12    5.44    0.25
   0   2 -12    5.68    0.49
   1  -2  12    0.24    0.07
  -1  -2 -12    0.37    0.15
  -1  -2 -12    0.26    0.05
  -1   2 -12    0.21    0.05
   1   2  12    0.21    0.06
   1   2  12    0.20    0.06
  -1   2 -12    0.31    0.09
  -1   2 -12    0.31    0.17
   2  -2  12    2.23    0.11
  -2  -2 -12    2.85    0.35
   2  -2  12    2.88    0.17
   2  -2  12    2.37    0.11
   2   2  12    2.52    0.18
   2   2  12    2.96    0.17
   2   2  12    2.04    0.14
   2   2  12    2.48    0.14
  -2   2 -12    2.06    0.23
  -2   2 -12    3.08    0.68
   3  -2  12    0.37    0.07
   3   2  12    0.54    0.09
  -3   2 -12    0.41    0.13
   5  -3 -12    0.92    0.10
   5  -3 -12    0.81    0.10
   4  -3 -12    4.78    0.21
  -4  -3  12    4.87    0.26
   4  -3 -12    4.89    0.22
  -4   3  12    5.12    0.19
   4   3 -12    4.67    0.16
   4   3 -12    5.03    0.18
  -3  -3  12    6.09    0.29
   3  -3 -12    5.62    0.48
   3  -3 -12    5.96    0.26
   3  -3 -12    6.15    0.25
  -3   3  12    5.76    0.24
   3   3 -12    5.73    0.22
   3   3 -12    6.02    0.20
  -3   3  12    6.11    0.29
   3   3 -12    6.75    0.49
   2  -3 -12    5.36    0.23
   2  -3 -12    5.61    0.46
  -2  -3  12    5.01    0.26
   2   3 -12    5.13    0.19
  -2   3  12    5.33    0.25
  -2   3  12    5.21    0.23
   2   3 -12    5.02    0.19
   2   3 -12    5.71    0.47
   2   3 -12    5.09    0.22
  -1  -3  12    2.44    0.17
   1  -3 -12    2.55    0.14
   1  -3 -12    2.71    0.32
   1   3 -12    2.68    0.34
   1   3 -12    2.66    0.12
   1   3 -12    2.56    0.16
  -1   3  12    2.63    0.16
  -1   3  12    2.76    0.17
   0  -3 -12    3.68    0.18
   0  -3  12    3.29    0.20
   0  -3 -12    3.43    0.35
   0   3 -12    3.27    0.15
   0   3 -12    3.47    0.20
   0   3  12    3.35    0.19
   0   3 -12    3.59    0.42
   0   3  12    3.30    0.18
  -1  -3 -12    1.78    0.27
   1  -3  12    2.12    0.16
  -1   3 -12    2.01    0.36
   1   3  12    2.17    0.16
  -1   3 -12    1.65    0.11
   1   3  12    1.99    0.14
  -1   3 -12    2.08    0.19
  -2  -3 -12    0.36    0.16
   2  -3  12    0.33    0.07
   2   3  12    0.30    0.06
  -2   3 -12    0.37    0.11
   2   3  12    0.19    0.06
   2   3  12    0.19    0.06
   2   3  12    0.35    0.09
   2   3  12    0.36    0.06
   3  -3  12    0.41    0.07
   3  -3  12    0.27    0.06
   3   3  12    0.33    0.07
  -3   3 -12    0.58    0.14
  -4  -4  12    5.75    0.28
   4  -4 -12    5.40    0.25
  -4   4  12    5.24    0.31
  -4   4  12    5.53    0.22
   4   4 -12    5.31    0.21
   3  -4 -12    0.32    0.07
  -3  -4  12    0.43    0.09
  -3  -4  12    0.42    0.05
   3   4 -12    0.30    0.04
  -3   4  12    0.32    0.08
  -3   4  12    0.38    0.10
  -3   4  12    0.42    0.07
   2  -4 -12    2.69    0.34
  -2  -4  12    2.71    0.18
   2  -4 -12    2.90    0.16
   2   4 -12    2.57    0.13
  -2   4  12    2.75    0.17
   2   4 -12    2.78    0.16
  -2   4  12    3.03    0.17
   2   4 -12    2.63    0.12
   2   4 -12    2.76    0.36
   1  -4 -12    4.00    0.20
  -1  -4  12    4.40    0.23
   1  -4 -12    4.41    0.42
   1   4 -12    3.93    0.22
   1   4 -12    4.47    0.47
  -1   4  12    4.02    0.22
   1   4 -12    3.77    0.17
  -1   4  12    3.95    0.21
   0  -4  12    1.46    0.15
   0  -4 -12    1.28    0.27
   0  -4 -12    1.05    0.11
   0   4  12    1.23    0.14
   0   4 -12    0.92    0.28
   0   4  12    1.14    0.12
   0   4 -12    1.02    0.13
   0   4 -12    1.09    0.08
   1  -4  12    5.02    0.25
  -1  -4 -12    5.14    0.44
  -1   4 -12    4.66    0.21
   1   4  12    5.05    0.23
   1   4  12    5.19    0.27
   2  -4  12    0.98    0.12
   2   4  12    0.82    0.12
   2   4  12    0.77    0.10
   3  -4  12    0.44    0.07
  -3   4 -12    0.72    0.17
   3   4  12    0.68    0.10
  -4  -5  12    1.97    0.16
   4  -5 -12    2.13    0.15
   4   5 -12    1.78    0.12
  -4   5  12    2.07    0.13
  -4   5  12    1.62    0.22
  -3  -5  12    6.54    0.31
   3  -5 -12    6.97    0.30
   3   5 -12    6.34    0.28
  -3   5  12    7.09    0.38
  -3   5  12    7.02    0.29
  -2  -5  12    2.43    0.17
   2  -5 -12    2.26    0.15
   2   5 -12    2.07    0.35
   2   5 -12    2.11    0.11
   2   5 -12    1.56    0.14
  -2   5  12    2.07    0.15
  -2   5  12    1.77    0.14
  -2   5  12    1.86    0.21
   1  -5 -12    4.24    0.21
  -1  -5  12    4.02    0.22
  -1  -5  12    3.63    0.24
   1   5 -12    4.01    0.23
   1   5 -12    4.25    0.17
  -1   5  12    3.87    0.20
  -1   5  12    3.83    0.22
   1   5 -12    4.37    0.51
   0  -5  12    2.26    0.16
   0  -5  12    2.14    0.18
   0   5 -12    1.98    0.12
   0   5  12    2.45    0.18
   1  -5  12    0.00    0.04
   1   5  12    0.10    0.07
   1   5  12    0.01    0.03
   2  -5  12    1.68    0.14
  -3  -6  12    3.12    0.20
   3  -6 -12    3.56    0.21
   3   6 -12    3.15    0.20
  -3   6  12    3.50    0.20
  -2  -6  12    3.17    0.24
  -2  -6  12    3.37    0.21
   2  -6 -12    3.49    0.21
  -2   6  12    3.69    0.22
  -2   6  12    3.36    0.26
   2   6 -12    3.37    0.22
  -1  -6  12    0.22    0.08
  -1  -6  12    0.18    0.06
  -1   6  12    0.13    0.06
   1   6 -12    0.20    0.07
   0  -6  12    3.11    0.20
   0  -6  12    3.09    0.23
   0   6  12    3.23    0.22
   1  -6  12    1.86    0.18
   1  -6  12    1.76    0.15
   1   6  12    2.01    0.21
  -1  -7  12    4.59    0.24
  -1  -7  12    4.37    0.29
  -1   7  12    4.41    0.27
   0  -7  12    0.32    0.08
   0  -7  12    0.40    0.11
   0   7  12    0.36    0.10
   5   0 -13   -0.01    0.02
   4   0 -13    0.05    0.09
   4   0 -13   -0.03    0.02
  -4   0  13    0.01    0.05
   3   0 -13   -0.01    0.02
  -3   0  13    0.03    0.05
   3   0 -13    0.01    0.02
  -3   0  13    0.01    0.02
  -3   0  13    0.00    0.02
   3   0 -13    0.00    0.07
   2   0 -13   -0.03    0.02
   2   0 -13   -0.01    0.03
  -2   0  13   -0.04    0.04
   2   0 -13    0.00    0.07
  -2   0  13   -0.02    0.02
   2   0 -13    0.01    0.03
  -1   0  13    0.04    0.04
   1   0 -13    0.00    0.02
   1   0 -13    0.02    0.03
  -1   0  13    0.02    0.03
   1   0 -13    0.03    0.07
   0   0 -13    0.03    0.03
   0   0 -13    0.04    0.09
   0   0  13    0.07    0.06
   0   0  13    0.07    0.04
   1   0  13    0.01    0.04
  -1   0 -13    0.00    0.03
  -1   0 -13   -0.06    0.06
   1   0  13   -0.03    0.04
   2   0  13   -0.07    0.04
   2   0  13    0.01    0.05
  -2   0 -13    0.02    0.07
  -3   0 -13    0.03    0.07
   3   0  13    0.07    0.05
   3   0  13   -0.01    0.04
   5  -1 -13    0.26    0.04
   4  -1 -13    1.19    0.08
  -4  -1  13    1.07    0.14
   4   1 -13    1.29    0.07
   4   1 -13    1.30    0.23
  -4   1  13    1.19    0.15
   3  -1 -13    1.53    0.25
   3  -1 -13    1.39    0.09
  -3  -1  13    1.31    0.15
  -3   1  13    1.48    0.08
   3   1 -13    1.36    0.08
   3   1 -13    1.47    0.24
  -3   1  13    1.46    0.08
   3   1 -13    1.46    0.08
  -3   1  13    1.66    0.17
  -2  -1  13    0.14    0.07
   2  -1 -13    0.17    0.11
   2  -1 -13    0.25    0.05
  -2  -1  13    0.21    0.04
   2  -1 -13    0.17    0.04
   2  -1 -13    0.24    0.05
  -2   1  13    0.22    0.05
   2   1 -13    0.17    0.11
   2   1 -13    0.15    0.04
   2   1 -13    0.19    0.04
  -2   1  13    0.13    0.06
   2   1 -13    0.13    0.04
   1  -1 -13    0.29    0.05
   1  -1 -13    0.36    0.15
  -1  -1  13    0.28    0.05
  -1  -1  13    0.16    0.06
   1   1 -13    0.43    0.16
   1   1 -13    0.29    0.06
   1   1 -13    0.32    0.05
  -1   1  13    0.28    0.06
  -1   1  13    0.38    0.08
   0  -1  13    2.07    0.16
   0  -1 -13    1.97    0.29
   0  -1 -13    1.93    0.12
   0   1  13    1.85    0.15
   0   1  13    1.94    0.14
   0   1 -13    1.85    0.15
   0   1 -13    2.08    0.12
   0   1 -13    2.09    0.31
  -1  -1 -13    0.07    0.10
  -1  -1 -13    0.02    0.03
   1  -1  13    0.02    0.05
  -1   1 -13    0.02    0.06
  -1   1 -13   -0.02    0.16
  -1   1 -13   -0.01    0.03
   1   1  13    0.04    0.05
   1   1  13    0.08    0.04
   2  -1  13    0.07    0.05
  -2   1 -13    0.10    0.07
   2   1  13    0.01    0.02
   2   1  13    0.02    0.02
   2   1  13    0.07    0.06
   2   1  13    0.10    0.05
   3  -1  13    0.06    0.04
   3  -1  13    0.21    0.07
   3   1  13    0.08    0.06
  -3   1 -13    0.04    0.09
   5  -2 -13    3.07    0.15
  -4  -2  13    0.79    0.13
   4  -2 -13    0.72    0.08
   4   2 -13    0.63    0.06
  -4   2  13    0.86    0.13
   4   2 -13    0.67    0.05
   3  -2 -13    1.23    0.10
  -3  -2  13    0.97    0.13
   3  -2 -13    1.23    0.11
  -3   2  13    1.28    0.09
   3   2 -13    1.28    0.23
   3   2 -13    1.24    0.07
  -3   2  13    1.44    0.15
   3   2 -13    1.29    0.08
   2  -2 -13    1.44    0.25
  -2  -2  13    1.57    0.09
  -2  -2  13    1.47    0.16
   2  -2 -13    1.81    0.11
  -2   2  13    1.40    0.15
   2   2 -13    1.37    0.08
  -2   2  13    1.56    0.11
   2   2 -13    1.51    0.11
   2   2 -13    1.52    0.25
   1  -2 -13    0.60    0.08
  -1  -2  13    0.54    0.10
   1  -2 -13    0.54    0.18
  -1   2  13    0.59    0.09
  -1   2  13    0.63    0.10
   1   2 -13    0.62    0.20
   1   2 -13    0.48    0.08
   1   2 -13    0.57    0.06
   0  -2 -13    2.38    0.31
   0  -2 -13    2.42    0.14
   0  -2  13    2.11    0.16
   0   2  13    2.17    0.16
   0   2 -13    2.30    0.12
   0   2 -13    2.11    0.16
   0   2  13    2.38    0.16
   0   2 -13    2.11    0.33
   1  -2  13    0.10    0.06
  -1   2 -13    0.14    0.07
   1   2  13    0.07    0.05
   1   2  13    0.15    0.06
  -1   2 -13    0.13    0.04
   2  -2  13    0.33    0.08
  -2   2 -13    0.32    0.11
   2   2  13    0.50    0.09
   2   2  13    0.27    0.08
   3  -2  13    0.03    0.04
   3  -2  13    0.14    0.06
   3   2  13    0.10    0.06
  -3   2 -13    0.09    0.10
   4  -3 -13    0.11    0.05
   4  -3 -13    0.07    0.06
  -4  -3  13    0.09    0.05
  -4   3  13    0.11    0.03
   4   3 -13    0.09    0.03
   4   3 -13    0.15    0.03
  -3  -3  13    1.35    0.16
   3  -3 -13    1.18    0.11
  -3   3  13    1.11    0.09
   3   3 -13    1.07    0.07
  -3   3  13    1.17    0.14
   3   3 -13    1.14    0.25
  -2  -3  13    1.17    0.14
   2  -3 -13    1.17    0.11
  -2   3  13    1.15    0.14
   2   3 -13    1.15    0.08
   2   3 -13    1.10    0.07
   2   3 -13    1.14    0.11
  -2   3  13    1.12    0.12
   2   3 -13    0.97    0.24
  -1  -3  13    0.06    0.05
   1  -3 -13    0.01    0.04
  -1   3  13    0.02    0.04
   1   3 -13    0.00    0.02
   1   3 -13    0.05    0.05
  -1   3  13    0.05    0.04
   1   3 -13    0.05    0.10
   0  -3  13    1.34    0.14
   0  -3 -13    1.47    0.12
   0   3 -13    1.44    0.10
   0   3  13    1.66    0.14
   0   3  13    1.88    0.15
   0   3 -13    1.65    0.14
   1  -3  13    0.54    0.10
   1   3  13    0.32    0.08
   1   3  13    0.32    0.07
  -1   3 -13    0.36    0.09
   2  -3  13    0.57    0.10
   2   3  13    0.61    0.11
   2   3  13    0.55    0.10
  -2   3 -13    0.54    0.13
  -4  -4  13    0.55    0.10
   4  -4 -13    0.45    0.08
  -4   4  13    0.50    0.07
  -3  -4  13    0.41    0.09
   3  -4 -13    0.44    0.08
  -3  -4  13    0.47    0.05
   3   4 -13    0.47    0.07
  -3   4  13    0.52    0.08
   3   4 -13    0.53    0.05
   3   4 -13    0.43    0.05
  -3   4  13    0.49    0.10
  -2  -4  13    0.78    0.12
   2  -4 -13    0.97    0.11
   2   4 -13    0.88    0.07
   2   4 -13    0.80    0.25
   2   4 -13    0.78    0.10
  -2   4  13    1.04    0.12
  -2   4  13    0.97    0.11
   1  -4 -13    0.29    0.06
  -1  -4  13    0.22    0.07
  -1   4  13    0.29    0.07
  -1   4  13    0.33    0.08
   1   4 -13    0.20    0.04
   1   4 -13    0.35    0.08
   0  -4  13    0.11    0.07
   0   4  13    0.12    0.06
   0   4  13    0.30    0.07
   0   4 -13    0.19    0.04
   0   4 -13    0.19    0.09
   1  -4  13    0.08    0.06
   1   4  13    0.12    0.06
   1   4  13    0.13    0.07
   2  -4  13    0.39    0.09
   2   4  13    0.29    0.10
   3  -5 -13    1.00    0.12
  -3  -5  13    0.92    0.13
   3   5 -13    0.88    0.11
  -3   5  13    0.96    0.12
   2  -5 -13    0.86    0.11
  -2  -5  13    0.54    0.11
   2   5 -13    0.60    0.06
   2   5 -13    0.46    0.09
  -2   5  13    0.74    0.11
  -2   5  13    0.60    0.10
  -1  -5  13    0.50    0.10
   1  -5 -13    0.53    0.09
   1   5 -13    0.68    0.11
   1   5 -13    0.57    0.07
  -1   5  13    0.67    0.11
   0  -5  13    0.28    0.08
   0   5 -13    0.24    0.05
   0   5  13    0.34    0.09
   1  -5  13    0.30    0.07
   1   5  13    0.32    0.09
   2  -6 -13    0.62    0.11
  -2  -6  13    0.35    0.09
  -2   6  13    0.62    0.11
   2   6 -13    0.37    0.09
  -1  -6  13    0.95    0.13
  -1   6  13    0.81    0.13
   0  -6  13    0.57    0.11
   0   6  13    0.54    0.11
  -4   0  14    1.22    0.16
   4   0 -14    0.91    0.07
   3   0 -14   10.94    0.35
   3   0 -14    9.34    0.34
   3   0 -14   10.14    0.33
  -3   0  14   10.18    0.43
  -2   0  14    1.73    0.11
   2   0 -14    1.57    0.12
  -2   0  14    2.03    0.16
   2   0 -14    1.83    0.11
   1   0 -14    1.36    0.12
  -1   0  14    1.23    0.14
   1   0 -14    1.31    0.10
  -1   0  14    1.24    0.11
   0   0  14    4.60    0.22
   0   0 -14    4.34    0.20
   0   0  14    4.56    0.25
   1   0  14    1.98    0.16
   1   0  14    1.77    0.15
  -2   0 -14    0.92    0.17
   2   0  14    1.19    0.15
   2   0  14    1.41    0.15
  -4  -1  14    2.74    0.21
   4  -1 -14    2.74    0.13
   4   1 -14    2.83    0.12
  -4   1  14    3.04    0.21
   4   1 -14    2.95    0.12
  -3  -1  14    0.32    0.09
   3  -1 -14    0.51    0.07
   3  -1 -14    0.47    0.06
   3  -1 -14    0.41    0.08
  -3   1  14    0.41    0.05
   3   1 -14    0.42    0.05
  -3   1  14    0.42    0.09
  -3   1  14    0.50    0.07
  -2  -1  14    1.96    0.17
   2  -1 -14    1.78    0.11
   2  -1 -14    1.88    0.13
  -2  -1  14    2.15    0.11
  -2   1  14    1.73    0.18
   2   1 -14    1.79    0.12
   2   1 -14    1.96    0.11
  -2   1  14    2.17    0.13
  -1  -1  14    1.97    0.16
   1  -1 -14    2.04    0.13
  -1  -1  14    2.37    0.14
   1   1 -14    2.31    0.12
  -1   1  14    2.19    0.14
  -1   1  14    2.33    0.17
   1   1 -14    2.08    0.15
   0  -1 -14    0.23    0.06
   0  -1  14    0.33    0.08
   0   1 -14    0.22    0.05
   0   1  14    0.26    0.08
   0   1  14    0.29    0.07
   0   1 -14    0.20    0.07
   1  -1  14    1.58    0.17
   1   1  14    1.79    0.15
   1   1  14    2.00    0.16
  -1   1 -14    1.61    0.20
   2  -1  14    1.67    0.17
   2   1  14    1.53    0.17
   2   1  14    1.48    0.16
  -2   1 -14    1.25    0.19
  -4  -2  14    6.29    0.31
   4  -2 -14    5.65    0.25
   4  -2 -14    6.21    0.24
   4   2 -14    5.84    0.20
  -4   2  14    5.62    0.31
   4   2 -14    5.65    0.21
   3  -2 -14    1.46    0.10
  -3  -2  14    1.09    0.15
   3   2 -14    1.30    0.08
   3   2 -14    1.20    0.10
  -3   2  14    1.39    0.15
  -3   2  14    1.18    0.09
  -2  -2  14    2.22    0.19
   2  -2 -14    2.35    0.14
  -2  -2  14    2.47    0.12
   2   2 -14    2.35    0.12
   2   2 -14    2.17    0.14
  -2   2  14    2.43    0.18
  -2   2  14    2.31    0.14
   1  -2 -14    1.51    0.11
  -1  -2  14    1.48    0.16
   1   2 -14    1.42    0.09
  -1   2  14    1.40    0.15
  -1   2  14    1.37    0.12
   1   2 -14    1.45    0.13
   0  -2  14    1.64    0.17
   0  -2 -14    1.64    0.12
   0   2  14    1.68    0.14
   0   2 -14    1.53    0.15
   0   2  14    1.60    0.16
   0   2 -14    1.56    0.11
   1  -2  14    1.15    0.14
   1   2  14    1.59    0.16
   1   2  14    1.73    0.15
   2  -2  14    0.00    0.05
   2   2  14    0.01    0.06
   2   2  14    0.01    0.05
  -2   2 -14   -0.02    0.08
  -3  -3  14    2.97    0.21
   3  -3 -14    3.10    0.16
   3   3 -14    2.49    0.15
   3   3 -14    2.85    0.12
  -3   3  14    2.80    0.15
  -3   3  14    2.81    0.20
   3   3 -14    2.62    0.13
   2  -3 -14    3.12    0.17
  -2  -3  14    2.53    0.20
   2   3 -14    2.67    0.13
   2   3 -14    2.70    0.17
  -2   3  14    3.19    0.18
  -2   3  14    2.74    0.19
   1  -3 -14    1.62    0.12
  -1  -3  14    1.72    0.18
   1   3 -14    1.64    0.14
  -1   3  14    1.90    0.15
   1   3 -14    1.80    0.11
  -1   3  14    1.88    0.15
   0  -3 -14    1.07    0.11
   0  -3  14    0.80    0.13
   0   3  14    1.14    0.14
   0   3 -14    1.01    0.09
   0   3  14    1.02    0.12
   1  -3  14    0.64    0.12
   1   3  14    0.67    0.11
   1   3  14    0.67    0.11
  -3  -4  14    2.66    0.20
   3  -4 -14    2.57    0.16
  -3   4  14    2.49    0.19
  -3   4  14    2.56    0.16
   3   4 -14    2.51    0.16
   3   4 -14    2.35    0.12
   2  -4 -14    0.32    0.07
  -2  -4  14    0.36    0.09
   2   4 -14    0.28    0.05
  -2   4  14    0.47    0.09
   2   4 -14    0.26    0.07
  -2   4  14    0.57    0.09
   1  -4 -14    0.89    0.11
  -1  -4  14    0.93    0.13
   1   4 -14    0.79    0.12
  -1   4  14    0.87    0.12
  -1   4  14    1.01    0.12
   1   4 -14    0.87    0.08
   0  -4  14    1.36    0.16
   0   4  14    1.37    0.16
   0   4  14    1.35    0.14
   0   4 -14    1.16    0.11
   1  -4  14    0.54    0.11
   1   4  14    0.64    0.12
  -1  -5  14    1.07    0.14
   1   5 -14    1.19    0.15
   1   5 -14    0.94    0.09
  -1   5  14    1.13    0.15
  -3   0  15   -0.05    0.05
   3   0 -15   -0.03    0.03
   3   0 -15    0.06    0.04
   3   0 -15    0.03    0.03
  -2   0  15    0.05    0.05
   2   0 -15    0.03    0.04
   2   0 -15    0.03    0.03
  -2   0  15    0.00    0.03
  -1   0  15   -0.01    0.03
  -1   0  15   -0.03    0.05
   1   0 -15    0.00    0.03
   0   0  15    0.05    0.06
   0   0 -15    0.02    0.03
   0   0  15    0.04    0.05
   1   0  15    0.02    0.05
   1   0  15    0.04    0.05
   3  -1 -15    0.79    0.08
  -3  -1  15    0.94    0.14
   3   1 -15    0.84    0.09
   3   1 -15    0.86    0.07
   3   1 -15    0.95    0.10
  -3   1  15    0.84    0.07
  -3   1  15    1.07    0.14
   2  -1 -15    0.92    0.09
  -2  -1  15    0.64    0.12
  -2  -1  15    0.94    0.08
  -2   1  15    0.83    0.10
   2   1 -15    0.82    0.08
  -2   1  15    0.74    0.12
   2   1 -15    0.96    0.11
   1  -1 -15    0.09    0.04
  -1  -1  15    0.10    0.05
  -1  -1  15    0.08    0.06
  -1   1  15    0.10    0.07
  -1   1  15    0.23    0.06
   1   1 -15    0.04    0.05
   1   1 -15    0.15    0.04
   0  -1  15    0.06    0.05
   0  -1  15    0.11    0.07
   0  -1 -15    0.07    0.04
   0   1 -15    0.04    0.04
   0   1  15   -0.02    0.05
   0   1  15    0.12    0.06
   1  -1  15    0.30    0.08
   1  -1  15    0.24    0.08
   1   1  15    0.24    0.08
   1   1  15    0.33    0.09
   3  -2 -15    0.38    0.07
  -3  -2  15    0.27    0.09
  -3   2  15    0.35    0.09
  -3   2  15    0.39    0.06
   3   2 -15    0.35    0.07
   3   2 -15    0.35    0.05
   3   2 -15    0.30    0.05
   2  -2 -15    0.47    0.07
  -2  -2  15    0.65    0.12
  -2  -2  15    0.69    0.07
   2   2 -15    0.57    0.09
   2   2 -15    0.57    0.07
  -2   2  15    0.64    0.12
  -2   2  15    0.66    0.09
   1  -2 -15    0.74    0.09
  -1  -2  15    0.65    0.09
  -1  -2  15    0.92    0.14
   1   2 -15    0.77    0.11
  -1   2  15    0.71    0.12
   1   2 -15    0.72    0.08
  -1   2  15    0.71    0.10
   0  -2 -15    0.24    0.06
   0  -2  15    0.16    0.07
   0   2  15    0.11    0.06
   0   2  15    0.24    0.07
   0   2 -15    0.12    0.04
  -2  -3  15    0.93    0.09
  -2  -3  15    0.78    0.13
   2  -3 -15    0.84    0.10
   2   3 -15    0.80    0.11
   2   3 -15    0.71    0.07
  -2   3  15    0.90    0.13
  -2   3  15    1.02    0.12
  -1  -3  15    0.61    0.11
   1  -3 -15    0.69    0.09
   1   3 -15    0.72    0.11
  -1   3  15    0.64    0.10
   1   3 -15    0.61    0.08
  -1   3  15    0.92    0.13
   0  -3  15    0.08    0.06
   0   3 -15    0.00    0.03
   0   3  15    0.09    0.06
   0   3  15    0.08    0.06
   0   0   0    0.00    0.00
;
_shelx_hkl_checksum              93386
_shelx_res_file
;
    JanCh25_4_0m.res created by SHELXL-2014/7
TITL JanCh25_4_0m in Pc
CELL 0.71073 4.8622 6.9718 10.1539 90.000 98.727 90.000
ZERR 2.00 0.0003 0.0004 0.0005 0.000 0.003 0.000
LATT -1
SYMM x, -y, z+1/2
SFAC C H CL O
UNIT 14 14 2 2
LIST 4
TEMP -150
SIZE 0.110 0.151 0.409
ACTA
SHEL 99 0.75
L.S. 5
FMAP -2
PLAN -20
HTAB
BOND $H
CONF
WGHT    0.040700    0.039900
FVAR       0.32049
CL1   3    0.838937    1.007222    0.323057    11.00000    0.03358    0.01707 =
         0.03424    0.00176    0.01850   -0.00028
O1    4    0.712244    0.614659    0.375651    11.00000    0.03034    0.01952 =
         0.02689   -0.00176    0.01761   -0.00201
H1    2    0.750808    0.737902    0.369710    11.00000    0.06252
C1    1    0.542139    0.579375    0.462541    11.00000    0.02050    0.01792 =
         0.01938    0.00001    0.00437   -0.00077
C2    1    0.448110    0.733493    0.534595    11.00000    0.02746    0.01412 =
         0.02800   -0.00158    0.01365   -0.00044
AFIX  43
H2    2    0.518278    0.856572    0.517132    11.00000   -1.20000
AFIX   0
C3    1    0.268528    0.727922    0.626474    11.00000    0.02902    0.01915 =
         0.02636   -0.00379    0.01221    0.00294
AFIX  43
H3    2    0.233697    0.848571    0.664185    11.00000   -1.20000
AFIX   0
C4    1    0.127567    0.572074    0.673842    11.00000    0.02028    0.02944 =
         0.02052    0.00222    0.00973    0.00086
AFIX  43
H4    2    0.005596    0.602256    0.735629    11.00000   -1.20000
AFIX   0
C5    1    0.145079    0.382171    0.641581    11.00000    0.02304    0.02509 =
         0.02573    0.00626    0.00783   -0.00499
AFIX  43
H5    2    0.036329    0.296126    0.684805    11.00000   -1.20000
AFIX   0
C6    1    0.305338    0.299272    0.551848    11.00000    0.02939    0.01633 =
         0.02991    0.00161    0.00795   -0.00250
AFIX  43
H6    2    0.291231    0.163711    0.544091    11.00000   -1.20000
AFIX   0
C7    1    0.478210    0.383471    0.474081    11.00000    0.02753    0.01592 =
         0.02478   -0.00151    0.00841   -0.00032
AFIX  43
H7    2    0.566976    0.298381    0.420740    11.00000   -1.20000
AFIX   0
HKLF 4 1 1 0 0 0 1 0 0 0 1
REM  JanCh25_4_0m in Pc
REM R1 =  0.0212 for    1682 Fo > 4sig(Fo)  and  0.0213 for all    1690 data
REM     86 parameters refined using      2 restraints
END
WGHT      0.0410      0.0353
REM Instructions for potential hydrogen bonds
HTAB O1 Cl1
HTAB C2 Cl1
EQIV $1 x, y-1, z
HTAB C7 Cl1_$1
REM Highest difference peak  0.335,  deepest hole -0.147,  1-sigma level  0.042
Q1    1   0.1978  0.6448  0.6389  11.00000  0.05    0.33
Q2    1   0.2536  0.3560  0.6199  11.00000  0.05    0.29
Q3    1   0.4821  0.6508  0.5007  11.00000  0.05    0.28
Q4    1   0.3206  0.7220  0.5644  11.00000  0.05    0.25
Q5    1   0.5056  0.4944  0.4817  11.00000  0.05    0.24
Q6    1   0.4218  0.3545  0.5257  11.00000  0.05    0.23
Q7    1   0.1795  0.4867  0.6620  11.00000  0.05    0.22
Q8    1   0.6392  0.6112  0.4153  11.00000  0.05    0.17
Q9    1   0.3228  0.8241  0.6179  11.00000  0.05   -0.15
Q10   1   0.9466  1.0357  0.2629  11.00000  0.05    0.14
Q11   1   0.3387  0.5267  0.5665  11.00000  0.05   -0.14
Q12   1   0.7047  0.4497  0.4189  11.00000  0.05   -0.14
Q13   1   0.0276  0.4573  0.7366  11.00000  0.05   -0.13
Q14   1   0.7963  1.0705  0.3750  11.00000  0.05    0.13
Q15   1   0.6149  0.6950  0.4618  11.00000  0.05   -0.13
Q16   1   0.4371  0.5542  0.5152  11.00000  0.05   -0.13
Q17   1   0.2774  0.5481  0.6380  11.00000  0.05   -0.13
Q18   1   0.5040  0.2512  0.4771  11.00000  0.05   -0.13
Q19   1   0.5750  0.2547  0.5207  11.00000  0.05   -0.12
Q20   1   0.3486  0.4737  0.6140  11.00000  0.05   -0.12
;
_shelx_res_checksum              4242
loop_
_space_group_symop_id
_space_group_symop_operation_xyz
1 x,y,z
2 x,-y,1/2+z
loop_
_atom_site_aniso_label
_atom_site_aniso_U_11
_atom_site_aniso_U_22
_atom_site_aniso_U_33
_atom_site_aniso_U_12
_atom_site_aniso_U_13
_atom_site_aniso_U_23
Cl1 0.0336(2) 0.0171(2) 0.0342(2) -0.0003(2) 0.0185(2) 0.00180(10)
O1 0.0303(6) 0.0195(6) 0.0269(6) -0.0020(5) 0.0176(5) -0.0018(4)
C1 0.0205(7) 0.0179(10) 0.0194(7) -0.0008(6) 0.0044(6) 0.0000(6)
C2 0.0275(9) 0.0141(7) 0.0280(8) -0.0004(6) 0.0137(7) -0.0016(6)
C3 0.0290(9) 0.0191(8) 0.0264(9) 0.0029(6) 0.0122(7) -0.0038(6)
C4 0.0203(8) 0.0294(12) 0.0205(8) 0.0009(7) 0.0097(6) 0.0022(7)
C5 0.0230(8) 0.0251(9) 0.0257(8) -0.0050(7) 0.0078(7) 0.0063(8)
C6 0.0294(9) 0.0163(7) 0.0299(10) -0.0025(7) 0.0079(7) 0.0016(6)
C7 0.0275(8) 0.0159(8) 0.0248(8) -0.0003(7) 0.0084(7) -0.0015(6)
loop_
_atom_site_type_symbol
_atom_site_label
_atom_site_fract_x
_atom_site_fract_y
_atom_site_fract_z
_atom_site_U_iso_or_equiv
_atom_site_thermal_displace_type
_atom_site_calc_flag
_atom_site_refinement_flags
_atom_site_occupancy
Cl Cl1 0.83894(12) 1.00722(6) 0.32306(7) 0.02690(10) Uani d . 1.000
O O1 0.7122(3) 0.61466(18) 0.37565(14) 0.0242(3) Uani d . 1.000
C C1 0.5421(3) 0.5794(3) 0.46254(16) 0.0191(5) Uani d . 1.000
C C2 0.4481(3) 0.7335(2) 0.53459(17) 0.0222(5) Uani d . 1.000
C C3 0.2685(4) 0.7279(3) 0.62647(18) 0.0240(5) Uani d . 1.000
C C4 0.1276(3) 0.5721(3) 0.67384(16) 0.0227(5) Uani d . 1.000
C C5 0.1451(3) 0.3822(3) 0.64158(19) 0.0242(5) Uani d . 1.000
C C6 0.3053(4) 0.2993(2) 0.5518(2) 0.0249(5) Uani d . 1.000
C C7 0.4782(4) 0.3835(3) 0.47408(18) 0.0223(5) Uani d . 1.000
H H1 0.751(6) 0.738(5) 0.370(4) 0.063(9) Uiso d . 1.000
H H2 0.51830 0.85660 0.51710 0.0270 Uiso c RU 1.000
H H3 0.23370 0.84860 0.66420 0.0290 Uiso c RU 1.000
H H4 0.00560 0.60230 0.73560 0.0270 Uiso c RU 1.000
H H5 0.03630 0.29610 0.68480 0.0290 Uiso c RU 1.000
H H6 0.29120 0.16370 0.54410 0.0300 Uiso c RU 1.000
H H7 0.56700 0.29840 0.42070 0.0270 Uiso c RU 1.000
loop_
_atom_type_symbol
_atom_type_description
_atom_type_scat_dispersion_real
_atom_type_scat_dispersion_imag
_atom_type_scat_source
C C 0.0033 0.0016 ' International Tables Vol C Tables 4.2.6.8 and 6.1.1.4'
H H 0.0000 0.0000 ' International Tables Vol C Tables 4.2.6.8 and 6.1.1.4'
Cl Cl 0.1484 0.1585 ' International Tables Vol C Tables 4.2.6.8 and 6.1.1.4'
O O 0.0106 0.0060 ' International Tables Vol C Tables 4.2.6.8 and 6.1.1.4'
loop_
_geom_angle_atom_site_label_1
_geom_angle_atom_site_label_2
_geom_angle_atom_site_label_3
_geom_angle
_geom_angle_publ_flag
C1 O1 H1 113(2) no
O1 C1 C2 119.24(17) yes
O1 C1 C7 113.84(16) yes
C2 C1 C7 126.91(15) yes
C1 C2 C3 128.26(15) yes
C2 C3 C4 130.36(18) yes
C3 C4 C5 127.82(16) yes
C4 C5 C6 127.70(16) yes
C5 C6 C7 130.14(16) yes
C1 C7 C6 128.73(17) yes
C1 C2 H2 116.00 no
C3 C2 H2 116.00 no
C2 C3 H3 115.00 no
C4 C3 H3 115.00 no
C3 C4 H4 116.00 no
C5 C4 H4 116.00 no
C4 C5 H5 116.00 no
C6 C5 H5 116.00 no
C5 C6 H6 115.00 no
C7 C6 H6 115.00 no
C1 C7 H7 116.00 no
C6 C7 H7 116.00 no
loop_
_geom_bond_atom_site_label_1
_geom_bond_atom_site_label_2
_geom_bond_distance
_geom_bond_publ_flag
O1 C1 1.321(2) yes
O1 H1 0.88(3) no
C1 C7 1.410(3) yes
C1 C2 1.414(2) yes
C2 C3 1.372(2) yes
C3 C4 1.407(3) yes
C4 C5 1.370(3) yes
C5 C6 1.410(3) yes
C6 C7 1.370(3) yes
C2 H2 0.9500 no
C3 H3 0.9500 no
C4 H4 0.9500 no
C5 H5 0.9500 no
C6 H6 0.9500 no
C7 H7 0.9500 no
loop_
_geom_hbond_atom_site_label_D
_geom_hbond_atom_site_label_H
_geom_hbond_atom_site_label_A
_geom_hbond_site_symmetry_A
_geom_hbond_distance_DH
_geom_hbond_distance_HA
_geom_hbond_distance_DA
_geom_hbond_angle_DHA
_geom_hbond_publ_flag
O1 H1 Cl1 . 0.88(3) 2.00(3) 2.8732(14) 170(4) yes
C2 H2 Cl1 . 0.9500 2.8892 3.620(2) 134.6 yes
C3 H3 Cl1 2_475 0.9500 2.8698 3.609(2) 135.4 yes
C4 H4 O1 2_465 0.9500 2.638 3.351(2) 132.2 yes
C5 H5 Cl1 2_465 0.9500 2.7900 3.717(2) 165.9 yes
C7 H7 Cl1 1_545 0.9500 2.6900 3.623(2) 166.3 yes
loop_
_geom_torsion_atom_site_label_1
_geom_torsion_atom_site_label_2
_geom_torsion_atom_site_label_3
_geom_torsion_atom_site_label_4
_geom_torsion
_geom_torsion_publ_flag
O1 C1 C2 C3 178.61(17) yes
C7 C1 C2 C3 -2.7(3) yes
O1 C1 C7 C6 -178.33(19) yes
C2 C1 C7 C6 2.9(3) yes
C1 C2 C3 C4 -0.5(3) yes
C2 C3 C4 C5 2.6(3) yes
C3 C4 C5 C6 -1.1(3) yes
C4 C5 C6 C7 -0.8(3) yes
C5 C6 C7 C1 -0.3(4) yes
