#------------------------------------------------------------------------------
#$Date: 2019-12-26 21:22:11 +0200 (Thu, 26 Dec 2019) $
#$Revision: 246100 $
#$URL: file:///home/coder/svn-repositories/cod/cif/2/31/17/2311758.cif $
#------------------------------------------------------------------------------
#
# This file is available in the Crystallography Open Database (COD),
# http://www.crystallography.net/. The original data for this entry
# were provided by IUCr Journals, http://journals.iucr.org/.
#
# The file may be used within the scientific community so long as
# proper attribution is given to the journal article from which the
# data were obtained.
#
data_2311758
loop_
_publ_author_name
'Ende, Martin'
'Effenberger, Herta'
'Miletich, Ronald'
_publ_section_title
;
 Evolution of the \a-BaMg(CO<sub>3</sub>)<sub>2</sub> low-temperature
 superstructure and the tricritical nature of its \a-\b phase transition.
;
_journal_issue                   'Pt 5'
_journal_name_full
'Acta crystallographica Section B, Structural science, crystal engineering and materials'
_journal_page_first              827
_journal_page_last               835
_journal_paper_doi               10.1107/S2052520617009295
_journal_volume                  73
_journal_year                    2017
_chemical_formula_sum            'C6 Ba3 Mg3 O18'
_chemical_formula_weight         845.01
_space_group_crystal_system      trigonal
_space_group_IT_number           166
_space_group_name_Hall           '-R 3 2"'
_space_group_name_H-M_alt        'R -3 m :H'
_audit_creation_method           SHELXL-2014/7
_cell_angle_alpha                90
_cell_angle_beta                 90
_cell_angle_gamma                120
_cell_formula_units_Z            1
_cell_length_a                   5.0228(7)
_cell_length_b                   5.0228(7)
_cell_length_c                   16.862(3)
_cell_measurement_reflns_used    4994
_cell_measurement_temperature    440(2)
_cell_measurement_theta_max      45
_cell_measurement_theta_min      1.5
_cell_volume                     368.41(10)
_computing_structure_refinement  'SHELXL-2014/7 (Sheldrick, 2014)'
_diffrn_ambient_temperature      440(2)
_diffrn_measured_fraction_theta_full 0.991
_diffrn_measured_fraction_theta_max 0.993
_diffrn_measurement_device_type  StoeStadiVari
_diffrn_radiation_type           MoK\a
_diffrn_radiation_wavelength     0.71073
_diffrn_reflns_av_R_equivalents  0.0281
_diffrn_reflns_av_unetI/netI     0.0122
_diffrn_reflns_Laue_measured_fraction_full 0.991
_diffrn_reflns_Laue_measured_fraction_max 0.993
_diffrn_reflns_limit_h_max       10
_diffrn_reflns_limit_h_min       -9
_diffrn_reflns_limit_k_max       9
_diffrn_reflns_limit_k_min       -10
_diffrn_reflns_limit_l_max       17
_diffrn_reflns_limit_l_min       -32
_diffrn_reflns_number            4994
_diffrn_reflns_point_group_measured_fraction_full 0.991
_diffrn_reflns_point_group_measured_fraction_max 0.993
_diffrn_reflns_theta_full        25.242
_diffrn_reflns_theta_max         45.269
_diffrn_reflns_theta_min         3.625
_exptl_absorpt_coefficient_mu    8.170
_exptl_absorpt_correction_T_max  0.8
_exptl_absorpt_correction_T_min  0.7
_exptl_absorpt_correction_type   numerical
_exptl_absorpt_process_details   '(Stoe & Cie GmbH 2016)'
_exptl_crystal_density_diffrn    3.809
_exptl_crystal_description       prismatic
_exptl_crystal_F_000             384
_exptl_crystal_size_max          0.060
_exptl_crystal_size_mid          0.030
_exptl_crystal_size_min          0.030
_refine_diff_density_max         1.102
_refine_diff_density_min         -0.693
_refine_diff_density_rms         0.130
_refine_ls_extinction_method     none
_refine_ls_goodness_of_fit_ref   1.146
_refine_ls_hydrogen_treatment    undef
_refine_ls_matrix_type           full
_refine_ls_number_parameters     14
_refine_ls_number_reflns         423
_refine_ls_number_restraints     0
_refine_ls_restrained_S_all      1.146
_refine_ls_R_factor_all          0.0140
_refine_ls_R_factor_gt           0.0140
_refine_ls_shift/su_max          0.000
_refine_ls_shift/su_mean         0.000
_refine_ls_structure_factor_coef Fsqd
_refine_ls_weighting_details
'w=1/[\s^2^(Fo^2^)+(0.0114P)^2^+0.7897P] where P=(Fo^2^+2Fc^2^)/3'
_refine_ls_weighting_scheme      calc
_refine_ls_wR_factor_gt          0.0321
_refine_ls_wR_factor_ref         0.0321
_reflns_Friedel_coverage         0.000
_reflns_number_gt                423
_reflns_number_total             423
_reflns_threshold_expression     'I > 2\s(I)'
_cod_data_source_file            xk5041sup1.cif
_cod_data_source_block           norse_440
_cod_original_cell_volume        368.41(13)
_cod_original_sg_symbol_H-M      'R -3 m'
_cod_database_code               2311758
_shelx_shelxl_version_number     2014/7
_shelx_space_group_comment
;
The symmetry employed for this shelxl refinement is uniquely defined
by the following loop, which should always be used as a source of
symmetry information in preference to the above space-group names.
They are only intended as comments.
;
_shelx_estimated_absorpt_t_min   0.640
_shelx_estimated_absorpt_t_max   0.792
_shelx_res_file
;

    norse_440_a.res created by SHELXL-2014/7


TITL norse_440_a.res in R-3m
REM Old TITL norse_440 in R3m

REM SHELXT solution in R-3m
REM R1 0.034,  Rweak 0.143,  Alpha 0.055,  Orientation as input
REM Formula found by SHELXT:  C2 O6 Mg Ba

CELL  0.71073   5.0228   5.0228  16.8621   90.000   90.000  120.000
ZERR    1.000   0.0007   0.0007   0.0034    0.000    0.000    0.000
LATT  3
SYMM -Y, X-Y, Z
SYMM -X+Y, -X, Z
SYMM Y, X, -Z
SYMM X-Y, -Y, -Z
SYMM -X, -X+Y, -Z
SFAC C O MG BA
UNIT 6 18 3 3
L.S. 20
TEMP 166.85
SIZE 0.06 0.03 0.03
BOND $H
LIST 4
ACTA
FMAP 2
PLAN 20
REM EXTI    0.000707
WGHT    0.011400    0.789700
FVAR       0.43806
BA1   4    0.000000    0.000000    0.500000    10.08333    0.01340    0.01340 =
         0.01886    0.00000    0.00000    0.00670
MG2   3    0.000000    0.000000    0.000000    10.08333    0.01036    0.01036 =
         0.01565    0.00000    0.00000    0.00518
O3    2    0.853705    0.707410    0.257787    10.50000    0.03802    0.01146 =
         0.02958    0.00469    0.00234    0.00573
C4    1    0.000000    0.000000    0.260807    10.16667    0.01207    0.01207 =
         0.01288    0.00000    0.00000    0.00603
HKLF 4

REM  norse_440_a.res in R-3m
REM R1 =  0.0140 for     423 Fo > 4sig(Fo)  and  0.0140 for all     423 data
REM     14 parameters refined using      0 restraints

END

WGHT      0.0114      0.7896

REM Highest difference peak  1.102,  deepest hole -0.693,  1-sigma level  0.130
Q1    1   0.0000  0.0000  0.4629  10.16667  0.05    0.65
Q2    1   0.8301  0.6603  0.3027  10.50000  0.05    0.37
Q3    1  -0.2124 -0.1062  0.4632  10.50000  0.05    0.30
Q4    1   0.9077  0.8154  0.3693  10.50000  0.05    0.29
Q5    1   0.8813  0.7626  0.3262  10.50000  0.05    0.27
Q6    1   0.6728  0.6756  0.3047  11.00000  0.05    0.26
Q7    1   0.9740  0.6570  0.2347  11.00000  0.05    0.25
Q8    1   0.5510  0.6933  0.2928  11.00000  0.05    0.24
Q9    1   0.5433  0.5874  0.2809  11.00000  0.05    0.23
Q10   1   0.9051  0.4526  0.2259  10.50000  0.05    0.22
Q11   1   0.0640 -0.0640  0.3957  10.50000  0.05    0.21
Q12   1   0.0000  0.0000  0.2104  10.16667  0.05    0.21
Q13   1   0.6610  0.8305  0.3053  10.50000  0.05    0.20
Q14   1   0.9165  0.8330  0.2993  10.50000  0.05    0.20
Q15   1   0.7256  0.6953  0.2000  11.00000  0.05    0.18
Q16   1   0.8997  0.5612  0.2920  11.00000  0.05    0.16
Q17   1   0.7847  0.8244  0.2988  11.00000  0.05    0.15
Q18   1  -0.2421 -0.0620 -0.0031  11.00000  0.05    0.15
Q19   1   0.7467  0.8135  0.2160  11.00000  0.05    0.15
Q20   1   1.1029  0.7696  0.3333  10.50000  0.05    0.12
;
_shelx_res_checksum              68428
_shelx_hkl_file
;
   4  -4   8 1320.36   21.50   0
   4  -3 -14  540.62   12.91   0
   5  -5   1  271.14   10.23   0
   1  -1  -7 1634.38   26.03   0
   4  -4  -7  277.88   10.31   0
   2  -2  -8 2699.46   26.80   0
  -1   2   0 3626.85   36.20   0
   3  -1 -17  493.50   14.48   0
   4  -4  -4 1385.46   17.98   0
   2   0 -16  527.20   15.94   0
   3  -2 -13  461.68   13.17   0
   4  -4   5  366.09   11.97   0
   3  -3  -6 1895.94   21.29   0
   0   0   3 1511.55   51.36   0
   4  -4  -1 1218.32   16.88   0
   4  -4   2 1428.95   18.91   0
   5  -4  -9  595.27   12.61   0
   4  -3 -11  303.93   10.19   0
   6  -5  -1  238.56    9.45   0
   6  -5   2  571.09   12.32   0
   1   0 -11  418.33   15.16   0
   2  -1 -12 1595.20   21.61   0
   4  -2 -15  154.65    9.67   0
   2  -2  -5  172.49    9.66   0
   3  -3  -3 1875.81   21.01   0
   3  -3   6 2324.96   27.66   0
   5  -4  -6  947.27   14.51   0
   1  -1  -4 9207.94   61.75   0
   3  -3   0 2368.86   24.29   0
   4  -3  -8 1872.65   19.89   0
   3  -2 -10 1301.66   18.10   0
   5  -4  -3  297.42    9.92   0
  -4   2  -6  686.12   14.31   0
  -1  -1 -15  471.66   11.38   0
  -1   0 -10 1399.77   18.54   0
   1  -1   5 3495.79   34.18   0
   0   0   3 1506.46   33.16   0
  -5   2  -7  290.20   10.06   0
  -3   1 -10 1262.11   16.71   0
  -2   1  -6 3734.66   32.26   0
  -1  -2 -17  459.58   11.72   0
   1  -3 -14 1126.14   18.28   0
  -5   1 -12  527.70   12.10   0
  -2  -1 -16 1002.14   14.80   0
   1  -4 -16  664.53   14.11   0
   0   0   6  279.06   12.44   0
   2  -2  -2 4670.57   35.45   0
   5  -4   6  797.56   13.67   0
   0   1   8 5120.92   45.40   0
   3  -2   2 2901.64   27.73   0
   4  -5  -3  302.83    9.00   0
   2  -5  -8 1508.19   17.31   0
   4  -4  -1 1270.84   15.79   0
   5  -5   1  260.10    8.98   0
  -3   0  -3 1816.27   26.19   0
   3  -4  -5  999.31   14.37   0
   4  -6  -5  245.17    8.48   0
   0  -2  -7  305.57   12.25   0
   3  -1  10 1347.13   31.87   0
   3  -3  -3 1886.11   19.64   0
   6  -5   8  466.69   10.97   0
  -1   1   4 9999.99   58.77   0
   0  -3  -9 1113.75   19.39   0
   1  -3  -8 1835.90   21.75   0
   5  -4   3  746.09   12.66   0
  -1  -2  -8 1854.95   34.60   0
   1  -2  -6 3581.44   32.93   0
  -3  -1  -5  947.30   23.54   0
   3  -6  -9  315.78    9.83   0
   5  -5  -2  970.17   13.27   0
   6  -5   5  352.17    9.59   0
   1  -4 -10  749.27   14.58   0
   4  -5  -6  938.81   13.51   0
   2  -3  -7 1486.80   18.53   0
   2  -4  -9  903.94   14.27   0
   4  -4  -4 1369.81   16.03   0
   5  -3   8 1555.05   20.29   0
   4  -2   6  719.07   15.99   0
   0  -4 -11  527.55   13.92   0
   3  -2  -1  648.82   13.95   0
   6  -5   2  567.62   11.17   0
  -1  -3 -10  738.27   20.17   0
   3  -4  -8 1772.30   18.24   0
   2  -5 -11  213.05    9.01   0
   3  -1   7 1554.35   29.43   0
  -2   0  -2 4691.65   47.74   0
   0  -1  -5 3734.86   47.94   0
   4  -3  -2 1188.70   16.01   0
   2  -1   0 3952.29   38.56   0
   3  -5 -10  463.24   10.58   0
   5  -3   5  640.17   13.41   0
   3  -3  -6 1837.48   19.25   0
   5  -5  -5  586.37   10.86   0
   6  -4   7  200.76    9.16   0
   4  -4  -7  274.25    8.89   0
   4  -2   3  757.65   14.73   0
   5  -4  -3  315.50    9.09   0
   6  -4   4  724.26   13.08   0
   5  -3   2  607.90   12.68   0
   1  -1  -4 9517.00   60.99   0
   2  -4 -12 1512.78   18.22   0
   3  -1   4 3257.83   36.00   0
   4  -3  -5  981.69   14.36   0
   5  -5  -8  529.12   10.63   0
   6  -4   1  519.54   11.08   0
   1  -3 -11  396.52   11.45   0
   3  -2  -4 3119.08   25.85   0
  -1   0  -1 1937.00   42.94   0
   1  -4 -13  503.12   12.80   0
   3  -5 -13  470.62   10.76   0
   5  -4  -6  957.77   13.24   0
   5  -3  -1  689.55   12.58   0
   4  -5 -12  476.80   10.30   0
   4  -4 -10 1058.02   14.08   0
   6  -4  -2  678.67   12.02   0
   0  -3 -12  905.25   18.26   0
   2  -2  -8 2787.49   25.15   0
   2  -1  -3 1909.49   24.61   0
   0  -2 -10 3118.32   34.05   0
  -2   0   1 4912.43   38.70   0
   4  -3  -8 1842.16   18.19   0
   5  -3  -4 1897.44   18.47   0
   4  -2  -3  710.67   13.16   0
   5  -4  -9  593.97   10.99   0
   3  -2  -7 1513.73   17.95   0
   5  -2   7  318.08   12.26   0
   6  -3   3  358.54   10.77   0
   5  -2   4 1988.81   23.20   0
   2  -4 -15  156.76    8.43   0
   2  -3 -13  442.73   10.88   0
   1   0  10 1538.53   28.20   0
   6  -3   0  919.24   14.25   0
   5  -3  -7  310.66    9.05   0
   1  -1  -7 1575.56   23.08   0
   3  -1  -2 2915.80   27.43   0
   5  -2   1  722.51   14.10   0
   1  -3 -14 1079.58   17.36   0
   4  -3 -11  294.58    8.99   0
   4  -2  -6  683.86   12.47   0
   2  -1  -6 3845.30   31.04   0
   6  -3  -3  359.95    9.78   0
   1  -2 -12 1614.01   20.47   0
   3  -2 -10 1309.89   16.37   0
   5  -2  -2  618.44   12.39   0
  -1   0   2 2491.84   33.61   0
   5  -3 -10  491.62   10.62   0
  -1   2 -15  470.21   15.21   0
  -2  -1   8 1806.65   53.28   0
  -2  -1 -10 1314.81   17.02   0
  -1   1 -14 1175.60   19.64   0
  -3   1 -19  235.69    9.60   0
  -1  -1  -6 3685.05   31.52   0
   0   0  -3 1631.71   43.15   0
   0   1   5 3599.76   33.77   0
  -2   2 -19  158.70    9.60   0
  -2   1 -18  689.11   14.37   0
  -3  -2  -1  706.14   14.05   0
  -4  -2  -2  728.40   13.71   0
  -3  -2  -4 1917.43   20.09   0
  -3  -1 -14  548.31   11.69   0
  -3   0 -18  394.15   10.71   0
  -1   0 -13 1025.26   16.81   0
   0   3  -6 1750.99   28.49   0
  -4  -2  -5  272.01    9.63   0
  -4  -2   1  495.49   12.51   0
  -2  -1 -13  460.51   11.31   0
  -1  -1  -9 1124.13   17.03   0
  -3  -2  -7  309.86    9.87   0
  -3  -2   2  604.32   14.37   0
  -2   0 -17  224.83    9.79   0
  -2  -2  -6  692.34   13.29   0
  -2  -2   0 3911.42   32.04   0
   0   0  -6  257.39   14.81   0
  -1   0   8 4863.44   52.81   0
  -3  -2 -10  475.17   11.11   0
  -2  -2  -9  929.20   14.43   0
  -1  -1 -12 1664.28   19.60   0
  -1   1 -17  751.00   15.90   0
   0   1 -10 1434.70   31.39   0
   0   1   2 2379.57   33.22   0
  -3  -2   5  611.68   16.12   0
  -2  -2   3  723.73   17.26   0
  -1   0 -16 1427.04   19.09   0
  -2  -2 -12 1625.54   17.70   0
  -2   0 -20  567.15   12.32   0
  -1  -2  -5 1870.45   21.38   0
  -1  -2  -8 1920.24   20.66   0
  -1  -2  -2 2844.30   28.06   0
  -2  -2 -15  150.26    8.40   0
  -2  -1 -19  225.73    9.05   0
  -3  -3  -6  589.53   12.13   0
  -1  -2 -11  416.64   11.17   0
  -3  -3  -3  364.69   10.59   0
   0  -1  -5 3582.41   36.65   0
   0  -1  -8 4894.07   38.03   0
   0   2  -5  163.48   13.12   0
  -2  -3  -8 1557.47   17.74   0
  -2  -3  -5  619.53   12.43   0
  -1   0 -19  193.89    9.94   0
   0   0 -12 4094.78   36.57   0
  -3  -3   0  885.31   15.60   0
  -2  -3  -2  611.61   13.28   0
  -1  -2 -14 1149.46   15.51   0
  -2  -3 -11  234.98    9.10   0
  -1  -1 -18  720.94   13.62   0
  -2   0  10 2979.97   40.12   0
   0  -1 -11  412.06   12.20   0
   0  -1  -2 2287.41   35.25   0
   0   1 -13 1029.16   23.91   0
  -1  -3  -7  588.11   12.41   0
   0   1  -1 1853.10   39.44   0
  -2  -3   1  689.95   15.05   0
  -2  -2   6  674.39   21.29   0
   0  -2  -7  327.85   10.90   0
   0  -1 -14 1195.50   17.91   0
   0   0 -15  158.71    9.55   0
  -1  -3 -13  545.33   11.52   0
   0  -2 -10 3188.64   26.49   0
  -1  -1 -21  235.56    9.95   0
   0  -2  -4 2088.96   24.86   0
  -1  -3  -1  797.46   14.99   0
   0  -2 -13 1065.49   15.96   0
  -2  -4  -7  194.69    8.95   0
   0  -1 -17  784.45   15.06   0
  -2  -4  -4  719.58   13.39   0
   0   1 -16 1438.30   26.37   0
   0  -2 -16  518.89   11.88   0
   0   0 -18  485.73   13.86   0
  -1  -2   4 3046.34   40.58   0
   0  -3  -9 1159.50   16.20   0
  -1  -4  -9  302.39    9.67   0
  -2  -3   4 1894.35   26.02   0
   0  -3 -12  935.72   14.39   0
   0  -3  -6 2370.04   22.97   0
   0  -2  -1 4970.14   41.66   0
  -2  -4  -1  484.64   12.18   0
   0  -3 -15  256.43    9.15   0
   0  -1 -20  566.42   13.31   0
  -1  -4  -3  732.48   13.84   0
  -1  -3   2 1188.59   20.19   0
   0  -2 -19  171.01    8.84   0
   0  -3  -3  483.60   12.70   0
   0  -4 -11  552.77   11.60   0
   0  -4  -8 1296.77   16.48   0
   0  -4 -14  489.76   10.90   0
   0  -1   1 1696.21   39.76   0
  -1   1   4 9280.19   61.35   0
   1  -4 -10  759.99   12.70   0
   1  -4  -7  612.67   12.03   0
   1  -2  -9 1128.67   17.91   0
   1  -2  -6 3780.81   31.81   0
   1  -4  -4 2435.31   21.68   0
   1  -3 -14 1081.90   15.35   0
   1  -2 -12 1620.25   19.93   0
   0  -4   4 1366.62   19.11   0
   1  -5  -9  316.29    9.39   0
   1  -3  -2 2865.49   26.24   0
   5  -6 -16  260.26   10.40   0
   6  -6  -9  181.53    9.63   0
   2  -4 -21  260.28   10.16   0
   9  -6 -12   97.32    8.62   0
   4  -5 -24   84.39    9.50   0
   6  -6 -21   66.53    8.85   0
   6  -6 -12  430.96   11.38   0
   3  -4  -5  968.13   13.50   0
   5  -5  -5  568.73   11.66   0
   6  -4   1  472.84   11.37   0
   8  -6 -10  112.97    8.88   0
   2  -4 -18  269.57    9.66   0
   2  -4 -15  149.13    8.21   0
   4  -5  -9  583.05   11.52   0
   6  -6 -18   93.20    9.27   0
   6  -6 -15  100.50    8.93   0
   7  -6 -11  102.95    9.45   0
   7  -5  -3  333.52   10.20   0
   1  -3 -11  400.76   10.02   0
   5  -4   0 1207.99   15.41   0
   7  -6 -20  126.39    9.98   0
   1  -3 -20  353.42   10.74   0
   3  -4 -26  107.42    9.67   0
   4  -5 -21  127.50    9.97   0
   5  -5 -26   97.75    9.68   0
   6  -5  -4  629.72   12.13   0
   7  -6 -17  106.07    9.57   0
   7  -6 -14   88.05    9.05   0
   8  -6 -16  103.43    8.77   0
   9  -5  -7   36.06    8.14   0
   0  -2 -13 1071.84   16.45   0
   2  -3  -4 3108.72   23.94   0
   4  -5 -12  545.75   11.78   0
   8  -5  -5  129.88    8.95   0
   1  -3 -17  461.92   11.55   0
   1  -3 -14 1108.22   15.57   0
   0  -2 -16  537.36   12.63   0
   4  -5 -15  129.80    8.75   0
   4  -4 -28   32.58    8.94   0
   5  -5 -23   45.03    8.89   0
   3  -4 -23   50.37    8.82   0
   3  -4  -8 1857.37   18.11   0
   7  -5  -6  287.96   10.32   0
   9  -5 -10   62.45    8.79   0
   4  -4  -4 1329.67   15.69   0
   4  -3   1  750.67   13.24   0
   7  -4  -1  169.59    8.64   0
   8  -5  -8  261.49   10.52   0
   5  -5 -20  149.40    9.94   0
   5  -5 -11  179.78    9.22   0
   5  -3   2  575.33   12.25   0
   9  -5 -13   83.20    9.03   0
   2  -3 -25  108.85    9.37   0
   3  -4 -20  312.67   11.03   0
   5  -5 -17  203.87   10.18   0
   5  -5 -14  471.91   11.89   0
   6  -5 -22   91.74    9.32   0
   3  -4 -11  311.16    9.46   0
   5  -4  -3  297.07    9.61   0
   6  -4  -2  718.84   12.97   0
   4  -4 -25  107.42    9.81   0
   6  -5 -10  356.80   10.63   0
   7  -5 -21   44.25    9.60   0
   8  -5 -11   83.74    8.72   0
   2  -3  -7 1469.79   16.90   0
   3  -4 -14  559.99   11.90   0
   5  -4 -27   19.71    9.51   0
   6  -5 -19   69.22    9.92   0
   6  -5 -13  167.24   10.02   0
   8  -5 -17   69.69    8.72   0
   6  -5 -16  278.56   10.95   0
   7  -5 -18  104.15    9.31   0
   7  -5 -12  297.14   10.62   0
   2  -3 -22  232.01   10.04   0
   4  -4  -7  261.59    9.10   0
   7  -5 -15  124.88    9.43   0
   3  -3 -27   54.06    9.20   0
   3  -3  -3 1823.37   18.65   0
   4  -4 -22  261.60   10.86   0
   7  -4  -4  408.71   11.08   0
   4  -3 -29   43.10    9.25   0
   8  -4  -6  167.96    9.27   0
   9  -4 -11   40.79    8.34   0
   2  -3 -19  244.17    9.78   0
   2  -3 -10 1277.99   15.81   0
   9  -4 -14   52.79    8.21   0
   4  -4 -10 1100.02   14.64   0
   5  -4  -6  934.29   13.67   0
   6  -4  -5  265.09    9.52   0
   2  -3 -16  957.77   14.79   0
   4  -4 -13  598.24   11.96   0
   6  -3   0  848.63   14.15   0
   3  -3 -24  208.83   10.73   0
   6  -4 -23   60.50    8.84   0
   8  -4  -9  127.37    8.93   0
   1  -2 -21  244.35    9.70   0
   5  -4 -21  151.12    9.94   0
   7  -4 -22   70.00    9.17   0
   7  -4  -7  274.95   10.31   0
   5  -3 -28   62.23    9.55   0
   8  -4 -18   65.49    8.46   0
   8  -4 -12  206.27   10.26   0
   4  -3 -26  127.83   10.35   0
   5  -4  -9  569.71   11.66   0
   5  -3  -1  678.50   12.68   0
   2  -2 -26  123.52    9.67   0
   3  -3  -6 1857.23   18.40   0
   5  -4 -18  357.38   11.64   0
   7  -3  -2  473.51   11.85   0
   6  -4 -20  141.70   10.05   0
   7  -4 -19   93.28    9.60   0
   7  -4 -10  288.70   10.57   0
   5  -4 -15  125.56    9.11   0
   5  -4 -12  536.25   11.73   0
   1  -2 -18  715.86   13.67   0
   3  -3 -21  182.04   10.08   0
   4  -2 -30   49.07    9.42   0
   6  -4 -17  111.73   10.14   0
   7  -4 -16  185.49    9.76   0
   7  -4 -13   90.09    9.47   0
   3  -2 -28  105.84   10.27   0
   6  -4 -11  248.37    9.68   0
   6  -4 -14  314.11   10.45   0
   1  -2 -15  498.58   11.60   0
   1  -2 -12 1601.17   18.55   0
   4  -3 -23   54.88    9.49   0
   8  -3  -7   87.72    8.66   0
   3  -3  -9  483.00   10.68   0
   7  -3 -23   26.46    9.12   0
   4  -3  -5  971.89   14.16   0
   6  -3 -24   73.67    9.28   0
   6  -3  -3  356.96   10.21   0
   8  -3 -19   25.75    8.29   0
   2  -2 -23  173.22    9.67   0
   3  -3 -15  456.27   11.39   0
   7  -3  -5  279.02   10.04   0
   3  -3 -12 1426.12   16.52   0
   8  -3 -16  112.04    9.61   0
   8  -3 -10  152.30    9.26   0
   5  -3  -4 1850.10   18.68   0
   8  -3 -13   90.06    9.34   0
   5  -3 -22  164.11   10.28   0
   7  -3 -20   85.91    9.89   0
  -6  -1 -17  106.33   10.10   0
  -5  -3 -11   83.79    9.83   0
  -5  -2 -15  124.83    9.87   0
  -2  -2 -12 1588.39   17.34   0
  -2   0 -14  902.55   14.21   0
  -7   0 -19   16.33    8.46   0
  -1  -4   3  303.57    9.76   0
  -4  -3 -13  114.59    9.32   0
  -3  -4  -8  321.80   11.04   0
  -4  -1 -18  327.26   10.66   0
  -4   0 -19   69.42    8.07   0
  -1  -4   0 1248.67   15.68   0
  -1  -3  -7  593.92   11.18   0
  -5   0 -20  130.81    9.26   0
  -4  -4  -9  151.08    9.88   0
  -3  -1 -17  388.70   11.04   0
  -2  -3 -11  234.46    9.18   0
  -2  -4  -7  210.76    9.06   0
  -5  -3 -14  107.10   10.01   0
  -3  -5   2  173.80    9.54   0
  -3   0 -18  384.81   10.63   0
  -6   0 -21   73.04    9.23   0
  -5  -4 -10   82.16    9.87   0
  -4  -5   1  102.51    9.16   0
  -3  -5  -1  163.93    9.57   0
  -5  -2 -18   97.21   10.17   0
  -4  -5  -2   78.17    9.47   0
  -1  -2 -11  421.62   10.23   0
  -6  -1 -20  118.45   10.18   0
  -3  -4 -11  101.91    9.83   0
   0  -3   0 2230.20   21.92   0
  -3  -5  -4  343.73   11.41   0
  -2  -5   0  442.40   11.47   0
  -2  -5   3  328.02   10.76   0
  -5  -5   0  117.28    9.48   0
  -3  -3 -15  118.30    9.10   0
  -2  -1 -16  944.00   14.33   0
  -1  -4  -6  766.20   12.59   0
  -1  -3 -10  814.54   13.09   0
  -4  -5  -5   79.44    9.42   0
  -5  -5  -3   49.64    8.65   0
  -2  -5  -3  118.21    8.48   0
   0  -3  -3  491.25   11.01   0
  -5  -4 -13   73.33   10.27   0
  -5  -3 -17   85.71   10.36   0
  -4  -1 -21  151.73    9.59   0
  -3  -4 -14  282.09   11.40   0
  -2   0 -17  225.55    9.15   0
  -1  -4  -9  313.50    9.68   0
  -4  -2 -20  155.45    9.87   0
  -3  -2 -19   74.76    8.94   0
  -1  -5   1  257.36    9.52   0
   0  -2  -7  323.65    9.53   0
  -5  -1 -22   98.85    9.46   0
  -4  -4 -15   45.40    9.90   0
  -3  -1 -20  314.04   10.58   0
  -1  -5  -2  611.16   12.51   0
   0  -3  -6 2372.04   20.74   0
  -3  -5 -10  153.50    9.93   0
  -1  -5   4  600.62   13.15   0
  -5  -2 -21   50.19    9.54   0
  -2  -5  -9  287.99   10.35   0
  -1  -3 -13  539.17   11.45   0
  -1   0 -13  998.52   15.83   0
   0  -4  -2 1369.41   16.54   0
   0  -4   1 1210.25   16.26   0
  -4  -5 -11   57.20    8.91   0
  -2  -2 -18  271.93    9.81   0
  -2  -3 -17  332.40   10.55   0
  -1  -4 -12  722.45   13.24   0
   0  -4  -5  345.58    9.60   0
  -3   0 -21  174.14    9.38   0
  -1  -1 -15  481.76   11.23   0
  -3  -6  -3  103.63    9.53   0
  -3  -5 -13  105.82    9.58   0
  -2  -1 -19  228.07    9.43   0
  -1  -5  -8  511.39   11.60   0
   0  -3  -9 1166.73   15.07   0
  -2  -6  -2  159.73    9.78   0
  -2  -5 -12  224.88   10.34   0
  -4  -5 -14   62.90    9.75   0
  -3  -6  -6   91.58    9.27   0
  -2  -6   1  154.22    9.34   0
  -2  -4 -16  261.03   10.51   0
   0  -2 -10 3063.04   23.94   0
  -2  -6  -5  133.17    9.61   0
   0  -4  -8 1252.55   15.40   0
  -1  -3 -16  692.75   12.98   0
  -4  -2 -23   62.80    9.40   0
  -3  -6  -9   62.64    9.37   0
  -3  -2 -22  150.43    9.84   0
  -1  -5 -11  146.00    8.98   0
   0  -5  -1  261.91    9.48   0
  -3  -3 -21   89.91    9.96   0
  -2  -6  -8  248.98   10.67   0
  -1  -2 -17  453.63   11.16   0
   0  -5  -4  821.41   13.36   0
  -4  -3 -22   88.61    9.54   0
  -3  -5 -16  115.16   10.60   0
  -1  -6  -4  503.33   12.37   0
  -1  -4 -15  221.02    9.55   0
  -2  -5 -15   57.28    9.08   0
   0  -3 -12  938.12   13.87   0
  -3  -1 -23   37.86    8.30   0
  -2  -3 -20  285.39   10.72   0
  -2  -2 -21  268.32   10.39   0
  -1  -6  -7   87.33    9.35   0
  -2  -6 -11   76.85    9.45   0
  -2  -4 -19   63.03    9.62   0
  -2   0 -20  552.76   12.85   0
  -1  -5 -14  301.77   10.73   0
  -1   0 -16 1417.38   18.85   0
   0  -5 -10  536.03   11.76   0
  -1  -1 -18  682.13   12.98   0
  -3  -5 -19   18.28    9.86   0
  -1  -3 -19  119.24    8.97   0
  -2  -6 -14  123.20    9.81   0
  -2  -5 -18  147.52   10.30   0
  -1  -4 -18  233.50   10.10   0
   0  -4 -14  533.57   11.71   0
   0  -3 -15  257.17    9.39   0
  -2  -7  -4  128.38    9.41   0
   0  -6  -6  307.55   10.27   0
   0  -6   0  695.72   13.48   0
  -3  -3 -24   82.30    9.90   0
  -1  -6 -13  168.09   10.00   0
  -1  -5 -17  162.16    9.97   0
  -1  -2 -20  350.52   10.83   0
   0  -5 -13  158.68    9.02   0
  -3  -2 -25   88.87    9.46   0
  -2  -7  -7   74.52    8.82   0
   1  -4  -4 2448.99   21.33   0
   1  -3  -5 1886.13   19.50   0
  -3  -4 -23   34.64    8.68   0
  -2  -3 -23   32.62    8.69   0
   1  -4  -1  784.30   13.40   0
  -2  -4 -22  140.27    9.97   0
  -1  -7  -3  127.54    9.43   0
   1  -4  -7  611.18   11.71   0
  -2  -7 -10   93.04    9.48   0
  -1  -7  -6  114.05    9.35   0
   0  -2 -16  532.81   11.76   0
   0  -1 -14 1121.68   16.09   0
   1  -5  -3  721.67   12.96   0
   1  -3  -8 1925.20   19.14   0
  -2  -2 -24  177.63    9.68   0
  -1  -7  -9   67.19    9.57   0
   0  -4 -17  196.08    9.53   0
   1  -5  -6  760.47   12.89   0
  -2  -5 -21   84.59    9.18   0
   1  -4 -10  801.84   13.14   0
   0  -5 -16  349.67   11.12   0
   1  -5  -9  309.07   10.22   0
   1  -5   0 1223.06   16.55   0
   1  -4   2 1145.43   17.17   0
  -1  -3 -22  200.05   10.18   0
  -1  -5 -20  139.07    9.88   0
   1  -3 -11  416.13   10.35   0
  -1  -1 -21  241.30    9.91   0
   0  -7  -5  167.18    9.93   0
   0  -7  -8  341.62   11.71   0
   0  -7  -2  109.35    8.97   0
   1  -6  -5  361.39   10.81   0
   1  -5 -12  718.48   13.17   0
   1  -4 -13  537.79   11.57   0
   1  -6  -2  619.90   12.56   0
  -2  -4 -25   70.96    9.65   0
  -1  -6 -19   25.14    8.69   0
  -1  -2 -23   81.07    8.41   0
   1  -2  -9 1113.28   15.57   0
  -1  -7 -15   33.77    8.76   0
   0  -5 -19  139.02    9.59   0
  -2  -3 -26   76.19    8.81   0
   0  -2 -19  174.29    8.38   0
   1  -6 -11  171.80    9.40   0
   1  -6   1  264.42    9.96   0
   1  -3 -14 1113.94   14.91   0
  -1  -4 -24  125.95    9.98   0
   0  -1 -17  775.21   13.89   0
   1  -5 -15  216.89    9.83   0
   0  -7 -14   79.96    9.02   0
   0  -3 -21  217.20    9.88   0
   1  -4 -16  691.34   12.91   0
   1  -7  -7   87.14    9.03   0
   1  -7  -4  488.19   12.24   0
   1  -6 -14  307.34   10.67   0
  -1  -3 -25   93.97    9.42   0
  -1  -6 -22   53.79    9.06   0
   0  -8  -7   77.63    9.13   0
   0  -7 -17   95.40    9.23   0
   1  -5 -18  233.46   10.22   0
   0  -8 -10   79.29    8.97   0
   0  -4 -23   90.72    9.33   0
   1  -7 -13  161.33   10.48   0
   0  -6 -21   89.80    9.30   0
   1  -6 -17  147.99    9.52   0
   2  -5  -8 1505.95   16.83   0
   1  -2 -15  468.60   11.09   0
   0  -8 -13   62.17    8.44   0
   0  -2 -22  466.65   11.86   0
   2  -5 -11  219.88    9.71   0
   2  -4  -6  693.17   12.30   0
   2  -4  -9  940.17   13.95   0
   1  -7 -16  162.31    9.96   0
   2  -6 -10  486.51   11.58   0
   2  -6  -4  674.97   12.68   0
   2  -5  -2  591.08   12.11   0
  -1  -4 -27   28.90    8.19   0
   0  -7 -20   93.69    9.42   0
   0  -3 -24  135.84    8.90   0
   0  -1 -20  553.92   12.50   0
   1  -8  -6  112.06    9.57   0
   1  -8  -9   82.34    9.13   0
   2  -5 -14  313.45   10.83   0
   2  -4 -12 1609.21   17.42   0
   1  -6 -20  115.25    9.79   0
   2  -6 -13  280.17   10.13   0
   0  -5 -25   56.17    9.20   0
   1  -8 -12  161.06   10.08   0
   1  -3 -20  338.91   10.31   0
   2  -7  -6  376.80   11.38   0
   2  -6  -1  494.46   11.63   0
   1  -7 -19   31.37    9.45   0
   1  -4 -22  188.14   10.09   0
   1  -2 -18  683.71   13.15   0
   2  -7 -12  194.11    9.93   0
   0  -4 -26  103.79    9.15   0
   2  -7  -3  114.42    8.60   0
   2  -6 -16  237.36   10.21   0
   2  -4 -15  167.44    8.46   0
   2  -3  -7 1497.52   17.38   0
   2  -5 -17  339.74   10.91   0
   2  -5   1  672.07   13.07   0
   2  -4   0 3736.03   28.37   0
   2  -7 -15   38.87    8.92   0
   2  -3  -4 3203.80   25.46   0
   1  -6 -23   22.72    9.36   0
   1  -1 -13 1000.13   15.59   0
   2  -3 -13  474.25   11.00   0
   1  -5 -24  143.76    9.89   0
   2  -8  -8  218.46   10.64   0
   2  -8 -11   66.24    9.01   0
   2  -7   0  457.22   11.91   0
   2  -6 -19   56.45    8.92   0
   0  -3 -27   38.84    9.03   0
   1  -7 -22   60.44    8.71   0
   2  -8  -5  122.92    9.46   0
   1  -3 -23   71.89    8.08   0
   2  -7 -18  171.04   10.25   0
   2  -5 -20  280.63   10.58   0
   1  -4 -25  107.36    9.33   0
   1  -2 -21  236.20    9.61   0
   3  -6  -9  313.88   10.35   0
   1  -1 -16 1440.39   18.37   0
   2  -8 -17   58.66    9.60   0
   3  -6 -12  480.36   11.79   0
   3  -7 -11  113.24    9.48   0
   3  -7  -8  305.32   10.90   0
   3  -5 -10  480.36   11.35   0
   3  -5  -7  291.33    9.91   0
   2  -7 -21   85.02    9.71   0
   2  -6 -22  138.95    9.63   0
   2  -4 -21  251.42   10.04   0
   3  -7 -14  232.96   11.16   0
   3  -7  -5  289.80   10.42   0
   3  -6 -15  140.85    9.50   0
   3  -5 -13  492.40   11.49   0
   1  -5 -27   22.90    8.79   0
   2  -9 -10   81.80    9.17   0
   2  -5 -23   16.28    9.00   0
   2  -3 -19  223.58    9.50   0
   3  -6  -3  365.27   10.61   0
   2  -9  -7   70.95    9.10   0
   2  -2 -11 1672.07   18.46   0
   2  -2  -8 2849.72   24.00   0
   3  -8 -10  162.23   10.16   0
   3  -5 -16  527.79   11.98   0
   3  -8  -7   74.71    9.10   0
   3  -7 -17  122.21    9.63   0
   3  -6 -18  207.59   10.83   0
   3  -4 -11  303.86    9.58   0
   1  -3 -26  158.20    9.43   0
   2  -2 -14  916.79   14.37   0
   3  -4  -8 1847.52   18.68   0
   1  -1 -19  199.95    9.25   0
   1  -2 -24  204.91   10.05   0
   2  -6 -25   53.87    9.22   0
   3  -8 -16  128.03   10.23   0
   3  -8  -4  315.65   10.97   0
   3  -4 -14  575.11   11.85   0
   1  -4 -28   60.97    9.02   0
   2  -4 -24  195.07   10.14   0
   3  -5 -19   71.96    9.28   0
   3  -4  -5  985.63   14.59   0
   3  -7 -20  102.05    9.91   0
   2  -3 -22  228.13    9.72   0
   3  -6 -21   95.83    9.91   0
   3  -6   0  878.05   14.53   0
   3  -5  -1  699.37   13.04   0
   2  -5 -26   88.30    9.16   0
   2  -2 -17  218.18    8.72   0
   3  -9 -12  124.54    9.70   0
   3  -9  -9   46.62    8.92   0
   3  -4 -17  389.13   10.92   0
   3  -8 -19   19.46    8.50   0
   3  -9  -6   92.35    9.21   0
   3  -7   1  163.86    9.16   0
   3  -5 -22  144.34    9.90   0
   4  -7 -10  298.54   11.03   0
   3  -7 -23   30.77    8.97   0
   4  -7 -13  115.05    9.15   0
   4  -6 -11  247.44   10.03   0
   3  -4 -20  312.97   10.59   0
   3  -3 -12 1472.69   16.99   0
   4  -7  -7  248.30   10.31   0
   4  -6 -14  315.49   10.75   0
   4  -6  -8  575.56   12.56   0
   2  -2 -20  573.61   12.53   0
   3  -3  -9  471.18   10.88   0
   4  -8  -9  131.82    9.86   0
   4  -7 -16  191.34   10.10   0
   2  -4 -27   19.13    8.56   0
   4  -8 -15   54.81    9.46   0
   4  -6 -17  120.32    9.44   0
   2  -3 -25  104.63    8.74   0
   4  -8  -6  174.38   10.03   0
   4  -5 -12  535.98   11.89   0
   3  -3  -6 1886.19   19.21   0
   4  -7 -19   79.61    9.33   0
   4  -7  -4  423.96   11.06   0
   4  -5  -9  605.25   12.26   0
   4  -9 -11   24.77    8.85   0
   4  -8 -18   59.43    8.91   0
   4  -5 -15  129.13    8.81   0
   3  -5 -25   98.13    9.17   0
   3  -5   2  581.00   12.50   0
   3  -4 -23   50.75    8.61   0
   3  -3 -18  401.92   10.74   0
   4  -9 -14   42.80    8.98   0
   4  -9  -8  186.44   10.40   0
   4  -6 -20  151.41    9.85   0
   4  -5  -6  925.19   14.13   0
   4  -8  -3  136.62    9.22   0
   4  -5 -18  350.30   10.77   0
   2  -2 -23  167.14    9.05   0
   4  -7 -22   76.03    8.58   0
   4  -6  -2  699.35   13.02   0
   4  -9  -5   79.42    8.98   0
   4  -7  -1  177.83    9.48   0
   2  -1 -12 1592.83   18.87   0
   3  -3 -21  164.87    9.21   0
   3  -4   1  762.06   13.49   0
   3  -3  -3 1922.88   19.64   0
   4  -4 -13  592.86   11.89   0
   4  -4 -10 1087.60   14.85   0
   2  -1 -15  486.04   11.67   0
   4  -4 -16  365.89   10.93   0
   5  -7 -12  277.14   11.19   0
   3  -5 -28   48.29    8.42   0
   3  -4 -26  110.47    9.23   0
   4  -4  -7  269.27    9.08   0
   5  -8 -14  100.63    9.53   0
   5  -7 -15  105.34    9.36   0
   4  -4 -19   82.58    8.51   0
   5  -8 -17   72.40    9.30   0
   5  -8  -8  285.00   10.63   0
   2  -1 -18  701.99   13.57   0
   5  -9 -13   67.17    9.19   0
   5  -7 -18   95.65    9.33   0
   5  -6 -13  167.42    9.27   0
   5  -6 -10  376.85   10.80   0
   3  -2 -10 1302.98   16.15   0
   4  -5 -24   78.09    9.16   0
   5  -9 -10   69.80    8.74   0
   5  -6 -16  261.46   10.53   0
   3  -3 -24  199.85    9.74   0
   3  -2 -16  912.97   14.23   0
   4  -6 -26   49.69    8.67   0
   5  -8 -20   70.30    9.32   0
   4  -6   1  461.97   11.30   0
   5  -9  -7   40.36    8.59   0
   5  -8  -5  122.98    9.33   0
   5  -6  -7  304.50    9.98   0
   4  -4  -4 1335.80   16.12   0
   5  -7 -21   47.28    8.41   0
   5  -6 -19   77.78    8.93   0
   4  -4 -22  251.02   10.35   0
   3  -2 -19  229.10    9.33   0
   3  -2  -7 1523.63   17.41   0
   4  -5   0 1186.91   15.94   0
   5  -5 -14  446.71   11.89   0
   5  -7  -3  332.06   10.64   0
   5  -5 -11  174.02    9.17   0
   5  -5 -17  195.36    9.45   0
   4  -3 -11  307.43    9.43   0
   5  -9  -4  235.35    9.77   0
   5  -6  -4  611.19   12.16   0
   5  -5  -8  552.32   12.01   0
   4  -5 -27   17.00    7.94   0
   4  -3 -17  379.94   10.49   0
   5  -8  -2  182.25    9.30   0
   4  -3  -8 1885.28   18.51   0
   3  -2 -22  223.27    9.34   0
   4  -4 -25   86.88    8.87   0
   6  -8 -13  103.50    8.97   0
   4  -3 -20  321.43   10.60   0
   6  -8 -16  108.89    9.16   0
   5  -5  -5  554.19   11.53   0
   6  -9 -12   97.01    8.81   0
   6  -7 -14   83.87    8.99   0
   6  -7 -11  103.21    8.88   0
   3  -2  -4 3186.44   24.91   0
   5  -6 -25   36.34    8.14   0
   6  -7 -17  110.42    9.54   0
   6  -9  -9   98.46    8.75   0
   0  -7  -8  349.05   11.55   0
   0  -4 -11  560.00   12.26   0
   2  -8  10  124.24    9.37   0
   1  -8  -3  113.03   10.30   0
   1  -9   4   79.82    9.90   0
   1  -6  -8  504.19   12.05   0
   2  -8  13  105.80    9.53   0
   2  -3   2 2891.28   24.55   0
   2  -8   1  143.40    9.80   0
   2  -7  -3  115.01    9.39   0
   2  -6  -4  696.13   12.86   0
   1  -9   1   61.35    9.19   0
   1  -5  -9  304.12    9.69   0
   0  -8  -7   64.28    9.35   0
   2  -4  -3  748.07   12.76   0
   3  -6   9  334.67   10.20   0
   2  -8  -2  160.78   10.47   0
   2  -5  -5  649.64   12.06   0
   0  -6 -12  340.83   11.31   0
   1  -8  -6  103.69    9.57   0
   2  -9   5   96.52    9.44   0
   3  -7   4  421.40   11.36   0
   3  -7  10  287.26   10.39   0
   3  -6   3  362.06   10.37   0
   3  -5   8 1540.12   18.09   0
   1  -9  -2  101.55    9.28   0
   2  -9  11   27.32    8.20   0
   3  -6  12  463.05   11.79   0
   0  -7 -11   53.54    9.18   0
   2  -9   2  113.12    9.61   0
   0  -5 -13  150.48    8.93   0
   2  -3  -1  609.73   12.20   0
   3  -8   5  132.52   10.08   0
   3  -8   8  286.09   11.16   0
   3  -7   1  175.73    9.26   0
   3  -7  13   99.63    8.75   0
   3  -5  11  224.48    9.30   0
   2  -7  -6  379.13   11.31   0
   3  -6   0  910.39   13.83   0
   1  -4 -10  765.31   13.48   0
   3  -8  11   84.20    9.27   0
   3  -5   2  594.70   11.69   0
   0  -3 -12  888.58   15.16   0
   1  -7 -10  188.88   10.26   0
   2  -9  -1   51.86    8.72   0
   2  -8  -5  111.48   10.09   0
   3  -8   2  188.21   10.09   0
   0  -8 -10   82.67   10.12   0
   1  -9  -5   51.97    9.04   0
   1  -6 -11  161.47    8.94   0
   3  -7  -2  505.88   12.37   0
   2  -4  -6  691.84   12.63   0
   3  -8  14   95.34    8.92   0
   1  -8  -9   85.04    9.51   0
   3  -9   9  101.39    9.54   0
   3  -8  -1  168.73    9.99   0
   3  -5  -1  686.50   12.20   0
   3  -9   3   47.69    9.49   0
   3  -6  -3  362.36   10.54   0
   3  -4   7  611.11   12.47   0
   1  -5 -12  694.70   13.40   0
   0  -4 -14  467.71   12.09   0
   3  -9  12  112.01    8.87   0
   3  -4  10  763.84   14.40   0
   2  -7  -9  282.24   10.47   0
   3  -9   0  202.46   11.03   0
   2  -8  -8  218.90   11.06   0
   3  -7  -5  308.68   11.00   0
   2  -3  -4 3213.87   25.20   0
   3  -8  -4  307.97   10.98   0
   2  -6 -10  473.00   11.45   0
   3  -4   1  799.03   13.04   0
   4  -7   8  338.88   10.95   0
   2  -9  -7   81.41    9.52   0
   3  -6  -6  584.91   12.46   0
   3  -5  -4 1921.59   18.74   0
   1  -7 -13  160.10    9.79   0
   4  -8   3  145.99    9.48   0
   4  -8   9  139.14    9.19   0
   4  -7   2  485.43   11.80   0
   4  -7  11  130.54    8.90   0
   4  -6   7  214.67    9.67   0
   1  -8 -12  149.45   10.35   0
   3  -8  -7   84.33    9.74   0
   4  -9   4  247.23   11.15   0
   4  -9   7   51.15    9.03   0
   4  -8   0  358.56   11.43   0
   4  -8  12  204.55   10.05   0
   4  -6  10  463.19   11.97   0
   3  -4  -2 1191.98   15.22   0
   4  -9  10   65.69    9.25   0
   4  -7  -1  173.12    9.33   0
   2  -5 -11  213.17    9.37   0
   4  -9   1  115.70   10.25   0
   4  -6   1  498.37   11.57   0
   1  -4 -13  497.10   11.79   0
   1  -3 -11  399.95   10.97   0
   2  -8 -11   69.80    8.99   0
   2  -7 -12  200.58   10.32   0
   3  -9  -6   91.02    9.40   0
   4  -9  13   59.45    9.45   0
   4  -8  -3  133.11    9.68   0
   2  -9 -10   85.53    9.39   0
   3  -5  -7  314.98    9.76   0
   4  -9  -2   83.06    9.29   0
   4  -6  13  265.26   10.38   0
   4  -7  -4  416.01   11.31   0
   4  -6  -2  713.21   13.04   0
   4  -5   6  782.91   13.72   0
   2  -6 -13  256.91   10.30   0
   1  -5 -15  212.69    9.69   0
   2  -3  -7 1440.64   17.31   0
   4  -5   9  293.73   10.08   0
   3  -8 -10  135.59    9.80   0
   3  -9  -9   68.50    9.35   0
   3  -4  -5 1006.85   14.26   0
   3  -3   6 2345.02   23.41   0
   4  -8  -6  158.63   10.56   0
   3  -7 -11  110.73    9.31   0
   4  -9  -5   83.32    9.73   0
   4  -5   0 1220.35   15.52   0
   5  -8   7   94.76    9.22   0
   3  -3   9 1101.00   17.75   0
   4  -7  -7  272.31   10.33   0
   4  -5  12  687.42   14.14   0
   5  -9   5   79.21    9.14   0
   2  -8 -14   85.86    9.50   0
   5  -9   2   74.51    9.39   0
   5  -9   8  199.79   10.19   0
   5  -8   1  170.15    9.73   0
   5  -7   6  371.14   11.56   0
   5  -8  10  135.19    9.91   0
   2  -7 -15   47.10    8.48   0
   3  -3   0 2448.21   22.08   0
   4  -5  -3  302.72    9.60   0
   5  -7   9  281.74   10.69   0
   2  -5 -14  302.25   10.18   0
   2  -4 -12 1504.80   17.93   0
   5  -9  -1   95.26    9.34   0
   5  -9  11   37.14    8.30   0
   5  -7   0  465.66   12.06   0
   3  -6 -12  438.27   11.45   0
   3  -9 -12  111.54    9.97   0
   3  -8 -13   99.75    9.69   0
   5 -10   0  123.90    9.69   0
   3  -4  -8 1824.22   18.50   0
   4  -6  -8  577.03   11.91   0
   5  -9  -4  233.99   10.61   0
   5  -7  12  205.68   10.15   0
   4  -4   5  349.02   10.19   0
   5  -6   5  356.96   10.59   0
   2  -6 -16  226.21   10.43   0
   3  -7 -14  251.31   10.64   0
   5 -10  -3   50.29    8.73   0
   5  -8  -5  129.89    9.47   0
   5  -6   8  484.43   12.09   0
   3  -3  -3 1937.37   19.44   0
   4  -5  -6  958.00   14.10   0
   4  -4   2 1406.17   16.71   0
   2  -3 -10 1227.09   16.20   0
   4  -4   8 1275.11   17.42   0
   4  -9 -11   49.17    9.11   0
   5  -6  -1  238.35    9.64   0
   1  -3 -14 1077.98   16.74   0
   5  -9  -7   37.72    9.36   0
   4  -8 -12  204.93   10.20   0
   4  -4  -1 1249.65   15.66   0
   5  -6  11  151.05    9.22   0
   6  -9   3   88.23    9.32   0
   6  -9   6   81.47    9.10   0
   3  -5 -13  468.63   11.12   0
   4  -4  11  515.62   12.92   0
   5  -6  -4  634.19   12.27   0
   6  -9   0  177.88   10.62   0
   6  -8   5  137.04    9.66   0
   3  -6 -15  130.75    8.75   0
   6  -9   9   43.95    8.81   0
   3  -8 -16  118.16    9.59   0
   4  -7 -13  101.03    9.28   0
   6  -8   8  225.36   10.31   0
   3  -3  -6 1842.58   18.74   0
   4  -5  -9  588.64   11.96   0
   4  -4  -4 1353.10   16.08   0
   5  -5   4  814.31   13.82   0
   6  -8  -1  150.13    9.73   0
   3  -4 -11  303.24    9.41   0
   6  -9  -3   34.34    8.84   0
   5  -7  -9  103.21    8.98   0
   5  -5   1  260.75    9.22   0
   5  -5   7  522.27   12.11   0
   2  -5 -17  285.77   10.67   0
   2  -4 -15  148.50    8.18   0
   4  -9 -14   41.32    8.59   0
   6  -7   4  452.00   11.97   0
   5  -6  -7  299.49   10.11   0
   6  -8  -4  299.09   10.91   0
   6  -7   7   82.92    8.71   0
   3  -7 -17  116.11    9.28   0
   5  -5  -2  944.59   14.06   0
   4  -8 -15   58.21    8.79   0
   6  -9  -6   94.69    9.22   0
   5  -5  10  517.56   12.60   0
   6  -7  10  169.23    9.66   0
   4  -4  -7  256.67    9.02   0
   6  -8  -7   62.70    9.62   0
   2  -3 -13  425.73   10.98   0
   4  -5 -12  484.21   11.57   0
   5  -9 -13   76.25    9.04   0
   5  -5  -5  586.38   11.69   0
   6  -7  -5  137.10    9.21   0
   5  -6 -10  355.69   10.66   0
   6  -9  -9   95.16    9.61   0
   6  -6   3  176.62    9.60   0
   3  -5 -16  488.44   11.86   0
   3  -3  -9  452.46   10.61   0
   4  -7 -16  172.01    9.42   0
   6  -6   0  668.40   13.24   0
   6  -6   6  311.35   10.25   0
   7  -9   4  131.29    9.35   0
   3  -6 -18  174.82    9.92   0
   5  -8 -14   79.03    8.92   0
   7  -9   7   69.53    9.41   0
   3  -4 -14  551.72   11.96   0
   4  -3   1  765.83   13.05   0
   4  -3   4 2512.72   22.70   0
   6  -6  -3  271.27   10.52   0
   7  -9  -2  115.01    9.16   0
   6  -8 -10  114.79    9.23   0
   6  -7  -8  445.37   11.80   0
   7  -8   3  113.30    9.64   0
   5  -5  -8  546.44   11.65   0
   6  -6   9  239.37    9.87   0
   7  -8   6  110.52    9.62   0
   3  -2  -1  648.24   12.50   0
   4  -4 -10 1053.65   14.56   0
   4  -3  -2 1190.43   15.24   0
   4  -3   7  598.32   13.01   0
   5  -4   3  721.99   12.86   0
   7  -9  -5   92.98    9.02   0
   7  -8  -3   72.14    9.52   0
   5  -4   0 1194.25   15.37   0
   6  -6  -6  262.86   10.37   0
   5  -7 -15   97.66    9.64   0
   5  -4   6  797.16   13.90   0
   4  -6 -17  107.88    8.99   0
   5  -4  -3  292.34    9.57   0
   7  -7   2  116.10    9.35   0
   4  -5 -15  113.64    8.21   0
   4  -3  -5 1000.01   14.10   0
   6  -7 -11   88.10    8.86   0
   7  -9  -8   93.02    8.83   0
   7  -7  -1  155.60   10.12   0
   7  -7   5  154.06    9.93   0
   3  -2  -4 3205.74   24.97   0
   3  -3 -12 1284.79   16.31   0
   5  -8 -17   77.90    8.72   0
   5  -5 -11  172.96    9.00   0
   6  -5   2  586.13   12.18   0
   5  -4   9  301.09   10.55   0
   6  -6  -9  178.39    9.73   0
   6  -5  -1  269.21    9.72   0
   6  -5   5  346.47   10.70   0
   7  -7  -4  414.79   12.26   0
   4  -3  10  717.03   15.13   0
   5  -4  -6  964.34   14.16   0
   7  -7   8  342.68   11.18   0
   7  -8  -9  138.39   10.10   0
   4  -4 -13  587.34   11.82   0
   6  -5  -4  637.81   12.53   0
   7  -9 -11   15.87    8.15   0
   8  -9   2  109.21    9.12   0
   6  -5   8  472.69   12.05   0
   7  -7  -7   99.69    9.14   0
   8  -9   5   50.31    8.80   0
   3  -4 -17  372.05   10.65   0
   4  -3  -8 1874.26   18.38   0
   5  -6 -16  243.38   10.33   0
   6  -7 -14   90.77    8.79   0
   3  -2  -7 1539.92   17.54   0
   7  -6   1  235.20   10.26   0
   8  -9  -4   77.82    9.32   0
   5  -7 -18   99.01    9.19   0
   6  -8 -16   99.47    9.16   0
   6  -5  -7  317.22   10.16   0
   7  -6   4  478.23   12.28   0
   5  -5 -14  437.77   11.52   0
   5  -4  -9  606.30   11.91   0
   7  -6  -2  181.49    9.39   0
   8  -8   1   65.23    9.11   0
   7  -8 -12  115.44    9.41   0
   8  -8   4  137.32    9.57   0
   7  -7 -10  105.99    9.17   0
   4  -5 -18  313.06   10.52   0
   7  -6  -5  144.51    9.17   0
   7  -6   7   94.13    8.72   0
   8  -8  -5   99.34    9.03   0
   8  -8   7   67.57    9.05   0
   3  -3 -15  419.27   10.80   0
   6  -5 -10  355.01   10.81   0
   7  -6  -8  420.58   12.19   0
   4  -4 -16  341.78   10.13   0
   5  -3  -1  694.01   12.48   0
   5  -3   2  610.27   11.96   0
   6  -7 -17   99.44    9.14   0
   8  -8  -8   91.52    9.92   0
   8  -7   0  245.57   11.01   0
   6  -6 -15   84.62    8.52   0
   6  -4  -2  723.46   13.15   0
   8  -7   3  109.73    9.38   0
   6  -4   4  690.72   13.17   0
   7  -8 -15   15.53    8.23   0
   7  -7 -13  133.95    9.61   0
   2  -2 -14  933.57   15.03   0
   5  -6 -19   77.74    8.41   0
   5  -3  -4 1956.80   18.68   0
   5  -3   5  640.07   12.84   0
   4  -2   0 3926.88   27.23   0
   6  -4  -5  270.01   10.04   0
   8  -7   6  109.88    9.41   0
   5  -5 -17  176.99    9.07   0
   8  -7  -6  131.93    9.68   0
   4  -2  -3  753.93   12.59   0
   4  -2   3  747.71   13.45   0
   7  -6 -11   99.98    8.99   0
   7  -5  -3  326.68   10.40   0
   7  -5   3  112.63    8.76   0
   8  -8 -11   37.10    8.79   0
   5  -3  -7  310.85    9.36   0
   6  -4   7  206.41    9.12   0
   6  -4  -8  583.77   11.80   0
   7  -5  -6  288.85   10.13   0
   4  -3 -14  549.22   11.58   0
   7  -5   6  359.25   10.95   0
   4  -2  -6  698.67   12.24   0
   5  -3   8 1503.76   19.17   0
   5  -4 -15  116.22    8.13   0
   6  -6 -18   74.97    8.87   0
   9  -8  -1   47.20    8.57   0
   4  -2   6  689.82   13.67   0
   6  -7 -20  102.32    9.13   0
   8  -6  -4  276.20   10.89   0
   8  -6   2  160.51    9.31   0
   9  -8   2  104.60    8.90   0
   3  -2 -13  436.23   10.57   0
   7  -5  -9  120.65    8.59   0
   4  -4 -19   79.21    7.72   0
   5  -3 -10  482.24   10.77   0
   8  -6   5  110.58    9.63   0
   3  -3 -18  378.57   10.60   0
   6  -5 -16  236.21   10.06   0
   6  -4 -11  266.10    9.71   0
   8  -7 -12  107.74    8.98   0
   8  -6  -7   51.79    9.11   0
   4  -2  -9  920.89   13.52   0
   3  -1  -2 2967.69   24.41   0
   5  -5 -20  132.67    8.64   0
   7  -5 -12  284.23   10.85   0
   8  -6 -10  130.11    9.14   0
   9  -7  -2  100.61    8.79   0
   9  -7   1   43.77    8.38   0
   7  -7 -19   18.94    7.91   0
   9  -7  -5  101.27    9.22   0
   3  -1  -5 1923.56   19.26   0
   6  -3  -3  344.60    9.82   0
   7  -6 -17   90.87    8.96   0
   4  -3 -17  382.69   10.51   0
   5  -4 -18  309.47   10.41   0
   7  -4  -4  424.09   10.81   0
   7  -4   2  490.33   11.84   0
   9  -7   4  125.95    9.02   0
   6  -3   3  368.81   10.42   0
   6  -6 -21   68.15    8.34   0
   6  -3  -6  600.83   11.61   0
   9  -7  -8   88.23    8.44   0
   7  -4  -7  253.62    9.68   0
   8  -6 -13  126.88    9.58   0
   8  -5  -5  138.18    9.57   0
   8  -5   1  155.98    9.00   0
   5  -2  -2  591.23   11.48   0
   6  -5 -19   74.25    8.61   0
   7  -4   5  296.45   10.10   0
   3  -1  -8 1887.35   18.73   0
   5  -2  -5  624.19   11.53   0
   6  -3  -9  319.37    9.71   0
   8  -5   4  307.02   10.80   0
   9  -7 -11   34.53    8.39   0
   6  -3   6  601.95   12.78   0
   7  -4 -10  302.60    9.97   0
   8  -5  -8  252.76   10.20   0
   5  -3 -16  479.53   11.46   0
   5  -2  -8 1528.18   16.34   0
   5  -2   4 1953.12   19.98   0
   9  -6   0  190.06    9.72   0
   6  -4 -17  114.57    8.82   0
   9  -6  -6  105.84    8.93   0
   7  -6 -20  122.08    8.87   0
   8  -5 -11   67.64    9.25   0
   9  -6   3   85.30    8.68   0
   6  -3 -12  472.42   11.36   0
   4  -2 -15  148.57    8.13   0
   7  -4 -13   91.96    9.09   0
   9  -6  -9  119.43    9.29   0
   5  -4 -21  114.80    8.67   0
   7  -5 -18   98.52    8.63   0
   4  -3 -20  288.02    9.77   0
   5  -2 -11  228.01    9.04   0
   4  -1  -4 2482.49   20.68   0
   4  -1  -1  793.57   12.94   0
   6  -5 -22   76.83    8.49   0
   8  -5 -14   91.87    8.57   0
   9  -6 -12   93.93    8.93   0
   4  -1  -7  609.19   11.43   0
   5  -2   7  319.12   10.12   0
   7  -3  -5  277.60    9.93   0
   8  -4   0  368.78   11.12   0
   8  -4  -6  190.45    9.67   0
   2  -1 -15  471.99   11.10   0
   5  -3 -19   52.22    7.95   0
   3  -2 -19  219.05    9.13   0
   6  -4 -20  142.68    9.12   0
   7  -3  -8  316.79   10.04   0
   9  -5  -1   96.86    9.08   0
   6  -2  -4  694.97   12.22   0
   8  -4  -9  116.81    9.04   0
   8  -4   3  127.54    8.65   0
   4  -1 -10  765.15   12.42   0
   9  -5  -7   37.44    7.98   0
   3  -6  -6  577.24   11.86   0
   4  -6  -2  727.14   12.46   0
   5  -9   5   87.17    9.16   0
   5  -7   3  119.58    9.19   0
   5  -6   5  347.88   10.21   0
   3  -3   0 2453.10   21.51   0
   4  -9  -2   70.30    9.44   0
   5  -5  10  538.63   12.04   0
   5  -5  13  161.04    8.90   0
   2  -7  -9  276.34   10.68   0
   4  -4   2 1399.71   15.99   0
   5  -8   1  161.60   10.30   0
   5  -9   2   80.33    8.89   0
   5  -5   7  519.95   11.60   0
   3  -8  -7  101.42    9.04   0
   4  -3  13  473.75   12.45   0
   5  -6   2  570.50   11.84   0
   4  -3  10  768.11   13.89   0
   5 -10   3   51.96    8.75   0
   5  -7   0  475.30   11.40   0
   6  -8  11   56.41    8.99   0
   3  -9  -6   82.23    9.14   0
   3  -7  -8  319.45   10.54   0
   6  -9  12  121.77    8.98   0
   6  -8  14   97.52    8.90   0
   2  -6 -10  471.05   11.69   0
   3  -4  -5  993.50   13.96   0
   4  -5  -3  284.49    9.18   0
   5  -5   4  779.98   13.12   0
   6  -8  17   53.66    9.09   0
   6  -7  10  183.75   10.26   0
   6  -7  13  164.84    9.49   0
   4  -6  -5  255.68    9.29   0
   4  -3   7  592.68   12.12   0
   5  -9  -1  108.01    9.13   0
   5  -8  -2  190.26    9.61   0
   6  -9   6   88.04    8.79   0
   4  -9  -5   98.02    9.27   0
   4  -8  -6  162.06    9.86   0
   6  -8   5  142.87    9.38   0
   6  -7  16  150.11   10.02   0
   5  -6  -1  248.05    9.31   0
   3  -6  -9  303.80   10.16   0
   4  -4  -1 1247.45   15.18   0
   6  -9   3   94.58    9.87   0
   2  -4  -9  876.51   14.05   0
   4  -7  -7  255.73   10.18   0
   5  -7  -3  340.07   10.35   0
   6  -7   4  460.57   11.55   0
   3  -3  -3 1869.64   18.68   0
   6  -8   2  155.00    9.53   0
   6  -6   9  255.47   10.21   0
   6  -6  12  340.15   11.07   0
   5  -5   1  264.51    9.31   0
   5  -4  12  720.83   13.68   0
   5  -4   9  310.03    9.88   0
   6  -6   6  295.25   10.43   0
   2  -5 -11  204.37    8.89   0
   5 -10  -3   47.75    8.48   0
   6  -9   0  191.48    9.85   0
   3  -8 -10  135.20    9.41   0
   5  -4   6  798.26   13.37   0
   6  -7   1  235.33    9.97   0
   4  -5  -6  947.04   13.62   0
   6  -8  -1  136.89    9.92   0
   5  -6  -4  628.19   12.03   0
   7  -9  10   79.21    9.04   0
   3  -7 -11  113.70    9.06   0
   4  -9  -8  214.33   10.51   0
   6  -6   3  190.92    8.97   0
   4  -8  -9  135.62    8.77   0
   5  -7  -6  294.49   10.51   0
   7  -8   9   80.50    9.04   0
   7  -8  12  156.55    9.79   0
   5  -5  -2  946.87   13.76   0
   3  -5 -10  474.14   11.17   0
   4  -4  -4 1328.73   15.52   0
   4  -3   1  758.18   12.66   0
   6  -9  -3   36.47    8.40   0
   6  -7  -2  182.28    9.34   0
   7  -9   4  131.38    9.56   0
   5  -9  -7   59.83    8.85   0
   6  -5   8  489.71   11.71   0
   6  -5  11  145.93    8.81   0
   4  -7 -10  301.62   10.17   0
   6  -6   0  712.89   12.61   0
   5  -8  -8  256.98   10.80   0
   7  -8   3  109.94    9.19   0
   7  -7   8  346.32   11.41   0
   7  -7  11   59.28    8.94   0
   6  -5   5  365.26   10.40   0
   3  -6 -12  438.08   11.67   0
   7  -9   1   33.10    8.48   0
   3  -3  -6 1828.37   18.45   0
   5  -6  -7  286.35    9.76   0
   5  -4   0 1197.06   15.08   0
   3  -2  -1  630.96   12.15   0
   7  -8   0  262.08   10.97   0
   5  -5  -5  565.32   11.55   0
   5  -7  -9  103.08    8.57   0
   6  -6  -3  271.20    9.75   0
   7  -7   2  118.82    9.07   0
   4  -3  -2 1186.89   14.92   0
   7  -9  -2  128.76    9.33   0
   4  -8 -12  209.59   10.36   0
   4  -6 -11  252.99    9.46   0
   7  -6  10  175.42    9.51   0
   2  -4 -12 1503.19   18.22   0
   4  -4  -7  265.08    9.01   0
   5  -9 -10   59.05    8.90   0
   7  -6   7  103.68    8.87   0
   7  -8  -3   74.68    8.89   0
   7  -7  -1  175.37    9.96   0
   4  -2   9  881.06   15.95   0
   5  -3   8 1537.10   18.52   0
   6  -5  -1  268.24    9.36   0
   7  -6   4  473.82   11.58   0
   5  -8 -11   80.02    8.97   0
   5  -4  -3  315.21    9.34   0
   8  -8  10   81.07    8.76   0
   4  -2   6  693.03   13.56   0
   5  -3   5  650.16   12.47   0
   8  -8   7   62.55    8.61   0
   4  -7 -13   98.50    8.73   0
   8  -9   2   89.60    8.97   0
   3  -5 -13  453.34   11.23   0
   3  -4 -11  300.21    9.16   0
   6  -9  -9  120.52    9.31   0
   6  -7  -8  445.20   11.57   0
   6  -6  -6  253.01    9.87   0
   6  -4   7  203.70    9.15   0
   6  -4  10  502.76   12.33   0
   8  -8   4  142.50    9.47   0
   5  -5  -8  548.80   11.76   0
   6  -4   4  698.69   12.90   0
   7  -8  -6  111.97    9.85   0
   7  -7  -4  458.85   11.85   0
   3  -2  -4 3185.49   24.54   0
   4  -3  -5 1001.25   13.85   0
   4  -2   3  726.46   13.11   0
   5  -7 -12  311.67   10.91   0
   6  -8 -10  118.63    8.91   0
   8  -9  -1   55.17    8.80   0
   8  -8   1   71.58    8.97   0
   6  -5  -4  645.72   12.21   0
   8  -7   6  115.54    9.21   0
   8  -7   9   81.36    8.69   0
   4  -5 -12  501.01   11.53   0
   7  -6  -2  178.34    9.71   0
   7  -5   9  255.21   10.47   0
   5  -4  -6  951.97   13.84   0
   7  -5   6  365.25   10.99   0
   8  -8  -2  134.77    9.25   0
   7  -5   3   98.04    8.81   0
   8  -9  -4   78.66    9.31   0
   5  -3  -1  681.06   12.35   0
   6  -6  -9  169.02    9.39   0
   5  -8 -14   95.93    9.09   0
   6  -9 -12   89.36    9.02   0
   6  -7 -11   93.65    8.63   0
   8  -7   0  251.46   10.07   0
   4  -2   0 3895.88   26.73   0
   6  -5  -7  305.19   10.32   0
   7  -6  -5  150.19    9.35   0
   5  -6 -13  161.30    9.17   0
   6  -4  -2  710.26   12.58   0
   8  -8  -5   85.68    9.38   0
   8  -6   8  234.52   10.41   0
   6  -8 -13  102.47    9.22   0
   8  -6   5  123.39    9.48   0
   4  -3  -8 1820.32   18.06   0
   8  -7  -3   70.01    8.55   0
   7  -9 -11   27.75    8.05   0
   8  -6   2  148.43    9.71   0
   9  -8   5   49.52    8.21   0
   5  -7 -15  114.39    8.84   0
   5  -4  -9  596.34   11.75   0
   2  -4 -15  144.94    8.33   0
   3  -4 -14  530.67   11.74   0
   5  -3  -4 1919.53   18.19   0
   7  -5  -3  330.25   10.23   0
   9  -8   2   80.83    8.69   0
   2  -3 -13  441.21   11.16   0
   7  -7 -10   89.82    8.69   0
   3  -5 -16  479.64   11.92   0
   4  -2  -3  741.96   12.40   0
   6  -4  -5  270.57    9.51   0
   7  -6  -8  442.01   11.62   0
   7  -8 -12  125.96    9.64   0
   8  -8  -8  111.99    8.85   0
   6  -7 -14   86.72    9.08   0
   8  -7  -6  117.22    9.20   0
   9  -8  -1   51.86    8.26   0
   3  -3 -12 1299.84   16.00   0
   4  -4 -13  562.30   11.53   0
   6  -5 -10  357.67   10.37   0
   6  -3   6  609.92   12.66   0
   7  -4   5  299.32   10.39   0
   7  -4   8  316.15   10.93   0
   9  -7   7   63.29    8.35   0
   6  -3   3  368.82   10.09   0
   9  -7   4  121.81    8.92   0
   4  -6 -17   98.97    8.58   0
   7  -5  -6  303.94   10.05   0
   7  -4   2  500.72   11.82   0
   8  -6  -4  297.07   11.10   0
   9  -8  -4   83.57    8.51   0
   9  -7   1   35.41    8.51   0
   5  -6 -16  234.39   10.15   0
   5  -3  -7  295.82    9.56   0
   5  -2   4 1970.09   20.23   0
   5  -2   7  316.90   10.43   0
   6  -8 -16  109.54    8.81   0
   8  -5   4  305.85   10.77   0
   8  -5   7   87.06    8.86   0
   4  -3 -11  301.97    9.34   0
   5  -4 -12  493.88   11.40   0
   6  -4  -8  568.56   11.62   0
   7  -7 -13  126.28    9.00   0
   7  -6 -11   91.34    8.84   0
   8  -7  -9  123.72    9.12   0
   3  -1  -2 2943.16   24.32   0
   4  -2  -6  707.64   12.23   0
   8  -5   1  170.34    9.55   0
   5  -2   1  696.30   12.30   0
   8  -6  -7   61.02    9.25   0
   6  -6 -15   86.05    8.28   0
   6  -3  -3  373.26   10.37   0
   7  -8 -15   14.98    8.13   0
   7  -5  -9  107.36    9.27   0
   3  -2 -10 1270.48   15.62   0
   7  -4  -4  421.19   10.90   0
   9  -7  -5   95.36    9.30   0
   9  -6   6   78.64    9.19   0
   5  -2  -2  591.54   11.59   0
   6  -7 -17   86.74    8.88   0
   9  -6   3   96.43    8.80   0
   5  -3 -10  483.17   10.69   0
   9  -6   0  196.97    9.84   0
   6  -4 -11  268.77    9.48   0
   8  -7 -12  120.81    8.91   0
   4  -5 -18  299.33   10.29   0
   4  -4 -16  357.74   10.05   0
   8  -5  -5  144.48    9.21   0
   6  -3  -6  593.07   11.59   0
   8  -6 -10  111.58    9.11   0
   3  -3 -15  416.66   10.58   0
   3  -1  -5 1917.46   18.92   0
   4  -2  -9  910.02   13.40   0
   4  -1   5 1000.85   16.03   0
   5  -5 -17  182.04    9.31   0
   7  -7 -16  153.40    9.42   0
   7  -4  -7  247.60    9.88   0
   4  -1   2 1165.69   15.89   0
   7  -5 -12  303.21   10.90   0
   5  -4 -15  122.89    8.23   0
   5  -2  -5  630.03   11.57   0
   4  -3 -14  539.78   11.25   0
   5  -6 -19   74.59    8.38   0
   6  -5 -16  254.12    9.97   0
   7  -3   1  171.81    9.27   0
   7  -3   4  407.36   11.20   0
   8  -4   3  130.20    9.19   0
   6  -6 -18   84.08    8.58   0
   8  -4   0  357.47   11.31   0
   8  -4   6  159.65    9.38   0
   6  -3  -9  322.41    9.93   0
   8  -7 -15   17.56    8.44   0
   5  -3 -13  482.74   11.22   0
   7  -4 -10  321.50   10.38   0
   8  -6 -13   99.76    8.85   0
   9  -7 -11   23.90    8.00   0
   6  -4 -14  306.78   10.26   0
   6  -2   2  747.28   13.26   0
   7  -3  -2  493.56   11.23   0
   9  -5   2   80.77    8.86   0
   2  -2 -14  911.80   14.62   0
   5  -2  -8 1545.71   16.54   0
   6  -2   5  271.87    9.74   0
   8  -4  -3  145.26    8.89   0
   4  -1  -4 2486.44   20.82   0
   7  -6 -17   86.01    9.00   0
   9  -5  -1   94.09    8.94   0
   3  -1  -8 1922.00   18.77   0
   6  -2  -1  495.54   11.15   0
   8  -5 -11   84.62    9.37   0
   9  -6  -9  105.25    9.04   0
   4  -2 -12 1562.71   16.76   0
   7  -3  -5  293.51   10.21   0
   7  -7 -19   21.47    7.77   0
   9  -5  -4  230.20   10.25   0
   8  -4  -6  182.91    9.41   0
   4  -4 -19   80.33    7.82   0
   6  -2  -4  712.48   12.50   0
   5  -5 -20  123.93    9.03   0
   5  -4 -18  329.68   10.37   0
   6  -3 -12  461.21   11.26   0
   7  -4 -13   86.93    8.75   0
   4  -3 -17  375.54   10.21   0
   4  -1  -7  605.07   11.33   0
   6  -5 -19   70.17    8.75   0
   7  -3  -8  318.03   10.74   0
   9  -6 -12   99.49    9.28   0
   9  -5  -7   41.27    8.15   0
   3  -3 -18  400.31   10.96   0
   5  -2 -11  218.14    8.96   0
   5  -1   0 1272.20   16.18   0
   6  -4 -17  109.08    9.06   0
   8  -4  -9  144.36    9.18   0
   6  -6 -21   67.10    8.54   0
   6  -2  -7  202.67    9.02   0
   8  -5 -14   95.53    8.67   0
   2  -1 -12 1549.46   17.72   0
   3  -1 -11  403.30    9.78   0
   5  -1   6  915.25   15.73   0
   7  -6 -20  113.97    8.86   0
   7  -5 -18   91.35    8.46   0
   9  -5 -10   70.52    9.01   0
   3  -2 -16  940.53   14.20   0
   8  -3  -1  169.30    9.74   0
   8  -3   2  173.34    9.40   0
   9  -4   1  101.26    9.09   0
   6  -3 -15  133.61    9.07   0
   7  -3 -11  124.51    8.78   0
   9  -4  -2   66.14    8.91   0
   7  -4 -16  178.99    9.25   0
   4  -1 -10  779.12   12.38   0
   5  -1  -6  766.29   12.47   0
   6  -2 -10  465.27   11.11   0
   8  -3  -4  320.33   10.50   0
   7  -2   0  469.38   11.34   0
   7  -2   3  346.61   10.76   0
   9  -4  -5   88.94    8.90   0
  10  -5   0  105.16    9.57   0
   5  -2 -14  291.88    9.54   0
   7  -2  -3  115.05    8.58   0
   3   0  -3  482.29   10.86   0
   2  -2 -17  215.40    8.95   0
   5  -4 -21  129.05    8.74   0
   6  -5 -22   85.72    8.81   0
   6  -4 -20  134.20    9.27   0
   7  -3 -14  258.03   10.44   0
   2   0  -7  313.96    9.31   0
   4  -3 -20  304.27   10.19   0
   5  -3 -19   51.11    7.56   0
   5  -1  -9  316.15    9.63   0
   6  -2 -13  281.13   10.26   0
   8  -4 -15   53.69    8.72   0
   3   0  -6 2384.89   20.54   0
   6  -1   1  265.56    9.80   0
   7  -5 -21   41.84    8.23   0
   4  -1 -13  529.49   10.96   0
   6  -1  -2  610.45   11.97   0
   8  -3 -10  130.66    8.98   0
   7  -4 -19   79.70    8.48   0
   7  -2  -9  284.11   10.13   0
   4  -2 -18  267.38    9.31   0
   4   0   1 1313.03   16.78   0
   6  -1   4  640.01   13.20   0
   9  -4 -11   33.53    7.91   0
   2  -1 -15  482.78   10.84   0
   3  -2 -19  216.02    8.98   0
   4   0  -5  356.32    9.59   0
   5  -1 -12  741.50   12.37   0
   8  -5 -20   68.94    8.01   0
   3   0  -9 1172.12   14.71   0
   4   0   4 1360.98   18.24   0
   6  -1  -8  494.70   11.19   0
   7  -3 -17  112.99    8.76   0
   8  -3 -13   92.70    9.42   0
   2   0 -10 3151.98   23.88   0
   7  -2 -12  213.68   10.17   0
   9  -3  -3   90.55    8.80   0
   6  -2 -16  238.75    9.72   0
   8  -4 -18   50.84    8.42   0
   8  -2  -2  157.88    9.57   0
   8  -2   1  147.59    9.47   0
   9  -4 -14   43.82    7.87   0
   9  -3  -6   83.83    8.78   0
   4   0  -8 1252.32   15.00   0
   8  -2  -5  113.70    9.32   0
   6  -4 -23   49.25    8.09   0
   5  -3 -22  130.03    8.98   0
   6  -1 -11  157.42    8.77   0
   5   0  -1  273.59    9.30   0
   6  -3 -21   86.19    8.49   0
   7  -4 -22   80.57    8.65   0
   5  -1 -15  202.25    8.84   0
   8  -3 -16  100.57    9.18   0
   3   0 -12  934.21   13.33   0
   7  -2 -15   56.68    8.27   0
   7  -1  -4  493.89   11.85   0
   7  -1  -1  236.78    9.61   0
   4   0 -11  549.14   11.00   0
   5  -2 -20  284.40    9.63   0
   5   0   2 1006.79   15.08   0
   4  -2 -21  245.04    9.50   0
   5   0  -7  501.90   10.84   0
   7  -1   2  192.93    9.66   0
   8  -2 -11   53.23    8.75   0
   9  -3 -12  113.80    9.17   0
   6  -1 -14  277.93    9.65   0
   1   3 -14  546.17   11.99   0
   4  -1 -10  810.29   15.85   0
  -1   8  -9  127.33    9.01   0
   0   3 -12 1330.21   16.52   0
  -1   7 -11   86.90    9.03   0
   1   4 -15  126.03    8.90   0
   4   2 -16  221.80   10.65   0
   0   5 -14  442.61   11.64   0
   0   8 -11   38.15    8.57   0
   1   2 -13  475.26   11.19   0
   4   1 -15  207.55    9.76   0
  -1   5 -12  487.78   11.79   0
   0   7 -13  116.53    9.64   0
   2   2 -15  159.14    9.56   0
   2   3 -16  483.96   12.42   0
   5   3 -16  109.38    9.47   0
  -2   7  -9   93.66    8.45   0
   1   5 -16  231.79   10.53   0
   2   4 -17  104.77    9.69   0
   2   6 -16   96.29    9.15   0
   3   5 -17   61.90    9.09   0
   4   0 -14  531.88   13.10   0
  -1   6 -13  151.73    8.99   0
   0   2 -11 1696.45   18.59   0
  -1   3 -10 1248.53   16.30   0
   3   3 -18  177.87   10.27   0
  -2   5 -10  469.37   11.53   0
   4   4 -18   59.20    8.60   0
  -2   6 -11  259.72    9.96   0
  -1   8 -12  133.59    9.35   0
   1   6 -17  101.96    9.88   0
   2   5 -18   83.14    9.45   0
   5   1 -17  140.63    9.82   0
   6   2 -17   50.29    9.53   0
   3   4 -19   76.53   10.11   0
   5   2 -18  136.35   10.17   0
  -1   7 -14   97.33    8.88   0
   0   4 -16  350.66   10.69   0
  -2   4  -9  884.27   14.66   0
   1   3 -17  381.10   11.33   0
   1   4 -18  294.30   11.02   0
   0   3 -15  431.21   11.14   0
   0   5 -17  173.51    9.55   0
   0   7 -16  149.10    9.64   0
  -2   7 -12  287.21   10.61   0
   4   2 -19   45.87    9.06   0
   5   3 -19   26.54    8.87   0
   2   3 -19   70.75    9.07   0
   4   1 -18  229.75   10.76   0
   1   2 -16  987.05   15.15   0
   1   5 -19   79.81    9.21   0
   2   2 -18  285.80   11.02   0
   4   3 -20   91.35    9.87   0
   2   4 -20  149.06   10.17   0
   3  -1 -11  422.38   11.73   0
   3   0 -15  275.38   10.75   0
   4  -1 -13  549.35   13.38   0
  -1   6 -16  246.04   10.12   0
  -1   2  -9 1096.76   16.15   0
  -1   3 -13  442.88   10.97   0
  -1   8 -15   10.80    8.37   0
   0   2 -14  973.97   14.79   0
   4   0 -17  181.73   10.48   0
  -3   6  -9  317.75   10.76   0
   0   1 -10 1465.73   18.09   0
   1   6 -20  110.14    9.79   0
   2   5 -21   45.30    8.86   0
   3   3 -21   92.98    9.35   0
   2   1 -17  484.12   12.27   0
   5  -1 -15  210.08   10.60   0
  -1   7 -17   85.74    9.13   0
   3   1 -19  118.84    9.53   0
   3   4 -22   78.32    8.85   0
   0   4 -19   78.44    8.63   0
   0   7 -19   23.72    8.38   0
   1   1 -15  521.99   12.14   0
   5   1 -20  110.99    9.94   0
   5   2 -21   64.95    9.38   0
  -2   4 -12 1526.86   18.03   0
  -2   7 -15  111.36    9.21   0
   0   5 -20  118.03   10.27   0
   1   3 -20  312.51   11.10   0
   1   4 -21  133.12    9.90   0
   0   3 -18  396.72   11.08   0
  -1   4 -17  386.31   10.95   0
   1   0 -11  429.09   10.89   0
   2   3 -22  168.66   10.21   0
   4   2 -22  129.21    9.78   0
   5   0 -19  123.15    9.69   0
  -1   6 -19   77.39    9.48   0
   1   2 -19  249.80   10.75   0
   4   1 -21  112.14   10.19   0
   4   3 -23   44.71    8.89   0
   2   2 -21  275.52   11.11   0
   2   4 -23   57.13    9.65   0
  -3   6 -12  419.54   11.72   0
  -2   5 -16  477.38   12.28   0
  -2   6 -17  111.55    9.33   0
  -1   2 -12 1655.31   18.30   0
   4  -1 -16  713.98   14.81   0
  -1   3 -16  913.52   14.34   0
   0   2 -17  233.16    9.78   0
   3  -1 -14 1132.92   17.13   0
  -1   7 -20  103.61    9.31   0
   0   1 -13 1094.21   15.37   0
   4   0 -20  312.60   11.89   0
  -3   5 -11  207.85    9.23   0
  -2   7 -18   89.15    9.12   0
  -2   3 -11  385.92   10.28   0
  -2   4 -15  139.70    8.29   0
   0   4 -22  244.39   10.58   0
   0   5 -23   40.17    9.55   0
   1   4 -24   87.91   10.18   0
   3   1 -22  206.82   10.63   0
   1   3 -23   59.12    9.05   0
   5   1 -23   39.12    9.00   0
  -1   4 -20  303.73   11.29   0
   0   3 -21  168.13    9.71   0
   1   5 -25   49.16    9.37   0
  -1   6 -22   84.35    9.23   0
   1   0 -14 1234.06   16.28   0
   2  -1 -12 1638.12   19.63   0
   2   3 -25   95.96   10.03   0
   4  -2 -12 1481.31   21.02   0
   4   2 -25   61.16    9.22   0
  -3   6 -15  126.53    8.54   0
   1   2 -22  231.92   10.72   0
   2   4 -26   58.64    9.62   0
   5   0 -22  108.51   10.65   0
   2   2 -24  184.81   10.71   0
   4   1 -24  138.18   10.28   0
  -2   5 -19   53.98    8.33   0
  -2   6 -20  146.84    9.79   0
  -1   2 -15  510.05   11.40   0
  -3   5 -14  297.27   10.35   0
  -1   3 -19  228.13    9.63   0
   3   0 -21  241.76   11.24   0
   0   2 -20  622.19   13.06   0
   3  -1 -17  481.00   12.53   0
   3   2 -26   91.77   10.09   0
   4  -1 -19  127.11    9.32   0
  -2   7 -21   49.43    8.68   0
   4   0 -23   87.37   10.16   0
   0   4 -25   93.26    9.56   0
   1   1 -21  260.92   10.54   0
   0   5 -26   75.96    9.06   0
   3   1 -25  112.72   10.61   0
  -1   4 -23   52.07    8.77   0
   1   3 -26  120.89    9.82   0
  -3   6 -18  193.77    9.96   0
   1   0 -17  797.22   13.75   0
  -3   7 -19   75.82    9.27   0
  -1   6 -25   41.36    8.63   0
   2  -1 -15  483.46   11.50   0
  -3   4 -13  501.96   11.75   0
  -1   2 -18  747.97   13.36   0
   1   2 -25   99.33    9.61   0
   2   3 -28   63.27    9.66   0
   4  -2 -15  157.97    9.52   0
  -3   5 -17  295.44   10.63   0
  -2   5 -22  139.10    9.35   0
  -2   6 -23   54.89    8.87   0
  -1   1 -11  437.31   10.60   0
  -1   3 -22  227.04   10.10   0
   0   1 -19  213.25    9.33   0
   4   1 -27   31.55    9.00   0
   2   0 -22  523.89   13.17   0
   3   0 -24  137.11   10.81   0
   3  -1 -20  368.84   11.86   0
   4  -1 -22  203.76   10.52   0
   3   2 -29   48.90    9.11   0
  -1   1 -14 1226.63   15.74   0
   0   4 -28   31.67    9.27   0
   1   1 -24  245.86   11.33   0
  -3   4 -16  643.88   12.73   0
  -3   6 -21  101.21    9.23   0
  -1   4 -26  116.01   10.36   0
   1   0 -20  590.27   12.88   0
   3  -2 -13  439.54   11.75   0
   4   0 -26   87.86    9.98   0
  -2   2 -13 1050.47   14.82   0
   0   3 -27   54.65    9.36   0
   1   3 -29   55.13    8.98   0
   2  -1 -18  736.14   13.68   0
   3   1 -28   81.83    9.98   0
  -3   5 -20  276.56   10.53   0
  -1   2 -21  269.73   10.19   0
  -2   3 -20  347.70   10.88   0
  -2   5 -25   90.70    9.62   0
  -2   6 -26   48.94    8.86   0
  -1   3 -25  106.32    9.36   0
   0   1 -22  347.68   11.15   0
   1   2 -28  105.89   10.86   0
   4  -2 -18  285.92   11.00   0
  -3   3  -9 1118.57   16.45   0
   0   2 -26  132.24   10.32   0
  -1   1 -17  800.28   13.45   0
   2   0 -25  145.59   10.86   0
  -3   3 -12  902.28   14.48   0
  -3   4 -19  117.36    9.00   0
  -2   2 -16  520.74   11.34   0
   3   0 -27   42.25   10.28   0
   3  -2 -16  968.38   15.95   0
  -3   6 -24   73.92    9.23   0
   4  -1 -25   94.14   10.72   0
   1   1 -27   56.36    9.82   0
   2  -1 -21  272.57   10.87   0
   2   1 -29   46.82   10.45   0
  -4   5 -15  194.17    9.40   0
  -3   5 -23   31.39    8.27   0
  -2   3 -23   85.44    9.44   0
  -1   2 -24  222.34   10.59   0
  -4   6 -19   48.69    8.66   0
  -3   3 -15  245.46    9.50   0
  -1   4 -29   39.06    8.86   0
   4   0 -29   34.30    9.75   0
  -2   2 -19  163.25    9.06   0
  -1   1 -20  592.41   12.59   0
   0   1 -25  187.51   10.60   0
  -1   3 -28  119.03    9.82   0
  -3   4 -22  184.05    9.78   0
   1   2 -31   15.06    9.71   0
  -4   5 -18  223.07   10.30   0
   0   2 -29   57.07    9.54   0
   3  -2 -19  238.61   10.21   0
  -3   3 -18  623.42   12.54   0
   0   0 -21  571.02   12.46   0
   2   0 -28   56.18   10.54   0
   2  -2 -11 1674.63   20.59   0
   3  -1 -26  178.05   11.00   0
  -4   6 -22  122.36    9.07   0
  -3   5 -26   76.78    9.21   0
  -2   3 -26  155.57   10.15   0
  -1   2 -27   64.04    9.37   0
   2  -2 -14  938.25   15.39   0
   3   0 -30   67.39   10.52   0
  -4   4 -11  525.66   12.55   0
  -2   2 -22  501.80   12.20   0
  -1   1 -23   72.60    8.72   0
  -4   4 -14  478.62   12.08   0
   2   1 -32   27.22    9.58   0
   0   1 -28  121.92   11.46   0
  -4   5 -21  107.65    9.17   0
  -3   4 -25   95.89    9.17   0
  -2   1 -12 1630.54   18.01   0
  -1   0 -13 1088.82   15.03   0
  -1   0 -10 1448.31   17.59   0
  -1   3 -31   17.14    9.62   0
   2  -2 -17  238.65    9.75   0
   3  -2 -22  239.15   10.81   0
  -4   4 -17  193.45    9.38   0
  -2   1 -15  496.88   11.26   0
  -2   1  -9 1076.44   15.61   0
   0   0 -24  341.67   11.41   0
   0   2 -32   67.19   10.04   0
  -4   6 -25   55.40    8.84   0
  -2   2 -25  142.46    9.79   0
   2   0 -31   33.19   10.35   0
  -3   2 -11  388.53   10.58   0
  -3   5 -29   53.80    8.90   0
  -2   3 -29   60.63   10.02   0
  -1   1 -26  213.74   10.93   0
  -1   2 -30   81.18   10.66   0
   0  -1 -14 1233.00   16.16   0
   0  -1 -11  438.11   10.75   0
   2  -1 -27   73.96    9.67   0
   3  -1 -29   65.32   10.00   0
  -4   4 -20  302.43   11.04   0
  -4   5 -24  106.96    9.72   0
  -1   0 -19  219.74    9.50   0
   2  -2 -20  615.87   13.42   0
   0  -1 -17  816.26   13.94   0
  -3   4 -28   73.24    9.68   0
   0   0 -27   32.48    9.95   0
   0   1 -31   26.69    9.51   0
   1  -1 -25  186.13   10.30   0
   3  -2 -25  106.51   10.02   0
  -2   1 -21  262.72   10.03   0
  -2   2 -28   74.01   10.32   0
  -1   0 -22  358.89   11.08   0
   0  -1 -20  609.91   12.85   0
  -4   4 -23   95.84    8.95   0
   2  -2 -23  174.92   10.31   0
  -4   3 -16  677.83   13.49   0
  -4   3 -13  498.42   11.93   0
  -4   5 -27   17.06    8.46   0
   2  -1 -30   86.67   10.61   0
  -2   1 -24  248.89   10.56   0
  -2   3 -32   30.55    8.95   0
   1  -2 -15  504.71   11.47   0
   1   0 -32   43.47    9.83   0
  -3   2 -23   90.69    9.09   0
   0  -1 -23   88.62    9.48   0
   1  -2 -12 1560.32   18.84   0
   1  -1 -28  124.78   11.10   0
  -4   3 -19  114.21    9.33   0
  -1   0 -25  192.85   10.67   0
   1  -2 -18  747.90   13.60   0
  -4   3 -10  740.09   14.20   0
   0   0 -30   98.08   10.33   0
   3  -3 -15  437.81   12.27   0
   3  -2 -28  113.97   10.46   0
  -4   4 -26  101.65    9.60   0
   2  -2 -26  126.09   10.73   0
   3  -3 -12 1296.75   19.82   0
  -4   3 -22  195.11   10.50   0
  -2   2 -31   21.52    9.18   0
   1  -2 -21  264.12   10.31   0
  -3   2 -26  146.75   11.11   0
  -2   1 -27   56.92    9.70   0
  -1   1 -32   43.85    9.67   0
  -2   0 -17  237.20    9.42   0
  -1   0 -28  132.25   11.27   0
   3  -3 -21  177.77   10.16   0
  -2   0 -14  957.52   14.55   0
  -3   1 -16  937.77   14.64   0
  -2   0 -20  620.73   13.04   0
   1  -2 -24  238.73   10.79   0
   1  -1 -31   15.05   10.16   0
  -4   3 -25   93.90    9.74   0
  -4   4 -29   19.45    9.08   0
  -3   1 -19  242.87   10.12   0
  -1  -1 -18  754.68   13.77   0
  -1  -1 -15  518.72   11.68   0
  -5   4 -15  206.06    9.99   0
   2  -2 -29   52.41   10.49   0
  -2   0 -11 1700.13   18.61   0
  -2   1 -30   73.67   10.83   0
  -1  -1 -21  262.54   10.40   0
  -3   1 -22  240.66   10.56   0
  -3   2 -29   64.81    9.64   0
  -2   0 -23  188.11   10.01   0
  -1  -1 -12 1664.47   18.48   0
  -5   4 -21  106.65    9.51   0
  -4   2 -18  291.09   10.49   0
  -4   2 -15  159.85    9.15   0
   1  -2 -27   66.62   10.40   0
   2  -3 -19  243.57   10.39   0
   2  -3 -16  996.33   16.00   0
  -4   3 -28   70.26    9.98   0
  -4   2 -21  271.09   10.69   0
  -3   1 -25  107.35    9.72   0
  -5   4 -24  125.89    9.72   0
  -2   0 -26  129.22   10.57   0
   2  -3 -22  245.30   10.93   0
   2  -3 -13  440.53   11.99   0
  -4   2 -12 1571.30   18.76   0
  -4   2 -24  187.69   11.26   0
   0  -2 -13 1120.30   15.76   0
  -3   2 -32   33.80    9.37   0
   2  -2 -32   54.89   10.28   0
  -2   0  -8 2734.60   24.16   0
  -1  -1 -27   44.71    9.59   0
  -1  -1  -9 1133.39   16.00   0
   0  -1 -32   46.47    9.79   0
  -3   1 -28   94.09   10.70   0
   1  -2 -30   87.51   10.81   0
   2  -3 -25  112.50   10.24   0
  -5   4 -27   33.34    9.29   0
  -2   0 -29   42.90   10.74   0
  -5   3 -20  285.29   11.31   0
  -5   3 -17  293.30   11.03   0
  -5   3 -23   49.29    9.50   0
  -5   3 -14  297.16   10.80   0
  -4   2  -9  916.48   15.47   0
  -1  -1 -30   90.20   10.21   0
   0  -2 -10 3096.08   25.60   0
  -3   0 -21  178.65   10.24   0
  -3   0 -18  422.64   11.80   0
  -2  -1 -19  260.33   10.53   0
   0  -2 -28   62.61   10.47   0
   1  -3 -17  499.92   11.97   0
   2  -3 -28   98.02   10.95   0
  -3   1 -31   33.58    9.43   0
  -2  -1 -16 1037.91   15.38   0
  -3  -4 -14  267.33   11.19   0
  -2  -6   1  145.82   10.12   0
  -2  -6   4  294.44   11.30   0
  -3  -6  -3  111.22   10.13   0
  -2  -5  -9  270.25   10.54   0
  -2  -6  -2  167.00   10.48   0
  -2  -6   7   69.32    8.91   0
  -4  -5 -11   45.33    9.26   0
  -4  -4 -15   69.22    9.82   0
  -3  -6   9  119.77    9.03   0
   0  -4  -5  367.19    9.86   0
   0  -4  10 1012.31   15.83   0
   0  -5  -1  259.34    9.63   0
   0  -5   5  589.90   11.94   0
  -2  -6  -5  129.33    9.70   0
  -1  -6   5  161.76    9.62   0
  -1  -5  -8  526.98   11.96   0
  -2  -6  10  126.90    9.27   0
  -1  -6  -1  261.47   10.16   0
  -1  -3 -13  503.97   11.53   0
  -3  -5 -13  123.29   10.01   0
  -1  -4 -12  711.12   12.90   0
   0  -5  -4  814.08   13.15   0
   0  -5   8  533.34   11.94   0
  -3  -3 -18  201.36   10.35   0
  -2  -5 -12  215.50   10.16   0
  -1  -6  -4  497.64   12.17   0
  -1  -6   8  442.43   11.89   0
  -1  -2 -14 1057.75   16.04   0
   0  -4  -8 1290.43   15.69   0
  -4  -5 -14   62.34    9.47   0
  -3  -6  -9   58.86    9.10   0
  -2  -6  -8  248.70   10.72   0
  -3  -4 -17  114.82    9.35   0
  -2  -3 -17  293.16   10.41   0
  -1  -6  -7   98.00    8.97   0
   0  -6   3  286.33   10.14   0
   0  -5  -7  514.25   11.35   0
  -2  -4 -16  252.88    9.99   0
   0  -6   0  688.18   12.76   0
  -2  -7  -1   52.51    9.00   0
  -2  -7   5  110.49    9.28   0
   0  -5  11  162.26    8.80   0
   0  -6  -3  181.35    9.40   0
   0  -6   6  261.52    9.56   0
  -2  -7  -4  149.85   10.08   0
  -3  -6 -12  126.43    9.43   0
  -2  -5 -15   57.83    9.25   0
  -1  -7   0  246.41   10.42   0
  -1  -7   3   66.70    9.18   0
   1  -4  -1  764.47   12.64   0
   1  -3   1  603.84   12.17   0
  -2  -7   8   77.27    8.56   0
  -1  -6 -10  168.67   10.41   0
   1  -4   5  950.45   14.51   0
  -1  -7  -3  133.32    9.60   0
  -1  -7   6  131.29    9.19   0
  -1  -4 -15  226.69    9.55   0
   0  -6   9  192.27    9.30   0
   0  -5 -10  518.10   11.62   0
   1  -5   0 1195.37   15.05   0
   1  -3  -2 2960.55   24.08   0
  -2  -7  -7   68.31    8.90   0
  -1  -5 -14  303.55   10.77   0
  -1  -3 -16  663.81   12.97   0
   0  -3 -12  913.63   14.13   0
   1  -4  -4 2485.89   20.90   0
  -1  -7  -6  120.43   10.18   0
   1  -5  -3  741.71   12.45   0
  -1  -7   9  122.31    8.93   0
   1  -5   6  937.82   14.13   0
  -2  -6 -14  103.74    9.73   0
   0  -7  -2  143.04    9.19   0
   0  -7   4  436.90   11.97   0
   0  -6  -9  279.33   10.21   0
   1  -4   8 1748.21   20.16   0
  -2  -7 -10   70.69    9.44   0
   1  -3  -5 1884.23   19.28   0
  -1  -6 -13  169.62    9.91   0
   1  -5  -6  792.71   12.93   0
  -2  -4 -19   59.95    8.90   0
  -1  -7  -9   97.96    9.18   0
   0  -7  -5  179.03    9.69   0
   0  -7   7   88.53    8.67   0
   1  -6   4  657.05   12.34   0
   1  -4  -7  597.22   11.53   0
  -2  -5 -18  157.63   10.06   0
   0  -5 -13  153.59    8.87   0
   0  -4 -14  517.53   11.80   0
  -1  -8   1   55.17    8.95   0
   1  -6  -5  343.78   10.19   0
   1  -5   9  569.19   12.17   0
  -1  -8  -2  100.11    9.83   0
   0  -7  -8  360.76   11.89   0
   1  -6   7  295.39    9.89   0
  -1  -8   4   83.22    8.93   0
  -1  -8  -5   50.28    9.50   0
  -1  -5 -17  156.59    9.80   0
  -1  -4 -18  217.25    9.65   0
   1  -5  -9  302.07    9.67   0
   0  -2 -13 1059.17   15.93   0
   1  -7  -1  249.14    9.96   0
   1  -7   2  194.05    9.58   0
   1  -3  -8 1833.82   18.90   0
  -2  -6 -17   74.70    9.29   0
   1  -6  -8  512.94   11.62   0
  -1  -6 -16  168.75   10.22   0
   0  -8   2  139.04    9.35   0
   0  -3 -15  238.20    9.48   0
   1  -7  -4  476.63   11.98   0
   0  -8  -4  168.57   10.36   0
   1  -7   5  154.58    8.91   0
   0  -8   5   97.83    8.87   0
   0  -7 -11   61.27    8.82   0
   1  -6  10  350.26   10.76   0
   0  -5 -16  333.92   10.90   0
   1  -7  -7   90.35    8.74   0
   0  -8  -7   79.62    8.86   0
   0  -6 -15   79.18    9.17   0
  -1  -7 -15   45.25    9.00   0
   1  -7   8  431.77   11.62   0
   1  -6 -11  153.22    8.93   0
   2  -5  -2  587.55   11.72   0
   2  -5   1  676.12   12.02   0
   0  -4 -17  171.85    8.89   0
   1  -8  -3  117.94    9.87   0
   2  -6  -1  490.51   11.21   0
   1  -8   3   71.07    8.56   0
   1  -7 -10  191.18    9.87   0
   0  -8 -10   63.90    8.93   0
   0  -7 -14   72.65    8.84   0
   1  -4 -13  524.79   11.62   0
   2  -6  -4  694.86   12.46   0
   2  -5   4 1938.87   19.47   0
  -1  -6 -19   16.98    9.23   0
   1  -8   6  117.45    9.22   0
   2  -6   5  281.70    9.81   0
   2  -4   0 3888.39   26.54   0
   2  -7  -3  113.28    8.70   0
   2  -6  -7  215.48    9.71   0
   2  -4  -3  741.32   12.65   0
   1  -6 -14  285.30   10.72   0
   2  -7   3  326.21   10.23   0
   1  -8  -9   75.75    9.67   0
   2  -7  -6  365.17   11.41   0
   2  -5  -8 1530.82   17.04   0
   1  -5 -15  208.65    9.70   0
   0  -6 -18  122.20    9.76   0
   0  -5 -19  109.50    8.98   0
   2  -7   6  281.52   10.15   0
   0  -7 -17   73.57    9.56   0
   0  -2 -16  504.95   12.40   0
   1  -9   1   64.48    8.59   0
   2  -8  -2  153.99    9.56   0
   2  -8   1  150.82    9.82   0
   2  -6 -10  487.06   11.39   0
   2  -6   8  570.13   12.33   0
   2  -8  -5  111.03    9.97   0
   2  -7  -9  295.76   10.55   0
   1  -9  -5   65.66    8.71   0
   1  -8 -12  153.90   10.04   0
   2  -4   6  668.37   13.03   0
   1  -9   4   87.22    8.99   0
   2  -8   4  309.09   10.58   0
   1  -4 -16  667.06   12.95   0
   1  -3 -14 1091.58   15.53   0
   2  -5 -11  216.70    8.83   0
   2  -4  -9  905.34   13.55   0
   2  -8  -8  241.64   10.41   0
   1  -7 -16  140.60   10.16   0
   1  -6 -17  145.57    9.26   0
   2  -7   9   94.13    8.59   0
   2  -7 -12  219.59    9.83   0
   2  -3  -1  644.37   12.46   0
   2  -8   7   65.30    8.53   0
   2  -3  -4 3181.36   24.65   0
   2  -9  -4  135.45    9.79   0
   1  -8 -15   30.04    8.48   0
   1  -5 -18  234.41    9.93   0
   2  -9   2  117.59    9.42   0
   2  -8 -11   62.00    8.89   0
   2  -5  10  418.28   11.48   0
   3  -7  -2  484.25   11.93   0
   3  -6  -3  352.86   10.20   0
   3  -6   0  871.42   13.67   0
   2  -9  -7   90.45    8.78   0
   3  -7  -5  297.79   10.51   0
   2  -9   5   99.57    9.13   0
   2  -5 -14  311.73    9.91   0
   2  -4 -12 1471.68   16.83   0
   2  -3  -7 1495.09   17.14   0
   3  -6  -6  609.05   12.15   0
   1  -2 -12 1585.13   19.23   0
   3  -8  -4  316.70   10.76   0
   3  -6   3  359.21   10.05   0
   2  -7 -15   39.06    9.07   0
   3  -8   2  182.73   10.03   0
   3  -7  -8  325.40   10.78   0
   3  -7   4  406.33   10.97   0
   3  -5  -1  673.28   12.09   0
   2  -9 -10   85.96    8.72   0
   2  -4   9  861.89   15.69   0
   3  -5  -4 1938.79   18.66   0
   1  -7 -19   30.99    8.37   0
   2  -6 -16  245.58   10.26   0
   3  -6  -9  321.84   10.20   0
   1  -6 -20  121.69    9.28   0
   3  -8   5  130.25    9.33   0
   1  -4 -19  112.03    8.34   0
   3  -9   0  194.28   10.13   0
   3  -7 -11  122.93    8.84   0
   3  -6   6  580.75   12.01   0
   1  -3 -17  451.32   11.41   0
   3  -9  -6  101.84    9.73   0
   3  -8 -10  143.73    9.68   0
   3  -7   7  248.47    9.91   0
   3  -9   3   43.02    8.30   0
   3  -6 -12  453.19   11.67   0
   2  -5 -17  299.59   10.44   0
   2  -4 -15  166.35    8.47   0
   3  -5 -10  460.87   10.94   0
   3  -5   5  613.92   12.03   0
   2  -8 -17   79.03    9.14   0
   2  -7 -18  167.85   10.03   0
   3  -8 -13  115.75    9.94   0
   3  -4  -2 1188.16   15.28   0
   2  -6 -19   51.21    8.75   0
   3  -9   6   97.87    8.63   0
   3  -4  -5 1026.61   14.13   0
   3  -9 -12  110.39    9.72   0
   3  -4   1  786.42   13.10   0
   3  -6   9  306.46   10.33   0
   4  -8  -3  135.65    9.33   0
   4  -7  -4  419.54   11.23   0
   4  -7  -1  169.12    8.87   0
   1  -2 -15  474.92   11.73   0
   3  -6 -15  122.98    9.11   0
   3  -4  -8 1863.60   18.37   0
   4  -8  -6  173.88    9.77   0
   4  -8   0  347.92   10.95   0
   2  -3 -13  443.45   10.46   0
   4  -7  -7  271.46   10.21   0
   4  -9  -5   69.98    9.45   0
   4  -7   2  510.98   11.66   0
   3  -8 -16  113.52    9.60   0
   3  -5   8 1499.71   18.63   0
   4  -8  -9  115.33    9.39   0
   4  -8   3  144.85    8.95   0
   4  -6  -5  256.09    9.60   0
   4  -6  -2  717.23   12.78   0
   3  -7 -17  110.25    9.44   0
   4  -9   1  108.99    8.95   0
   3  -4   4 2465.75   22.50   0
   4  -9  -8  203.97   10.04   0
   4  -7 -10  291.65   10.57   0
   2  -7 -21   57.57    8.63   0
   2  -5 -20  277.37   10.32   0
   2  -4 -18  272.17    9.70   0
   4  -6  -8  583.65   11.93   0
   4  -8 -12  209.17   10.71   0
   4  -7   5  291.12   10.22   0
   4  -9 -11   50.57    9.15   0
   4  -9   4  225.67   10.44   0
   4  -8   6  152.71    9.36   0
   3  -6 -18  181.97    9.75   0
   3  -5 -16  482.11   11.35   0
   4  -7 -13   98.06    8.76   0
   4  -6 -11  258.08    9.69   0
   4  -6   4  703.85   12.72   0
   3  -8 -19   17.87    8.18   0
   4  -5  -6  983.54   13.97   0
   4  -5  -3  300.24    9.37   0
   4  -5   0 1201.47   15.62   0
   2  -3 -16  955.03   14.80   0
   4  -9 -14   43.28    8.37   0
   3  -7 -20   91.62    8.97   0
   3  -4 -14  553.60   11.45   0
   4  -7   8  295.26   10.39   0
   4  -5  -9  587.95   11.67   0
   5  -8  -5  133.11    9.70   0
   3  -4   7  593.20   12.69   0
   3  -3  -6 1881.13   18.74   0
   3  -3  -3 1930.61   19.20   0
   4  -7 -16  188.45   10.09   0
   5  -9  -4  241.72   10.40   0
   4  -6   7  201.16    9.31   0
   4  -5   3  732.70   12.94   0
   5  -9  -7   56.38    8.60   0
   5  -9  -1   91.72    9.17   0
   5  -8  -8  266.68   10.75   0
   5  -8   1  169.67    9.26   0
   5  -7  -6  297.64   10.88   0
   5  -7  -3  340.77   10.67   0
   3  -3   0 2469.30   22.02   0
   3  -5 -19   51.84    7.77   0
   3  -3  -9  465.15   10.76   0
   5 -10  -3   35.21    8.35   0
   5  -9 -10   74.53    8.99   0
   5  -9   2   77.65    8.69   0
   3  -6 -21  105.52    8.91   0
   4  -8 -18   69.55    8.88   0
   5 -10   0  114.82    9.11   0
   5  -8 -11   79.92    8.93   0
   5  -7  -9  104.81    9.01   0
   4  -6 -17  105.08    8.89   0
   5  -9 -13   66.24    9.37   0
   5  -7   3  106.03    8.76   0
   3  -4 -17  375.01   10.66   0
   5 -10   3   39.91    8.04   0
   5  -9   5   81.92    8.77   0
   5  -7 -12  292.41   10.55   0
   5  -6  -4  633.15   12.26   0
   4  -7 -19   64.50    8.56   0
   4  -5   6  764.66   13.58   0
   4  -4  -4 1359.79   15.85   0
   5  -8 -14   98.85    8.84   0
   5  -6  -7  294.89   10.02   0
   5  -6  -1  271.67    9.65   0
   3  -3 -12 1310.63   16.16   0
   4  -5 -15  126.47    8.63   0
   4  -4  -7  276.44    9.00   0
   4  -4  -1 1263.32   15.50   0
   2  -3 -19  218.73    9.36   0
   5  -6 -10  359.24   10.54   0
   4  -4 -10 1091.35   14.82   0
   5  -8   7   85.05    8.83   0
   5  -6   2  576.34   12.06   0
   2  -2 -14  927.51   14.97   0
   5  -7   6  356.85   10.79   0
   6  -9  -6   92.90    9.54   0
   5  -8 -17   78.54    8.82   0
   4  -6 -20  156.47    9.45   0
   6  -9  -9  117.04    9.02   0
   6  -9   0  193.67    9.92   0
   6  -8  -7   50.80    8.69   0
   3  -4  10  707.73   14.87   0
   4  -4 -13  595.17   12.01   0
   5  -5  -5  573.87   11.67   0
   6  -8 -10  132.69    9.95   0
   3  -3 -15  420.57   10.68   0
   4  -7 -22   57.20    8.70   0
   4  -5 -18  324.62   10.65   0
   5  -6   5  355.33   10.64   0
   5  -5  -8  541.24   11.51   0
   5  -5  -2  950.01   14.01   0
   3  -4 -20  294.69   10.38   0
   6  -9 -12   92.64    8.92   0
   5  -7 -18   86.05    9.00   0
   6  -9   3  103.26    9.17   0
   6  -8   2  166.72    9.12   0
   6  -7  -8  413.67   12.06   0
   6  -7  -2  195.61    9.72   0
   3  -3   6 2336.89   23.70   0
   4  -5   9  298.68   10.15   0
   5  -6 -16  232.59   10.25   0
   5  -5 -11  165.63    8.68   0
   6  -8 -13  101.14    9.04   0
   4  -4   5  353.81   10.16   0
   6  -7 -11   93.09    9.47   0
   4  -4 -16  344.41    9.90   0
   6  -8   5  107.58    8.55   0
   2  -2 -17  216.04    9.07   0
   5  -5 -14  424.95   11.20   0
   3  -2  -4 3248.74   24.91   0
   6  -6  -6  251.09    9.86   0
   6  -6  -3  287.71   10.32   0
   3  -2  -7 1459.86   16.93   0
   4  -3  -5 1001.92   13.83   0
   5  -6   8  465.89   11.49   0
   5  -5   4  796.46   13.21   0
   6  -7   4  452.44   11.65   0
   6  -6  -9  184.64    9.64   0
   3  -3 -18  376.31   10.57   0
   4  -5 -21  126.34    8.82   0
   4  -3  -8 1873.37   18.21   0
   5  -7 -21   54.50    7.99   0
   5  -6 -19   81.61    8.46   0
   7  -9  -5   90.24    8.59   0
   4  -3  -2 1187.22   15.00   0
   7  -9  -8  103.02    8.88   0
   7  -9  -2  112.89    9.19   0
   3  -2  -1  635.26   12.28   0
   5  -4  -6  971.10   13.67   0
   6  -6 -12  413.76   11.03   0
   7  -9 -11   19.46    8.44   0
   7  -8  -6  120.77    9.07   0
   5  -4  -3  290.77    9.21   0
  -6   4 -10  473.06   12.30   0
  -6   6 -18   97.99   10.52   0
   0   2 -17  224.58   10.19   0
  -4   5 -21  119.71   10.86   0
  -5   5 -19  125.29   10.78   0
  -2   1  -9 1136.29   16.91   0
   0   1 -13  974.35   16.50   0
  -3   5 -23   40.42   10.50   0
  -3   6 -24   67.84   10.16   0
  -7   6 -16  154.99   10.55   0
  -6   5 -17  134.70   10.54   0
  -4   4 -20  297.04   12.22   0
  -7   5 -12  219.38   10.76   0
  -6   4 -13  268.20   11.40   0
  -1   2 -18  733.41   14.61   0
  -1   4 -23   57.38    9.51   0
  -6   7 -22   57.47   10.18   0
   0   3 -21  172.59   10.36   0
  -5   4 -18  224.34   11.65   0
  -5   6 -23   27.54   10.42   0
  -8   6 -11   61.75    9.28   0
  -8   7 -15   26.58    9.56   0
  -6   6 -21   81.05   10.10   0
  -2   5 -25   82.28   10.06   0
  -1   1 -14 1245.17   17.41   0
  -7   7 -20   90.70    9.76   0
  -5   3 -14  304.45   11.39   0
  -4   2 -12 1551.79   18.55   0
  -2   1 -12 1723.35   19.95   0
  -1   3 -22  230.24   11.31   0
  -5   5 -22  107.99   10.94   0
  -3   1  -7 1406.88   18.41   0
  -2   4 -24  186.00   11.64   0
  -2   6 -26   46.81    9.27   0
  -4   5 -24  123.47   10.80   0
  -7   5 -15   51.68   10.28   0
  -3   3 -21  241.07   12.51   0
   1   1 -15  453.21   12.56   0
  -6   5 -20  136.92   11.61   0
  -4   3 -19  133.85   10.66   0
  -3   2 -17  471.41   12.90   0
  -8   6 -14   98.52   10.40   0
   0   1 -16 1419.07   18.95   0
   0   2 -20  561.39   13.59   0
  -3   5 -26   70.32   10.53   0
  -6   3  -9  313.37   11.21   0
  -5   2  -4 1812.97   21.56   0
  -2   3 -23   93.48   10.74   0
  -5   4 -21  121.62   10.91   0
  -3   1 -10 1269.55   16.95   0
  -5   2  -7  306.55   10.91   0
  -5   3 -17  301.39   11.60   0
  -4   2 -15  162.17    9.84   0
  -3   4 -25  111.06   11.57   0
  -7   4 -11  107.20    9.68   0
  -6   6 -24   55.73   10.69   0
  -2   1 -15  521.99   12.78   0
  -1   2 -21  260.83   10.87   0
  -7   5 -18  158.86   10.92   0
  -6   3 -12  454.17   12.59   0
  -1   4 -26   96.44   10.79   0
  -8   6 -17   69.44   10.05   0
  -6   4 -19   47.44   10.47   0
  -5   2 -10  475.75   12.33   0
  -5   5 -25   48.75   10.94   0
  -7   6 -22   63.75    9.93   0
  -6   5 -23   18.82   10.65   0
  -4   3 -22  213.21   12.64   0
  -3   1 -13  472.54   11.91   0
  -7   4 -14  229.22   11.33   0
  -2   5 -28   41.49    9.46   0
  -1   3 -25   93.66   10.19   0
  -8   5 -13  100.09   10.11   0
  -2   4 -27   24.27    9.83   0
  -6   3 -15  138.89    9.82   0
  -5   3 -20  304.90   12.24   0
  -5   4 -24  105.78   12.12   0
  -4   4 -26   80.82   11.45   0
  -1   0 -10 1432.96   18.65   0
   0   1 -19  192.29    9.77   0
  -4   1  -5  933.05   15.70   0
  -2   3 -26  167.78   11.98   0
   0   2 -23  161.51    9.95   0
  -4   1  -8 1779.89   19.93   0
  -3   5 -29   36.57    9.26   0
  -7   4 -17  103.36   10.51   0
  -6   4 -22  133.22   10.91   0
  -3   1 -16 1040.67   15.92   0
  -1   1 -20  572.73   13.60   0
  -8   5 -16  111.56   10.32   0
  -3   4 -28   70.79   10.58   0
  -1   2 -24  223.27   10.89   0
  -5   2 -16  527.48   13.44   0
  -3   2 -23   92.23   10.53   0
  -1   0 -13 1060.12   15.79   0
  -4   2 -21  289.77   12.75   0
  -4   3 -25  118.25   11.38   0
  -2   0  -8 2753.22   24.97   0
  -5   3 -23   49.68   11.25   0
  -3   3 -27   32.31   10.42   0
  -2   0 -11 1715.29   19.36   0
   0   0 -15  144.52    8.65   0
  -4   1 -14  561.65   12.84   0
  -2   2 -25  142.23   10.82   0
  -8   5 -19   26.28    9.20   0
  -7   4 -20   79.49   10.11   0
  -5   4 -27   29.68   10.02   0
  -3   1 -19  257.69   11.23   0
  -2   1 -21  266.95   11.07   0
   1   0 -14 1147.65   17.82   0
  -1   3 -28  105.54   10.02   0
  -6   2  -8  549.62   13.11   0
  -6   4 -25   60.07   10.86   0
  -5   2 -19   53.18    9.83   0
  -2   4 -30   48.44   10.24   0
  -1   0 -16 1472.94   18.20   0
   0   1 -22  321.54   11.57   0
  -7   3 -13   93.43    9.85   0
  -6   2 -11  275.14   10.95   0
  -6   3 -21   87.61   11.18   0
  -2   0 -14 1019.68   15.41   0
  -6   2  -5  248.19   10.60   0
  -1   1 -23   69.51    9.46   0
  -2   3 -29   59.63   10.52   0
  -3   2 -26  177.94   12.51   0
  -8   4 -15   64.96    9.16   0
  -7   3 -16  182.25   10.85   0
  -6   2 -14  333.05   11.46   0
  -4   3 -28   72.20   11.69   0
  -1   2 -27   55.33   10.09   0
   0   0 -18  498.74   12.39   0
  -5   3 -26   77.83   10.80   0
  -3   0  -9  461.93   11.44   0
  -3   1 -22  251.33   11.66   0
  -2   0 -17  239.90   10.14   0
  -5   1  -9  597.72   13.09   0
  -5   2 -22  145.26   11.12   0
  -3   0 -12 1385.81   17.46   0
   1   0 -17  727.59   14.51   0
  -6   2 -17  106.53   10.64   0
  -5   1 -12  514.90   12.89   0
  -3   3 -30   74.75   11.06   0
  -2   2 -28   72.67   10.80   0
  -8   4 -18   69.51    9.65   0
  -6   3 -24   79.51   10.94   0
  -5   1  -6  917.30   15.70   0
  -4   1 -20  336.55   12.11   0
  -7   3 -19   77.91   10.14   0
  -3   0 -15  442.22   11.99   0
   0   1 -25  170.36   10.29   0
  -4   2 -27   18.62   11.37   0
  -2   0 -20  629.47   14.06   0
   0   0 -21  553.31   13.35   0
  -5   2 -25  106.84   11.74   0
  -3   1 -25  111.01   11.29   0
  -3   2 -29   65.72   11.32   0
  -5   3 -29   42.96   10.44   0
  -3   0 -18  440.38   12.26   0
  -1   0 -22  329.19   11.44   0
  -7   3 -22   71.64   10.33   0
  -2   1 -27   58.40   10.20   0
  -4   0 -10 1068.97   15.72   0
  -2   0 -23  180.45   10.75   0
  -2   2 -31   31.83   10.27   0
  -7   2 -12  288.32   11.52   0
  -5   1 -21  148.09   10.89   0
  -3   0 -21  191.48   10.84   0
  -1  -1 -12 1669.72   18.86   0
   0  -1 -11  414.69   11.07   0
  -7   2 -15  100.12    9.76   0
  -4   0 -16  380.30   11.46   0
  -4   0  -7  248.93    9.71   0
  -1  -1 -15  520.24   12.04   0
  -1  -1  -9 1107.96   16.11   0
  -8   3 -17   60.36    9.66   0
  -5   2 -28   41.44   10.58   0
  -4   1 -26  115.69   11.30   0
  -3   1 -28  120.72   11.64   0
  -1   0 -25  184.38   10.96   0
  -1   1 -29   78.03   10.64   0
  -7   2 -18   97.60   10.48   0
  -6   1 -13  149.90    9.87   0
  -6   1 -10  362.88   11.65   0
  -4   0 -19   90.64    9.33   0
  -2  -1 -13  453.66   11.66   0
   0  -1 -17  745.20   13.81   0
  -6   1 -16  268.48   11.78   0
  -5   1 -24   79.46   11.33   0
  -2  -1 -10 1276.54   16.82   0
  -1  -1 -18  734.36   13.73   0
   1   0 -23   73.37    8.70   0
  -2  -1 -16 1039.39   15.78   0
  -2   1 -30   71.36   10.95   0
  -7   2 -21   45.16    9.63   0
  -6   1 -19   87.15   10.37   0
  -6   1  -7  289.19   10.77   0
   1  -1 -16 1435.94   18.77   0
  -4   0 -22  279.61   12.28   0
  -2  -1 -19  241.98   11.34   0
   0  -1 -20  593.30   12.97   0
  -2  -1  -7 1457.01   18.16   0
  -5   0 -14  467.10   12.82   0
  -4   1 -29   54.95   10.99   0
  -5   0 -11  170.11    9.88   0
  -3  -1 -14  589.89   12.90   0
  -3   1 -31   26.42   10.92   0
  -1   0 -28  137.16   10.82   0
   0   0 -27   25.16    9.10   0
  -6   1 -22   95.37   10.63   0
  -5   0 -17  184.31   10.59   0
  -5   1 -27   16.77   10.74   0
  -3  -1 -11  308.74   10.30   0
   1  -1 -19  191.10    9.66   0
  -3   0 -27   43.99   10.92   0
  -4   0 -25  105.91   11.90   0
  -1   1 -32   41.18   10.46   0
  -5   0  -8  545.36   12.71   0
  -2   0 -29   47.34   10.96   0
   0  -1 -23   74.53    8.72   0
  -5   0 -23   51.04   10.46   0
  -2  -1 -25  111.93   10.65   0
  -7   1 -14   89.11    9.89   0
  -3  -1 -23   45.39    9.91   0
  -7   1 -17  102.21   10.19   0
  -4  -1 -18  327.96   12.56   0
  -4  -1 -12  511.93   12.57   0
  -4   0 -28   32.22   10.98   0
  -1   0 -31   23.83    9.79   0
  -1  -1 -27   64.07   10.32   0
   0  -1 -26  210.25   11.07   0
  -7   1 -20  100.96   10.44   0
  -5   0  -5  558.23   13.10   0
   2  -1 -15  443.42   12.59   0
  -4  -1 -21  142.26   11.52   0
  -1  -2 -17  492.48   12.25   0
  -1  -2 -14 1128.86   15.96   0
   0  -2 -16  547.71   12.52   0
  -6   0 -18   86.25   10.58   0
  -6   0 -15   77.60    9.30   0
  -5   0 -26   93.60   10.58   0
  -4  -1  -9  605.59   13.09   0
  -3  -1  -5  964.88   15.54   0
  -2   0 -32   55.14   10.12   0
   0  -2 -13 1100.28   15.95   0
  -6   0 -12  402.61   12.47   0
  -1  -2 -20  368.37   12.17   0
   1  -1 -25  174.78   10.38   0
  -2  -2 -15  154.90    9.74   0
  -1  -2 -11  424.61   11.07   0
  -2  -2 -18  266.99   10.94   0
  -4  -1 -24  102.67   11.24   0
  -2  -2 -12 1578.12   18.38   0
   0  -2 -22  492.13   13.05   0
   0  -2 -10 3159.30   25.50   0
  -6   0  -9  185.63   10.13   0
  -1  -2 -23   73.09    9.64   0
  -1  -1 -30   91.10   10.82   0
   0  -1 -29   87.66    9.93   0
   1  -2 -18  721.14   13.97   0
   1  -2 -15  470.71   11.62   0
  -5  -1 -16  278.22   12.07   0
  -6   0 -24   79.86    9.92   0
  -5  -1 -19   72.91   10.74   0
  -5  -1 -13  162.14   10.50   0
  -3  -2 -16  568.53   13.73   0
  -3  -1 -29   56.87   10.49   0
  -4  -1  -6  948.92   15.67   0
  -3  -2 -19   69.61    9.74   0
  -2  -2 -24  215.67   12.40   0
  -2  -2  -9  894.83   14.56   0
  -1  -2  -8 1859.30   19.87   0
   1  -2 -21  245.97   10.68   0
   1  -2 -12 1566.64   19.27   0
  -4  -1 -27   27.82    9.96   0
  -3  -2 -13  511.64   12.45   0
  -2  -1 -31   20.87   10.49   0
   0  -2 -25  141.61   10.27   0
  -5  -1 -10  377.32   11.89   0
   1  -2 -24  216.32   10.94   0
  -5  -1 -25   56.01   10.70   0
  -3  -2 -25  102.32   11.16   0
   0  -2  -7  311.46   10.28   0
  -7   0 -19   11.66   10.16   0
  -4  -2 -20  152.21   11.08   0
  -4  -2 -14  314.92   11.87   0
  -3  -1  -2 1115.63   17.97   0
  -1  -2 -29   68.26   10.78   0
   0  -2 -28   81.82   10.30   0
  -6  -1 -17   93.47   10.78   0
  -5  -1  -7  294.07   11.07   0
  -4  -2 -23   54.10   10.17   0
  -1  -3 -19  115.58    9.87   0
  -1  -3 -16  695.74   13.88   0
   0  -3 -18  645.07   13.68   0
   1  -2 -27   48.43   10.13   0
   2  -2 -20  566.73   13.77   0
  -6  -1 -20  123.93   10.62   0
  -4  -2 -11  281.02   11.44   0
  -3  -2 -28   78.45   10.95   0
  -3  -2  -7  303.99   10.73   0
  -1  -2  -5 1852.31   20.68   0
   0  -3 -15  267.84   10.31   0
   2  -2 -14  925.56   16.38   0
  -6  -1 -14  112.15   10.02   0
  -2  -3 -17  335.62   12.44   0
  -1  -3 -22  206.99   11.06   0
  -1  -3 -13  546.84   12.41   0
  -4  -1  -3  290.30   10.81   0
  -4  -2 -26   54.23   10.53   0
  -2  -3 -14  310.98   11.51   0
  -2  -3 -23   28.32   10.37   0
   0  -3 -24  142.34   10.56   0
   0  -3 -12  915.68   14.80   0
   0  -2 -31   26.62   10.53   0
   1  -3 -20  373.44   12.08   0
   1  -3 -17  467.70   12.03   0
  -5  -2 -18   95.87   10.89   0
  -5  -2 -21   37.17   10.49   0
  -3  -3 -18  203.48   11.31   0
  -1  -3 -10  775.77   13.95   0
   1  -3 -23   92.78   10.06   0
  -5  -2 -15  121.46   10.20   0
  -4  -2  -8  571.79   13.52   0
  -3  -3 -21  111.58   11.25   0
  -3  -3 -15  128.00   10.86   0
  -2  -3 -26   71.65   11.62   0
  -2  -3 -11  234.08   10.09   0
   0  -3 -27   44.94    9.97   0
  -1  -3 -28   87.70   11.09   0
  -5  -2 -12  310.30   12.16   0
  -3  -3 -24   96.24   10.98   0
   0  -3  -9 1166.15   16.32   0
   1  -3 -26  174.73   11.31   0
   1  -3 -11  394.28   11.14   0
  -3  -2  -4 1869.85   21.40   0
  -2  -3 -29   38.95   10.95   0
   2  -3 -19  235.48   11.21   0
  -3  -3 -27   20.20   10.25   0
   0  -3 -30   61.66   11.07   0
   2  -3 -22  235.47   10.99   0
   2  -3 -16  925.98   16.19   0
  -1  -3  -7  591.36   12.82   0
  -1  -4 -21  109.12   11.18   0
  -1  -4 -18  220.41   11.61   0
   0  -4 -20  319.11   12.16   0
   0  -4 -17  188.38   10.78   0
   1  -3 -29   58.82   11.00   0
  -3  -3  -9  329.90   11.55   0
  -4  -3 -13   97.99   11.18   0
  -4  -2  -5  261.52   10.91   0
  -1  -4 -15  216.68   10.91   0
  -2  -4 -19   67.55   10.91   0
   0  -4 -14  503.46   13.05   0
   1  -4 -19  117.83   10.41   0
  -6  -2 -16   87.54   10.43   0
  -2  -4 -22  130.84   11.88   0
  -2  -4 -16  258.45   12.35   0
   1  -4 -22  201.83   11.64   0
   0  -4 -26   99.91   11.29   0
  -2  -4 -25   57.04   10.75   0
  -1  -4 -12  738.48   14.81   0
   0  -3  -6 2395.84   23.00   0
   1  -3  -8 1865.24   20.90   0
  -6   2  -2  685.30   13.05   0
  -8   4  -9  129.30    9.05   0
  -8   5 -16  112.75   10.17   0
  -6   2  -5  259.59    9.65   0
  -9   5  -8  192.99   10.02   0
  -6   2   1  456.80   11.59   0
  -7   3 -10  300.38   10.32   0
  -7   4 -17  121.41    9.64   0
  -7   5 -21   88.11    9.63   0
  -6   2  -8  571.34   11.96   0
  -5   5 -25   35.87    8.90   0
  -4   2 -18  284.94   11.16   0
  -2   3 -23   86.01    9.04   0
  -4   1 -11  296.79    9.56   0
  -4   3 -22  188.86   10.40   0
  -3   4 -25  105.74    9.27   0
  -8   4 -12  215.05   10.05   0
  -3   2 -20  379.91   11.29   0
  -9   5 -11   40.23    8.79   0
  -5   2 -16  546.21   12.92   0
  -6   3 -18  195.36   10.60   0
  -6   4 -22  149.79   10.72   0
  -5   4 -24  119.01   10.33   0
  -1   1 -17  779.06   13.72   0
  -6   2 -11  281.17    9.83   0
  -2   0  -8 2796.15   23.31   0
  -8   5 -19   30.75    8.43   0
  -3   1 -16 1006.39   15.04   0
  -3   3 -24  132.96   10.03   0
  -1   2 -21  234.13    9.98   0
  -5   1  -6  946.58   14.31   0
  -5   1  -3  304.54    9.70   0
  -9   5 -14   49.17    8.69   0
  -7   4 -20   83.93    9.49   0
  -4   1 -14  581.49   12.30   0
  -4   4 -26   93.35    9.50   0
  -2   1 -18  726.02   13.08   0
  -2   2 -22  464.51   12.11   0
  -6   2 -14  319.90   11.21   0
  -7   3 -16  169.29    9.99   0
  -5   1   0 1140.61   16.09   0
  -2   0 -11 1718.54   18.02   0
  -3   0  -6 1815.95   18.80   0
  -8   3  -5  123.28    9.33   0
  -5   2 -19   73.79    9.10   0
  -8   3  -8  287.61   10.82   0
  -6   3 -21  106.72    9.97   0
  -9   4  -7   43.05    7.91   0
  -8   4 -18   65.30    9.28   0
  -5   1 -12  540.02   11.86   0
  -4   3 -25  107.22    9.75   0
  -3   0  -9  481.79   10.74   0
  -3   2 -23   94.67    9.31   0
  -9   4 -10   56.58    8.77   0
  -8   3 -11   62.59    9.18   0
  -7   2  -6  288.52    9.92   0
  -7   2  -3  323.74   10.77   0
  -6   2 -17  106.58   10.13   0
  -7   2  -9  113.36    8.99   0
  -7   4 -23   28.05    9.38   0
  -5   4 -27   25.37    8.95   0
  -7   3 -19   68.48    9.78   0
  -3   0 -12 1411.59   16.38   0
  -2   0 -14 1016.68   14.41   0
  -1   1 -20  576.91   12.90   0
  -5   1 -15  135.61    9.61   0
  -9   4 -13   84.02    8.81   0
  -7   2 -12  295.29   10.96   0
  -8   3 -14   99.90    9.52   0
  -5   2 -22  155.81   11.24   0
  -2   1 -21  263.17    9.73   0
  -4   2 -24  209.51   11.32   0
  -3   3 -27   36.37    8.84   0
  -6   1  -7  294.66   10.26   0
  -6   3 -24   76.22    9.49   0
  -5   3 -26   75.22   10.34   0
  -6   1 -10  367.32   11.11   0
  -6   1  -4  625.32   12.58   0
  -4   0 -10 1077.21   14.63   0
  -4   0  -4 1297.54   16.07   0
  -2   2 -25  134.38    9.75   0
  -1   0 -16 1395.07   17.09   0
  -3   0 -15  463.11   11.12   0
  -7   3 -22   77.09   10.11   0
  -5   1 -18  365.88   12.10   0
  -3   1 -22  244.64   10.61   0
  -6   1 -13  167.26    9.35   0
  -4   0 -13  615.68   12.31   0
  -4   3 -28   70.44    9.26   0
  -3   2 -26  168.28   10.58   0
  -6   1  -1  249.57    9.39   0
  -4   0  -1 1203.71   16.34   0
   0   0 -15  142.01    7.74   0
  -7   2 -18  110.56    9.40   0
  -3   0 -18  448.23   11.40   0
  -6   1 -16  266.33   10.37   0
  -6   2 -23   46.78   10.23   0
  -4   0 -16  355.37   10.76   0
  -9   3  -9   97.38    8.99   0
  -8   3 -20   84.20    9.05   0
  -5   1 -21  148.56   11.06   0
  -2   1 -24  215.05   10.11   0
  -1   1 -23   72.34    8.08   0
  -8   2 -10  115.44    9.20   0
  -8   2  -7   65.72    8.36   0
  -5   0  -8  535.63   11.60   0
  -4   2 -27   34.31    9.32   0
  -1   0 -19  207.09    8.95   0
  -9   3 -12   88.24    8.88   0
  -5   0 -11  191.06    9.04   0
  -5   0  -5  555.43   11.70   0
  -2   0 -20  603.91   12.37   0
  -8   2 -13  127.19    9.93   0
  -7   2 -21   52.96    9.57   0
  -3   1 -25  115.57   10.02   0
  -7   1  -8  423.98   11.68   0
  -6   1 -19   69.72    9.42   0
  -5   0 -14  471.14   11.62   0
  -2  -1 -10 1306.74   15.66   0
  -7   1 -11   94.42    9.30   0
  -2  -1  -7 1468.24   16.78   0
  -1  -1  -9 1106.17   15.13   0
   0   0 -18  469.59   11.72   0
  -8   2 -16  104.21    9.35   0
  -7   1  -5  150.40    9.45   0
  -5   0  -2  906.11   14.56   0
  -7   1 -14   83.55    9.63   0
  -2  -1 -13  461.03   10.77   0
  -1  -1 -12 1596.43   17.58   0
  -6   2 -26   61.84    9.96   0
  -5   1 -24   98.36   10.60   0
  -3  -1 -11  318.19    9.52   0
  -3  -1  -8 1794.08   18.13   0
  -5   2 -28   59.22    9.80   0
  -6   1 -22  101.02    9.83   0
  -2  -1 -16 1001.58   14.69   0
  -2   0 -23  173.49    9.51   0
  -1   0 -22  321.89   10.40   0
  -4   0 -22  268.75   11.80   0
  -6   0 -12  411.00   11.74   0
  -6   0  -9  190.54    9.38   0
  -2   1 -27   60.82    8.74   0
  -6   0  -6  242.82    9.89   0
  -4   2 -30   51.34    9.35   0
  -4  -1 -12  552.63   11.81   0
  -4  -1  -9  589.44   11.91   0
  -3  -1 -17  406.92   11.12   0
  -3   0 -24  211.38   10.39   0
  -6   0 -15   87.47    8.96   0
  -3   1 -28  101.27    9.78   0
  -7   1 -20  118.42    9.66   0
  -4  -1  -6  951.87   14.17   0
  -4  -1 -15  129.61    8.82   0
  -1  -1 -18  712.31   12.75   0
  -6   1 -25   45.71    9.24   0
  -3  -1  -2 1153.86   15.76   0
   0  -1 -14 1143.49   15.69   0
  -6   0  -3  284.75   10.03   0
  -8   1 -12  117.35    9.72   0
  -5   0 -23   42.33    9.42   0
  -4   1 -29   62.37    9.74   0
  -8   1  -9  119.60    9.47   0
  -4  -1 -18  368.54   11.48   0
  -2   0 -26  128.70    9.57   0
  -8   1 -15   18.99    8.58   0
  -5  -1 -13  174.27    9.83   0
  -1   0 -25  170.94    9.46   0
   0  -1 -17  754.33   13.44   0
  -6   0 -21   69.78    9.45   0
  -3   0 -27   51.48    9.35   0
  -2  -1 -22  236.57   10.22   0
  -5  -1  -7  315.42   10.27   0
  -1  -1 -21  234.73    9.34   0
  -7   0 -13  135.15    9.48   0
  -7   0 -10  107.96    9.20   0
  -4  -1 -21  164.20   10.99   0
  -7   0  -7   82.83    8.47   0
  -5   0 -26   71.26   10.42   0
  -5  -1 -19   88.05   10.16   0
  -2  -2 -12 1623.49   17.19   0
  -5  -1  -4  617.08   12.57   0
  -4   0 -28   43.26    9.69   0
  -6   0 -24   86.47    9.45   0
  -2  -2 -15  157.29    8.76   0
  -2  -2  -9  900.43   13.47   0
   0  -1 -20  572.25   12.25   0
  -3  -2 -10  476.25   11.07   0
  -1  -2 -14 1123.08   15.19   0
  -1  -2 -11  422.77   10.30   0
  -4  -1 -24  105.43   10.63   0
  -3  -2 -16  526.24   12.18   0
  -2  -1 -25  124.68    9.56   0
  -6  -1 -14  103.91    9.85   0
  -6  -1 -11   99.50    8.79   0
  -2  -2 -18  279.54    9.96   0
  -1  -1 -24  227.01    9.73   0
  -5  -1 -22   89.77    9.84   0
  -4  -1   0 1174.26   16.52   0
  -3  -2  -7  297.34    9.30   0
  -3  -1   1  740.89   13.92   0
  -2  -2  -6  688.63   12.35   0
  -1  -2  -8 1891.76   18.77   0
  -6  -1  -8  436.15   11.97   0
  -3  -1 -26  126.05    9.83   0
  -3   0 -30   60.56    9.69   0
  -4  -2 -14  315.18   10.90   0
  -4  -2 -11  278.55   10.19   0
  -4  -2 -17  119.66    9.78   0
  -4  -2  -8  578.74   12.32   0
  -6  -1 -20  132.62   10.08   0
  -1  -2 -20  348.40   10.92   0
  -6  -1  -5  159.94    8.97   0
  -5  -1 -25   35.33   10.07   0
  -5  -1  -1  249.88    9.69   0
   0  -1 -23   67.76    8.10   0
  -3  -2 -22  149.51   10.04   0
  -3  -2  -4 1906.77   19.12   0
   0  -2 -16  516.41   11.53   0
   0  -2 -10 3149.60   24.51   0
   1  -1 -16 1411.46   19.14   0
  -2  -1 -28  102.36    9.73   0
  -1  -2  -5 1869.39   19.20   0
  -5  -2 -15  117.09    9.52   0
  -5  -2 -12  318.93   10.82   0
  -4  -2  -5  277.30    9.83   0
  -1  -1 -27   59.64    8.69   0
  -3  -1 -29   60.84    9.81   0
  -2  -2 -24  200.12   10.16   0
   0  -2 -19  170.40    8.90   0
  -7  -1 -15   23.84    8.82   0
  -7  -1 -12  129.63    9.79   0
  -5  -2 -18   94.70   10.09   0
  -5  -2  -9  121.27    8.82   0
  -1  -2 -23   88.32    8.46   0
  -4  -2 -23   61.45    9.55   0
  -7  -1  -9  125.08    9.17   0
   0  -2  -7  309.12    9.45   0
  -5  -2 -21   54.84    9.77   0
  -5  -2  -6  301.13   10.55   0
  -2  -3 -17  323.56   10.81   0
  -2  -3 -11  239.50    9.32   0
  -3  -3 -15  128.75    9.28   0
  -1  -3 -13  528.45   11.57   0
   0  -2 -22  490.60   12.03   0
  -3  -3 -18  214.49   10.52   0
  -2  -2 -27   19.65    8.89   0
  -6  -2 -16  107.05    9.44   0
  -6  -2 -13  124.81    9.66   0
  -4  -2  -2  713.35   13.33   0
  -3  -2  -1  689.09   12.83   0
  -2  -3 -20  304.99   11.18   0
  -1  -3 -10  788.99   12.92   0
  -1  -2 -26  159.18    9.72   0
  -6  -2 -10  127.34    9.79   0
  -3  -3  -9  337.95   10.20   0
  -2  -3  -8 1511.80   16.70   0
  -4  -3 -16  177.99   11.10   0
  -4  -3 -13  118.64    9.92   0
  -3  -2 -28   66.34    9.75   0
  -3  -3 -21   98.17   10.00   0
   1  -2 -15  498.65   11.67   0
  -4  -3 -19   77.29   10.33   0
  -4  -3 -10  314.32   11.09   0
  -5  -2  -3  329.60   10.69   0
  -1  -3 -22  185.91   10.05   0
   1  -2 -12 1534.05   18.62   0
  -6  -2  -7   69.82    8.52   0
  -3  -3  -6  591.04   12.33   0
  -1  -3  -7  605.45   11.72   0
   0  -3 -12  945.85   14.00   0
   0  -2 -25  130.19    9.41   0
   1  -2 -18  688.25   13.45   0
  -2  -2   0 3704.42   27.88   0
  -4  -3 -22   78.39    9.67   0
  -3  -3 -24   81.90    9.63   0
  -4  -3  -7  282.25   10.64   0
  -2  -2 -30   54.47    9.27   0
  -5  -3 -14   87.02    9.62   0
   0  -3 -21  213.87    9.94   0
   0  -3  -9 1197.94   15.41   0
  -5  -3 -11   93.28    9.44   0
  -2  -3 -26   70.40    9.92   0
   1  -2 -21  228.75    9.88   0
  -1  -3 -25  106.35    9.39   0
  -5  -3  -8  279.37   11.14   0
  -2  -4 -16  268.36   10.60   0
  -2  -4 -13  290.37   10.49   0
  -4  -2   1  462.56   11.98   0
  -3  -3  -3  380.32   10.36   0
  -2  -4 -19   51.62    9.39   0
  -1  -4 -15  224.69   10.05   0
  -1  -3  -4 2387.06   21.01   0
   0  -3 -24  134.07    9.53   0
  -4  -3  -4  406.81   11.55   0
  -3  -4 -17  127.94   10.04   0
  -3  -4 -14  251.33   10.82   0
  -1  -4 -18  225.97   10.38   0
  -2  -4 -10  501.57   12.06   0
  -3  -4 -11  107.36    9.24   0
  -2  -4 -22  145.80   10.68   0
   0  -3  -6 2391.03   21.16   0
   1  -3 -17  464.03   11.23   0
   1  -3 -14 1081.15   15.15   0
  -3  -2   2  573.79   12.70   0
  -2  -3 -29   48.27    9.03   0
  -2  -3  -2  595.38   11.86   0
  -1  -3 -28   67.48    9.58   0
  -6  -3 -12   93.70    9.30   0
  -1  -4  -9  312.43    9.86   0
   1  -3 -20  349.41   10.84   0
  -5  -3  -5  136.52    9.87   0
   0  -4 -14  526.16   11.71   0
  -3  -4 -23   36.47    9.25   0
  -3  -4  -8  326.61   10.82   0
  -2  -4  -7  216.09    9.69   0
  -1  -4 -24  138.89   10.49   0
   0  -4 -20  306.80   10.79   0
   0  -4 -11  580.30   11.86   0
  -6  -3  -9   94.54    8.98   0
  -4  -4  -9  141.36    9.70   0
   1  -3 -23   89.82    8.73   0
  -1  -4  -6  771.35   13.11   0
   0  -4 -23   85.35    8.94   0
  -4  -3  -1  166.02    9.28   0
  -5  -4 -13   82.64    9.25   0
  -3  -4  -5  310.57   10.88   0
  -3  -3   0  895.77   14.74   0
   0  -4  -8 1291.08   16.00   0
   1  -3  -8 1833.83   19.27   0
  -1  -4 -27   22.53    9.30   0
  -2  -5 -15   42.84    9.82   0
  -2  -4  -4  703.18   13.03   0
   0  -3  -3  478.61   11.06   0
   1  -4 -16  673.56   12.94   0
  -5  -4 -10   60.38    9.45   0
  -4  -4  -6  189.24   10.31   0
  -2  -5 -18  166.46   10.57   0
  -1  -5 -17  153.14   10.19   0
  -1  -5 -14  308.49   11.00   0
   1  -4 -19  115.16    8.65   0
  -2  -5 -12  225.90   10.66   0
  -1  -5 -20  137.12   10.85   0
   0  -4 -26   98.46    9.35   0
  -3  -5 -16  131.69   10.31   0
  -2  -5 -21   73.65    9.59   0
  -3  -5 -19   34.67    9.08   0
  -1  -5 -11  156.96    9.41   0
   0  -5 -16  358.90   11.82   0
   1  -4 -22  178.39   10.15   0
  -2  -3   1  700.63   13.33   0
   1  -4 -10  778.69   13.58   0
   2  -2 -14  893.70   16.48   0
  -2  -5  -9  281.93   10.83   0
   0  -5 -13  158.09    9.61   0
  -5  -4  -7   50.42    9.05   0
  -3  -5 -10  153.38   10.80   0
   0  -4  -5  362.22   10.16   0
   0  -5 -22  116.84   10.35   0
  -4  -5 -14   45.89    9.33   0
  -3  -4  -2  493.04   12.50   0
  -1  -5  -8  517.58   11.99   0
   0  -5 -10  542.10   12.21   0
   2  -3 -16  927.62   15.61   0
  -4  -4  -3  139.00    9.62   0
   1  -4 -25  106.32    9.57   0
   1  -3  -5 1874.64   19.88   0
   2  -3 -19  217.17   10.13   0
   2  -3 -13  434.71   11.46   0
  -4  -5 -11   42.04    9.10   0
  -2  -5  -6  383.82   11.59   0
  -2  -4  -1  497.74   11.90   0
   1  -5 -18  236.96   11.00   0
  -3  -5  -7   93.91    9.41   0
   1  -4  -7  612.75   12.20   0
   4   2   5  281.73   10.24   0
   5   0  -4  821.12   13.06   0
   6  -5 -10  359.77   11.41   0
   7  -3  -8  328.39   10.65   0
   8   0   8   96.42    9.61   0
   9  -3  -3  104.19    9.34   0
   4   0  -5  355.69    9.72   0
   7   0   1  136.78    9.72   0
   9  -5  -7   56.58    8.89   0
   5  -3 -10  464.19   11.01   0
   7  -1  -4  494.42   11.92   0
   6   0  -3  182.45    9.23   0
   9  -2  -1   53.83    9.11   0
   7  -4 -10  310.22   10.71   0
   8  -2  -5  112.96    9.36   0
   8   0   5  103.32    8.72   0
   9  -1   4   78.15    8.97   0
   3   0  -6 2417.77   21.12   0
   8  -4  -9  134.09    9.46   0
   6  -4 -11  261.24    9.66   0
   3  -1  -8 1837.71   18.97   0
   7   1   6  111.22    9.68   0
   3   2   1  720.79   13.16   0
   4   2   2  732.57   13.79   0
   5   1  -2  594.04   12.04   0
   8  -1  -3  124.01    9.81   0
   9  -6  -9  111.95    9.49   0
   9  -3  -6   87.22    9.67   0
   6  -2 -10  454.88   11.25   0
   6  -1  -8  526.19   11.80   0
   8   0   2  133.16    9.42   0
   3   1  -4 2470.06   21.21   0
   5  -1  -9  323.84    9.94   0
   7  -2  -9  289.79   10.27   0
   9  -1   1   57.63    8.36   0
   4  -3 -11  284.06    9.79   0
   8  -5 -11   68.36    8.93   0
   5   0  -7  511.86   11.39   0
   5   2   3  345.61   11.18   0
   6   1  -1  251.89    9.76   0
   7  -1  -7   76.27    8.95   0
   7   1   3   65.87    8.85   0
   5  -4 -12  490.12   12.47   0
   6   0  -6  319.11   10.33   0
   7  -5 -12  278.75   10.77   0
   9  -5 -10   71.81    9.21   0
   6  -3 -12  436.39   11.65   0
   8  -3 -10  133.89    9.99   0
   8  -2  -8  238.64   10.52   0
   2   2   0 3889.09   29.25   0
   3  -2 -10 1257.59   16.72   0
   4   0  -8 1295.86   15.57   0
   4  -1 -10  811.41   13.11   0
   8   0  -1   67.57    8.88   0
   7   0  -5  172.59    9.61   0
   4   2  -1  494.56   11.65   0
   8  -4 -12  194.69   10.30   0
   9  -3  -9   53.38    9.14   0
   4   1  -6  778.93   12.97   0
   7  -4 -13  100.32    8.56   0
   7   1   0  251.68   10.38   0
   2   0  -7  319.37    9.64   0
   3   2  -2  603.30   12.06   0
   5   2   0  448.08   11.66   0
   4  -2 -12 1491.87   17.48   0
   5  -3 -13  466.39   11.38   0
   9  -4 -11   51.17    8.67   0
   2   1  -5 1887.81   19.44   0
   6  -1 -11  168.27    9.16   0
   7  -2 -12  196.08   10.76   0
   3   0  -9 1177.16   15.22   0
   6  -4 -14  293.44   10.92   0
   7  -1 -10  168.65    9.59   0
   8   0  -4  156.14   10.04   0
   6   0  -9  255.65   10.24   0
   9  -1  -5   46.64    8.55   0
   3   1  -7  620.55   11.69   0
   5  -1 -12  701.35   12.77   0
   5   0 -10  546.06   11.83   0
   6   2   1  151.55    9.99   0
   8  -2 -11   73.60    8.82   0
   7   1  -3  131.84    9.81   0
   3  -1 -11  398.81   10.05   0
   7  -3 -14  234.88   10.33   0
   7   0  -8  354.55   11.27   0
   8  -5 -14   86.04    9.31   0
   8  -1  -9   82.09    8.98   0
   9  -5 -13   86.90    9.13   0
   4   2  -4  720.80   13.09   0
   5   1  -8  514.93   12.13   0
   5   2  -3  114.22    8.51   0
   2   2  -3  724.73   13.00   0
   4   0 -11  571.45   11.77   0
   5  -2 -14  288.92   10.05   0
   9  -2 -10   89.57    8.84   0
   6  -3 -15  114.22    8.74   0
   4  -1 -13  513.99   11.41   0
   4   1  -9  310.23    9.77   0
   6   2  -2  152.91    9.39   0
   8  -4 -15   46.10    8.62   0
   3  -3 -12 1287.63   18.53   0
   9  -4 -14   44.09    8.60   0
   4  -3 -14  535.79   12.27   0
   7   1  -6  113.42    9.00   0
   8   1  -2  102.57    8.98   0
   4   3   1  169.46    9.34   0
   5  -4 -15  124.92    8.82   0
   6  -1 -14  287.68   11.02   0
   7  -4 -16  169.09    9.86   0
   7  -1 -13  183.93    9.95   0
   3   3   0  882.91   14.74   0
   7   0 -11   61.85    8.81   0
   8  -2 -14   92.43    9.43   0
   8  -1 -12  170.44   10.32   0
   5   0 -13  160.80    9.06   0
   5   2  -6  382.23   11.01   0
   2   1  -8 1885.52   18.82   0
   3  -2 -13  428.97   10.72   0
   5  -3 -16  479.83   12.32   0
   6  -2 -16  232.44   10.23   0
   3   0 -12  917.71   13.71   0
   3   1 -10  780.11   12.93   0
   6   2  -5  118.37    9.33   0
   8  -3 -16  111.13    9.69   0
   2   0 -10 3190.88   24.38   0
   4  -2 -15  151.06    8.17   0
   5   1 -11  163.63    9.35   0
   6   1 -10  195.47    9.51   0
   8   1  -5   37.34    8.87   0
   7  -3 -17  107.63    9.62   0
   8   0 -10   64.85    8.57   0
   4   3  -2  495.62   12.10   0
   6  -4 -17   90.76    9.31   0
   3   2  -8 1502.16   16.86   0
   4   0 -14  520.15   11.54   0
   4   1 -12  725.53   13.19   0
   5   3  -1  160.28    9.70   0
   2   3  -1  713.00   13.54   0
   3   3  -3  370.90   10.69   0
   5  -2 -17  300.31   10.25   0
   7   2  -4  133.74    9.56   0
   6  -3 -18  186.87   10.12   0
   7  -1 -16  158.60    9.71   0
   6   0 -15   73.21    8.76   0
   6   2  -8  229.01   10.54   0
   7   0 -14   81.94    9.13   0
   8  -4 -18   60.36    9.17   0
   8  -1 -15   44.92    9.05   0
   4   2 -10  490.22   11.93   0
   6  -1 -17  147.36    9.19   0
   2  -1 -12 1591.42   18.52   0
   4   3  -5  308.53   10.50   0
   7  -2 -18  149.40    9.96   0
   5   3  -4  333.19   11.23   0
   6   1 -13  176.01    9.86   0
   8   0 -13   55.77    8.93   0
   5   0 -16  336.30   10.78   0
   7  -4 -19   80.68    9.76   0
   5   1 -14  284.24   10.29   0
   7   1 -12  162.10   10.07   0
   7   2  -7   82.51    8.78   0
   2   1 -11  405.67   10.09   0
   3   1 -13  530.14   11.44   0
   3   3  -6  611.28   12.31   0
   2   3  -4 1941.55   19.82   0
   6  -2 -19   47.14    8.72   0
   8  -3 -19   26.66    8.78   0
   2   2  -9  911.90   13.51   0
   3   0 -15  258.41    9.65   0
   3   2 -11  219.98    9.39   0
   4  -3 -17  367.17   11.14   0
   4   1 -15  216.50    9.61   0
   6   2 -11   74.52    8.92   0
   2   0 -13 1103.12   14.88   0
   4  -2 -18  267.47   10.14   0
   4   0 -17  187.83    9.79   0
   4   3  -8  334.09   10.78   0
   5  -3 -19   59.55    8.29   0
   5   3  -7   97.69    8.62   0
   3  -3 -15  415.35   11.66   0
   3  -2 -16  924.27   14.95   0
   7   0 -17   70.77    9.77   0
   4   2 -13  274.77   10.08   0
   6   0 -18  100.59   10.22   0
   7  -1 -19   36.15    8.68   0
   6   3  -6   81.61    8.70   0
   7   2 -10   75.53    8.36   0
   1   1  -9 1111.15   15.24   0
   6   1 -16  154.84    9.71   0
   1   2  -7 1441.29   16.99   0
   2   3  -7  312.12    9.78   0
   5  -2 -20  272.29   10.37   0
   7   1 -15   49.06    8.31   0
   1   3  -2 1164.80   16.79   0
   3  -1 -17  462.51   11.01   0
   5   1 -17  148.43    9.67   0
   6  -3 -21   94.83    9.31   0
   4  -1 -19  106.18    8.37   0
   5   0 -19  127.89    9.38   0
   7  -2 -21   74.08    9.06   0
   5   3 -10  145.82    9.85   0
   3   1 -16  677.13   12.65   0
   4   3 -11  109.94    9.01   0
   5   2 -15   50.48    9.14   0
   2   1 -14 1108.43   14.72   0
   2   2 -12 1554.20   16.98   0
   3   2 -14  298.24    9.77   0
   6   3  -9   44.62    8.70   0
   1   0 -11  421.77   10.48   0
   2  -2 -14  932.13   15.56   0
   2  -1 -15  467.37   10.87   0
   3   4  -4  419.52   11.53   0
   4   1 -18  234.50    9.78   0
   5  -1 -21   98.85    9.08   0
   6  -2 -22  124.87    9.74   0
   1   3  -5  996.06   14.58   0
   4   2 -16  255.82   10.01   0
   7   0 -20   85.08    8.78   0
   2   4  -2  692.75   13.62   0
   4   0 -20  291.56   10.73   0
   4   4  -6  168.54    9.65   0
   6   0 -21   84.64    9.20   0
   6   1 -19   39.04    8.41   0
   7  -3 -23   29.26    8.39   0
   1   2 -10 1291.64   15.67   0
   5   3 -13   98.61    9.24   0
   3   4  -7  263.12   10.04   0
   6   3 -12  125.51    9.44   0
   1   1 -12 1648.17   17.64   0
   2   4  -5  273.70   10.03   0
   4  -2 -21  249.56   10.23   0
   5   1 -20  144.62    9.77   0
   6   2 -17   58.29    9.23   0
   6  -1 -23   40.13    8.19   0
   3  -2 -19  216.77    9.42   0
   3   2 -17  314.59   10.87   0
   4   4  -9  132.19    9.38   0
   5   2 -18  171.83    9.71   0
   2   2 -15  152.95    8.60   0
   5  -2 -23   31.88    8.35   0
   3  -1 -20  346.43   10.81   0
   3   1 -19  118.52    8.51   0
   4  -1 -22  170.36    9.77   0
   2   1 -17  491.26   11.14   0
   2   3 -13  487.17   11.10   0
   2   4  -8  604.06   12.39   0
   3   3 -15  131.44    8.89   0
   3   4 -10  317.76   10.86   0
   4   1 -21  119.18    9.80   0
   4   2 -19   57.89    8.80   0
   5  -1 -24  122.69   10.04   0
   1   2 -13  452.00   10.63   0
   6   1 -22   72.78    9.28   0
   2  -1 -18  713.96   13.29   0
   4   3 -17  109.62    9.11   0
   4   4 -12  205.13   10.25   0
   5   4 -11   40.61    8.40   0
   6  -2 -25   57.03    9.05   0
   1  -1 -13 1020.64   15.83   0
   1   3 -11  298.97    9.20   0
   1   4  -3  313.01    9.98   0
   1   1 -15  522.13   11.12   0
   2   0 -19  172.16    8.58   0
   2   4 -11  281.04   10.13   0
   3   4 -13  102.55    9.16   0
   5   1 -23   33.14    8.33   0
   5   2 -21   79.51    8.95   0
   1   4  -6  962.46   14.84   0
   2  -2 -17  220.53    9.14   0
   2   2 -18  270.51   10.38   0
   3   2 -20  297.77   10.57   0
   2   3 -16  525.64   12.12   0
   3   3 -18  194.80    9.87   0
   5   0 -25   34.77    9.05   0
   0   2  -8 2773.69   23.05   0
   3   1 -22  182.93    9.82   0
   5   4 -14   57.19    8.78   0
   2   1 -20  346.42   10.42   0
   4  -2 -24  177.66   10.15   0
   4   2 -22  148.71    9.82   0
   4   4 -15   42.69    8.55   0
   1   4  -9  596.12   12.10   0
   1   2 -16 1000.41   14.32   0
   1   3 -14  571.41   11.59   0
   3  -1 -23   73.83    8.59   0
   4  -1 -25   91.38    9.19   0
   4   1 -24  126.05    9.24   0
   4   3 -20   90.55    9.58   0
   5  -2 -26   63.27    9.57   0
   2   4 -14  314.64   10.25   0
   3  -2 -22  230.82   10.18   0
   0   1 -10 1418.61   17.20   0
   3   4 -16  178.46    9.84   0
   1   0 -17  741.36   12.96   0
   2   5  -6  289.64   10.55   0
   3   0 -24  125.70    9.11   0
   5  -1 -27   22.87    8.76   0
   0   2 -11 1707.51   17.76   0
   1   1 -18  741.38   12.81   0
   2   3 -19   66.71    8.93   0
   4   0 -26   81.75    9.44   0
   0   3  -9  466.57   10.56   0
   2  -1 -21  245.44    9.80   0
   2   2 -21  256.24   10.33   0
   2   5  -9  120.69    9.04   0
   3   2 -23   40.82    8.57   0
   3   3 -21  102.83    9.70   0
   3   5 -11   78.86    8.74   0
   4   4 -18   62.07    9.00   0
   1  -1 -16 1426.72   17.98   0
   2   0 -22  456.15   11.41   0
   1   3 -17  407.27   10.76   0
   4   2 -25   55.03    8.52   0
   0   1 -13 1058.80   14.62   0
   1   2 -19  224.56    9.32   0
   2   5 -12  318.96   10.72   0
   4   3 -23   34.00    8.27   0
   0   3 -12 1386.75   15.93   0
   1   4 -15  127.58    8.27   0
   2  -2 -20  581.34   13.23   0
   3   5 -14  100.38    8.85   0
   0   2 -14  968.75   13.90   0
   0   4  -7  267.57    9.16   0
   0   4  -4 1342.86   17.57   0
   1   5  -7  312.17   10.20   0
   1   0 -20  563.85   12.22   0
   1   5 -10  378.04   10.90   0
   2   3 -22  149.51    9.50   0
   3  -1 -26  151.74    9.73   0
   4  -1 -28   69.01    9.57   0
   2   5 -15  123.59    9.20   0
   3   3 -24   90.34    8.81   0
   1   3 -20  326.35   10.46   0
   2   2 -24  195.29    9.76   0
   2   4 -20  164.87    9.60   0
   3   0 -27   47.31    8.90   0
   3   2 -26   91.18    9.43   0
   0   3 -15  442.87   10.50   0
   3   5 -17   73.86    8.78   0
   0   1 -16 1439.13   16.52   0
   1   4 -18  357.53   10.87   0
   1   5 -13  157.68    9.23   0
   3   4 -22   69.27    8.78   0
   4   0 -29   26.02    8.76   0
   0   2 -17  235.65    8.74   0
   0   4 -13  590.33   11.69   0
   1  -1 -19  193.15    8.77   0
   1   2 -22  238.64    9.69   0
   2   0 -25  140.93    9.46   0
   2  -1 -24  220.96    9.85   0
   1  -2 -15  461.55   12.47   0
   3   1 -28   65.17    9.09   0
   2   1 -26  154.66    9.33   0
   2   5 -18   84.99    9.30   0
   0   0 -15  145.37    7.83   0
   0   3 -18  423.95   10.85   0
   1   5 -16  252.58   10.16   0
   2   3 -25   93.02    9.67   0
   0   4 -16  366.35   10.41   0
   0   5  -8  545.58   11.88   0
   2   4 -23   56.85    8.47   0
   1   3 -23   57.63    8.59   0
   1   4 -21  124.86    9.30   0
   0   5 -11  184.60    8.48   0
   1   1 -24  216.67    9.56   0
   1   2 -10 1288.74   15.76   0
   3   2 -14  295.42   10.17   0
   4   3 -14  228.03   10.28   0
   4   5 -10   64.77    9.17   0
   5   2 -15   47.01    9.23   0
   0   6  -3  280.27    9.82   0
   1   1  -9 1130.00   15.61   0
   2   6  -7   65.61    8.66   0
  -1   4  -2 1125.97   16.77   0
   3   4 -13   91.15    9.12   0
   3   5 -11   73.43    9.37   0
   7   1 -15   33.11    8.42   0
   2   3 -13  472.22   11.30   0
   5  -1 -15  202.62    9.79   0
   6   1 -16  152.31    9.91   0
   1   3 -11  298.36    9.27   0
   5   0 -16  326.19   10.83   0
   4   2 -16  224.23   10.63   0
   3   6  -9  108.49    9.34   0
   4  -2 -12 1644.01   21.49   0
   3   3 -15  109.29    8.84   0
   1   6  -8  424.57   11.95   0
   2   7  -5  103.17    9.03   0
   5   1 -17  148.17    9.50   0
   5   4 -14   39.21    8.28   0
  -1   5  -3  296.09    9.83   0
   2   5 -12  299.32   10.52   0
   5   3 -16  116.92    9.79   0
   0   5  -8  531.01   11.67   0
   4   4 -15   60.56    8.77   0
   0   3  -9  465.66   10.69   0
   0   6  -6  248.48    9.75   0
   1   4 -12  485.48   11.22   0
   2   4 -14  336.39   10.55   0
   2   6 -10  131.45    9.45   0
   4   5 -13   70.74    9.01   0
   7   0 -17   95.65    8.82   0
   0   2  -8 2802.09   23.47   0
   6   2 -17   44.29    8.39   0
   2   1 -14 1142.33   15.37   0
   3   0 -15  261.87    9.91   0
   6  -1 -17  134.85    9.86   0
   2   2 -15  152.80    8.73   0
   3   5 -14   84.82    9.50   0
   4   3 -17  110.94    9.32   0
   6   0 -18  112.12    9.80   0
  -1   4  -5  955.76   14.73   0
   3   2 -17  321.49   10.41   0
   3   4 -16  199.06   10.07   0
   4   0 -17  183.20    9.29   0
   1   2 -13  460.49   10.64   0
   2   7  -8   82.75    9.05   0
   3   6 -12   92.61    9.26   0
   2   3 -16  509.67   11.66   0
   1   3 -14  557.62   11.63   0
   4  -1 -16  686.55   13.95   0
   6   1 -19   23.80    8.59   0
  -1   6  -4  618.62   13.02   0
   1   6 -11   89.03    8.60   0
  -1   5  -6  924.26   14.42   0
   0   6  -9  191.73    9.55   0
   1   1 -12 1693.13   18.26   0
   3  -1 -14 1103.07   16.82   0
   3   3 -18  196.84   10.38   0
   2   5 -15  101.90    9.18   0
   2   6 -13  121.43    9.42   0
   5   0 -19  121.57    9.37   0
   0   5 -11  165.34    8.66   0
   4   4 -18   64.62    9.26   0
   5  -1 -18  235.59   10.92   0
   5   3 -19   38.71    8.63   0
   1   4 -15  118.67    9.06   0
   1   7  -9  118.20    9.04   0
   5   1 -20  119.40    9.97   0
   0   7  -7   93.91    8.91   0
   2   4 -17   98.97    9.19   0
   0   3 -12 1359.91   15.98   0
   2   7 -11   41.33    8.09   0
   3   5 -17   86.68    9.07   0
   4   3 -20   84.67    8.93   0
  -1   4  -8 1733.37   18.27   0
   0   2 -11 1736.21   18.06   0
   3   4 -19   77.91    9.72   0
  -1   6  -7  286.82    9.89   0
   2   2 -18  282.44   10.22   0
   3   1 -19  115.78    8.66   0
   5   2 -21   77.25    8.71   0
   1   6 -14   96.05    8.54   0
   3   2 -20  288.58   11.09   0
  -1   5  -9  576.48   11.97   0
   0   6 -12  415.75   11.51   0
   1   5 -16  258.73   10.00   0
   3   0 -18  648.45   13.36   0
   4  -2 -15  158.28    9.27   0
   6   0 -21   83.89    8.79   0
   1   2 -16  983.04   14.37   0
   2   3 -19   53.91    8.31   0
   4   1 -21  102.33    9.73   0
   0   7 -10   96.83    9.28   0
   1   3 -17  384.56   10.82   0
   1   7 -12  130.71    9.34   0
   2  -1 -12 1695.31   20.33   0
   2   5 -18   94.28    8.96   0
   4   0 -20  301.81   11.21   0
   3   3 -21   97.29    9.34   0
   2   0 -16  554.50   11.89   0
   4   2 -22  136.22    9.48   0
   1   1 -15  485.80   11.14   0
   1   4 -18  330.06   10.68   0
   2   4 -20  157.56   10.41   0
  -1   6 -10  354.33   10.75   0
   3   5 -20   81.60    9.19   0
   4  -1 -19  118.68    8.99   0
   0   3 -15  439.24   10.66   0
   5   0 -22  102.55    9.56   0
   0   1 -10 1494.61   17.76   0
   5   1 -23   27.53    8.52   0
   0   4 -16  365.28   10.34   0
   3  -2 -13  451.47   12.45   0
  -1   3 -10 1266.86   15.71   0
  -1   5 -12  499.96   11.19   0
   0   6 -15   89.37    8.61   0
   3   4 -22   60.36    8.67   0
   0   2 -14  961.51   13.91   0
   0   7 -13  125.34    9.00   0
   1   7 -15   25.04    8.28   0
   2   2 -21  249.06   10.51   0
   0   5 -17  191.14    9.23   0
   3   1 -22  187.19    9.78   0
   2   3 -22  150.17    9.59   0
   2   5 -21   44.70    8.34   0
   1   2 -19  226.29    9.54   0
   1   3 -20  326.92   10.51   0
  -1   6 -13  154.95    8.74   0
  -1   7 -11   99.29    8.51   0
   3   0 -21  206.59    9.75   0
   3   3 -24   84.76    9.37   0
   4   1 -24  113.27    9.71   0
  -1   4 -14  548.17   11.73   0
   1   4 -21  137.98    9.31   0
   4   0 -23   90.74    9.10   0
  -2   5  -7  290.44    9.51   0
   2   4 -23   58.31    9.17   0
   4   2 -25   50.21    9.06   0
   0   3 -18  445.35   11.15   0
   1   1 -18  719.69   13.09   0
   2  -1 -15  509.60   11.96   0
  -1   2  -9 1110.12   15.31   0
  -1   3 -13  441.98   10.47   0
   0   1 -13 1097.48   14.94   0
   0   4 -19   84.94    8.28   0
   0   6 -18   78.52    8.73   0
   0   7 -16  156.98    9.14   0
   2   0 -19  189.78    9.01   0
  -2   4  -6  662.13   12.75   0
   0   2 -17  235.30    9.14   0
   1   5 -22   98.92    8.83   0
  -1   6 -16  242.33   10.44   0
  -1   7 -14   86.60    8.89   0
   0   5 -20  135.47    9.15   0
   4  -1 -22  197.36   10.44   0
  -2   5 -10  473.29   11.16   0
   3  -1 -20  373.44   12.07   0
  -2   6 -11  263.82    9.61   0
   1   3 -23   53.54    8.59   0
   2   3 -25  106.16    9.58   0
   3   2 -26   56.13    9.32   0
  -2   4  -9  898.05   13.82   0
  -1   4 -17  376.83   10.57   0
   1   2 -22  251.22    9.91   0
   2   1 -23   89.73    8.59   0
   3  -2 -16  974.26   16.69   0
   3   1 -25   99.79    9.45   0
   1   4 -24   94.65    9.74   0
  -1   2 -12 1660.52   17.59   0
   0   7 -19   21.68    8.21   0
  -1   3 -16  946.66   13.82   0
   0   3 -21  175.03    9.23   0
   0   4 -22  231.61   10.92   0
   1   0 -17  775.18   13.32   0
   2   4 -26   58.39    9.12   0
  -2   5 -13  482.19   11.31   0
   3   0 -24  134.59    9.68   0
   4   1 -27   24.31    8.52   0
  -1   7 -17   95.35    8.63   0
  -2   7 -12  281.12   10.25   0
  -1   6 -19   78.69    9.19   0
   2  -1 -18  733.81   13.86   0
   4   0 -26   89.89    9.21   0
  -2   6 -14  315.92    9.98   0
   0   2 -20  599.72   12.30   0
   0   5 -23   36.66    9.18   0
   1   5 -25   51.33    8.28   0
   2   0 -22  503.78   12.46   0
  -1   4 -20  314.11   10.27   0
  -1   2 -15  513.96   11.06   0
  -1   5 -21  127.54    9.11   0
   1   3 -26  107.14    9.75   0
   2   2 -27    4.50    8.13   0
  -2   7 -15  105.43    8.90   0
  -1   3 -19  254.94    9.43   0
  -2   4 -15  148.28    8.48   0
  -2   6 -17  101.48    9.13   0
  -1   7 -20  115.32    8.91   0
   0   0 -12 4231.40   28.65   0
   1  -1 -13 1030.55   15.78   0
   1   4 -27   27.79    8.69   0
   2   1 -26  167.51   10.29   0
   3  -1 -23   86.29    8.87   0
   0   1 -19  211.06    9.29   0
   0   3 -24  204.63   10.12   0
   0   4 -25   99.43    9.78   0
   1   0 -20  593.18   12.69   0
   3   1 -28   70.68    8.99   0
   3   2 -29   40.21    8.53   0
  -2   3 -11  396.86    9.98   0
   0   2 -23  165.65    9.93   0
   1   1 -24  223.46   10.02   0
   0   5 -26   87.00    9.12   0
   3   0 -27   46.91    9.58   0
  -2   7 -18   80.39    8.57   0
  -1   2 -18  748.53   12.88   0
   2  -1 -21  267.78   10.66   0
  -3   6  -9  315.86   10.06   0
  -2   3 -14 1137.48   14.99   0
  -1   1 -11  443.67   10.54   0
  -1   4 -23   52.08    8.43   0
   2   0 -25  135.28    9.78   0
  -2   4 -18  265.09    9.64   0
  -1   5 -24   84.09    9.21   0
  -2   6 -20  160.75    9.38   0
  -1   3 -22  225.89    9.61   0
   2  -2 -14  943.40   16.33   0
  -3   5  -8 1467.79   17.98   0
  -3   6 -12  462.58   11.39   0
   1  -1 -16 1491.54   18.13   0
  -3   5 -11  221.36    8.97   0
  -3   5  -5  588.43   12.85   0
   1   2 -28   94.21    9.33   0
   2   2 -30   48.20    9.15   0
  -3   7 -13  104.13    8.66   0
   0   3 -27   56.36    9.03   0
   0   4 -28   44.05    9.00   0
  -2   3 -17  476.62   11.05   0
   1   0 -23   79.55    8.05   0
   2   1 -29   61.83    9.14   0
  -3   6 -15  122.66    8.69   0
  -2   5 -22  129.28    9.73   0
  -2   7 -21   35.67    8.15   0
  -1   2 -21  264.10    9.79   0
  -3   5 -14  322.64    9.84   0
  -2   4 -21  269.15   10.54   0
   0   2 -26  127.27    9.33   0
   1   1 -27   61.60    9.59   0
  -1   4 -26  123.18    9.42   0
  -3   7 -16  174.36    9.43   0
  -2   6 -23   60.33    8.67   0
  -2   2 -10 3116.34   23.76   0
  -1   1 -17  806.10   13.05   0
  -1   3 -25  116.07    9.22   0
  -1   5 -27   22.40    8.05   0
  -3   4 -10  793.60   13.27   0
  -3   6 -18  196.20   10.17   0
  -2   2  -7  296.37    9.21   0
   1  -1 -19  202.12    9.05   0
   2  -2 -17  231.74    9.56   0
   2  -1 -24  236.09   10.47   0
  -3   4  -7  568.25   11.90   0
  -3   5 -17  322.31   10.17   0
  -2   2 -13 1117.31   14.66   0
  -2   3 -20  360.45   10.43   0
   2   0 -28   67.81    9.34   0
   0   1 -25  184.83   10.33   0
  -3   7 -19   83.21    8.50   0
  -2   5 -25   93.66    9.55   0
  -1   2 -24  229.95   10.57   0
  -2   2 -16  570.29   11.41   0
  -2   4 -24  172.53    9.89   0
   0   3 -30   53.09    8.60   0
   1   2 -31   25.53    8.77   0
  -1   1 -20  611.87   12.48   0
   0   0 -21  580.97   12.07   0
   1   0 -26  192.24   10.07   0
  -3   6 -21   99.35    9.09   0
  -1   4 -29   57.91    8.62   0
  -2   3 -23   84.61    8.62   0
  -1   3 -28   97.37    9.96   0
   1   1 -30   88.17    9.91   0
   1  -1 -22  338.25   10.88   0
   2  -2 -20  593.22   13.61   0
  -3   4 -19  115.07    8.63   0
  -3   7 -22   81.58    8.83   0
  -2   2 -19  186.27    8.96   0
  -3   3 -12  896.78   13.56   0
  -3   5 -23   23.88    8.94   0
  -2   4 -27   32.22    8.50   0
  -2   5 -28   49.18    8.41   0
  -1   2 -27   64.38    9.63   0
   0   1 -28  122.71   10.21   0
  -3   3 -15  244.60    9.44   0
  -3   6 -24   77.55    8.96   0
   0   0 -24  328.76   11.08   0
  -4   6 -13  264.30    9.97   0
  -4   6 -10  472.68   11.93   0
  -3   4 -22  192.90    9.83   0
  -2   2 -22  509.41   11.90   0
  -1   0 -13 1035.67   14.71   0
   0  -1 -11  411.29   10.87   0
  -4   6 -16  239.46    9.68   0
  -4   7 -17  112.07    9.57   0
  -2   3 -26  156.39   10.11   0
  -1   0 -10 1425.43   17.46   0
   0  -1 -14 1166.12   15.96   0
   1   0 -29  101.11    9.70   0
  -3   3 -18  636.91   12.55   0
  -4   5 -12  707.64   13.29   0
  -1   3 -31   13.73    8.98   0
   0   2 -32   44.01    9.19   0
  -4   5 -15  208.14    9.47   0
  -4   6 -19   62.82    8.89   0
   0  -1 -17  800.62   13.82   0
   1  -1 -25  183.97    9.93   0
  -3   3  -6 2283.28   22.02   0
  -3   5 -26   66.07    8.93   0
  -2   1 -12 1707.22   17.93   0
  -4   5  -9  300.47   10.02   0
  -4   7 -20   73.06    8.52   0
  -2   1 -15  527.57   11.22   0
  -4   5 -18  228.49    9.70   0
  -3   3 -21  228.63    9.87   0
  -3   4 -25  114.85    9.51   0
  -2   4 -30   45.78    8.66   0
  -2   2 -25  154.13    9.42   0
   0   0 -27   22.88    8.81   0
  -2   1 -18  747.97   12.97   0
  -2   1  -9 1137.44   15.42   0
   0  -1 -20  592.59   12.80   0
   0   1 -31   36.47    9.12   0
   1  -2 -15  509.25   12.39   0
  -4   6 -22  143.57    9.40   0
  -2   3 -29   53.83    9.52   0
  -4   4 -14  502.38   11.82   0
  -4   7 -23   25.29    8.39   0
  -1   0 -22  334.80   10.90   0
   1  -2 -18  719.37   14.31   0
  -3   3 -24  142.89    9.73   0
  -2   1 -21  246.67    9.93   0
  -4   4 -11  582.78   11.75   0
  -3   2 -17  500.22   11.74   0
  -3   2 -14 1112.32   14.87   0
  -3   5 -29   36.80    8.64   0
   1   0 -32   44.34    9.34   0
  -3   2 -11  421.79   10.19   0
  -3   4 -28   76.98    9.14   0
  -1   1 -29   91.56   10.18   0
   1  -1 -28  125.83   10.12   0
  -4   4 -20  282.88   10.97   0
  -4   6 -25   60.84    8.72   0
  -2   2 -28   63.73    9.35   0
  -3   2 -20  370.34   11.28   0
   1  -2 -21  248.84   10.58   0
  -4   4  -8 1254.22   16.74   0
  -2   1 -24  248.46   10.44   0
  -1   0 -25  201.45   10.42   0
   0   0 -30  100.27    9.78   0
  -3   3 -27   54.48    9.21   0
  -2   3 -32   30.10    8.67   0
  -1   4 -14  567.43   11.86   0
   0   3 -15  454.33   11.12   0
   3   4 -19   61.64    8.98   0
  -3   7 -10  303.56   10.83   0
  -2   9 -11   27.40    7.93   0
   3   1 -16  706.72   14.64   0
  -3   4  -4 2350.02   22.54   0
  -1   6 -16  234.99    9.99   0
  -3   5  -8 1461.53   16.95   0
  -1   8 -15   24.84    8.03   0
  -4   7  -5  273.88    9.85   0
  -3   9  -9  101.63    8.65   0
  -2   5 -13  465.35   11.02   0
  -2   6 -14  306.85   10.37   0
   0   6 -18   83.73    9.00   0
   2   3 -19   57.46    8.70   0
  -4   8  -6  160.76    9.38   0
  -3   8 -11   86.04    8.45   0
  -2   3  -8 1872.97   19.19   0
  -1   3 -13  477.55   11.01   0
   1   2 -16  946.93   14.74   0
  -2   7 -15   99.60    9.52   0
  -1   7 -17  103.49    8.89   0
   2   4 -20  146.79    9.51   0
  -2   4 -12 1538.83   17.08   0
   2   2 -18  281.91   10.82   0
   0   1 -10 1468.10   18.20   0
   0   7 -19   17.24    7.93   0
   2   5 -21   45.70    8.57   0
  -3   7 -13   99.13    8.44   0
  -3   4  -7  587.98   11.81   0
  -1   5 -18  327.04   10.83   0
   0   4 -19   97.08    8.70   0
  -3   9 -12   98.31    8.37   0
  -2   8 -16   88.01    8.75   0
   0   5 -20  128.00    9.02   0
   3   3 -21   89.61    9.04   0
  -4   8  -9  131.47    9.03   0
  -1   4 -17  389.21   10.77   0
  -1   6 -19   78.18    9.00   0
   3   2 -20  276.71   11.13   0
  -4   6  -7  202.48    8.90   0
  -3   8 -14   95.87    9.12   0
  -2   6 -17  113.80    9.62   0
   0   3 -18  423.97   11.52   0
   1   4 -21  128.23    9.07   0
   3   0 -15  254.15   10.58   0
  -2   5 -16  488.25   11.66   0
   1   3 -20  306.27   11.11   0
   3   4 -22   76.86    8.88   0
   0   6 -21   69.87    8.62   0
   1   1 -15  527.35   12.13   0
  -2   3 -11  399.21   10.37   0
  -2   7 -18   86.68    9.50   0
  -4   9 -10   53.20    8.00   0
  -1   2 -12 1706.35   18.14   0
  -1   7 -20  102.65    9.11   0
  -2   4 -15  166.23    8.57   0
  -1   3 -16 1021.16   14.80   0
  -4   7 -11   94.78    8.76   0
   2   3 -22  132.13    9.82   0
   3   1 -19  117.89    9.35   0
   1   2 -19  239.84    9.85   0
   2   4 -23   56.08    8.62   0
  -4   8 -12  206.38    9.45   0
  -4   5  -6  728.43   13.46   0
  -4   6 -10  459.57   10.99   0
  -3   5 -14  307.72   10.27   0
   2   2 -21  269.05   10.85   0
  -3   8 -17   72.42    8.15   0
  -1   5 -21  143.51    9.30   0
   0   1 -13 1065.04   15.16   0
  -1   4 -20  326.75   11.20   0
  -1   6 -22  108.02    9.60   0
  -4   9 -13   81.34    8.46   0
  -2   5 -19   68.66    8.33   0
  -2   6 -20  140.62    9.52   0
  -4   7 -14  217.59   10.21   0
  -2   2  -7  304.02    9.43   0
  -2   3 -14 1069.20   14.66   0
  -2   7 -21   39.95    8.13   0
   0   6 -24   76.73    8.45   0
   1   4 -24   75.05    9.01   0
  -4   5  -9  297.35    9.38   0
  -4   6 -13  256.37   10.21   0
  -4   8 -15   63.19    8.28   0
  -3   6 -18  190.72   10.15   0
  -2   4 -18  264.17   10.18   0
   1   3 -23   50.46    9.11   0
  -3   4 -13  491.15   11.01   0
  -3   7 -19   73.91    8.53   0
  -1   2 -15  546.54   11.35   0
  -1   3 -19  255.01   10.19   0
   1   5 -25   37.92    8.38   0
   1   1 -18  763.55   14.29   0
   2   1 -20  352.51   11.67   0
  -3   5 -17  295.25   10.04   0
   1   2 -22  246.30   10.37   0
   2   3 -25   83.03    9.24   0
  -2   2 -10 3148.26   23.92   0
  -1   5 -24   87.55    9.03   0
   2   4 -26   45.61    8.84   0
  -4   5 -12  704.99   12.51   0
  -4   7 -17  100.94    8.82   0
  -2   5 -22  141.78    9.96   0
  -2   6 -23   52.42    8.69   0
  -1   4 -23   57.85    8.72   0
  -1   6 -25   38.38    8.06   0
   1   0 -14 1217.28   16.88   0
  -4   6 -16  224.31    9.57   0
  -4   8 -18   55.45    8.29   0
  -2   3 -17  472.49   11.03   0
   0   5 -26   72.12    8.77   0
   2   2 -24  198.86   10.21   0
  -5   8 -13  105.92    8.99   0
  -3   4 -16  700.09   12.75   0
  -3   6 -21   87.42    9.51   0
  -4   4  -5  339.62   10.06   0
  -3   7 -22   59.76    9.04   0
  -1   1 -11  444.82   10.62   0
  -5   7 -12  211.38    9.52   0
  -1   2 -18  736.94   13.29   0
   0   3 -24  192.84   10.09   0
  -3   5 -20  285.13   10.51   0
  -1   3 -22  244.32   10.76   0
   1   4 -27   28.61    8.52   0
  -4   4  -8 1218.55   15.69   0
  -2   2 -13 1119.48   14.79   0
   1   3 -26  111.70    9.72   0
   1   1 -21  267.86   10.70   0
  -4   7 -20   92.47    8.80   0
  -5   6 -11  140.39    8.57   0
  -5   8 -16  101.02    8.63   0
   2   0 -19  199.29    9.72   0
   2   1 -23   80.50    8.81   0
  -5   7 -15   48.81    8.32   0
  -4   4 -11  530.29   11.22   0
  -3   4 -19  109.21    8.60   0
  -2   3 -20  374.14   10.86   0
  -2   5 -25   99.37    9.59   0
  -2   6 -26   50.78    8.31   0
  -1   5 -27   12.48    7.95   0
   0   1 -19  211.74    9.49   0
   0   2 -23  183.47    9.75   0
   1   2 -25  107.38    9.87   0
  -1   1 -14 1210.61   15.42   0
  -1   4 -26  111.44    9.26   0
  -3   6 -24   81.49    9.17   0
   1   0 -17  822.51   14.32   0
  -3   3 -15  244.74    8.90   0
  -2   4 -24  180.83   10.76   0
   0   4 -28   46.08    8.81   0
  -5   6 -14  291.74    9.79   0
  -3   5 -23   32.78    8.44   0
  -1   2 -21  239.08   10.04   0
   0   3 -27   42.00    9.26   0
  -5   5  -7  487.11   11.61   0
  -5   7 -18  143.63    9.21   0
  -5   8 -19   15.88    7.43   0
  -4   6 -22  119.02    9.45   0
  -5   5 -10  504.63   11.58   0
  -3   4 -22  201.25    9.72   0
  -1   1 -17  813.62   13.38   0
   1   3 -29   44.78    9.12   0
  -5   6 -17  147.07    8.75   0
  -3   3 -18  655.06   12.49   0
  -2   3 -23   87.66    8.91   0
   1   1 -24  224.92   10.44   0
  -4   5 -21  109.66    9.56   0
  -2   5 -28   61.64    9.08   0
  -5   5 -13  152.56    8.86   0
  -4   4 -17  184.48    9.03   0
  -2   2 -19  180.88    8.96   0
   0   2 -26  130.70   10.46   0
   2   0 -22  498.69   12.92   0
  -5   7 -21   67.70    8.57   0
  -3   5 -26   78.22    8.86   0
  -2   4 -27   11.68    9.19   0
   1   0 -20  603.13   12.69   0
   1   2 -28  112.79    9.97   0
   2  -1 -15  491.10   12.33   0
  -5   6 -20  121.29    9.38   0
  -4   6 -25   58.83    8.23   0
  -3   2 -11  409.31   10.03   0
  -5   5 -16  316.63   10.12   0
  -3   3 -21  236.59    9.73   0
  -2   1  -9 1104.51   15.17   0
  -1   1 -20  587.54   12.08   0
  -1   3 -28  103.08    9.44   0
  -4   3 -10  759.51   12.95   0
  -4   3  -7  574.92   11.84   0
  -4   4 -20  294.33   11.00   0
  -3   4 -25  127.73    9.46   0
   0   3 -30   58.60    9.46   0
  -2   1 -12 1648.42   17.60   0
  -6   7 -16  144.91    9.10   0
  -4   5 -24  120.78    9.23   0
  -3   2 -14 1097.81   14.50   0
  -2   2 -22  517.40   12.30   0
   0   0 -18  525.17   11.47   0
   0   1 -25  200.16   10.84   0
  -6   6 -12  330.94   10.87   0
  -5   5 -19  123.39    8.71   0
  -2   1 -15  522.53   10.98   0
   1   1 -27   69.98    9.36   0
  -5   6 -23   36.52    8.60   0
   0   2 -29   57.00    9.82   0
   2  -1 -18  709.33   14.35   0
  -4   3 -16  683.05   12.53   0
  -3   2 -17  470.09   11.04   0
  -3   5 -29   51.28    8.57   0
  -1   2 -27   60.70    9.41   0
   1  -1 -13 1053.64   16.19   0
   1   0 -23   93.40    8.67   0
  -6   7 -19   28.10    7.80   0
  -5   4 -12  683.53   12.82   0
  -5   4  -9  291.93    9.59   0
  -4   4 -23   83.94    9.63   0
  -3   3 -24  141.75    9.71   0
  -2   4 -30   52.89    8.59   0
  -6   6 -15   82.53    8.50   0
  -1   0 -10 1455.90   17.44   0
  -3   4 -28   59.99    9.74   0
  -5   4 -15  210.22    9.42   0
  -4   5 -27   33.03    8.89   0
  -2   1 -18  743.93   13.02   0
  -1   0 -13 1080.63   14.77   0
   0   0 -21  562.83   12.39   0
  -4   3 -19  106.19    9.02   0
  -2   2 -25  145.33    9.53   0
  -1   3 -31   24.82    8.89   0
  -6   6 -18  105.31    9.29   0
  -3   2 -20  374.65   10.90   0
  -2   3 -29   56.78    9.09   0
   1  -1 -16 1503.20   18.51   0
  -6   7 -22   49.18    8.38   0
  -4   4 -26   81.08    9.85   0
   0   1 -28  133.21    9.84   0
  -3   3 -27   61.50    9.02   0
  -2   1 -21  257.61    9.92   0
  -6   5 -11  146.84    8.59   0
  -6   6 -21   81.65    8.76   0
  -4   3 -22  189.50    9.90   0
  -1   1 -26  212.07   10.32   0
  -1   2 -30   87.33   10.05   0
   1   0 -26  207.25   10.42   0
  -6   5 -14  277.76   10.12   0
  -3   2 -23   99.46    8.76   0
   0   0 -24  328.95   11.50   0
   0   2 -32   50.61   10.13   0
   1  -1 -19  198.13    9.02   0
  -6   5 -17  134.45    9.44   0
  -2   1 -24  222.07   10.62   0
  -6   6 -24   60.36    8.39   0
  -4   2 -15  155.87    8.19   0
  -4   3 -25  122.52    9.50   0
  -3   1 -13  466.40   10.65   0
  -6   5 -20  129.02    9.22   0
  -4   2  -9  874.90   13.29   0
  -4   4 -29   28.79    8.44   0
  -3   1 -16 1003.30   14.49   0
  -3   1 -10 1272.39   15.72   0
   0  -1 -14 1142.46   15.76   0
  -5   3 -14  299.63    9.72   0
  -5   3 -11  223.77    9.05   0
  -5   4 -24  117.94    9.23   0
  -4   2 -18  278.11   10.21   0
  -3   2 -26  181.37   10.23   0
  -3   3 -30   78.06    9.30   0
   1  -1 -22  342.24   11.29   0
  -1   1 -29   94.97   10.03   0
   0   1 -31   29.06    9.33   0
   0  -1 -17  779.85   13.21   0
  -3   1 -19  259.69    9.68   0
   0   0 -27   33.41    8.35   0
  -6   5 -23   26.14    8.49   0
  -5   3  -8 1467.49   17.42   0
  -2   0 -14  990.21   13.96   0
  -2   2 -31   17.97    9.58   0
  -5   3 -20  287.90   10.70   0
  -4   2 -21  274.81   10.13   0
  -3   1  -7 1418.04   16.90   0
  -4   3 -28   76.82   10.03   0
  -2   0 -11 1708.36   17.75   0
  -1   0 -25  205.33   10.38   0
   0  -1 -20  598.14   12.69   0
  -6   4 -16  224.92   10.02   0
  -6   4 -13  259.27    9.87   0
  -5   4 -27   21.74    8.88   0
  -3   1 -22  224.87    9.97   0
  -7   6 -19   28.39    8.14   0
  -3   2 -29   64.01    9.10   0
  -2   0 -20  623.85   12.75   0
  -6   4 -19   50.07    8.16   0
  -4   2 -24  206.95   10.22   0
  -3   4 -22  190.73   10.42   0
  -6   4 -13  279.37    9.72   0
  -5   4 -18  249.40   10.36   0
  -8   6 -11   64.63    8.49   0
  -6   6 -21   78.12    8.71   0
  -1   1 -14 1156.61   15.76   0
  -5   3 -14  315.44   10.13   0
  -4   2 -12 1577.12   17.07   0
  -4   6 -25   55.40    8.46   0
  -2   1 -12 1718.13   18.36   0
  -1   3 -22  217.51    9.85   0
  -7   4  -5  279.83    9.78   0
  -5   5 -22  116.15    8.98   0
  -3   1  -7 1530.68   17.24   0
  -2   4 -24  174.86    9.82   0
  -6   3  -6  571.84   11.91   0
  -4   5 -24  112.37    9.37   0
  -7   5 -15   49.13    8.49   0
  -3   3 -21  229.85   10.75   0
  -7   4  -8  305.23   10.31   0
  -7   6 -19   27.24    8.62   0
  -6   4 -16  241.60    9.95   0
  -6   5 -20  123.70   10.42   0
  -4   3 -19  135.39    9.21   0
  -9   7 -10   67.91    8.19   0
  -8   6 -14   91.14    9.07   0
  -2   2 -19  190.70    9.17   0
  -6   3  -9  317.39    9.96   0
  -5   2  -4 1841.93   19.11   0
   0   1 -16 1429.14   18.20   0
   0   2 -20  555.57   12.92   0
  -8   5  -7   80.87    8.15   0
  -3   1 -10 1304.13   15.70   0
  -3   5 -26   53.76    8.76   0
  -5   2  -7  314.95    9.62   0
  -5   4 -21  126.31    9.76   0
  -2   3 -23   81.41    9.21   0
  -7   4 -11  122.65    8.84   0
  -5   3 -17  325.64   10.78   0
  -4   2 -15  164.80    8.98   0
  -3   4 -25  112.54    9.52   0
  -8   5 -10  134.74    9.41   0
  -7   5 -18  151.37   10.27   0
  -6   6 -24   52.26    8.55   0
  -2   1 -15  510.19   11.32   0
  -1   2 -21  247.97    9.90   0
  -6   4 -19   46.70    8.83   0
  -1   1 -17  799.78   13.37   0
  -7   6 -22   75.63    9.21   0
  -6   5 -23   34.81    9.26   0
  -3   1 -13  477.76   10.82   0
  -8   5 -13  113.94    8.82   0
  -4   3 -22  211.66   10.46   0
  -4   5 -27   21.71    8.51   0
  -3   3 -24  147.97   10.26   0
  -6   3 -15  134.68    9.08   0
  -5   2 -13  497.34   11.44   0
  -4   2 -18  274.31   10.27   0
  -2   2 -22  495.56   12.69   0
  -9   6 -12  119.81    8.72   0
  -7   5 -21   72.54    9.58   0
  -5   4 -24  126.05   10.02   0
  -4   1  -8 1793.54   18.25   0
  -4   4 -26   82.86    9.93   0
  -1   0 -10 1379.05   17.15   0
  -8   5 -16  123.16    9.26   0
  -7   4 -17  104.03    9.31   0
  -4   1  -2 1115.11   15.86   0
   0   1 -19  197.08    9.04   0
  -6   4 -22  136.68   10.38   0
  -3   1 -16 1025.07   14.89   0
  -4   1 -11  303.01    9.37   0
  -2   3 -26  165.88    9.91   0
  -6   3 -18  211.50   10.78   0
  -5   2 -16  549.42   12.06   0
  -3   4 -28   67.86    8.94   0
  -2   0  -8 2827.31   23.30   0
  -1   1 -20  577.95   12.45   0
  -8   4  -9  114.95    8.93   0
  -7   3 -10  293.21   10.39   0
  -1   2 -24  222.58    9.97   0
  -4   3 -25  105.05    9.81   0
  -3   2 -23   96.96    9.19   0
  -6   2  -8  581.58   12.05   0
  -5   3 -23   32.26    8.75   0
  -4   1 -14  588.61   11.91   0
  -8   4 -12  203.30    9.84   0
  -7   4 -20   98.59    9.07   0
  -6   2  -5  267.80    9.39   0
  -2   0 -11 1742.57   18.04   0
  -7   3 -13  100.71    8.53   0
  -6   2 -11  284.25   10.00   0
  -3   3 -27   46.44    9.24   0
  -5   2 -19   78.40    8.81   0
  -5   4 -27   17.99    8.46   0
  -3   1 -19  257.51   10.04   0
  -2   2 -25  135.78    9.65   0
  -9   5 -11   29.83    8.67   0
  -6   3 -21  108.79   10.37   0
  -6   4 -25   54.18    9.72   0
  -2   1 -21  260.05    9.96   0
   0   0 -15  148.05    7.86   0
  -8   4 -15   51.12    8.56   0
  -4   4 -29   27.89    8.96   0
  -2   0 -14 1017.69   14.37   0
  -1   0 -16 1411.52   16.67   0
  -9   5 -14   48.66    8.08   0
  -7   4 -23   31.47    9.21   0
  -5   1  -9  575.01   11.65   0
  -5   1  -6  940.66   14.17   0
  -3   0  -9  464.63   10.62   0
  -3   0  -6 1784.04   18.49   0
  -1   1 -23   78.47    8.19   0
  -8   4 -18   61.06    8.97   0
  -6   2 -17  127.87    9.66   0
  -5   1 -12  517.25   11.32   0
  -5   3 -26   71.79    9.49   0
  -4   3 -28   71.98   10.16   0
  -3   0 -12 1453.80   16.50   0
  -7   3 -19   61.95    9.45   0
  -6   3 -24   89.75   10.13   0
  -5   1  -3  303.93    9.72   0
  -2   0 -17  231.68    9.08   0
  -5   1 -15  135.06    9.28   0
  -4   1 -20  348.57   11.41   0
  -2   1 -24  227.41   10.29   0
   0   0 -18  496.36   11.53   0
  -3   0 -15  442.67   10.87   0
  -1   0 -19  211.20    8.63   0
  -3   3 -30   81.39    9.67   0
  -6   2 -20  159.69    9.83   0
  -2   2 -28   81.04    9.20   0
  -8   3 -11   70.02    8.37   0
  -8   3  -8  258.63   10.13   0
  -5   1 -18  362.39   11.65   0
  -7   2  -9  108.90    8.34   0
  -7   3 -22   70.68    8.81   0
  -4   2 -27   14.03    9.72   0
  -8   3 -14   95.76    8.73   0
  -5   2 -25  111.51    9.83   0
  -4   0 -10 1062.00   14.63   0
  -3   0 -18  437.06   11.19   0
  -7   2  -6  296.37   10.28   0
  -5   3 -29   55.24    9.40   0
  -4   1 -23   52.80    9.13   0
  -3   1 -25  120.45   10.19   0
  -9   4 -13   70.50    8.68   0
  -7   2 -15  122.50    9.43   0
  -4   0 -13  603.61   12.01   0
  -3   2 -29   46.27    9.56   0
  -1   1 -26  203.67    9.92   0
  -8   3 -17   70.83    8.72   0
  -6   2 -23   55.67    9.15   0
  -6   1 -13  152.48    9.36   0
  -5   1 -21  166.15   10.21   0
  -1   0 -22  340.77   10.23   0
   0   0 -21  525.12   12.13   0
  -6   1  -7  311.31    9.92   0
  -2   1 -27   54.85    9.07   0
  -4   0  -4 1323.81   16.39   0
  -1  -1 -12 1637.77   17.59   0
  -2   0 -23  186.65    9.55   0
  -1  -1  -9 1102.53   15.01   0
  -6   1  -4  605.91   12.28   0
  -4   2 -30   67.51    9.66   0
  -2  -1 -13  477.22   10.69   0
  -2  -1 -10 1317.13   15.77   0
  -7   2 -21   52.88    8.31   0
  -6   1 -19   92.12    9.84   0
  -6   2 -26   59.57    9.89   0
  -5   1 -24   74.37   10.35   0
  -3   1 -28  122.63   10.17   0
   0  -1 -14 1151.34   15.65   0
  -5   0 -14  486.90   11.56   0
  -2  -1 -16  977.59   14.28   0
  -2  -1  -7 1482.32   16.79   0
  -5   0  -8  554.90   11.75   0
  -1  -1 -18  720.42   12.99   0
  -1   0 -25  180.90   10.00   0
  -4   0 -22  282.12   11.19   0
  -5   0 -17  200.18    9.80   0
  -3  -1 -11  309.71    9.50   0
   0  -1 -17  760.62   13.30   0
  -6   1 -22  103.04    9.83   0
  -2   0 -26  137.82    9.67   0
  -8   2 -13  111.96    9.21   0
  -8   2 -10  117.47    8.75   0
  -2  -1 -19  256.48    9.50   0
  -8   2 -16  109.56    9.01   0
  -5   0  -5  580.04   11.85   0
  -4   1 -29   48.86   10.13   0
  -3  -1  -8 1807.61   17.95   0
  -2   1 -30   91.93    9.36   0
  -7   1 -14  100.10    9.27   0
  -7   1 -11   93.89    8.73   0
  -5   1 -27   21.51    9.04   0
  -1  -1 -21  251.44    9.34   0
  -7   1 -17   97.56    9.26   0
  -4   0 -25   99.74   10.61   0
  -7   1  -8  435.68   11.43   0
  -3  -1 -20  353.82   11.55   0
  -3   0 -27   58.60    9.82   0
   0  -1 -20  573.73   12.15   0
  -6   1 -25   44.55    8.84   0
  -3   1 -31   30.08    8.97   0
  -4  -1 -15  136.99    8.98   0
  -4  -1 -12  533.44   11.66   0
  -6   0 -15   99.05    9.50   0
  -6   0 -12  429.91   11.68   0
  -5   0 -23   54.28    9.28   0
  -1   0 -28  120.09    9.81   0
   1  -1 -16 1385.10   18.39   0
  -4  -1 -18  364.51   11.79   0
  -6   0  -9  184.41    9.28   0
  -2   0 -29   49.23    9.25   0
  -5   0  -2  916.91   14.82   0
  -3  -1 -23   54.53    9.57   0
  -1  -1 -24  237.63   10.17   0
  -2  -1 -25  120.59    9.91   0
   0  -1 -23   80.69    7.94   0
  -6   0 -21   79.76    9.77   0
  -5   0 -26   91.57   10.04   0
  -4  -1 -21  163.47   10.02   0
  -4  -1  -6  954.94   14.19   0
   1  -1 -19  186.30    9.00   0
  -6   0  -6  244.26    9.55   0
  -3   0 -30   66.37    9.89   0
  -1  -2 -14 1117.07   14.74   0
  -5  -1 -16  263.50   10.93   0
  -2  -2 -15  159.00    8.39   0
  -2  -2 -12 1628.51   17.30   0
  -1  -2 -11  429.67   10.21   0
  -4  -1 -24   97.48    9.88   0
  -2  -2 -18  298.61   10.25   0
  -8   1 -15   20.39    8.34   0
  -5  -1 -19   67.53    9.20   0
  -3  -1  -2 1108.28   15.61   0
  -1  -1 -27   48.19    8.75   0
  -2  -2  -9  920.39   13.52   0
  -1  -2 -20  352.76   10.61   0
   0  -2 -16  536.70   11.32   0
  -3  -2 -16  547.96   12.29   0
  -3  -2 -13  495.83   11.61   0
  -2  -1 -28  106.23    9.69   0
  -7   0 -16  157.55    9.98   0
  -7   0 -13  140.25    9.36   0
  -5  -1 -22   95.33   10.18   0
  -2  -2 -21  271.72   10.57   0
  -1  -2  -8 1904.72   18.74   0
  -5  -1  -7  317.18   10.26   0
  -4  -1  -3  297.32    9.57   0
  -3  -2 -19   69.13    9.11   0
  -3  -2 -10  475.29   10.99   0
   0  -2 -19  174.68    8.38   0
   0  -2 -10 3091.23   24.22   0
  -7   0 -19   19.29    8.49   0
  -7   0 -10   85.64    9.48   0
  -4  -1 -27   31.49    9.26   0
  -1  -2 -23   91.61    8.92   0
  -3  -1 -29   57.50    9.36   0
  -2  -2 -24  215.34   10.90   0
  -6  -1 -17   97.52    9.85   0
  -6  -1 -14   97.57    9.57   0
  -5  -1 -25   49.87    9.14   0
  -2  -2  -6  689.07   12.11   0
   0  -2 -22  473.59   12.05   0
  -6  -1 -11  107.17    9.14   0
  -4  -2 -20  172.85   10.45   0
  -2  -1 -31   34.57    9.46   0
   1  -2 -15  478.43   11.47   0
  -5  -1  -4  631.11   12.63   0
  -3  -2 -25  101.14    9.93   0
  -1  -2 -26  175.14   10.43   0
   1  -2 -18  721.99   13.81   0
  -1  -2  -5 1888.12   19.27   0
   0  -2  -7  310.29    9.52   0
  -4  -2  -8  582.50   12.34   0
  -2  -2 -27   16.37    9.10   0
   1  -2 -12 1535.89   18.65   0
  -6  -1  -8  438.43   11.75   0
   0  -2 -25  128.48    8.97   0
  -1  -3 -16  701.70   12.98   0
   3   4   2  508.43   12.35   0
   5   3  -1  176.11   10.13   0
   8  -4  -9  117.19    9.91   0
   4   4   3  138.59    9.46   0
   8   1  -2  105.40    9.62   0
   9  -2  -7   76.65    9.53   0
   9  -1  -5   57.74    8.57   0
   5  -3 -10  458.48   12.20   0
   5   1  -8  521.71   11.86   0
   6   0  -9  265.62   10.47   0
   6   1  -7   78.65    8.82   0
   7   0  -8  345.40   11.46   0
   2   0  -7  310.78    9.72   0
   5   2  -6  395.63   11.24   0
   5   4   4  233.65   10.66   0
   6   3   0  212.75   10.40   0
   8  -3 -10  153.10   10.00   0
   2   4   1  506.67   11.87   0
   6   2  -5  125.19   10.04   0
   7   1  -6  113.23    9.55   0
   3   0  -9 1156.33   15.44   0
   4   2  -7  211.00    9.81   0
   5  -2 -11  228.51    9.84   0
   7  -3 -11  114.35    9.12   0
   4   1  -9  318.48   10.19   0
   9  -3  -9   64.08    9.10   0
   2   2  -6  684.06   12.33   0
   2   3  -4 1898.11   19.30   0
   3   4  -1  167.09    9.47   0
   5   3  -4  337.43   10.73   0
   7   2  -4  137.11    9.31   0
   8   1  -5   49.03    9.24   0
   1   3  -2 1141.81   15.98   0
   5   4   1  104.93    9.57   0
   7  -2 -12  208.07   10.41   0
   8  -2 -11   52.68    9.08   0
   4   0 -11  575.17   11.95   0
   5  -1 -12  710.94   13.23   0
   6  -3 -12  430.62   12.00   0
   6   3  -3  106.77    9.66   0
   3   2  -8 1542.62   17.15   0
   2   1  -8 1913.21   19.16   0
   6   1 -10  172.44    9.88   0
   9  -2 -10   70.64    8.89   0
   7   1  -9   78.53    9.86   0
   2   4  -2  734.18   13.34   0
   5   1 -11  168.76    9.24   0
   5   2  -9  264.99   10.27   0
   6  -2 -13  270.39   10.65   0
   6   0 -12  326.42   11.53   0
   6   2  -8  240.09   10.45   0
   7   0 -11   54.95    8.83   0
   1   4   0 1186.42   17.14   0
   3   1 -10  801.42   13.10   0
   4   4  -3  145.58    9.42   0
   8   0 -10   74.79    9.48   0
   5   4  -2   81.20    9.01   0
   7   2  -7   82.23    9.69   0
   7  -1 -13  159.61    9.90   0
   3   4  -4  437.11   11.70   0
   4  -2 -12 1506.39   18.78   0
   5   0 -13  154.25    9.21   0
   8  -3 -13   94.95    9.32   0
   9  -3 -12  105.11   10.14   0
   3  -2 -10 1251.18   18.19   0
   3  -1 -11  377.40   10.30   0
   6   3  -6   79.83    9.54   0
   6  -1 -14  290.30   10.53   0
   4  -1 -13  484.69   11.65   0
   4  -3 -11  289.66   10.62   0
   7  -3 -14  251.79   10.83   0
   2   2  -9  910.90   13.75   0
   3   0 -12  896.85   13.88   0
   5  -2 -14  289.46   10.55   0
   8  -2 -14  112.05    9.73   0
   3   3  -9  329.58   10.61   0
   5   4  -5   84.25    9.59   0
   6   2 -11   67.15    9.63   0
   7   1 -12  162.11    9.66   0
   2   0 -10 3198.21   25.05   0
   2   4  -5  280.38    9.73   0
   3   2 -11  226.86    9.38   0
   4   4  -6  170.79    9.63   0
   7  -2 -15   43.67    9.02   0
   5   2 -12  228.45   10.22   0
   7   2 -10   90.46    9.52   0
   1   2  -7 1515.83   17.49   0
   1   4  -3  304.63    9.73   0
   4   0 -14  474.95   11.36   0
   5  -1 -15  202.43    9.65   0
   5   1 -14  276.02   11.18   0
   8   0 -13   55.70    9.01   0
   5   3 -10  149.47    9.47   0
   3   4  -7  269.56   10.04   0
   3   5  -2  184.51    9.91   0
   6  -3 -15  120.99    9.66   0
   2   1 -11  420.76   10.44   0
   3   1 -13  531.60   11.43   0
   4   2 -13  280.34   10.10   0
   4   3 -11  118.29    9.18   0
   6  -2 -16  230.97   10.58   0
   8  -1 -15   30.99    8.46   0
   7  -1 -16  137.39    9.80   0
   5   4  -8  202.42   10.31   0
   2   5  -3  329.79   10.63   0
   4   1 -15  217.86    9.79   0
   4   4  -9  130.78    9.75   0
   2   3 -10  486.20   11.09   0
   4   5  -4  243.81   10.75   0
   2   4  -8  589.72   12.54   0
   6   2 -14  102.88    9.58   0
   1   5  -1  247.30    9.83   0
   3   3 -12  447.97   11.50   0
   3   5  -5  135.98    9.17   0
   6   1 -16  158.89   10.02   0
   1   3  -8 1760.38   18.21   0
   2   2 -12 1582.39   17.13   0
   5   2 -15   48.31    8.92   0
   8  -2 -17   60.49    8.53   0
   1   1  -9 1134.37   15.44   0
   1   4  -6  973.01   14.64   0
   3   2 -14  303.11   10.06   0
   3   4 -10  293.00   10.87   0
   5   3 -13  116.54    9.76   0
   6   3 -12  127.65    9.25   0
   0   4  -1 1183.33   17.71   0
   3  -1 -14 1096.84   15.92   0
   4  -2 -15  156.81    8.86   0
   5   1 -17  155.20   10.17   0
   7  -2 -18  155.89   10.63   0
   4   3 -14  267.34   10.62   0
   5  -2 -17  296.93   10.97   0
   1   2 -10 1298.00   15.99   0
   2   5  -6  284.67   10.47   0
   4   2 -16  252.07   10.57   0
   5  -1 -18  216.99   10.33   0
   5   4 -11   32.16    8.82   0
   2   0 -13 1086.32   15.34   0
   3  -2 -13  450.91   11.84   0
   1   5  -4  640.55   13.21   0
   3   1 -16  678.39   12.69   0
   7  -1 -19   22.72    8.55   0
   2   1 -14 1124.48   15.15   0
   2  -1 -12 1592.47   19.19   0
   5   0 -19  118.59    9.35   0
   6  -2 -19   46.78    9.03   0
   6   2 -17   62.80    8.76   0
   3   3 -15  120.76    8.82   0
   4   1 -18  226.82   10.05   0
   0   4  -4 1331.12   17.39   0
   1   4  -9  578.97   11.91   0
   5   3 -16  121.27    9.38   0
   6   1 -19   26.54    8.91   0
   1   3 -11  299.02    9.44   0
   5   2 -18  148.36    9.88   0
   6  -1 -20  127.38    9.86   0
   2   5  -9  112.69    8.89   0
   4   5 -10   65.61    9.06   0
   2   2 -15  151.09    8.51   0
   3   2 -17  333.69   10.77   0
   4   3 -17  104.86    9.92   0
   1   5  -7  305.75   10.37   0
   5   1 -20  134.46    9.64   0
   1   1 -12 1705.87   18.16   0
   4  -1 -19  112.24    8.86   0
   4   2 -19   51.05    8.86   0
   6   0 -21   73.07    9.27   0
   1   2 -13  457.00   10.78   0
   3  -1 -17  481.22   11.94   0
   4   0 -20  288.21   10.50   0
   0   2  -8 2752.24   23.31   0
   0   4  -7  260.69    9.23   0
   1   0 -11  424.77   10.67   0
   4  -2 -18  287.52   10.97   0
   2   3 -16  528.02   11.93   0
   3   1 -19  111.37    8.80   0
   4   5 -13   74.10    9.14   0
   5  -2 -20  291.97   11.10   0
   5  -1 -21  126.67    9.69   0
   2   5 -12  298.93   10.94   0
   3   3 -18  212.18   10.14   0
   3   4 -16  173.29    9.91   0
   7  -1 -22   44.15    8.76   0
   0   3  -9  461.63   10.53   0
   2   1 -17  467.42   11.30   0
   5   3 -19   34.47    8.39   0
   1   3 -14  557.63   11.75   0
   1   5 -10  375.35   10.92   0
   5   0 -22  113.65    9.81   0
   5   2 -21   66.01    9.59   0
   0   5  -5  566.19   12.37   0
   3   5 -14   97.04    9.54   0
   2   2 -18  279.28   10.18   0
   3  -2 -16 1012.32   16.29   0
   3   2 -20  296.92   10.95   0
   4   3 -20   99.55    9.87   0
   4   4 -18   55.44    9.20   0
   2  -1 -15  489.07   11.67   0
   6  -1 -23   34.74    8.67   0
   0   4 -10 1050.89   14.80   0
   2   6 -10  114.72    9.76   0
   1   1 -15  505.22   11.23   0
   2   4 -17  116.66    9.02   0
   4   2 -22  138.05   10.07   0
   0   5  -8  541.10   11.99   0
   1   2 -16  997.90   14.42   0
   1   6  -8  430.96   12.09   0
   2   5 -15  105.30    9.55   0
   6   0 -24   65.21    8.97   0
   0   2 -11 1709.33   18.00   0
   1   4 -15  129.68    8.49   0
   2   3 -19   71.52    9.04   0
   3   4 -19   71.56    9.48   0
   0   3 -12 1384.72   16.38   0
   1   5 -13  170.47    9.10   0
   3   6 -12   87.50    9.17   0
   3   3 -21   87.33    9.39   0
   4  -1 -22  196.12   10.06   0
   4   0 -23   81.54    9.71   0
   1   3 -17  393.77   10.68   0
   3   5 -17   72.86    8.97   0
   3  -1 -20  351.72   11.13   0
   0   1 -10 1434.60   17.36   0
   2   1 -20  353.07   10.50   0
   5  -1 -24  121.19    9.56   0
   2   0 -19  171.08    8.69   0
   2   6 -13  110.63    9.13   0
   0   5 -11  184.09    9.05   0
   1   6 -11  100.49    8.83   0
   4  -2 -21  266.99   10.74   0
   4   3 -23   28.38    9.13   0
   5   0 -25   43.88    8.90   0
   2   4 -20  143.16   10.12   0
   1   5 -16  251.33   10.68   0
   2   5 -18  108.80    8.99   0
   0   2 -14  974.32   13.91   0
   1   4 -18  333.73   10.55   0
  -1   4  -5  955.26   15.09   0
   0   3 -15  426.44   10.67   0
   1   1 -18  760.92   13.14   0
   1   2 -19  224.55    9.26   0
   2  -1 -18  728.10   13.67   0
   3   4 -22   75.21    9.39   0
   4   2 -25   63.65    9.06   0
   0   6  -9  172.25    9.14   0
   2  -2 -14  956.99   16.34   0
   2   3 -22  155.58    9.62   0
   3  -2 -19  243.31   10.14   0
   1   6 -14  102.87    9.23   0
   1   3 -20  344.13   10.56   0
   2   6 -16  113.06    8.74   0
   3   3 -24   80.18    9.41   0
  -1   4  -8 1767.00   18.89   0
  -1   5  -3  277.46   10.18   0
   0   1 -13 1092.27   14.86   0
   0   5 -14  481.14   11.40   0
   0   4 -16  356.62   10.53   0
   1   0 -17  762.37   13.49   0
   3   0 -24  133.83    9.22   0
   3   1 -25  112.37    9.85   0
  -1   5  -6  913.34   14.82   0
   4   0 -26   87.58    9.81   0
   0   6 -12  397.83   11.40   0
   1  -1 -13 1015.92   15.59   0
   4  -1 -25  104.90    9.55   0
   2   0 -22  460.08   12.34   0
   2   2 -24  194.76   10.68   0
   3  -1 -23   87.59    8.74   0
   4   1 -27   26.61    8.78   0
   1   4 -21  147.82   10.07   0
   2   4 -23   55.87    8.69   0
   3   2 -26   69.68    9.65   0
  -1   3 -10 1264.24   15.76   0
  -1   5  -9  585.79   12.21   0
   0   2 -17  227.75    9.21   0
   0   3 -18  400.60   11.23   0
   1   6 -17  108.88    9.02   0
   1   2 -22  236.76   10.07   0
   2   3 -25  108.03   10.07   0
   0   4 -19   79.96    9.00   0
  -1   5 -12  500.82   11.83   0
   0   6 -15   87.44    8.46   0
   1   3 -23   57.12    8.80   0
  -1   6  -7  293.29   10.44   0
   2  -1 -21  271.83   10.30   0
   3   3 -27   21.48    8.24   0
  -1   2  -9 1110.02   15.05   0
  -1   3 -13  451.64   10.53   0
  -1   4 -14  549.65   11.40   0
   7  -4  -4  422.43   11.02   0
   7  -1   8  456.39   11.94   0
   8  -6  -4  293.39   11.23   0
   6  -5  -7  300.96    9.94   0
   7  -3  -2  500.84   11.67   0
   8  -3   2  192.65    9.86   0
   5  -5  -8  519.50   12.24   0
   6   0   9  208.60    9.61   0
   8  -2   7   65.21    8.72   0
   9  -7  -2  120.98    9.36   0
   9  -3   9  113.29    9.07   0
   7  -5  -6  315.00   10.59   0
   4  -2  -6  690.58   12.32   0
   4   1   6  973.01   15.28   0
   5  -2  -5  620.57   11.90   0
   7  -2   0  460.33   11.48   0
   9  -5  -1  108.89    9.29   0
   7  -1   5  149.03    9.12   0
   8  -4  -3  148.49    9.93   0
   9  -3   6  107.33    9.28   0
   4  -1  -4 2453.05   20.87   0
   5   0   2 1000.22   14.51   0
   6  -3  -6  604.93   12.37   0
   9  -6  -3   46.03    8.98   0
   9  -4   1  111.80    9.28   0
   6   0   6  269.92   10.07   0
   8  -7  -6  117.41    9.75   0
   8  -2   4  301.38   10.74   0
  10  -5   3   49.23    8.91   0
   3  -1  -5 1935.09   19.60   0
   5  -1  -3  762.22   12.63   0
   6  -2  -4  726.18   12.83   0
   8  -3  -1  180.13    9.38   0
   6  -4  -8  559.97   11.83   0
   7  -6  -8  409.06   11.93   0
   3   1   2 1184.46   16.48   0
   5  -4  -9  572.88   12.31   0
   6  -6  -9  181.91    9.60   0
   7  -3  -5  286.53   10.13   0
   9  -7  -5   93.86    9.42   0
   7  -1   2  191.39    9.98   0
   8  -6  -7   71.24    8.81   0
   9  -2  11   16.74    8.01   0
   4   0  -2 1416.51   16.40   0
   6  -1  -2  604.22   12.28   0
   3   0  -3  505.54   11.04   0
   7  -2  -3  104.30    8.94   0
   8  -1   9  123.34    9.24   0
   9  -4  -2   76.01    8.98   0
  10  -5   0  131.72    9.81   0
   4   1   3  304.43   10.01   0
   5   1   7  313.84   10.55   0
   6   0   3  296.49    9.91   0
   9  -2   8   94.24    9.12   0
   7  -5  -9  110.15    9.09   0
   8  -4  -6  185.63    9.80   0
   9  -6  -6  102.19    9.32   0
   6  -5 -10  354.36   10.90   0
   8  -3  -4  328.18   11.01   0
   9  -3   0  201.14   10.49   0
   4  -4 -10 1027.21   16.09   0
   8  -1   6  120.87    9.19   0
   8  -5  -8  268.16   10.58   0
   9  -2   5   96.31    9.18   0
   5  -2  -8 1533.26   16.86   0
   7   0   7   83.09    8.84   0
   6  -2  -7  226.70    9.40   0
   5  -1  -6  738.89   12.66   0
   5   1   4  669.12   12.98   0
   8  -2  -2  159.55    9.33   0
  10  -5  -3   48.80    8.69   0
   4  -1  -7  597.35   11.51   0
   6   0   0  698.54   13.31   0
   9  -4  -5   85.30    9.41   0
   4  -2  -9  918.59   13.84   0
   5  -5 -11  165.90    9.11   0
   7  -3  -8  310.96   10.30   0
   8  -1   3   59.67    8.47   0
   6  -1  -5  358.11   10.27   0
   7  -2  -6  384.54   10.71   0
   9  -7  -8   92.71    9.29   0
   7  -4 -10  315.67   10.65   0
   7   0   4  447.78   11.99   0
   9  -3  -3  115.28    9.74   0
   9  -2   2  119.27    8.98   0
   3   1  -1  745.22   12.90   0
   4   1   0 1274.82   16.05   0
   6  -4 -11  254.64    9.67   0
   7  -6 -11   87.57    9.19   0
   8  -6 -10  122.07    9.38   0
   4   0  -5  348.62    9.73   0
   8  -3  -7   90.91    9.01   0
   5   0  -4  809.21   13.00   0
   9  -6  -9  105.38    9.32   0
   3  -1  -8 1881.11   18.95   0
   7  -1  -4  484.28   11.51   0
   8  -1   0  260.47   10.73   0
   5  -4 -12  480.14   11.83   0
   8  -2  -5  126.83    9.21   0
   6   1   5  156.57    9.58   0
   7   0   1  180.79    9.72   0
   3   0  -6 2406.42   20.94   0
   7  -5 -12  293.81   10.94   0
   8  -5 -11   79.87    9.08   0
   9  -4  -8  210.58    9.91   0
   3  -2 -10 1215.70   16.23   0
   9  -3  -6   76.56    9.60   0
   5  -2 -11  207.42    8.85   0
   5  -1  -9  317.89    9.90   0
   6  -5 -13  147.44    9.01   0
   7  -3 -11  107.81    8.61   0
   7  -2  -9  292.75   10.23   0
   9  -5 -10   68.84    8.74   0
   9  -1   4   95.21    9.26   0
   6  -1  -8  493.97   11.46   0
   7   0  -2  123.29    9.55   0
   8  -3 -10  158.55   10.11   0
   9  -2  -4  137.94    9.70   0
   4  -1 -10  798.79   12.90   0
   5   1  -2  608.00   12.43   0
   7  -1  -7   98.69    9.19   0
   3   1  -4 2423.27   21.32   0
   5  -3 -13  477.66   11.54   0
   5   0  -7  531.71   11.43   0
   7  -4 -13   98.34    8.79   0
   8  -4 -12  201.72   10.45   0
   8  -6 -13  103.51    8.98   0
   9  -1   1   51.18    8.73   0
   4   0  -8 1279.06   15.58   0
   6   0  -6  309.58   10.71   0
   8   0   2  129.04    9.15   0
   9  -6 -12  102.36    9.31   0
   6  -4 -14  314.96   10.72   0
   9  -3  -9   56.56    9.12   0
   3   2   1  701.78   13.44   0
   4   2   2  734.32   13.97   0
   6   1  -1  249.25   10.18   0
   2   0  -7  317.07    9.63   0
   8  -1  -6  113.56    9.10   0
   4  -1 -22  170.92    9.98   0
   5   2 -15   59.99    9.18   0
   5   3  -7   93.50    9.27   0
   6   0 -21   73.70    9.49   0
   7   0 -20   90.79    8.89   0
   3   3  -9  328.18   10.44   0
   1   1 -12 1646.54   17.66   0
   2  -1 -18  688.10   13.16   0
   6   2 -14  117.99    9.04   0
   2   3  -7  307.25    9.88   0
   4   2 -16  234.86   10.19   0
   5   0 -22  111.33    9.98   0
   6   1 -19   26.19    9.24   0
   4   3 -11  118.39    8.72   0
   5   1 -20  137.55    9.65   0
   5   3 -10  148.92    9.56   0
   3   1 -19  131.36    8.53   0
   5  -1 -24  121.63    9.67   0
   1   2 -10 1312.47   15.77   0
   2   1 -17  472.07   11.10   0
   2   2 -15  157.30    8.62   0
   3   2 -17  324.95   10.53   0
   4  -2 -24  179.91    9.86   0
   6   3  -9   49.36    8.52   0
   2   0 -19  187.97    8.59   0
   4   1 -21  131.08    9.06   0
   5   2 -18  163.45   10.20   0
   1   3  -2 1166.24   16.87   0
   5   3 -13  104.61    9.28   0
   6   0 -24   50.23    9.35   0
   1   3  -5  958.09   14.63   0
   4   2 -19   48.93    8.77   0
   1   1 -15  515.41   11.11   0
   5  -2 -26   68.97    9.18   0
   6   1 -22   60.97    8.97   0
   1   2 -13  453.44   10.72   0
   3  -1 -23   71.35    8.17   0
   6   3 -12  118.41    9.35   0
   1  -1 -16 1393.27   17.96   0
   2   3 -13  494.25   11.33   0
   3   3 -15  126.14    8.97   0
   4  -1 -25   98.41    9.50   0
   5   1 -23   24.87    9.12   0
   3   4  -4  432.92   11.91   0
   2  -2 -20  560.17   13.09   0
   3   1 -22  189.37   10.16   0
   1   0 -17  758.04   12.92   0
   2  -1 -21  243.62    9.65   0
   2   1 -20  340.09   10.57   0
   2   2 -18  295.64   10.02   0
   3   2 -20  305.19   10.63   0
   3   4  -7  275.70   10.32   0
   5   3 -16  110.01    9.58   0
   4   3 -17  108.41    9.31   0
   5   2 -21   81.37    9.05   0
   4   4  -9  139.52    9.22   0
   5  -1 -27   26.58    8.44   0
   1   3 -11  306.79    9.57   0
   2   4  -5  263.86    9.72   0
   3   0 -24  134.06    9.24   0
   3   4 -10  323.95   10.86   0
   4   1 -24  112.32    9.84   0
   0   1 -10 1418.32   17.31   0
   2   4  -2  702.61   14.11   0
   4   2 -22  141.18   10.36   0
   1   2 -16  988.67   14.16   0
   2   0 -22  467.09   11.53   0
   2   3 -16  528.21   12.00   0
   3   3 -18  206.36   10.53   0
   4   0 -26   79.73    9.32   0
   4   4 -12  216.97   10.63   0
   0   2  -8 2818.78   23.35   0
   3   4 -13  110.13    9.35   0
   5   4 -11   36.00    9.18   0
   1   3 -14  575.37   11.73   0
   2   4 -11  287.64    9.99   0
   2   2 -21  263.05   10.64   0
   4   3 -20   84.90    9.30   0
   0   0 -12 4049.59   29.78   0
   0   2 -11 1722.99   17.94   0
   3   2 -23   28.35    8.50   0
   0   1 -13 1025.87   14.57   0
   3  -1 -26  156.27    9.76   0
   1  -1 -19  202.53    9.01   0
   1   0 -20  569.51   12.28   0
   2   3 -19   63.00    8.46   0
   4  -1 -28   68.55    9.32   0
   5   4 -14   40.15    9.01   0
   1   4  -6  980.36   14.81   0
   3   3 -21  106.72    9.90   0
   3   4 -16  197.55   10.34   0
   1   2 -19  251.68    9.40   0
   1   4  -9  598.19   12.00   0
  -5  -2 -21   57.30    9.67   0
  -5  -3 -14  113.96   10.53   0
  -5  -1 -25   44.73    8.93   0
  -4  -3 -16  201.72   11.37   0
  -4  -3   2  480.25   12.20   0
  -2  -3 -14  300.29    9.88   0
  -6  -3  -9  109.80    9.47   0
  -6  -3  -6  102.33    9.19   0
  -3  -2 -22  164.15   10.28   0
  -1  -3  -7  581.92   11.65   0
  -1  -2 -17  459.10   11.21   0
  -6  -3  -3   38.64    9.16   0
  -2  -3   1  692.75   12.91   0
  -1  -3 -10  795.16   12.92   0
  -6  -3 -12   97.90    9.99   0
  -4  -2 -23   62.02    9.88   0
  -3  -3   3  374.15   11.16   0
  -1  -3  -4 2416.60   21.05   0
   0  -1 -14 1152.38   17.10   0
  -2  -2 -21  281.02   10.84   0
   0  -2  -7  319.14   10.05   0
;
_shelx_hkl_checksum              84542
loop_
_space_group_symop_operation_xyz
'x, y, z'
'-y, x-y, z'
'-x+y, -x, z'
'y, x, -z'
'x-y, -y, -z'
'-x, -x+y, -z'
'x+2/3, y+1/3, z+1/3'
'-y+2/3, x-y+1/3, z+1/3'
'-x+y+2/3, -x+1/3, z+1/3'
'y+2/3, x+1/3, -z+1/3'
'x-y+2/3, -y+1/3, -z+1/3'
'-x+2/3, -x+y+1/3, -z+1/3'
'x+1/3, y+2/3, z+2/3'
'-y+1/3, x-y+2/3, z+2/3'
'-x+y+1/3, -x+2/3, z+2/3'
'y+1/3, x+2/3, -z+2/3'
'x-y+1/3, -y+2/3, -z+2/3'
'-x+1/3, -x+y+2/3, -z+2/3'
'-x, -y, -z'
'y, -x+y, -z'
'x-y, x, -z'
'-y, -x, z'
'-x+y, y, z'
'x, x-y, z'
'-x+2/3, -y+1/3, -z+1/3'
'y+2/3, -x+y+1/3, -z+1/3'
'x-y+2/3, x+1/3, -z+1/3'
'-y+2/3, -x+1/3, z+1/3'
'-x+y+2/3, y+1/3, z+1/3'
'x+2/3, x-y+1/3, z+1/3'
'-x+1/3, -y+2/3, -z+2/3'
'y+1/3, -x+y+2/3, -z+2/3'
'x-y+1/3, x+2/3, -z+2/3'
'-y+1/3, -x+2/3, z+2/3'
'-x+y+1/3, y+2/3, z+2/3'
'x+1/3, x-y+2/3, z+2/3'
loop_
_atom_site_label
_atom_site_type_symbol
_atom_site_fract_x
_atom_site_fract_y
_atom_site_fract_z
_atom_site_U_iso_or_equiv
_atom_site_adp_type
_atom_site_occupancy
_atom_site_site_symmetry_order
_atom_site_calc_flag
_atom_site_refinement_flags_posn
_atom_site_refinement_flags_adp
_atom_site_refinement_flags_occupancy
Ba1 Ba 0.0000 0.0000 0.5000 0.01522(4) Uani 1 12 d S T P
Mg2 Mg 0.0000 0.0000 0.0000 0.01213(15) Uani 1 12 d S T P
O3 O 0.85370(13) 0.7074(3) 0.25779(8) 0.0293(2) Uani 1 2 d S T P
C4 C 0.0000 0.0000 0.26081(11) 0.0123(2) Uani 1 6 d S T P
loop_
_atom_site_aniso_label
_atom_site_aniso_U_11
_atom_site_aniso_U_22
_atom_site_aniso_U_33
_atom_site_aniso_U_23
_atom_site_aniso_U_13
_atom_site_aniso_U_12
Ba1 0.01340(5) 0.01340(5) 0.01886(7) 0.000 0.000 0.00670(2)
Mg2 0.0104(2) 0.0104(2) 0.0157(4) 0.000 0.000 0.00518(11)
O3 0.0380(5) 0.0115(4) 0.0296(5) 0.0047(3) 0.00234(17) 0.00573(18)
C4 0.0121(4) 0.0121(4) 0.0129(6) 0.000 0.000 0.00603(18)
loop_
_atom_type_symbol
_atom_type_description
_atom_type_scat_dispersion_real
_atom_type_scat_dispersion_imag
_atom_type_scat_source
C C 0.0033 0.0016 'International Tables Vol C Tables 4.2.6.8 and 6.1.1.4'
O O 0.0106 0.0060 'International Tables Vol C Tables 4.2.6.8 and 6.1.1.4'
Mg Mg 0.0486 0.0363 'International Tables Vol C Tables 4.2.6.8 and 6.1.1.4'
Ba Ba -0.3244 2.2819 'International Tables Vol C Tables 4.2.6.8 and 6.1.1.4'
loop_
_geom_angle_atom_site_label_1
_geom_angle_atom_site_label_2
_geom_angle_atom_site_label_3
_geom_angle
_geom_angle_site_symmetry_1
_geom_angle_site_symmetry_3
O3 Ba1 O3 180.0 31 7_445
O3 Ba1 O3 57.08(4) 31 32_455
O3 Ba1 O3 122.92(4) 7_445 32_455
O3 Ba1 O3 122.92(4) 31 8_545
O3 Ba1 O3 57.08(4) 7_445 8_545
O3 Ba1 O3 180.0 32_455 8_545
O3 Ba1 O3 43.89(5) 31 33_435
O3 Ba1 O3 136.11(5) 7_445 33_435
O3 Ba1 O3 95.33(3) 32_455 33_435
O3 Ba1 O3 84.67(3) 8_545 33_435
O3 Ba1 O3 136.11(5) 31 9_565
O3 Ba1 O3 43.89(5) 7_445 9_565
O3 Ba1 O3 84.67(3) 32_455 9_565
O3 Ba1 O3 95.33(3) 8_545 9_565
O3 Ba1 O3 180.0 33_435 9_565
O3 Ba1 O3 95.33(3) 31 33_545
O3 Ba1 O3 84.67(3) 7_445 33_545
O3 Ba1 O3 43.89(5) 32_455 33_545
O3 Ba1 O3 136.11(5) 8_545 33_545
O3 Ba1 O3 116.74(4) 33_435 33_545
O3 Ba1 O3 63.26(4) 9_565 33_545
O3 Ba1 O3 84.67(3) 31 9_455
O3 Ba1 O3 95.33(3) 7_445 9_455
O3 Ba1 O3 136.11(5) 32_455 9_455
O3 Ba1 O3 43.89(5) 8_545 9_455
O3 Ba1 O3 63.26(4) 33_435 9_455
O3 Ba1 O3 116.74(4) 9_565 9_455
O3 Ba1 O3 180.0 33_545 9_455
O3 Ba1 O3 95.33(3) 31 32_445
O3 Ba1 O3 84.67(3) 7_445 32_445
O3 Ba1 O3 116.74(4) 32_455 32_445
O3 Ba1 O3 63.26(4) 8_545 32_445
O3 Ba1 O3 57.08(4) 33_435 32_445
O3 Ba1 O3 122.92(4) 9_565 32_445
O3 Ba1 O3 95.33(3) 33_545 32_445
O3 Ba1 O3 84.67(3) 9_455 32_445
O3 Ba1 O3 84.67(3) 31 8
O3 Ba1 O3 95.33(3) 7_445 8
O3 Ba1 O3 63.26(4) 32_455 8
O3 Ba1 O3 116.74(4) 8_545 8
O3 Ba1 O3 122.92(4) 33_435 8
O3 Ba1 O3 57.08(4) 9_565 8
O3 Ba1 O3 84.67(3) 33_545 8
O3 Ba1 O3 95.33(3) 9_455 8
O3 Ba1 O3 180.00(4) 32_445 8
O3 Ba1 O3 63.26(4) 31 7_345
O3 Ba1 O3 116.74(4) 7_445 7_345
O3 Ba1 O3 84.67(3) 32_455 7_345
O3 Ba1 O3 95.33(3) 8_545 7_345
O3 Ba1 O3 84.67(3) 33_435 7_345
O3 Ba1 O3 95.33(3) 9_565 7_345
O3 Ba1 O3 122.92(4) 33_545 7_345
O3 Ba1 O3 57.08(4) 9_455 7_345
O3 Ba1 O3 136.11(5) 32_445 7_345
O3 Ba1 O3 43.89(5) 8 7_345
O3 Ba1 O3 116.74(4) 31 31_655
O3 Ba1 O3 63.26(4) 7_445 31_655
O3 Ba1 O3 95.33(3) 32_455 31_655
O3 Ba1 O3 84.67(3) 8_545 31_655
O3 Ba1 O3 95.33(3) 33_435 31_655
O3 Ba1 O3 84.67(3) 9_565 31_655
O3 Ba1 O3 57.08(4) 33_545 31_655
O3 Ba1 O3 122.92(4) 9_455 31_655
O3 Ba1 O3 43.89(5) 32_445 31_655
O3 Ba1 O3 136.11(5) 8 31_655
O3 Ba1 O3 180.0 7_345 31_655
O3 Mg2 O3 180.00(6) 26_455 14_544
O3 Mg2 O3 85.99(5) 26_455 25
O3 Mg2 O3 94.01(5) 14_544 25
O3 Mg2 O3 94.01(5) 26_455 13_444
O3 Mg2 O3 85.99(5) 14_544 13_444
O3 Mg2 O3 180.00(6) 25 13_444
O3 Mg2 O3 85.99(5) 26_455 27_445
O3 Mg2 O3 94.01(5) 14_544 27_445
O3 Mg2 O3 85.99(5) 25 27_445
O3 Mg2 O3 94.01(5) 13_444 27_445
O3 Mg2 O3 94.01(5) 26_455 15_554
O3 Mg2 O3 85.99(5) 14_544 15_554
O3 Mg2 O3 94.01(5) 25 15_554
O3 Mg2 O3 85.99(5) 13_444 15_554
O3 Mg2 O3 180.00(6) 27_445 15_554
O3 Mg2 Ba1 44.625(18) 26_455 13_554
O3 Mg2 Ba1 135.375(18) 14_544 13_554
O3 Mg2 Ba1 97.84(4) 25 13_554
O3 Mg2 Ba1 82.16(4) 13_444 13_554
O3 Mg2 Ba1 44.626(17) 27_445 13_554
O3 Mg2 Ba1 135.374(17) 15_554 13_554
O3 Mg2 Ba1 135.375(18) 26_455 7_444
O3 Mg2 Ba1 44.625(18) 14_544 7_444
O3 Mg2 Ba1 82.16(4) 25 7_444
O3 Mg2 Ba1 97.84(4) 13_444 7_444
O3 Mg2 Ba1 135.374(17) 27_445 7_444
O3 Mg2 Ba1 44.626(17) 15_554 7_444
Ba1 Mg2 Ba1 180.0 13_554 7_444
O3 Mg2 Ba1 97.84(4) 26_455 13_444
O3 Mg2 Ba1 82.16(4) 14_544 13_444
O3 Mg2 Ba1 44.625(18) 25 13_444
O3 Mg2 Ba1 135.375(17) 13_444 13_444
O3 Mg2 Ba1 44.626(17) 27_445 13_444
O3 Mg2 Ba1 135.374(17) 15_554 13_444
Ba1 Mg2 Ba1 76.911(11) 13_554 13_444
Ba1 Mg2 Ba1 103.089(11) 7_444 13_444
O3 Mg2 Ba1 82.16(4) 26_455 7_554
O3 Mg2 Ba1 97.84(4) 14_544 7_554
O3 Mg2 Ba1 135.375(17) 25 7_554
O3 Mg2 Ba1 44.625(18) 13_444 7_554
O3 Mg2 Ba1 135.374(17) 27_445 7_554
O3 Mg2 Ba1 44.626(17) 15_554 7_554
Ba1 Mg2 Ba1 103.089(11) 13_554 7_554
Ba1 Mg2 Ba1 76.911(11) 7_444 7_554
Ba1 Mg2 Ba1 180.0 13_444 7_554
O3 Mg2 Ba1 44.626(17) 26_455 13_544
O3 Mg2 Ba1 135.374(17) 14_544 13_544
O3 Mg2 Ba1 44.626(17) 25 13_544
O3 Mg2 Ba1 135.374(17) 13_444 13_544
O3 Mg2 Ba1 97.84(4) 27_445 13_544
O3 Mg2 Ba1 82.16(4) 15_554 13_544
Ba1 Mg2 Ba1 76.911(11) 13_554 13_544
Ba1 Mg2 Ba1 103.089(11) 7_444 13_544
Ba1 Mg2 Ba1 76.911(11) 13_444 13_544
Ba1 Mg2 Ba1 103.089(11) 7_554 13_544
O3 Mg2 Ba1 135.374(17) 26_455 7_454
O3 Mg2 Ba1 44.626(17) 14_544 7_454
O3 Mg2 Ba1 135.374(17) 25 7_454
O3 Mg2 Ba1 44.626(17) 13_444 7_454
O3 Mg2 Ba1 82.16(4) 27_445 7_454
O3 Mg2 Ba1 97.84(4) 15_554 7_454
Ba1 Mg2 Ba1 103.089(11) 13_554 7_454
Ba1 Mg2 Ba1 76.911(11) 7_444 7_454
Ba1 Mg2 Ba1 103.089(11) 13_444 7_454
Ba1 Mg2 Ba1 76.911(11) 7_554 7_454
Ba1 Mg2 Ba1 180.0 13_544 7_454
C4 O3 Mg2 139.65(12) 1_665 7
C4 O3 Ba1 94.64(6) 1_665 13_554
Mg2 O3 Ba1 105.89(3) 7 13_554
C4 O3 Ba1 94.64(6) 1_665 13_654
Mg2 O3 Ba1 105.89(3) 7 13_654
Ba1 O3 Ba1 116.74(4) 13_554 13_654
O3 C4 O3 119.842(14) 1_445 2_655
O3 C4 O3 119.842(14) 1_445 3_565
O3 C4 O3 119.842(15) 2_655 3_565
O3 C4 Ba1 62.78(5) 1_445 13_444
O3 C4 Ba1 149.01(13) 2_655 13_444
O3 C4 Ba1 62.78(5) 3_565 13_444
O3 C4 Ba1 149.01(13) 1_445 13_554
O3 C4 Ba1 62.78(5) 2_655 13_554
O3 C4 Ba1 62.78(5) 3_565 13_554
Ba1 C4 Ba1 98.87(4) 13_444 13_554
O3 C4 Ba1 62.78(5) 1_445 13_544
O3 C4 Ba1 62.78(5) 2_655 13_544
O3 C4 Ba1 149.01(13) 3_565 13_544
Ba1 C4 Ba1 98.87(4) 13_444 13_544
Ba1 C4 Ba1 98.87(4) 13_554 13_544
loop_
_geom_bond_atom_site_label_1
_geom_bond_atom_site_label_2
_geom_bond_distance
_geom_bond_site_symmetry_2
Ba1 O3 2.9495(8) 31
Ba1 O3 2.9495(8) 7_445
Ba1 O3 2.9495(8) 32_455
Ba1 O3 2.9495(8) 8_545
Ba1 O3 2.9495(8) 33_435
Ba1 O3 2.9495(8) 9_565
Ba1 O3 2.9495(8) 33_545
Ba1 O3 2.9495(8) 9_455
Ba1 O3 2.9495(8) 32_445
Ba1 O3 2.9495(8) 8
Ba1 O3 2.9495(8) 7_345
Ba1 O3 2.9495(8) 31_655
Mg2 O3 2.0665(12) 26_455
Mg2 O3 2.0665(12) 14_544
Mg2 O3 2.0665(12) 25
Mg2 O3 2.0665(12) 13_444
Mg2 O3 2.0665(12) 27_445
Mg2 O3 2.0665(12) 15_554
Mg2 Ba1 4.0382(5) 13_554
Mg2 Ba1 4.0382(5) 7_444
Mg2 Ba1 4.0382(5) 13_444
Mg2 Ba1 4.0382(5) 7_554
Mg2 Ba1 4.0382(5) 13_544
Mg2 Ba1 4.0382(5) 7_454
O3 C4 1.2737(12) 1_665
O3 Mg2 2.0665(12) 7
O3 Ba1 2.9495(8) 13_554
O3 Ba1 2.9495(8) 13_654
C4 O3 1.2737(12) 1_445
C4 O3 1.2737(12) 2_655
C4 O3 1.2737(12) 3_565
C4 Ba1 3.3060(10) 13_444
C4 Ba1 3.3060(10) 13_554
C4 Ba1 3.3060(10) 13_544
