#------------------------------------------------------------------------------
#$Date: 2019-12-25 22:12:51 +0200 (Wed, 25 Dec 2019) $
#$Revision: 245851 $
#$URL: file:///home/coder/svn-repositories/cod/cif/2/31/13/2311396.cif $
#------------------------------------------------------------------------------
#
# This file is available in the Crystallography Open Database (COD),
# http://www.crystallography.net/. The original data for this entry
# were provided by IUCr Journals, http://journals.iucr.org/.
#
# The file may be used within the scientific community so long as
# proper attribution is given to the journal article from which the
# data were obtained.
#
data_2311396
loop_
_publ_author_name
'Then, Li Yee'
'Chidan Kumar, C. S.'
'Kwong, Huey Chong'
'Win, Yip-Foo'
'Mah, Siau Hui'
'Quah, Ching Kheng'
'Naveen, S.'
'Warad, Ismail'
_publ_section_title
;
 Two closely related 2-(benzo-furan-2-yl)-2-oxoethyl benzoates: structural
 differences and C-H&#x22EF;O hydrogen-bonded supra-molecular assemblies.
;
_journal_issue                   'Pt 7'
_journal_name_full
'Acta crystallographica. Section E, Crystallographic communications'
_journal_page_first              1087
_journal_page_last               1091
_journal_paper_doi               10.1107/S2056989017009422
_journal_volume                  73
_journal_year                    2017
_chemical_formula_iupac          'C17 H13 N O4'
_chemical_formula_moiety         'C17 H13 N O4'
_chemical_formula_sum            'C17 H13 N O4'
_chemical_formula_weight         295.28
_chemical_name_systematic
;
2-(1<i>H</i>-1-Benzofuran-2-yl)-2-oxoethyl 2-aminobenzoate
;
_space_group_crystal_system      triclinic
_space_group_IT_number           2
_space_group_name_Hall           '-P 1'
_space_group_name_H-M_alt        'P -1'
_atom_sites_solution_hydrogens   mixed
_audit_creation_method           SHELXL-2013
_cell_angle_alpha                93.562(3)
_cell_angle_beta                 91.167(3)
_cell_angle_gamma                98.714(3)
_cell_formula_units_Z            2
_cell_length_a                   5.1839(12)
_cell_length_b                   10.853(3)
_cell_length_c                   12.269(3)
_cell_measurement_reflns_used    5796
_cell_measurement_temperature    297(2)
_cell_measurement_theta_max      27.86
_cell_measurement_theta_min      2.44
_cell_volume                     680.7(3)
_computing_cell_refinement
;
SAINT (Bruker, 2009)
;
_computing_data_collection
;
APEX2 (Bruker, 2009)
;
_computing_data_reduction
;
SAINT (Bruker, 2009)
;
_computing_molecular_graphics
;
SHELXL2013 (Sheldrick, 2015b)
;
_computing_publication_material
;
SHELXL2013 (Sheldrick, 2015b) and PLATON (Spek, 2009)
;
_computing_structure_refinement
;
SHELXL2013 (Sheldrick, 2015b)
;
_computing_structure_solution
;
SHELXT2013 (Sheldrick, 2015a)
;
_diffrn_ambient_temperature      297(2)
_diffrn_measured_fraction_theta_full 0.999
_diffrn_measured_fraction_theta_max 0.994
_diffrn_measurement_device_type
;
Bruker APEXII DUO CCD area-detector
;
_diffrn_measurement_method       '\f and \w scans'
_diffrn_radiation_monochromator  graphite
_diffrn_radiation_source         'fine-focus sealed tube'
_diffrn_radiation_type           MoK\a
_diffrn_radiation_wavelength     0.71073
_diffrn_reflns_av_R_equivalents  0.0373
_diffrn_reflns_limit_h_max       6
_diffrn_reflns_limit_h_min       -6
_diffrn_reflns_limit_k_max       14
_diffrn_reflns_limit_k_min       -14
_diffrn_reflns_limit_l_max       15
_diffrn_reflns_limit_l_min       -15
_diffrn_reflns_number            17052
_diffrn_reflns_theta_full        25.242
_diffrn_reflns_theta_max         27.497
_diffrn_reflns_theta_min         1.664
_exptl_absorpt_coefficient_mu    0.104
_exptl_absorpt_correction_T_max  0.978
_exptl_absorpt_correction_T_min  0.871
_exptl_absorpt_correction_type   multi-scan
_exptl_absorpt_process_details
;
(SADABS; Bruker, 2009)
;
_exptl_crystal_colour            orange
_exptl_crystal_density_diffrn    1.441
_exptl_crystal_description       Block
_exptl_crystal_F_000             308
_exptl_crystal_size_max          0.396
_exptl_crystal_size_mid          0.320
_exptl_crystal_size_min          0.213
_refine_diff_density_max         0.176
_refine_diff_density_min         -0.179
_refine_ls_extinction_method     none
_refine_ls_goodness_of_fit_ref   1.082
_refine_ls_hydrogen_treatment    mixed
_refine_ls_matrix_type           full
_refine_ls_number_parameters     207
_refine_ls_number_reflns         3105
_refine_ls_number_restraints     0
_refine_ls_restrained_S_all      1.082
_refine_ls_R_factor_all          0.0735
_refine_ls_R_factor_gt           0.0464
_refine_ls_shift/su_max          0.000
_refine_ls_shift/su_mean         0.000
_refine_ls_structure_factor_coef Fsqd
_refine_ls_weighting_details
;
w=1/[\s^2^(Fo^2^)+(0.0462P)^2^+0.1899P] where P=(Fo^2^+2Fc^2^)/3
;
_refine_ls_weighting_scheme      calc
_refine_ls_wR_factor_gt          0.1032
_refine_ls_wR_factor_ref         0.1229
_reflns_number_gt                2214
_reflns_number_total             3105
_reflns_threshold_expression     'I > 2\s(I)'
_cod_data_source_file            qm2116sup1.cif
_cod_data_source_block           II
_cod_original_cell_volume        680.6(3)
_cod_database_code               2311396
_shelx_space_group_comment
;
The symmetry employed for this shelxl refinement is uniquely defined
by the following loop, which should always be used as a source of
symmetry information in preference to the above space-group names.
They are only intended as comments.
;
_shelx_estimated_absorpt_t_min   0.960
_shelx_estimated_absorpt_t_max   0.978
_shelx_hkl_file
;
  -1   0   0 554.238 16.6416   3
  -1   0   0 505.051 16.5288   4
  -1   0   0 546.171 16.6692   1
  -1   0   0 560.704 16.9961   7
   1   0   0 558.286 16.6687   1
   1   0   0 551.144 16.5389   4
   1   0   0 551.116 16.6347   5
   1   0   0 520.867 16.5168   6
   1   0   0 530.344 16.5802   2
  -2   0   0 806.502 25.9917   1
  -2   0   0 806.752 25.7119   6
  -2   0   0 857.846 26.6962   7
  -2   0   0 872.219 26.0240   3
   2   0   0 815.014 25.8568   2
   2   0   0 865.636 25.7695   4
   2   0   0 860.803 25.9630   5
   2   0   0 835.799 25.7480   6
  -3   0   0 37.9431 1.94189   6
  -3   0   0 39.4163 2.34902   3
  -3   0   0 37.1262 3.00965   7
   3   0   0 36.7706 2.05542   2
   3   0   0 38.6032 1.93377   4
   3   0   0 39.2780 1.92692   6
   3   0   0 38.5306 2.23095   5
  -4   0   0 24.9977 3.40443   7
  -4   0   0 25.7144 1.77054   6
  -4   0   0 21.4437 2.26417   3
   4   0   0 21.4213 1.80130   4
   4   0   0 21.9295 2.10568   5
   4   0   0 24.9323 1.71357   6
   4   0   0 24.4988 1.90516   2
  -5   0   0 14.4066 2.38911   3
  -5   0   0 17.6968 1.95428   6
  -5   0   0 20.4801 3.53369   7
   5   0   0 20.9914 2.51706   5
   5   0   0 17.6102 1.94426   6
   5   0   0 19.9955 2.20404   2
  -6   0   0 8.86043 2.57765   7
  -6   0   0 4.71811 2.08337   3
   6   0   0 3.55487 1.56450   2
   6   0   0 1.31130 1.61396   5
   6  -1   0 0.78368 1.30798   2
   6  -1   0 -1.3332 1.38350   5
  -6   1   0 -1.6427 1.17540   6
  -6   1   0 -0.4853 1.60237   3
   5  -1   0 11.3756 2.09002   5
   5  -1   0 12.3506 1.87695   2
  -5   1   0 9.15781 1.50613   6
  -5   1   0 12.3610 2.66638   7
  -5   1   0 9.01499 2.00391   3
   4  -1   0 28.8879 1.83492   6
   4  -1   0 28.7230 1.97931   2
   4  -1   0 27.6860 2.28032   5
   4  -1   0 27.4449 2.08476   4
  -4   1   0 25.7471 1.85599   6
  -4   1   0 26.1803 3.12853   7
  -4   1   0 23.9161 2.37237   3
   3  -1   0 19.2324 1.59152   5
   3  -1   0 19.1131 1.48446   4
   3  -1   0 17.4148 1.25219   6
   3  -1   0 17.9795 1.33930   2
  -3   1   0 17.1686 1.32405   6
  -3   1   0 19.3266 1.74957   3
  -3   1   0 17.3744 2.18119   7
   2  -1   0 -0.1825 0.23312   6
   2  -1   0 0.12435 0.31606   2
   2  -1   0 -0.2251 0.34066   5
   2  -1   0 -0.0614 0.36557   4
  -2   1   0 -1.0813 0.57078   7
  -2   1   0 -0.0763 0.25588   6
  -2   1   0 -0.1903 0.39948   3
   1  -1   0 3224.33 101.107   2
   1  -1   0 3291.02 101.565   5
   1  -1   0 3338.37 101.669   4
  -1   1   0 3376.46 101.289   6
  -1   1   0 3399.30 102.039   7
  -1   1   0 3392.23 101.467   3
   0  -1   0 770.905 22.1798   1
   0  -1   0 694.912 22.0209   2
   0  -1   0 768.121 21.8989   7
   0  -1   0 704.762 21.7752   5
   0  -1   0 692.959 21.8721   4
   0  -1   0 719.129 21.8199   3
   0   1   0 743.021 21.8790   2
   0   1   0 691.147 21.8679   4
   0   1   0 725.756 21.8210   6
   0   1   0 721.294 22.3390   1
   0   1   0 701.243 21.7866   3
   0   1   0 763.767 21.9442   7
   0   1   0 695.843 21.7732   5
  -1  -1   0 115.659 4.26294   1
  -1  -1   0 113.575 3.68665   4
  -1  -1   0 119.604 4.39654   7
  -1  -1   0 115.124 3.79711   3
   1   1   0 109.797 3.74726   6
   1   1   0 114.495 3.85616   2
   1   1   0 115.303 3.82472   5
   1   1   0 112.412 3.68375   4
  -2  -1   0 209.163 7.62113   7
  -2  -1   0 202.746 6.67947   3
  -2  -1   0 194.465 7.04718   1
   2   1   0 192.489 6.35669   4
   2   1   0 200.674 6.66059   5
   2   1   0 187.284 6.42962   6
   2   1   0 190.283 6.62425   2
  -3  -1   0 4.71575 1.13361   1
  -3  -1   0 5.76685 1.75862   7
  -3  -1   0 4.83789 1.03170   3
   3   1   0 5.13713 0.74085   4
   3   1   0 4.92516 0.94998   5
   3   1   0 3.36664 0.65694   6
   3   1   0 5.31387 0.90586   2
  -4  -1   0 28.4673 2.53868   1
  -4  -1   0 26.5989 3.73116   7
  -4  -1   0 23.7610 2.43238   3
  -4  -1   0 26.7159 1.88533   6
   4   1   0 25.3037 1.82314   6
   4   1   0 28.3113 2.12453   2
   4   1   0 29.2114 2.26720   5
  -5  -1   0 -0.6702 1.43186   3
  -5  -1   0 0.39061 0.94248   6
  -5  -1   0 0.48958 2.15172   7
   5   1   0 0.82809 0.84387   6
   5   1   0 0.00208 1.27174   5
   5   1   0 0.11747 1.04291   2
  -6  -1   0 5.74832 2.30352   7
  -6  -1   0 3.32122 1.92882   3
   6   1   0 0.48811 1.63593   5
   6   1   0 3.23346 1.50261   2
   6  -2   0 11.4372 2.37492   5
   6  -2   0 12.2627 2.10349   2
  -6   2   0 9.01279 2.36709   3
  -6   2   0 8.24446 1.69123   6
   5  -2   0 5.32485 1.60266   5
   5  -2   0 6.51714 1.46846   2
  -5   2   0 9.83590 2.35391   7
  -5   2   0 6.93091 1.84909   3
  -5   2   0 6.65470 1.40317   6
   4  -2   0 23.6188 1.83670   2
   4  -2   0 24.1982 2.14308   5
   4  -2   0 24.3124 2.15856   4
  -4   2   0 19.8207 2.69730   7
  -4   2   0 20.1223 2.27273   3
  -4   2   0 25.3389 1.85071   6
   3  -2   0 -0.3657 0.40295   2
   3  -2   0 0.01264 0.58132   5
   3  -2   0 0.37946 0.69541   4
  -3   2   0 -0.1705 0.65282   3
  -3   2   0 -0.0440 0.87424   7
  -3   2   0 -0.8144 0.39016   6
   2  -2   0 56.8063 2.32730   2
   2  -2   0 59.4106 2.57071   4
   2  -2   0 56.6440 2.45812   5
  -2   2   0 57.9896 2.58037   3
  -2   2   0 59.0930 2.78240   7
  -2   2   0 58.3299 2.38359   6
   1  -2   0 23.4801 1.26138   1
   1  -2   0 20.7162 0.94775   2
   1  -2   0 20.4703 1.05128   5
   1  -2   0 21.3132 1.25170   4
  -1   2   0 20.1709 1.00662   6
  -1   2   0 18.0219 1.03700   7
  -1   2   0 19.5659 1.11432   3
   0  -2   0 471.422 15.0137   5
   0  -2   0 514.012 15.2577   7
   0  -2   0 503.726 15.2331   4
   0  -2   0 522.226 15.8218   1
   0   2   0 458.450 15.0033   5
   0   2   0 505.034 15.1143   6
   0   2   0 496.242 15.2321   7
   0   2   0 503.879 15.0989   2
   0   2   0 466.479 15.0289   3
  -1  -2   0 106.343 4.37511   1
  -1  -2   0 97.5112 3.39315   3
  -1  -2   0 109.572 4.23905   7
  -1  -2   0 95.4990 3.35432   4
   1   2   0 101.213 3.42336   3
   1   2   0 95.2734 3.42746   6
   1   2   0 101.800 3.46405   5
   1   2   0 98.4266 3.54048   2
  -2  -2   0 7.13548 0.84582   3
  -2  -2   0 6.15861 1.41848   7
  -2  -2   0 6.71779 1.39323   1
   2   2   0 5.76134 0.53585   4
   2   2   0 7.17327 0.80427   2
   2   2   0 6.51655 0.66181   6
   2   2   0 6.43470 0.75671   5
  -3  -2   0 59.3468 2.90083   3
  -3  -2   0 56.2672 3.42402   1
  -3  -2   0 53.2113 3.97027   7
   3   2   0 53.6821 2.74156   2
   3   2   0 59.5878 2.81200   5
   3   2   0 53.7672 2.47966   6
   3   2   0 54.5642 2.25520   4
  -4  -2   0 -0.9465 0.61356   6
  -4  -2   0 0.10799 1.00547   3
  -4  -2   0 -1.9852 1.79491   7
  -4  -2   0 -0.9242 1.03917   1
   4   2   0 0.70400 0.81709   2
   4   2   0 0.18948 0.59184   6
   4   2   0 0.68600 0.93377   5
  -5  -2   0 12.2608 1.67282   6
  -5  -2   0 13.8478 3.73425   7
  -5  -2   0 11.2763 2.33692   3
   5   2   0 15.9171 2.27664   2
   5   2   0 11.5356 1.54935   6
   5   2   0 9.93898 2.01981   5
  -6  -2   0 12.2429 3.34356   7
  -6  -2   0 4.03676 2.08518   3
   6   2   0 5.15772 1.84450   2
   6   2   0 6.00268 2.00217   5
   6  -3   0 44.1643 3.37312   2
   6  -3   0 39.6367 3.67202   5
  -6   3   0 38.0762 3.21159   6
  -6   3   0 35.4688 4.05800   3
   5  -3   0 0.56628 0.97024   2
   5  -3   0 -2.0748 1.10497   5
  -5   3   0 -1.2953 1.33024   3
  -5   3   0 -1.1565 1.03565   6
  -5   3   0 1.79090 1.54237   7
   4  -3   0 1.66070 1.00797   5
   4  -3   0 1.06256 0.73131   2
   4  -3   0 2.24094 1.28863   4
  -4   3   0 1.38686 0.76163   6
  -4   3   0 0.68811 1.11496   3
  -4   3   0 1.34582 1.30563   7
   3  -3   0 126.570 4.87478   5
   3  -3   0 121.135 4.95053   4
   3  -3   0 124.607 4.60368   2
  -3   3   0 115.844 5.20123   7
  -3   3   0 125.119 4.70797   6
  -3   3   0 114.272 4.95792   3
   2  -3   0 18.2361 1.47940   4
   2  -3   0 15.9228 1.19600   5
   2  -3   0 16.0505 1.03213   2
   2  -3   0 16.4499 1.26900   1
  -2   3   0 16.6010 1.14158   6
  -2   3   0 15.8710 1.29459   7
  -2   3   0 15.3859 1.31452   3
   1  -3   0 147.796 4.95590   5
   1  -3   0 142.240 5.22794   4
   1  -3   0 147.841 4.87463   2
   1  -3   0 155.573 5.57902   1
  -1   3   0 151.886 5.00463   6
  -1   3   0 147.860 4.87612   2
  -1   3   0 139.404 4.97838   3
   0  -3   0 737.798 22.6383   1
   0  -3   0 732.211 21.8004   7
   0  -3   0 686.583 21.7233   4
   0  -3   0 672.068 21.4173   5
   0   3   0 716.173 21.4472   5
   0   3   0 712.966 21.5716   6
   0   3   0 658.957 21.4289   3
   0   3   0 709.813 21.5498   2
  -1  -3   0 2.38958 1.02629   7
  -1  -3   0 1.12544 1.06140   1
  -1  -3   0 0.81976 0.37999   4
  -1  -3   0 1.06399 0.31299   3
   1   3   0 1.48888 0.37661   6
   1   3   0 2.06352 0.49628   2
   1   3   0 1.59984 0.39351   3
   1   3   0 1.61404 0.36531   5
  -2  -3   0 1.92972 0.59266   3
  -2  -3   0 1.92733 1.28658   1
  -2  -3   0 2.02679 0.47859   4
  -2  -3   0 1.56443 1.33258   7
   2   3   0 2.35538 0.65582   2
   2   3   0 2.17135 0.43281   4
   2   3   0 2.07964 0.50115   6
   2   3   0 2.74092 0.60266   5
  -3  -3   0 6.63906 2.12299   7
  -3  -3   0 8.13018 1.22865   3
  -3  -3   0 9.10125 1.99088   1
   3   3   0 7.29775 0.70442   4
   3   3   0 7.86332 1.22354   2
   3   3   0 7.35723 1.14638   5
   3   3   0 7.57025 0.95315   6
  -4  -3   0 71.8699 5.74444   7
  -4  -3   0 80.1950 4.21738   3
  -4  -3   0 85.5912 5.10309   1
   4   3   0 81.5928 4.09938   2
   4   3   0 85.6013 4.12894   5
   4   3   0 83.4021 3.71110   6
  -5  -3   0 12.6013 1.71082   6
  -5  -3   0 9.50891 2.22711   3
  -5  -3   0 11.1461 3.45975   7
   5   3   0 9.00255 1.94221   5
   5   3   0 10.9853 1.58062   6
   5   3   0 15.3616 2.18181   2
  -6  -3   0 11.4541 3.50781   7
  -6  -3   0 5.82662 2.29997   3
   6   3   0 5.62872 1.90342   2
   6   3   0 3.47333 1.93511   5
   6  -4   0 10.4358 2.39550   5
   6  -4   0 13.2293 2.09081   2
  -6   4   0 8.30825 1.88311   6
  -6   4   0 8.67518 2.38015   3
   5  -4   0 5.68626 2.03417   4
   5  -4   0 10.7123 1.67450   2
   5  -4   0 9.10518 1.95695   5
  -5   4   0 7.00445 1.95464   3
  -5   4   0 9.82047 1.70938   6
   4  -4   0 104.032 5.18371   4
   4  -4   0 112.067 4.50329   2
   4  -4   0 99.4822 4.79357   5
  -4   4   0 101.175 5.07797   3
  -4   4   0 106.799 5.32562   7
  -4   4   0 110.276 4.65974   6
   3  -4   0 2.57193 1.18000   4
   3  -4   0 1.69542 0.60858   2
   3  -4   0 1.60684 0.79505   5
  -3   4   0 0.28558 0.72821   7
  -3   4   0 1.99748 0.65325   6
  -3   4   0 1.19476 0.85725   3
   2  -4   0 1.01026 0.87020   1
   2  -4   0 -0.0579 0.27482   2
   2  -4   0 -0.1832 0.39705   5
   2  -4   0 -0.2402 0.73923   4
  -2   4   0 -0.2177 0.49904   3
  -2   4   0 -0.4079 0.35238   6
  -2   4   0 0.06974 0.35706   2
   1  -4   0 19.7761 1.52355   4
   1  -4   0 23.7490 2.03698   1
   1  -4   0 18.5690 1.10523   5
  -1   4   0 18.9383 1.10339   2
  -1   4   0 19.2279 1.19360   6
  -1   4   0 20.3078 1.19656   3
   0  -4   0 88.9848 3.53597   7
   0  -4   0 83.4093 3.44968   4
   0  -4   0 92.1578 3.12069   5
   0  -4   0 92.4803 4.49759   1
   0   4   0 87.3098 3.10168   5
   0   4   0 84.8739 3.10892   3
   0   4   0 87.3459 3.24749   2
   0   4   0 90.5962 3.28795   6
  -1  -4   0 186.901 6.87388   7
  -1  -4   0 163.865 5.87137   4
  -1  -4   0 178.739 7.39974   1
  -1  -4   0 175.907 5.72647   3
   1   4   0 168.645 5.90148   6
   1   4   0 176.000 5.82128   5
   1   4   0 169.561 5.75525   3
   1   4   0 171.403 6.01078   2
  -2  -4   0 212.487 7.28558   3
  -2  -4   0 212.872 8.79182   7
  -2  -4   0 211.335 8.92354   1
  -2  -4   0 220.790 7.19117   4
   2   4   0 218.068 7.37155   6
   2   4   0 216.084 7.36494   5
   2   4   0 218.301 7.56950   2
  -3  -4   0 23.8892 1.94132   3
  -3  -4   0 22.8702 3.38547   7
  -3  -4   0 20.9011 3.03565   1
   3   4   0 21.2728 1.76677   5
   3   4   0 23.9202 1.60718   4
   3   4   0 23.3486 1.61004   6
   3   4   0 22.1941 1.85825   2
  -4  -4   0 34.5341 2.89714   3
  -4  -4   0 26.0869 4.28122   7
  -4  -4   0 39.4665 3.93227   1
   4   4   0 37.0836 2.40807   6
   4   4   0 33.3512 2.71674   5
   4   4   0 35.5245 2.87288   2
  -5  -4   0 52.5672 5.67283   7
  -5  -4   0 46.8864 3.83447   3
   5   4   0 48.4118 3.52566   5
   5   4   0 54.0722 3.33186   6
   5   4   0 50.5140 3.65344   2
  -6  -4   0 1.03672 1.83576   3
  -6  -4   0 9.10141 3.34789   7
   6   4   0 4.89186 2.07984   2
   6   4   0 0.59139 1.74032   5
   6  -5   0 5.61816 1.73038   2
   6  -5   0 3.43761 1.72645   5
  -6   5   0 3.77430 1.57135   6
  -6   5   0 4.77638 2.07720   3
   5  -5   0 6.42429 1.57750   2
   5  -5   0 4.28493 2.22106   4
   5  -5   0 6.83057 1.83378   5
  -5   5   0 7.43922 1.58726   6
  -5   5   0 4.27392 1.81230   3
   4  -5   0 119.725 5.29652   5
   4  -5   0 124.716 4.97822   2
   4  -5   0 117.300 5.80672   4
  -4   5   0 114.201 5.56862   7
  -4   5   0 122.542 5.18964   6
  -4   5   0 115.284 5.61740   3
   3  -5   0 113.433 4.71937   5
   3  -5   0 119.466 5.31314   4
   3  -5   0 121.397 4.51452   2
   3  -5   0 113.151 5.17426   1
  -3   5   0 110.742 4.64001   6
  -3   5   0 112.981 4.44672   2
  -3   5   0 109.058 4.69669   7
  -3   5   0 116.722 4.99183   3
   2  -5   0 11.9605 2.09409   1
   2  -5   0 12.9256 1.04010   2
   2  -5   0 11.1676 1.17179   5
   2  -5   0 12.2669 1.72096   4
  -2   5   0 11.7320 1.06450   2
  -2   5   0 14.9111 1.35928   3
  -2   5   0 16.2091 1.31576   6
   1  -5   0 133.966 4.76592   5
   1  -5   0 124.225 5.24940   4
   1  -5   0 142.033 6.21323   1
  -1   5   0 138.487 4.86143   3
  -1   5   0 139.047 4.82436   2
  -1   5   0 137.314 4.94655   6
   0  -5   0 10.8419 1.31191   7
   0  -5   0 10.1304 0.77188   5
   0  -5   0 10.0702 1.22400   4
   0  -5   0 11.7201 2.20367   1
   0   5   0 10.1695 0.85466   3
   0   5   0 8.95292 0.97666   6
   0   5   0 9.32540 0.73367   5
   0   5   0 9.28684 0.96059   2
  -1  -5   0 107.032 5.73299   1
  -1  -5   0 112.704 5.05937   7
  -1  -5   0 105.245 3.76739   3
  -1  -5   0 103.092 4.05976   4
   1   5   0 103.182 3.81161   3
   1   5   0 105.869 4.03032   6
   1   5   0 105.468 4.11748   2
   1   5   0 105.930 3.87599   5
  -2  -5   0 82.7050 4.95257   7
  -2  -5   0 81.3641 3.30820   4
  -2  -5   0 81.9461 3.35637   3
  -2  -5   0 88.7947 5.32891   1
   2   5   0 84.2835 3.69611   2
   2   5   0 89.9950 3.49460   5
   2   5   0 78.7201 3.46652   6
  -3  -5   0 1.58007 2.08366   1
  -3  -5   0 1.93551 2.05208   7
  -3  -5   0 0.61509 0.82111   3
   3   5   0 1.47745 0.70504   6
   3   5   0 2.11028 0.83988   5
   3   5   0 0.94163 0.77600   2
  -4  -5   0 -0.7048 2.25742   7
  -4  -5   0 2.61824 1.93545   1
  -4  -5   0 0.37818 1.13494   3
   4   5   0 -0.0074 1.07911   2
   4   5   0 -0.8238 0.97741   5
   4   5   0 0.97155 0.82381   6
  -5  -5   0 6.64359 2.98775   7
  -5  -5   0 -0.1652 1.36476   3
   5   5   0 2.28148 1.56667   2
   5   5   0 0.18909 1.37953   5
   6  -6   0 0.54967 1.59778   5
  -6   6   0 1.53925 1.92179   3
  -6   6   0 1.98528 1.48524   6
   5  -6   0 9.71048 1.68207   2
   5  -6   0 8.77534 2.64408   4
   5  -6   0 8.72892 2.00361   5
  -5   6   0 9.43856 2.15152   3
  -5   6   0 14.1521 1.84897   2
  -5   6   0 14.1574 2.14430   6
   4  -6   0 2.24300 1.71930   4
   4  -6   0 2.09032 0.96357   2
   4  -6   0 3.59529 1.29124   5
  -4   6   0 1.45019 1.39114   3
  -4   6   0 4.05988 1.09836   2
  -4   6   0 1.11432 1.05624   6
   3  -6   0 227.817 7.84527   2
   3  -6   0 218.399 8.10300   5
   3  -6   0 229.500 8.80828   4
   3  -6   0 219.631 8.96281   1
  -3   6   0 223.063 8.35738   3
  -3   6   0 224.622 8.13354   6
  -3   6   0 220.542 7.81113   2
   2  -6   0 92.5289 3.83808   5
   2  -6   0 99.7596 4.57244   4
   2  -6   0 95.4378 5.23904   1
  -2   6   0 91.3337 3.95180   6
  -2   6   0 91.4070 3.95461   3
  -2   6   0 93.8443 3.73079   2
   1  -6   0 113.144 4.84722   4
   1  -6   0 116.588 5.92712   1
   1  -6   0 105.352 4.09541   5
  -1   6   0 115.112 4.24221   2
  -1   6   0 113.379 4.23327   3
  -1   6   0 108.181 4.35608   6
   0  -6   0 226.382 8.14529   7
   0  -6   0 216.677 7.97137   4
   0  -6   0 222.372 7.40851   5
   0  -6   0 229.899 9.60736   1
   0   6   0 220.801 7.42416   3
   0   6   0 226.818 7.70746   6
   0   6   0 218.882 7.39893   5
   0   6   0 226.336 7.68508   2
  -1  -6   0 7.57165 1.85667   7
  -1  -6   0 7.17366 1.10971   4
  -1  -6   0 8.17792 2.48969   1
   1   6   0 8.07449 0.95302   3
   1   6   0 7.71871 0.87358   5
   1   6   0 6.30609 0.97401   2
   1   6   0 6.98486 0.99904   6
  -2  -6   0 29.3028 1.75104   3
  -2  -6   0 28.8845 1.78030   4
  -2  -6   0 28.5781 3.85396   1
  -2  -6   0 28.1927 3.47714   7
   2   6   0 26.3298 1.73099   5
   2   6   0 26.5687 2.02537   2
   2   6   0 31.2678 1.96327   6
  -3  -6   0 37.1377 4.57502   1
  -3  -6   0 32.4904 4.34568   7
  -3  -6   0 39.8474 2.57225   3
   3   6   0 43.5603 2.57691   6
   3   6   0 39.6775 2.43644   5
   3   6   0 40.5991 2.74993   2
  -4  -6   0 5.15023 1.49927   3
  -4  -6   0 5.02758 2.66811   7
   4   6   0 3.52860 1.10310   6
   4   6   0 3.64852 1.30766   5
   4   6   0 4.32495 1.60193   2
  -5  -6   0 5.21727 2.06351   3
  -5  -6   0 11.0929 3.58926   7
   5   6   0 3.96529 1.73073   2
   5   6   0 1.18680 1.46543   5
   6  -7   0 -0.3288 1.57813   5
   6  -7   0 -4.0330 2.10748   4
  -6   7   0 0.91256 1.46248   6
  -6   7   0 4.96253 2.17017   3
   5  -7   0 -0.8097 1.00076   2
   5  -7   0 -3.8900 1.72402   4
   5  -7   0 -0.3737 1.28871   5
  -5   7   0 -0.8029 1.00723   2
  -5   7   0 0.96614 1.27530   6
  -5   7   0 2.71994 1.52273   3
   4  -7   0 -0.6151 1.61053   4
   4  -7   0 -0.3940 0.78142   2
   4  -7   0 0.93017 1.08043   5
  -4   7   0 -0.9976 0.82557   2
  -4   7   0 -0.1427 1.04491   6
  -4   7   0 0.50806 1.30894   3
   3  -7   0 2.77830 1.67257   4
   3  -7   0 0.90442 2.06467   1
   3  -7   0 0.25520 0.81180   5
  -3   7   0 1.11767 0.89255   6
  -3   7   0 1.40516 0.71761   2
  -3   7   0 -0.8685 0.90317   3
   2  -7   0 28.0258 2.85520   4
   2  -7   0 32.3100 3.76767   1
   2  -7   0 30.6480 1.94043   5
  -2   7   0 28.8105 2.07575   6
  -2   7   0 28.7644 2.03773   3
  -2   7   0 26.8216 1.82784   2
   1  -7   0 75.1052 3.42402   7
   1  -7   0 75.5195 3.95621   4
   1  -7   0 79.8160 3.22245   5
   1  -7   0 80.3954 5.31137   1
  -1   7   0 75.7260 3.48162   6
  -1   7   0 81.5174 3.37945   2
  -1   7   0 79.4264 3.31619   3
   0  -7   0 2.45551 2.05439   1
   0  -7   0 1.12275 1.13471   7
   0  -7   0 0.24217 0.90588   4
   0  -7   0 0.48472 0.45061   5
   0   7   0 0.11240 0.51009   3
   0   7   0 0.27526 0.58715   6
   0   7   0 0.76891 0.42828   5
   0   7   0 0.28988 0.58488   2
  -1  -7   0 63.3094 5.25312   1
  -1  -7   0 63.6848 3.21246   4
  -1  -7   0 65.7807 4.29459   7
   1   7   0 62.7758 2.78591   5
   1   7   0 63.6818 3.04118   6
   1   7   0 63.7402 2.77620   3
   1   7   0 65.4529 3.15912   2
  -2  -7   0 52.0508 4.62815   7
  -2  -7   0 49.4154 2.50882   3
  -2  -7   0 54.2501 2.73794   4
  -2  -7   0 51.0416 5.22979   1
   2   7   0 55.7560 2.87861   6
   2   7   0 48.6150 2.56287   5
   2   7   0 47.9823 2.60206   3
   2   7   0 50.2441 2.96283   2
  -3  -7   0 1.20126 2.46143   7
  -3  -7   0 -0.3461 0.86437   3
  -3  -7   0 2.05075 2.41464   1
   3   7   0 1.46731 0.85348   5
   3   7   0 0.56881 0.81845   6
   3   7   0 -0.1785 0.99009   2
  -4  -7   0 0.66793 2.48581   7
   4   7   0 0.42620 1.12696   5
   4   7   0 1.69611 1.02141   6
   4   7   0 0.60105 1.35297   2
  -5  -7   0 2.27874 2.73617   7
   5   7   0 1.12556 1.75003   2
   6  -8   0 2.34626 1.80562   5
   6  -8   0 -1.9215 2.23473   4
  -6   8   0 0.77457 1.49994   6
   5  -8   0 1.05320 1.44014   5
   5  -8   0 2.71014 1.39446   2
   5  -8   0 -1.6966 1.98224   4
  -5   8   0 2.56284 1.50093   6
  -5   8   0 4.13871 1.76064   3
   4  -8   0 8.71866 2.49453   4
   4  -8   0 10.3585 1.60106   2
   4  -8   0 8.87164 1.74407   5
  -4   8   0 6.32848 1.74386   3
  -4   8   0 8.50564 1.65924   6
  -4   8   0 9.80511 1.53698   2
   3  -8   0 36.1710 2.48868   5
   3  -8   0 29.7483 4.16135   1
   3  -8   0 37.4768 3.54468   4
  -3   8   0 34.9589 2.71398   6
  -3   8   0 34.1634 2.70585   3
  -3   8   0 35.7375 2.34339   2
   2  -8   0 6.22126 1.11644   5
   2  -8   0 8.58345 2.94209   1
   2  -8   0 8.50422 2.08402   4
  -2   8   0 4.35301 1.08649   6
  -2   8   0 5.16825 1.04057   2
  -2   8   0 5.32662 1.19079   3
   1  -8   0 17.7982 1.38720   5
   1  -8   0 17.7998 2.34222   4
   1  -8   0 20.9203 3.81003   1
   1  -8   0 15.9242 1.88869   7
  -1   8   0 20.8362 1.57083   3
  -1   8   0 19.3796 1.58705   2
  -1   8   0 18.9929 1.75378   6
   0  -8   0 -1.0022 1.03843   4
   0  -8   0 0.64727 0.50202   5
   0  -8   0 -0.8345 2.32834   1
   0  -8   0 1.11132 1.44291   7
   0   8   0 -0.3328 0.56758   3
   0   8   0 0.40488 0.64938   2
   0   8   0 0.49457 0.48636   5
   0   8   0 0.39003 0.64790   6
  -1  -8   0 161.511 7.74688   7
  -1  -8   0 154.155 8.91808   1
  -1  -8   0 168.559 6.51724   4
   1   8   0 155.770 6.32711   2
   1   8   0 171.686 6.35232   6
   1   8   0 163.099 5.92811   5
   1   8   0 161.516 5.85882   3
  -2  -8   0 160.863 6.74188   4
  -2  -8   0 133.472 8.37235   1
  -2  -8   0 137.080 7.69094   7
  -2  -8   0 139.624 5.36275   3
   2   8   0 150.409 5.88923   6
   2   8   0 130.560 5.38328   3
   2   8   0 137.064 5.47862   5
   2   8   0 145.501 6.06930   2
  -3  -8   0 2.02301 2.64588   7
  -3  -8   0 3.03522 2.42634   1
   3   8   0 -0.4581 1.21683   2
   3   8   0 -0.5323 0.83308   6
  -4  -8   0 6.34057 3.19262   7
   4   8   0 4.12717 1.33235   6
   4   8   0 3.20048 1.65197   2
   5  -9   0 -0.6623 2.03241   4
   5  -9   0 1.37698 1.32068   5
  -5   9   0 1.46994 1.46913   6
  -5   9   0 1.52357 1.65906   3
   4  -9   0 0.77058 1.08958   5
   4  -9   0 -0.6802 1.79945   4
  -4   9   0 -0.9612 1.06348   6
  -4   9   0 -0.0228 1.26514   3
  -4   9   0 -0.5496 0.89204   2
   3  -9   0 -0.0672 1.70675   4
   3  -9   0 1.27425 0.95236   5
   3  -9   0 -1.5354 2.46476   1
  -3   9   0 -0.5026 1.04252   6
  -3   9   0 0.12079 1.11151   3
  -3   9   0 0.48246 0.91898   2
   2  -9   0 0.94380 2.72505   1
   2  -9   0 0.70996 0.75014   5
   2  -9   0 1.36428 1.71207   4
  -2   9   0 -0.4527 0.88113   6
  -2   9   0 0.54798 0.91469   3
  -2   9   0 1.34952 0.84412   2
   1  -9   0 0.53067 0.59527   5
   1  -9   0 -1.2579 1.35481   4
   1  -9   0 -0.8174 2.58475   1
  -1   9   0 1.19876 0.91412   6
  -1   9   0 0.20644 0.71398   3
  -1   9   0 0.24970 0.75964   2
   0  -9   0 -2.4769 1.24403   4
   0  -9   0 -3.0001 2.65983   1
   0  -9   0 -0.9116 1.78269   7
   0   9   0 0.24082 0.85675   2
   0   9   0 1.21259 0.75593   3
   0   9   0 0.20656 0.61697   5
   0   9   0 0.79078 0.89599   6
  -1  -9   0 411.395 16.2599   7
  -1  -9   0 400.392 17.7352   1
  -1  -9   0 446.155 15.0559   4
   1   9   0 472.483 14.9745   5
   1   9   0 454.793 14.8790   6
   1   9   0 445.615 14.9589   2
  -2  -9   0 6.25817 3.16027   1
  -2  -9   0 2.48677 2.61652   7
   2   9   0 3.30534 1.46254   2
   2   9   0 3.92587 1.35561   6
  -3  -9   0 27.4178 4.45586   1
  -3  -9   0 15.7070 3.80444   7
   3   9   0 16.2494 2.44923   2
   3   9   0 18.9351 2.18754   6
  -4  -9   0 1.58427 3.08468   7
   5 -10   0 0.32897 2.26754   4
   5 -10   0 3.88577 1.65760   5
  -5  10   0 1.23692 1.50538   6
  -5  10   0 3.18811 1.82858   3
   4 -10   0 1.06380 1.15789   5
   4 -10   0 -0.8945 2.01496   4
  -4  10   0 -0.7420 1.29387   3
  -4  10   0 0.85687 1.40259   6
   3 -10   0 1.78341 1.14709   5
   3 -10   0 -3.9121 2.72574   1
   3 -10   0 0.50924 2.12485   4
  -3  10   0 2.88432 1.48063   6
  -3  10   0 2.75952 1.09910   2
  -3  10   0 1.48778 1.27233   3
   2 -10   0 86.5920 3.99539   5
   2 -10   0 74.4031 6.60317   1
   2 -10   0 87.5872 5.25282   4
  -2  10   0 82.1812 4.08225   2
  -2  10   0 88.9131 4.21507   3
  -2  10   0 87.1513 4.54682   6
   1 -10   0 11.7650 4.02411   1
   1 -10   0 17.9930 2.71574   4
   1 -10   0 14.8464 1.54487   5
  -1  10   0 14.6211 1.71837   5
  -1  10   0 13.8593 1.95716   6
  -1  10   0 15.0840 1.75639   3
  -1  10   0 14.1915 1.80742   2
   0 -10   0 209.704 9.59245   7
   0 -10   0 247.664 9.37282   4
   0 -10   0 213.394 11.7484   1
   0  10   0 242.990 8.88219   6
   0  10   0 249.836 8.85220   2
  -1 -10   0 1.40562 2.91011   1
  -1 -10   0 1.37962 1.23396   4
  -1 -10   0 -1.1205 2.31898   7
   1  10   0 0.66591 1.11128   6
   1  10   0 0.52317 1.16985   2
  -2 -10   0 -0.6273 2.67599   7
  -2 -10   0 3.42754 3.10942   1
   2  10   0 1.48221 1.44237   2
   2  10   0 1.53809 1.26721   6
  -3 -10   0 7.27591 3.03145   1
  -3 -10   0 0.05378 2.82829   7
   3  10   0 -0.9932 1.35262   2
   3  10   0 1.65794 1.23203   6
   4 -11   0 2.90902 1.40697   5
   4 -11   0 3.56785 2.42349   4
  -4  11   0 1.26473 1.54221   6
  -4  11   0 3.08859 1.73820   3
   3 -11   0 1.92422 2.05240   4
   3 -11   0 0.09808 3.50567   1
   3 -11   0 2.01184 1.16662   5
  -3  11   0 0.30311 1.27767   6
  -3  11   0 2.52284 1.22211   2
  -3  11   0 1.86077 1.32527   3
   2 -11   0 0.09772 1.18747   5
   2 -11   0 0.78634 1.86265   4
   2 -11   0 -4.3965 2.98758   1
  -2  11   0 0.25621 1.30181   6
  -2  11   0 -0.7720 0.91532   2
   1 -11   0 -1.8365 2.84071   1
   1 -11   0 0.94013 1.55109   4
  -1  11   0 0.24619 1.04626   2
  -1  11   0 1.83537 1.21790   6
   0 -11   0 2.17170 1.52781   4
   0 -11   0 3.52453 3.41738   1
   0  11   0 0.05158 1.07100   6
   0  11   0 -0.0337 1.10073   2
  -1 -11   0 3.83054 1.45693   4
  -1 -11   0 2.84657 3.25847   1
  -1 -11   0 -1.4700 2.49260   7
   1  11   0 1.27913 1.25107   6
   1  11   0 1.16607 1.33901   2
  -2 -11   0 10.4995 3.87647   1
  -2 -11   0 6.44836 3.34052   7
   2  11   0 8.43350 1.78272   6
   2  11   0 13.7392 2.21265   2
  -3 -11   0 -0.3215 2.73853   7
  -3 -11   0 5.80549 2.88939   1
   3  11   0 -0.7116 1.52072   2
   3  11   0 -0.9985 1.17800   6
   4 -12   0 -1.0328 2.21767   4
  -4  12   0 0.51965 1.62768   6
   3 -12   0 20.4921 3.44922   4
  -3  12   0 19.4238 2.75524   6
   2 -12   0 5.48137 2.22506   4
   2 -12   0 4.16933 3.74642   1
  -2  12   0 5.49210 1.76798   6
  -2  12   0 3.63446 1.44739   2
   1 -12   0 1.77898 1.59113   4
   1 -12   0 0.93053 3.53455   1
  -1  12   0 1.83737 1.28561   2
  -1  12   0 2.80470 1.41177   6
   0 -12   0 1.37731 3.33402   1
   0 -12   0 1.01095 1.39885   4
   0  12   0 -0.8210 1.14276   2
   0  12   0 -0.7926 1.22051   6
  -1 -12   0 11.3347 4.12949   1
   1  12   0 7.13215 1.89618   2
   1  12   0 8.75649 1.87872   6
  -2 -12   0 1.21548 2.99848   7
  -2 -12   0 3.86506 3.61688   1
   2  12   0 1.59788 1.61426   2
   2  12   0 0.84388 1.42795   6
   3 -13   0 7.16274 2.69334   4
  -3  13   0 1.49844 1.72371   6
   2 -13   0 14.2041 2.82925   4
   2 -13   0 9.11961 4.25286   1
  -2  13   0 10.3385 2.16690   6
  -2  13   0 8.88211 1.96082   2
   1 -13   0 5.44254 1.97123   4
   1 -13   0 3.13989 3.77974   1
  -1  13   0 3.68541 1.70183   6
  -1  13   0 3.54071 1.60162   2
   0 -13   0 2.81195 1.66177   4
   0 -13   0 3.05097 3.44048   1
   0  13   0 1.84024 1.54397   2
   0  13   0 0.94153 1.44259   6
  -1 -13   0 0.54987 3.37341   1
   1  13   0 0.27373 1.51862   2
   1  13   0 1.10033 1.46983   6
   2 -14   0 2.31249 3.52985   1
   1 -14   0 1.15583 1.77773   4
   1 -14   0 3.15412 3.73946   1
  -1  14   0 0.22283 1.65223   6
  -1  14   0 0.34887 1.55043   2
   0 -14   0 1.37540 3.71867   1
   0 -14   1 8.32973 4.29516   1
  -1  14  -1 2.67645 1.77224   6
  -1  14  -1 2.02329 1.66895   2
   1 -14   1 5.00050 3.68643   1
   1 -14   1 4.66933 2.08318   4
   2 -14   1 4.70675 3.32775   1
   1  13  -1 2.32140 1.54134   6
   1  13  -1 0.47651 1.57192   2
  -1 -13   1 3.00936 3.54710   1
   0  13  -1 -2.1507 1.25130   6
   0  13  -1 -0.8305 1.36529   2
   0 -13   1 1.70449 3.29065   1
   0 -13   1 4.67007 1.60275   4
  -1  13  -1 4.94365 1.69139   6
  -1  13  -1 6.58383 1.83537   2
   1 -13   1 7.54402 3.66713   1
   1 -13   1 6.99019 2.09087   4
  -2  13  -1 3.95371 1.65980   2
  -2  13  -1 1.31452 1.65956   6
   2 -13   1 5.12190 2.20547   4
   2 -13   1 8.33083 3.69501   1
  -3  13  -1 1.26446 1.80419   6
   3 -13   1 2.83309 2.24942   4
   2  12  -1 3.62355 1.71524   2
   2  12  -1 1.28374 1.38937   6
  -2 -12   1 7.33735 3.65773   1
   1  12  -1 -1.1766 1.10442   6
   1  12  -1 -0.8528 1.31215   2
  -1 -12   1 5.66192 3.58070   1
   0  12  -1 7.57347 1.77325   2
   0  12  -1 6.71125 1.74481   6
   0 -12   1 8.95101 2.05100   4
   0 -12   1 5.73909 3.47057   1
  -1  12  -1 5.88382 1.63821   2
  -1  12  -1 6.20948 1.58893   6
   1 -12   1 2.96626 1.75870   4
   1 -12   1 7.38194 3.63022   1
  -2  12  -1 19.4213 2.47791   6
  -2  12  -1 17.7381 2.35521   2
   2 -12   1 14.4958 4.21030   1
   2 -12   1 18.2321 3.00738   4
  -3  12  -1 11.1547 2.00614   2
  -3  12  -1 13.3172 2.28788   6
   3 -12   1 16.8727 3.09711   4
   3 -12   1 13.4886 2.12483   5
  -4  12  -1 0.18024 1.76892   6
   4 -12   1 5.67884 2.59014   4
   4 -12   1 3.24820 1.41280   5
   3  11  -1 3.46131 1.78367   2
  -3 -11   1 3.59353 2.93289   7
  -3 -11   1 9.21654 3.03844   1
   2  11  -1 -0.9119 1.16204   6
   2  11  -1 -0.9857 1.35282   2
  -2 -11   1 0.35287 2.41548   7
  -2 -11   1 5.97662 3.36959   1
   1  11  -1 39.7626 3.41906   2
   1  11  -1 50.1618 3.47910   6
  -1 -11   1 43.6236 6.64842   7
  -1 -11   1 45.2582 5.94860   1
  -1 -11   1 55.5630 3.72415   4
   0  11  -1 1.35603 1.20126   6
   0  11  -1 -0.2069 1.12487   2
   0 -11   1 1.91138 1.41277   4
   0 -11   1 3.47166 3.01067   1
  -1  11  -1 0.79509 1.32168   5
  -1  11  -1 0.63686 1.14115   2
  -1  11  -1 1.10744 1.23713   6
   1 -11   1 0.02089 0.89837   5
   1 -11   1 -0.0220 2.87856   1
   1 -11   1 0.07241 1.47498   4
  -2  11  -1 32.5660 3.09984   6
  -2  11  -1 38.7979 2.88880   2
   2 -11   1 38.0926 2.69281   5
   2 -11   1 37.5662 3.75290   4
   2 -11   1 31.3893 5.14989   1
  -3  11  -1 6.30155 1.80492   6
  -3  11  -1 8.52482 1.68394   2
   3 -11   1 7.90925 1.61214   5
   3 -11   1 6.82304 2.47137   4
  -4  11  -1 6.09739 1.85362   6
  -4  11  -1 6.97428 1.89568   3
  -4  11  -1 8.08814 1.99008   2
   4 -11   1 7.77444 2.67533   4
   4 -11   1 5.98068 1.65566   5
   3  10  -1 1.75683 1.63817   2
   3  10  -1 1.31930 1.24801   6
  -3 -10   1 7.48856 2.85065   1
  -3 -10   1 2.88210 2.70200   7
   2  10  -1 33.8478 3.19223   2
   2  10  -1 28.6054 2.74715   6
  -2 -10   1 30.7621 4.46936   7
  -2 -10   1 36.8361 5.26046   1
   1  10  -1 82.9058 4.19706   6
   1  10  -1 79.5502 4.37100   2
  -1 -10   1 73.2871 6.63604   1
  -1 -10   1 78.0095 4.37993   4
  -1 -10   1 67.3344 5.42360   7
   0  10  -1 17.4404 1.76963   5
   0  10  -1 19.3283 2.23785   2
   0  10  -1 15.3943 2.02625   6
   0 -10   1 14.4100 2.33301   4
   0 -10   1 13.1112 3.99557   1
  -1  10  -1 2.39779 1.24605   6
  -1  10  -1 2.44968 1.14174   2
  -1  10  -1 1.64569 0.98075   5
   1 -10   1 3.77681 1.06096   5
   1 -10   1 2.60014 1.68980   4
   1 -10   1 2.02083 3.14751   1
  -2  10  -1 25.6810 2.27139   3
  -2  10  -1 28.5095 2.47092   2
  -2  10  -1 28.0841 2.80120   6
   2 -10   1 25.8829 4.62803   1
   2 -10   1 30.8919 2.28743   5
   2 -10   1 25.5876 3.15679   4
  -3  10  -1 47.6471 3.13376   2
  -3  10  -1 46.3312 3.18484   3
  -3  10  -1 42.3333 3.33112   6
   3 -10   1 44.5539 5.83708   1
   3 -10   1 45.6505 3.06688   5
   3 -10   1 44.3536 4.10454   4
  -4  10  -1 5.68177 1.54872   2
  -4  10  -1 4.49360 1.65448   6
  -4  10  -1 5.25108 1.71226   3
   4 -10   1 5.45756 2.36738   4
   4 -10   1 8.54498 1.79606   5
  -5  10  -1 1.00302 1.48658   6
  -5  10  -1 7.05891 2.13157   3
   5 -10   1 1.22261 2.21111   4
   5 -10   1 2.95091 1.64099   5
  -4  -9   1 4.11311 2.96837   7
   3   9  -1 1.01500 1.41122   2
   3   9  -1 1.67101 1.14422   6
  -3  -9   1 6.29332 2.50401   1
  -3  -9   1 3.12596 2.65582   7
   2   9  -1 59.6038 3.30136   5
   2   9  -1 63.5137 3.84436   2
   2   9  -1 59.4278 3.49831   6
  -2  -9   1 61.4361 5.93679   1
  -2  -9   1 57.6128 5.22409   7
   1   9  -1 38.4283 2.79827   2
   1   9  -1 41.2154 2.45169   5
   1   9  -1 44.8007 2.86216   6
  -1  -9   1 39.1203 5.09151   1
  -1  -9   1 31.9887 4.24146   7
  -1  -9   1 37.8324 3.06283   4
   0   9  -1 19.3193 1.97882   6
   0   9  -1 15.8633 1.84443   2
   0   9  -1 16.5274 1.51434   5
   0  -9   1 16.9204 2.86300   7
   0  -9   1 15.6161 2.26729   4
   0  -9   1 12.4268 3.80527   1
  -1   9  -1 2.34491 0.86655   3
  -1   9  -1 4.27608 0.97005   5
  -1   9  -1 1.28831 0.88077   6
  -1   9  -1 2.72122 0.96327   2
   1  -9   1 3.60279 0.86789   5
   1  -9   1 3.97262 2.86291   1
   1  -9   1 2.66950 1.60670   4
  -2   9  -1 43.6039 2.72067   2
  -2   9  -1 45.5833 2.70016   3
  -2   9  -1 42.6429 2.96251   6
   2  -9   1 42.9124 4.90683   1
   2  -9   1 50.5151 2.77550   5
   2  -9   1 45.0592 3.70564   4
  -3   9  -1 9.99981 1.78008   6
  -3   9  -1 8.53704 1.58355   2
  -3   9  -1 10.6355 1.76556   3
   3  -9   1 8.34268 2.88473   1
   3  -9   1 11.3347 1.71634   5
   3  -9   1 9.00815 2.27207   4
  -4   9  -1 3.22365 1.24598   2
  -4   9  -1 4.47149 1.65773   3
  -4   9  -1 4.45659 1.59501   6
   4  -9   1 5.95492 2.32592   4
   4  -9   1 3.01610 1.36067   5
  -5   9  -1 0.63497 1.52276   3
  -5   9  -1 1.40334 1.37682   6
  -5   9  -1 -1.8973 1.13901   2
   5  -9   1 -0.1069 1.88163   4
   5  -9   1 -1.0004 1.02394   2
   5  -9   1 0.28782 1.21590   5
   4   8  -1 7.45120 1.95907   2
  -4  -8   1 10.4234 3.67924   7
   3   8  -1 -0.0447 0.88998   6
   3   8  -1 -0.3631 1.11735   2
   3   8  -1 -0.4224 0.88165   5
  -3  -8   1 -0.8717 2.13492   7
  -3  -8   1 3.66892 2.22954   1
   2   8  -1 40.8806 2.92277   2
   2   8  -1 40.4904 2.53163   5
   2   8  -1 45.1077 2.72541   6
  -2  -8   1 42.1967 5.04379   1
  -2  -8   1 41.8364 2.74325   4
  -2  -8   1 35.9275 4.44834   7
   1   8  -1 1.28155 0.66390   5
   1   8  -1 0.88002 0.79183   6
   1   8  -1 0.44590 0.76173   2
   1   8  -1 0.49593 0.61418   3
  -1  -8   1 -0.0384 2.02379   7
  -1  -8   1 1.34017 0.50093   3
  -1  -8   1 0.13112 1.13100   4
  -1  -8   1 -0.5959 2.26503   1
   0   8  -1 70.7277 2.89138   3
   0   8  -1 70.1861 3.13515   5
   0   8  -1 66.2841 3.35275   2
   0   8  -1 73.2118 3.38582   6
   0  -8   1 72.8454 4.13347   7
   0  -8   1 65.1528 3.72688   4
   0  -8   1 73.2909 3.14087   5
   0  -8   1 66.7327 5.54851   1
  -1   8  -1 11.6112 1.22398   3
  -1   8  -1 11.2724 1.46373   2
  -1   8  -1 11.5815 1.50405   6
   1  -8   1 9.01649 2.95603   1
   1  -8   1 11.1137 1.21010   5
   1  -8   1 10.3552 1.88518   4
  -2   8  -1 121.097 4.98638   2
  -2   8  -1 125.231 5.19771   6
  -2   8  -1 115.478 4.89325   3
   2  -8   1 123.640 4.96898   5
   2  -8   1 119.228 6.89324   1
   2  -8   1 124.500 5.82767   4
  -3   8  -1 9.79759 1.68881   3
  -3   8  -1 8.17832 1.48919   6
  -3   8  -1 13.1692 1.65721   2
   3  -8   1 12.2181 2.42909   4
   3  -8   1 12.1696 1.71604   5
   3  -8   1 12.8523 2.96512   1
  -4   8  -1 2.99326 1.47237   6
  -4   8  -1 0.88768 1.36759   3
  -4   8  -1 -1.1400 0.91401   2
   4  -8   1 0.42284 0.95791   2
   4  -8   1 2.04412 1.19407   5
   4  -8   1 0.76488 1.81008   4
  -5   8  -1 1.50618 1.45310   6
  -5   8  -1 2.28068 1.30455   2
  -5   8  -1 2.61225 1.44075   3
   5  -8   1 0.68650 1.20284   2
   5  -8   1 0.54565 1.94925   4
   5  -8   1 0.66633 1.29389   5
  -6   8  -1 2.57160 1.68883   6
   6  -8   1 5.54883 2.03380   5
   6  -8   1 3.92114 2.49967   4
   5   7  -1 1.46833 1.71928   2
  -5  -7   1 2.53349 2.93167   7
   4   7  -1 3.79623 1.55705   2
   4   7  -1 2.38378 1.34405   5
  -4  -7   1 6.06022 3.05128   7
   3   7  -1 5.61180 1.45583   2
   3   7  -1 4.82769 1.24834   5
   3   7  -1 4.87725 1.09829   6
  -3  -7   1 2.98576 1.17675   3
  -3  -7   1 4.33418 2.67670   7
  -3  -7   1 7.36789 2.66175   1
   2   7  -1 0.70394 0.70041   6
   2   7  -1 -0.2556 0.69976   2
   2   7  -1 0.43321 0.61172   5
  -2  -7   1 0.11779 0.75857   4
  -2  -7   1 -0.6049 0.53948   3
  -2  -7   1 -0.1153 2.22624   1
  -2  -7   1 -0.1087 2.07329   7
   1   7  -1 2.33156 0.61927   3
   1   7  -1 1.79762 0.73321   6
   1   7  -1 1.75299 0.76386   2
   1   7  -1 2.14918 0.62939   5
  -1  -7   1 2.32915 1.75177   7
  -1  -7   1 1.51318 0.89957   4
  -1  -7   1 2.30160 0.51300   3
  -1  -7   1 1.19670 2.05150   1
   0   7  -1 6.18618 0.92654   5
   0   7  -1 4.52542 0.93801   2
   0   7  -1 5.39614 0.79681   3
   0   7  -1 4.78920 0.94728   6
   0  -7   1 5.27836 1.24532   4
   0  -7   1 6.90540 1.64144   7
   0  -7   1 6.64647 2.39925   1
   0  -7   1 6.28713 0.94089   5
  -1   7  -1 1.94597 0.78731   6
  -1   7  -1 2.92222 0.71715   3
  -1   7  -1 3.51453 0.82366   2
   1  -7   1 3.58528 2.13636   1
   1  -7   1 3.06622 1.28871   4
   1  -7   1 3.26462 0.74071   5
  -2   7  -1 55.2060 2.81231   3
  -2   7  -1 56.9351 2.78780   2
  -2   7  -1 55.8696 2.93652   6
   2  -7   1 57.6585 4.37136   1
   2  -7   1 54.2492 2.78082   5
   2  -7   1 54.7708 3.52280   4
  -3   7  -1 4.01645 1.33971   3
  -3   7  -1 4.76625 1.06233   2
  -3   7  -1 3.00219 1.06343   6
   3  -7   1 5.25331 2.31682   1
   3  -7   1 5.14826 1.20981   5
   3  -7   1 5.88124 1.16130   2
   3  -7   1 4.94798 1.91692   4
  -4   7  -1 22.5353 2.69260   3
  -4   7  -1 17.2147 1.99861   2
  -4   7  -1 17.3991 2.14186   6
   4  -7   1 16.1141 1.93327   2
   4  -7   1 16.7862 2.83497   4
   4  -7   1 18.2091 2.25319   5
  -5   7  -1 0.23745 1.21103   6
  -5   7  -1 2.96178 1.58141   3
  -5   7  -1 -0.7559 1.02581   2
   5  -7   1 -0.8427 1.07853   2
   5  -7   1 -2.0632 1.80335   4
   5  -7   1 0.65690 1.41156   5
  -6   7  -1 6.56203 2.21689   3
  -6   7  -1 1.48783 1.51699   6
   6  -7   1 2.29245 1.54170   2
   6  -7   1 2.51345 1.68083   5
   5   6  -1 20.1522 2.59976   5
   5   6  -1 20.0136 2.76177   2
  -5  -6   1 33.3409 5.17421   7
   4   6  -1 0.64456 1.18910   2
   4   6  -1 0.59133 0.83437   6
   4   6  -1 1.41188 1.11142   5
  -4  -6   1 2.91084 2.61308   7
  -4  -6   1 -0.1587 1.07089   3
   3   6  -1 46.6778 3.03707   2
   3   6  -1 51.7112 2.73581   6
   3   6  -1 49.6582 2.83269   5
  -3  -6   1 49.3335 4.79002   1
  -3  -6   1 45.7846 2.74862   3
  -3  -6   1 40.8968 4.62018   7
   2   6  -1 7.57606 1.11846   5
   2   6  -1 8.35074 1.24822   2
   2   6  -1 8.80601 1.12569   6
  -2  -6   1 5.97257 2.61003   1
  -2  -6   1 5.80849 2.22701   7
  -2  -6   1 8.08827 1.23154   4
  -2  -6   1 7.22685 0.96086   3
   1   6  -1 153.189 5.87662   2
   1   6  -1 155.316 5.37476   3
   1   6  -1 155.710 5.72591   6
   1   6  -1 165.099 5.74983   5
  -1  -6   1 150.109 5.30548   3
  -1  -6   1 163.481 7.75672   1
  -1  -6   1 170.590 6.94948   7
  -1  -6   1 164.193 6.01582   4
   0   6  -1 222.460 7.50914   5
   0   6  -1 217.542 7.22535   3
   0   6  -1 229.327 7.69853   2
   0   6  -1 225.246 7.63045   6
   0  -6   1 222.111 8.05592   7
   0  -6   1 213.080 7.47680   5
   0  -6   1 225.804 9.49271   1
   0  -6   1 222.653 7.96940   4
  -1   6  -1 7.45505 0.89451   3
  -1   6  -1 7.70120 1.00059   2
  -1   6  -1 7.60068 1.01687   6
   1  -6   1 7.00937 1.33976   4
   1  -6   1 6.86220 0.93171   5
   1  -6   1 8.78056 2.21566   1
  -2   6  -1 -0.2790 0.52631   6
  -2   6  -1 0.15490 0.48321   2
  -2   6  -1 -0.5863 0.59251   3
   2  -6   1 0.62277 1.56418   1
   2  -6   1 0.04854 0.51890   5
   2  -6   1 -0.9832 0.96502   4
  -3   6  -1 35.8355 2.61483   3
  -3   6  -1 37.1693 2.21649   2
  -3   6  -1 34.7694 2.34049   6
   3  -6   1 32.3951 3.11934   1
   3  -6   1 33.5644 2.34517   5
   3  -6   1 36.4457 2.18052   2
   3  -6   1 35.2824 3.09364   4
  -4   6  -1 75.1691 4.00633   6
  -4   6  -1 74.4782 4.34217   3
  -4   6  -1 77.4216 3.79962   2
   4  -6   1 79.7879 3.84862   2
   4  -6   1 70.4094 4.64691   4
   4  -6   1 77.1807 4.13938   5
  -5   6  -1 82.7199 4.16387   2
  -5   6  -1 80.0339 4.39357   6
  -5   6  -1 76.3152 4.79807   3
   5  -6   1 83.4456 4.64604   5
   5  -6   1 80.0383 4.24187   2
   5  -6   1 66.4613 4.95871   4
  -6   6  -1 33.4138 3.91826   3
  -6   6  -1 32.8052 3.36434   6
   6  -6   1 32.3569 3.23783   2
   6  -6   1 28.7715 3.33424   5
   5   5  -1 5.02311 1.78885   2
   5   5  -1 2.34333 1.49122   5
  -5  -5   1 4.99004 2.85412   7
  -5  -5   1 5.72843 1.92753   3
   4   5  -1 41.0290 3.01053   2
   4   5  -1 40.2418 2.46029   6
   4   5  -1 38.0886 2.82919   5
  -4  -5   1 33.5861 4.51822   7
  -4  -5   1 42.0203 4.25710   1
  -4  -5   1 36.0433 2.89634   3
   3   5  -1 5.63991 0.95612   6
   3   5  -1 5.23651 1.10649   5
   3   5  -1 6.73938 1.21434   4
   3   5  -1 4.45947 1.12116   2
  -3  -5   1 6.05844 2.54104   7
  -3  -5   1 4.63019 2.25354   1
  -3  -5   1 5.12000 1.13131   3
  -3  -5   1 6.55307 1.11017   4
   2   5  -1 0.28877 0.43684   6
   2   5  -1 -0.0959 0.54854   2
   2   5  -1 0.32145 0.47386   5
  -2  -5   1 0.69203 1.61568   7
  -2  -5   1 -0.2932 0.43960   3
  -2  -5   1 -1.2238 1.35761   1
  -2  -5   1 0.01495 0.45578   4
   1   5  -1 184.000 6.20621   5
   1   5  -1 182.698 6.15666   6
   1   5  -1 177.253 5.86494   3
   1   5  -1 176.144 6.31243   2
  -1  -5   1 191.569 7.26143   7
  -1  -5   1 182.213 7.90081   1
  -1  -5   1 173.997 5.81622   3
  -1  -5   1 161.963 6.29388   4
   0   5  -1 12.9400 1.04817   2
   0   5  -1 12.2631 0.81325   3
   0   5  -1 11.2591 0.89436   5
   0   5  -1 12.6690 1.05410   6
   0  -5   1 13.4534 0.97442   5
   0  -5   1 14.4066 2.29950   1
   0  -5   1 13.6467 1.47717   7
   0  -5   1 13.2954 1.31651   4
  -1   5  -1 1358.66 40.7741   6
  -1   5  -1 1372.03 40.7305   2
  -1   5  -1 1236.24 40.5016   3
   1  -5   1 1396.91 42.0481   1
   1  -5   1 1300.47 41.1320   4
   1  -5   1 1311.28 40.6628   5
  -2   5  -1 13.0603 1.34128   3
  -2   5  -1 14.3268 1.17654   2
   2  -5   1 15.0946 1.83025   4
   2  -5   1 13.8446 1.24157   5
   2  -5   1 15.7576 2.13438   1
   2  -5   1 16.0057 1.17694   2
  -3   5  -1 36.6575 2.51318   3
  -3   5  -1 36.2076 2.10161   2
   3  -5   1 40.0259 2.16276   2
   3  -5   1 34.7647 2.86636   4
   3  -5   1 35.1244 2.32125   5
  -4   5  -1 230.938 8.39346   6
  -4   5  -1 208.461 8.67446   3
   4  -5   1 230.627 8.18459   2
   4  -5   1 222.632 8.46419   5
   4  -5   1 218.806 8.84042   4
  -5   5  -1 8.34303 1.61584   6
  -5   5  -1 5.82831 1.82468   3
   5  -5   1 9.23733 1.98328   5
   5  -5   1 9.78108 1.71191   2
   5  -5   1 7.86308 2.33073   4
  -6   5  -1 15.4883 2.79379   3
  -6   5  -1 15.8389 2.34678   6
   6  -5   1 22.1458 2.91396   5
   6  -5   1 18.9520 2.56809   2
   6   4  -1 0.20929 1.75472   5
   6   4  -1 1.23951 1.74582   2
  -6  -4   1 3.87909 2.00505   3
  -6  -4   1 8.64244 3.08434   7
   5   4  -1 3.99527 1.54969   2
   5   4  -1 2.52683 1.46869   5
  -5  -4   1 3.11387 2.72849   7
  -5  -4   1 3.92763 1.86462   3
   4   4  -1 54.9853 3.38842   2
   4   4  -1 52.5872 3.33559   5
   4   4  -1 56.3596 2.87209   6
  -4  -4   1 64.7234 4.77387   1
  -4  -4   1 56.0155 3.47669   3
  -4  -4   1 47.8019 4.98928   7
   3   4  -1 54.4734 2.92216   2
   3   4  -1 58.5785 2.62929   6
   3   4  -1 59.6843 2.92525   5
   3   4  -1 50.7446 2.49137   4
  -3  -4   1 56.4632 4.29035   1
  -3  -4   1 56.9726 2.88847   3
  -3  -4   1 51.3186 4.36331   7
   2   4  -1 34.9682 2.03996   2
   2   4  -1 37.2216 1.84635   6
   2   4  -1 37.9804 1.99920   5
  -2  -4   1 39.0708 1.88153   3
  -2  -4   1 36.0487 1.92160   4
  -2  -4   1 38.5602 3.22806   7
  -2  -4   1 36.9938 3.24132   1
   1   4  -1 7.89174 0.82670   2
   1   4  -1 6.47262 0.69281   5
   1   4  -1 6.41304 0.62717   3
   1   4  -1 7.33895 0.72542   6
  -1  -4   1 8.19390 1.46347   7
  -1  -4   1 9.17083 1.91092   1
  -1  -4   1 6.84231 0.82167   4
  -1  -4   1 6.98390 0.57073   3
   0   4  -1 241.733 7.84144   3
   0   4  -1 242.209 8.09497   5
   0   4  -1 249.877 8.17137   2
   0   4  -1 249.474 8.11242   6
   0  -4   1 245.746 8.38276   4
   0  -4   1 267.812 8.46485   7
   0  -4   1 247.416 8.09913   5
   0  -4   1 261.359 9.43737   1
  -1   4  -1 1.25688 0.41208   2
  -1   4  -1 0.54747 0.36301   3
  -1   4  -1 0.42127 0.35537   6
   1  -4   1 1.48770 0.70582   4
   1  -4   1 0.89218 0.38003   5
   1  -4   1 1.35238 1.05058   1
  -2   4  -1 147.329 5.36334   2
  -2   4  -1 153.905 5.60356   3
   2  -4   1 152.964 5.83792   1
   2  -4   1 160.915 5.91492   4
   2  -4   1 146.213 5.37535   2
   2  -4   1 155.738 5.54883   5
  -3   4  -1 51.2866 2.81046   7
  -3   4  -1 54.1365 2.98735   3
   3  -4   1 60.7986 2.92410   5
   3  -4   1 53.7697 2.61562   2
   3  -4   1 55.8724 3.15535   4
  -4   4  -1 8.50871 1.36639   6
  -4   4  -1 7.00495 1.63099   3
  -4   4  -1 10.6839 1.85697   7
   4  -4   1 12.3293 1.80512   5
   4  -4   1 13.2189 2.13990   4
   4  -4   1 11.1957 1.44642   2
  -5   4  -1 6.74032 1.51016   6
  -5   4  -1 6.05674 1.84065   3
   5  -4   1 10.9432 2.08203   5
   5  -4   1 10.8977 1.73546   2
   5  -4   1 5.28523 1.95146   4
  -6   4  -1 1.45754 1.44154   6
  -6   4  -1 2.69554 1.85145   3
   6  -4   1 4.75816 1.64706   2
   6  -4   1 3.42174 1.69616   5
   6   3  -1 4.07866 1.83442   2
   6   3  -1 1.09470 1.69150   5
  -6  -3   1 2.79295 1.86638   3
   5   3  -1 31.1392 2.95173   5
   5   3  -1 41.0604 3.06812   2
  -5  -3   1 32.2946 4.67040   7
  -5  -3   1 31.4198 3.28812   3
   4   3  -1 0.86366 0.72265   6
   4   3  -1 2.71801 1.17080   5
   4   3  -1 2.01986 1.07069   2
  -4  -3   1 0.53380 1.19458   3
  -4  -3   1 0.88014 1.63726   1
  -4  -3   1 -0.5848 1.92018   7
   3   3  -1 32.7481 1.79336   6
   3   3  -1 32.4596 1.76738   4
   3   3  -1 34.7790 2.12897   5
   3   3  -1 34.1050 2.09573   2
  -3  -3   1 33.5985 3.08827   1
  -3  -3   1 32.2169 3.37543   7
  -3  -3   1 33.2992 2.15137   3
   2   3  -1 19.8579 1.24060   4
   2   3  -1 20.6906 1.37768   2
   2   3  -1 20.4625 1.18629   6
   2   3  -1 21.5288 1.36964   5
  -2  -3   1 20.5510 1.31808   3
  -2  -3   1 19.9192 2.39144   7
  -2  -3   1 18.2502 2.16498   1
  -2  -3   1 19.6982 1.25052   4
   1   3  -1 14.0169 0.97497   2
   1   3  -1 14.0956 0.91634   5
   1   3  -1 13.5391 0.85406   6
  -1  -3   1 13.0966 0.94127   4
  -1  -3   1 16.6718 1.70192   7
  -1  -3   1 14.2031 0.76178   3
  -1  -3   1 12.9954 1.77748   1
   0   3  -1 440.272 13.0250   2
   0   3  -1 427.933 12.9672   5
   0   3  -1 391.048 12.6905   3
   0   3  -1 424.392 12.9356   6
   0  -3   1 369.292 12.6737   3
   0  -3   1 400.729 13.1470   4
   0  -3   1 453.244 13.1956   7
   0  -3   1 452.226 14.0205   1
   0  -3   1 388.871 12.9171   5
  -1   3  -1 11.3431 0.81406   2
  -1   3  -1 10.1435 0.87814   6
  -1   3  -1 9.56296 0.86291   3
   1  -3   1 12.5429 0.81328   2
   1  -3   1 15.1696 1.51074   1
   1  -3   1 12.3066 0.87572   5
   1  -3   1 12.9536 1.19310   4
  -2   3  -1 29.0523 1.61308   6
  -2   3  -1 30.6580 1.76674   3
   2  -3   1 28.2362 1.62744   5
   2  -3   1 31.0584 1.56358   2
   2  -3   1 29.6780 1.88183   4
  -3   3  -1 80.5650 3.84863   7
  -3   3  -1 77.2382 3.67982   3
   3  -3   1 85.9482 3.76889   4
   3  -3   1 81.8301 3.59396   5
   3  -3   1 73.8490 3.33677   2
  -4   3  -1 19.2657 2.29090   3
  -4   3  -1 25.0935 2.59899   7
  -4   3  -1 22.2878 1.92863   6
   4  -3   1 23.5635 1.86678   2
   4  -3   1 26.7923 2.38007   4
   4  -3   1 23.0208 2.19583   5
  -5   3  -1 28.9619 3.09398   7
  -5   3  -1 16.1934 2.42767   3
  -5   3  -1 21.0429 2.40489   6
   5  -3   1 19.8837 2.55777   5
   5  -3   1 24.5804 2.32271   2
   5  -3   1 26.4788 4.00947   4
  -6   3  -1 0.97926 1.65281   3
  -6   3  -1 1.67773 1.33506   6
   6  -3   1 1.18689 1.32834   2
   6  -3   1 -0.8945 1.30150   5
   6   2  -1 -2.1135 1.37106   5
   6   2  -1 -1.0546 1.27356   2
  -6  -2   1 -0.1141 1.53884   3
   5   2  -1 33.5723 2.99350   5
   5   2  -1 33.9174 2.41511   6
   5   2  -1 34.2558 2.89369   2
  -5  -2   1 39.9293 3.75195   6
  -5  -2   1 30.4293 3.26502   3
  -5  -2   1 31.7148 4.42508   7
   4   2  -1 1.06500 0.62780   6
   4   2  -1 2.20805 1.04750   5
   4   2  -1 1.83952 0.90829   2
  -4  -2   1 1.15705 1.15381   3
  -4  -2   1 1.04427 1.31816   1
  -4  -2   1 1.35640 2.13275   7
  -4  -2   1 1.27755 0.75449   6
   3   2  -1 6.27499 0.80649   6
   3   2  -1 6.82290 1.04877   2
   3   2  -1 6.45330 0.79177   4
   3   2  -1 6.83684 1.08991   5
  -3  -2   1 7.50494 1.18610   3
  -3  -2   1 8.36612 2.15664   7
  -3  -2   1 7.14794 1.62874   1
   2   2  -1 207.760 7.22061   2
   2   2  -1 213.270 7.26722   5
   2   2  -1 208.362 6.94011   6
   2   2  -1 210.709 7.11311   4
  -2  -2   1 221.545 8.16848   1
  -2  -2   1 218.966 7.17030   3
  -2  -2   1 216.481 8.27154   7
   1   2  -1 132.257 4.36460   5
   1   2  -1 129.119 4.34209   2
   1   2  -1 119.220 4.12778   6
  -1  -2   1 136.547 5.03120   7
  -1  -2   1 129.090 5.13008   1
  -1  -2   1 115.579 4.29792   4
  -1  -2   1 127.897 4.14942   3
   0   2  -1 465.658 14.1388   6
   0   2  -1 452.369 14.2021   2
   0   2  -1 431.175 14.1842   5
   0   2  -1 467.990 14.2943   7
   0  -2   1 478.100 14.8193   1
   0  -2   1 481.487 14.3047   7
   0  -2   1 458.606 14.1975   5
   0  -2   1 459.327 14.3405   4
  -1   2  -1 648.958 19.2516   6
  -1   2  -1 609.452 19.3428   1
  -1   2  -1 638.855 19.2203   3
   1  -2   1 608.083 19.3674   4
   1  -2   1 604.575 19.2404   5
   1  -2   1 634.160 19.3545   1
   1  -2   1 630.765 19.2060   2
  -2   2  -1 50.8438 2.17534   6
  -2   2  -1 51.3960 2.34389   3
  -2   2  -1 47.8178 2.42807   7
   2  -2   1 48.7885 2.14677   2
   2  -2   1 51.6956 2.33554   4
   2  -2   1 49.1450 2.25413   5
  -3   2  -1 374.503 13.0495   7
  -3   2  -1 367.332 12.5611   3
  -3   2  -1 373.345 12.2558   6
   3  -2   1 359.986 12.2639   2
   3  -2   1 381.547 12.4690   5
   3  -2   1 389.914 12.3948   4
  -4   2  -1 58.3526 3.56474   3
  -4   2  -1 63.8781 3.13851   6
  -4   2  -1 62.5246 4.23273   7
   4  -2   1 68.0989 3.52590   5
   4  -2   1 60.4665 3.29373   4
   4  -2   1 66.5771 3.25641   2
  -5   2  -1 4.91259 1.65930   3
  -5   2  -1 6.00963 1.40316   6
  -5   2  -1 6.76534 2.01507   7
   5  -2   1 7.05450 1.79751   5
   5  -2   1 5.19042 1.43085   2
  -6   2  -1 0.67466 1.30110   6
  -6   2  -1 -0.4646 1.67664   3
   6  -2   1 1.37111 1.53653   5
   6  -2   1 0.78145 1.33997   2
   6   1  -1 1.05227 1.70891   5
   6   1  -1 4.43693 1.59550   2
  -6  -1   1 3.43114 1.80296   3
  -6  -1   1 8.55251 2.60526   7
   5   1  -1 2.19453 1.21852   2
   5   1  -1 2.91026 1.47249   5
   5   1  -1 1.88286 0.86744   6
  -5  -1   1 2.41985 2.21435   7
  -5  -1   1 2.37640 0.99499   6
  -5  -1   1 1.50926 1.53535   3
   4   1  -1 40.6711 2.30370   4
   4   1  -1 43.5528 2.24224   6
   4   1  -1 42.5173 2.73568   5
   4   1  -1 41.8950 2.55074   2
  -4  -1   1 41.3032 3.02288   1
  -4  -1   1 36.2071 4.00879   7
  -4  -1   1 42.1823 2.26262   6
  -4  -1   1 40.6185 2.91757   3
   3   1  -1 135.418 4.94165   4
   3   1  -1 125.697 5.02645   2
   3   1  -1 139.876 5.25301   5
   3   1  -1 136.788 4.80969   6
  -3  -1   1 142.822 5.30823   3
  -3  -1   1 136.886 5.78438   1
  -3  -1   1 131.054 6.36372   7
  -3  -1   1 132.659 4.78365   6
   2   1  -1 28.2228 1.45435   4
   2   1  -1 30.0327 1.58130   5
   2   1  -1 30.0051 1.51609   2
   2   1  -1 28.2787 1.29893   6
  -2  -1   1 31.7197 1.61612   3
  -2  -1   1 26.7002 1.90308   1
  -2  -1   1 30.0610 2.28490   7
   1   1  -1 1965.68 60.1926   2
   1   1  -1 1901.66 60.0010   6
   1   1  -1 1985.84 60.2716   4
   1   1  -1 2036.10 60.5060   5
  -1  -1   1 1999.34 60.7930   1
  -1  -1   1 1881.68 60.2386   4
  -1  -1   1 2156.38 60.8583   7
  -1  -1   1 1949.49 60.0209   6
  -1  -1   1 2069.58 60.4039   3
   0   1  -1 90.8630 3.00396   2
   0   1  -1 96.3462 2.94904   6
   0   1  -1 86.7739 3.01518   5
   0   1  -1 96.5658 3.34208   1
   0   1  -1 102.306 3.11137   7
   0  -1   1 96.4600 3.34967   1
   0  -1   1 92.5684 2.94085   6
   0  -1   1 80.7470 3.06931   4
   0  -1   1 104.311 3.12235   7
   0  -1   1 85.6227 3.00892   5
  -1   1  -1 432.430 13.3349   6
  -1   1  -1 443.149 13.4592   7
  -1   1  -1 439.970 13.3711   3
   1  -1   1 443.498 13.3459   6
   1  -1   1 418.075 13.3672   5
   1  -1   1 425.676 13.3911   7
   1  -1   1 421.748 13.3531   2
   1  -1   1 430.354 13.3759   4
  -2   1  -1 14.8916 1.19069   3
  -2   1  -1 15.4027 1.00632   6
  -2   1  -1 16.0197 1.56800   7
   2  -1   1 14.4130 1.04520   2
   2  -1   1 15.4163 1.10157   4
   2  -1   1 14.9715 1.11429   5
   2  -1   1 15.8770 1.00786   6
  -3   1  -1 132.327 5.31138   3
  -3   1  -1 141.142 6.03115   7
  -3   1  -1 140.242 5.05982   6
   3  -1   1 139.487 5.24481   5
   3  -1   1 131.072 4.99355   6
   3  -1   1 138.277 5.13668   2
   3  -1   1 132.451 4.98824   4
  -4   1  -1 25.9606 1.94576   6
  -4   1  -1 26.0876 3.28212   7
  -4   1  -1 24.6350 2.38642   3
   4  -1   1 27.5872 1.88190   6
   4  -1   1 23.5292 2.07661   4
   4  -1   1 27.7961 2.24155   5
   4  -1   1 29.8469 2.08372   2
  -5   1  -1 1.07777 1.80655   7
  -5   1  -1 -1.5320 0.84113   6
  -5   1  -1 -1.2109 1.27123   3
   5  -1   1 0.69742 1.21581   5
   5  -1   1 0.24240 1.05394   2
  -6   1  -1 5.41394 1.64087   6
  -6   1  -1 6.43571 2.20742   3
   6  -1   1 10.3992 2.39776   5
   6  -1   1 11.2950 2.17416   2
   6   0  -1 5.57909 1.57604   2
   6   0  -1 2.81451 1.77969   5
  -6   0   1 3.22922 1.77181   3
   5   0  -1 -1.5126 1.05709   5
   5   0  -1 0.55787 0.98908   2
  -5   0   1 -0.4558 0.77022   6
  -5   0   1 1.82592 1.94529   7
  -5   0   1 -1.4967 1.34277   3
   4   0  -1 5.90025 1.15999   4
   4   0  -1 6.59118 1.38074   5
   4   0  -1 6.93907 1.21066   2
   4   0  -1 6.38594 0.95134   6
  -4   0   1 4.25244 2.24574   7
  -4   0   1 5.14975 0.89593   6
  -4   0   1 6.30297 1.45193   1
  -4   0   1 6.73175 1.49692   3
   3   0  -1 247.421 8.25127   6
   3   0  -1 254.771 8.49974   2
   3   0  -1 247.960 8.47700   4
   3   0  -1 247.451 8.68688   5
  -3   0   1 252.085 8.76337   3
  -3   0   1 246.780 8.95284   1
  -3   0   1 249.114 9.76830   7
  -3   0   1 255.232 8.26896   6
   2   0  -1 389.437 12.5556   2
   2   0  -1 394.857 12.4077   6
   2   0  -1 389.803 12.7197   5
   2   0  -1 391.543 12.6626   4
  -2   0   1 389.121 12.3931   6
  -2   0   1 403.348 13.0960   1
  -2   0   1 416.838 12.7857   3
  -2   0   1 410.124 13.5314   7
   1   0  -1 2866.94 92.5306   2
   1   0  -1 2978.64 93.1568   4
   1   0  -1 3123.93 93.0312   5
   1   0  -1 3093.79 92.5531   6
  -1   0   1 2970.83 92.3624   6
  -1   0   1 3207.35 93.6418   7
  -1   0   1 3067.60 93.9509   1
  -1   0   1 3233.20 93.4494   3
  -1   0   1 3012.90 92.4405   6
   0   0  -1 125.667 3.62085   5
   0   0  -1 125.813 3.59285   2
   0   0  -1 119.736 3.89457   1
   0   0  -1 128.592 3.65121   3
   0   0  -1 122.944 3.81624   7
   0   0  -1 124.302 3.72222   4
   0   0  -1 127.003 3.62808   5
   0   0  -1 128.123 3.60553   6
   0   0   1 103.979 3.85342   1
   0   0   1 109.306 3.69481   4
   0   0   1 105.219 3.77644   7
   0   0   1 115.168 3.61402   5
   0   0   1 96.4743 3.61490   3
   0   0   1 100.397 3.67983   4
  -1   0  -1 259.321 8.10383   3
  -1   0  -1 261.428 7.90574   4
  -1   0  -1 256.519 8.40621   7
   1   0   1 246.907 8.04240   6
   1   0   1 256.282 7.91457   4
   1   0   1 255.977 8.10953   2
   1   0   1 261.465 8.07428   5
  -2   0  -1 222.870 7.41663   3
  -2   0  -1 222.537 8.05137   7
  -2   0  -1 214.634 7.19544   6
   2   0   1 225.911 7.35429   5
   2   0   1 225.379 7.36681   2
   2   0   1 218.628 7.02954   4
   2   0   1 211.146 7.21469   6
  -3   0  -1 744.663 24.7256   7
  -3   0  -1 762.932 23.7696   3
  -3   0  -1 761.405 23.4116   6
   3   0   1 713.214 23.1101   4
   3   0   1 740.919 23.5782   2
   3   0   1 774.007 23.6678   5
   3   0   1 744.569 23.4078   6
  -4   0  -1 22.0400 3.26497   7
  -4   0  -1 21.7182 1.75430   6
  -4   0  -1 19.9113 2.18633   3
   4   0   1 22.2674 1.87340   2
   4   0   1 20.0713 2.04013   5
   4   0   1 20.3014 1.64171   6
   4   0   1 20.1647 1.83535   4
  -5   0  -1 -2.5854 0.76318   6
  -5   0  -1 -0.2035 1.43384   3
  -5   0  -1 1.03330 2.09461   7
   5   0   1 0.33469 1.18203   5
   5   0   1 -1.2239 0.80178   6
   5   0   1 -0.5503 0.96047   2
  -6   0  -1 2.48272 1.28545   6
  -6   0  -1 8.79871 2.75815   7
  -6   0  -1 0.68592 1.79445   3
   6   0   1 5.48625 1.96385   5
   6   0   1 3.40560 1.60493   2
   6  -1  -1 -0.4189 1.43612   5
   6  -1  -1 0.66470 1.28682   2
  -6   1   1 0.21605 1.66699   3
  -6   1   1 6.05276 2.33676   7
   5  -1  -1 0.31014 1.23548   5
   5  -1  -1 1.81691 1.01267   2
  -5   1   1 1.17933 1.64446   7
  -5   1   1 0.10586 0.83370   6
  -5   1   1 -2.8252 1.20626   3
   4  -1  -1 -0.2810 0.79772   4
   4  -1  -1 -0.1507 0.82221   5
   4  -1  -1 0.30996 0.63445   2
  -4   1   1 -1.0690 0.89608   3
  -4   1   1 -0.7559 1.29386   7
  -4   1   1 -0.7837 0.44404   6
   3  -1  -1 30.3419 1.84666   4
   3  -1  -1 29.1884 1.90167   5
   3  -1  -1 26.7074 1.61941   2
  -3   1   1 26.2101 1.86382   1
  -3   1   1 28.3105 1.57964   6
  -3   1   1 27.2467 1.98809   3
  -3   1   1 24.3812 2.38359   7
   2  -1  -1 131.418 4.78200   5
   2  -1  -1 130.733 4.58646   2
   2  -1  -1 138.357 4.85320   4
  -2   1   1 140.487 4.57895   6
  -2   1   1 137.692 5.41352   7
  -2   1   1 136.691 4.89653   3
  -2   1   1 128.474 4.95680   1
   1  -1  -1 386.619 12.7336   5
   1  -1  -1 415.990 12.8983   4
   1  -1  -1 399.654 12.5842   2
   1  -1  -1 418.370 13.0963   1
  -1   1   1 427.864 12.6518   6
  -1   1   1 441.391 12.8767   3
  -1   1   1 382.558 12.5747   2
  -1   1   1 392.602 13.0661   1
  -1   1   1 444.256 13.2165   7
   0  -1  -1 361.828 10.8894   7
   0  -1  -1 350.573 11.0292   1
   0  -1  -1 330.065 10.9018   7
   0  -1  -1 357.536 10.6982   4
   0  -1  -1 362.471 10.5832   2
   0   1   1 349.154 10.6578   6
   0   1   1 340.554 10.9079   7
   0   1   1 354.228 10.5831   2
   0   1   1 337.501 10.6902   3
   0   1   1 336.845 10.6865   4
  -1  -1  -1 331.705 10.5976   1
  -1  -1  -1 319.625 10.1232   3
  -1  -1  -1 321.717 10.6341   7
   1   1   1 321.428 10.1488   3
   1   1   1 324.607 10.1445   6
   1   1   1 322.831 10.0501   5
   1   1   1 324.078 10.1706   2
  -2  -1  -1 17.7290 1.22086   3
  -2  -1  -1 20.6271 2.01585   7
  -2  -1  -1 17.6691 1.48857   1
   2   1   1 17.8531 1.15675   5
   2   1   1 17.9390 1.08203   6
   2   1   1 18.5462 1.20943   2
  -3  -1  -1 71.0624 3.31759   3
  -3  -1  -1 71.9838 4.39858   7
  -3  -1  -1 69.6961 3.39337   1
   3   1   1 71.4361 3.20358   2
   3   1   1 71.6544 3.20904   5
   3   1   1 68.4654 3.00645   6
  -4  -1  -1 0.64403 0.73396   6
  -4  -1  -1 -0.0271 1.01804   3
  -4  -1  -1 -0.5885 1.95514   7
   4   1   1 0.42851 0.80700   2
   4   1   1 0.82010 0.62942   6
   4   1   1 0.00096 0.83808   5
  -5  -1  -1 5.28413 2.00501   3
  -5  -1  -1 8.46441 3.03231   7
  -5  -1  -1 7.63472 1.56266   6
   5   1   1 10.0180 1.99463   5
   5   1   1 4.24727 1.20968   6
   5   1   1 7.16033 1.68867   2
  -6  -1  -1 -0.0892 1.85966   3
  -6  -1  -1 0.39586 1.46671   6
  -6  -1  -1 6.68147 2.71341   7
   6   1   1 -0.6448 1.45428   5
   6   1   1 0.30415 1.11147   6
   6   1   1 0.79675 1.44212   2
   6  -2  -1 0.30889 1.57190   5
   6  -2  -1 2.20075 1.38296   2
  -6   2   1 1.41933 1.84578   3
   5  -2  -1 7.51830 1.47180   2
   5  -2  -1 8.15305 1.80027   5
   5  -2  -1 3.42338 1.57630   4
  -5   2   1 5.60918 1.28962   6
  -5   2   1 3.69184 1.76191   3
  -5   2   1 10.0602 2.33807   7
   4  -2  -1 3.75205 0.95894   2
   4  -2  -1 5.00044 1.28794   5
   4  -2  -1 4.55842 1.29835   4
  -4   2   1 4.20502 0.88482   6
  -4   2   1 3.62634 1.27345   3
  -4   2   1 3.30708 1.54099   7
   3  -2  -1 19.7557 1.58066   4
   3  -2  -1 15.1527 1.21775   2
   3  -2  -1 19.2575 1.54435   5
  -3   2   1 16.9905 1.30170   6
  -3   2   1 15.9741 1.48281   1
  -3   2   1 15.2667 1.84639   7
  -3   2   1 15.0370 1.63209   3
   2  -2  -1 380.966 12.5640   5
   2  -2  -1 388.305 12.3463   2
   2  -2  -1 394.986 12.7866   1
   2  -2  -1 396.986 12.7464   4
  -2   2   1 394.888 13.1494   7
  -2   2   1 405.413 12.7815   3
  -2   2   1 391.893 12.4222   6
   1  -2  -1 57.9862 2.54166   1
   1  -2  -1 57.6494 2.16732   5
   1  -2  -1 58.0330 2.02406   2
   1  -2  -1 61.8113 2.41532   4
  -1   2   1 58.5262 2.44196   7
  -1   2   1 60.6412 2.17249   6
  -1   2   1 56.6875 2.00871   2
  -1   2   1 58.1062 2.29908   3
   0  -2  -1 242.785 8.07533   1
   0  -2  -1 244.007 7.53155   4
   0  -2  -1 241.408 7.72168   7
   0   2   1 226.685 7.47658   3
   0   2   1 238.954 7.39151   2
   0   2   1 237.460 7.47929   6
   0   2   1 229.159 7.76738   7
  -1  -2  -1 481.225 15.6274   1
  -1  -2  -1 469.294 14.7130   3
  -1  -2  -1 472.474 15.3982   7
   1   2   1 464.302 14.7750   6
   1   2   1 481.572 14.6141   5
   1   2   1 466.848 14.7451   3
   1   2   1 488.367 14.8293   2
  -2  -2  -1 5.41453 1.48416   7
  -2  -2  -1 6.02091 0.86617   3
  -2  -2  -1 6.93985 1.45943   1
   2   2   1 5.51743 0.70459   6
   2   2   1 5.20913 0.78993   2
   2   2   1 5.95602 0.77593   5
  -3  -2  -1 82.9944 3.66569   3
  -3  -2  -1 82.1592 4.19603   1
  -3  -2  -1 81.9716 4.96699   7
   3   2   1 78.4434 3.55473   2
   3   2   1 84.7684 3.55752   5
   3   2   1 76.7676 3.32239   6
  -4  -2  -1 -0.2842 1.21875   1
  -4  -2  -1 0.42008 1.11705   3
  -4  -2  -1 -1.6987 1.97790   7
   4   2   1 -1.5832 0.70945   2
   4   2   1 -2.0928 0.82006   5
   4   2   1 -0.4824 0.61364   6
  -5  -2  -1 1.44061 2.59376   7
  -5  -2  -1 -1.4149 1.46068   3
  -5  -2  -1 -1.4365 0.94780   6
   5   2   1 1.36715 1.31033   2
   5   2   1 0.78139 0.93086   6
   5   2   1 0.80006 1.42472   5
  -6  -2  -1 7.26849 2.96038   7
  -6  -2  -1 0.21543 1.80539   3
   6   2   1 0.74260 1.72356   5
   6   2   1 1.56025 1.73113   2
   6  -3  -1 0.93683 1.71889   5
   6  -3  -1 5.20886 1.61733   2
  -6   3   1 1.23051 1.87014   3
   5  -3  -1 33.2347 2.90491   5
   5  -3  -1 33.3199 2.61169   2
   5  -3  -1 23.9615 2.98060   4
  -5   3   1 35.1861 3.35237   3
  -5   3   1 34.6813 2.71454   6
   4  -3  -1 71.4431 3.86293   4
   4  -3  -1 74.8664 3.75833   5
   4  -3  -1 73.4389 3.35268   2
  -4   3   1 73.7097 3.41907   6
  -4   3   1 67.5356 3.94025   3
  -4   3   1 68.8360 4.38418   7
   3  -3  -1 183.696 6.69957   5
   3  -3  -1 192.602 6.96930   4
   3  -3  -1 178.114 6.35521   2
   3  -3  -1 181.924 6.63724   1
  -3   3   1 185.095 7.38294   7
  -3   3   1 178.339 6.91970   3
  -3   3   1 185.068 6.49971   6
   2  -3  -1 53.0202 2.57164   1
   2  -3  -1 50.4481 2.09532   2
   2  -3  -1 56.5504 2.64267   4
   2  -3  -1 51.5058 2.31061   5
  -2   3   1 51.5054 2.48410   3
  -2   3   1 51.3323 2.62521   7
  -2   3   1 50.4151 2.23924   6
   1  -3  -1 4.40301 0.93486   1
   1  -3  -1 3.78572 0.50956   5
   1  -3  -1 4.21083 0.74001   4
  -1   3   1 4.55495 0.66775   3
  -1   3   1 3.56069 0.67324   7
  -1   3   1 2.90170 0.47550   6
  -1   3   1 4.10959 0.43528   2
   0  -3  -1 976.622 28.9370   5
   0  -3  -1 969.129 30.1732   1
   0  -3  -1 960.720 29.5232   7
   0  -3  -1 911.708 29.3112   4
   0   3   1 984.659 29.1547   2
   0   3   1 970.247 29.2481   6
   0   3   1 923.502 29.1935   3
   0   3   1 962.976 28.9390   5
  -1  -3  -1 348.226 10.8038   4
  -1  -3  -1 350.119 12.2403   1
  -1  -3  -1 355.793 11.8109   7
  -1  -3  -1 339.062 10.9251   3
   1   3   1 350.708 10.8116   5
   1   3   1 326.797 11.0012   6
   1   3   1 357.886 11.1017   2
   1   3   1 341.265 10.9720   3
  -2  -3  -1 722.299 23.4418   7
  -2  -3  -1 694.348 23.3542   1
  -2  -3  -1 701.807 22.0475   3
   2   3   1 727.165 21.9739   5
   2   3   1 684.938 22.0321   6
  -3  -3  -1 16.5628 1.63220   3
  -3  -3  -1 17.2458 2.91631   7
  -3  -3  -1 15.2212 2.42934   1
   3   3   1 16.0885 1.48195   5
   3   3   1 14.4707 1.31466   6
   3   3   1 12.2765 1.40146   2
  -4  -3  -1 0.40773 1.54912   1
  -4  -3  -1 1.56795 2.52840   7
  -4  -3  -1 1.40732 1.27003   3
   4   3   1 1.96037 0.89714   6
   4   3   1 2.50207 1.23200   5
   4   3   1 1.92677 1.09844   2
  -5  -3  -1 0.48722 1.03899   6
  -5  -3  -1 1.65338 2.37455   7
  -5  -3  -1 0.93370 1.59638   3
   5   3   1 0.12282 1.37532   2
   5   3   1 -0.3488 1.38839   5
   5   3   1 0.12262 0.92755   6
  -6  -3  -1 8.21658 2.45354   3
  -6  -3  -1 11.5307 3.69658   7
   6   3   1 8.49428 2.19944   2
   6   3   1 7.17320 2.20200   5
   6  -4  -1 2.30296 1.41967   2
   6  -4  -1 1.80312 1.62906   5
  -6   4   1 1.38781 1.31087   6
  -6   4   1 3.56575 1.91941   3
   5  -4  -1 239.805 9.74758   4
   5  -4  -1 244.296 9.56031   5
   5  -4  -1 249.401 8.98457   2
  -5   4   1 253.175 9.15822   6
  -5   4   1 249.621 10.6922   7
  -5   4   1 231.524 9.86400   3
   4  -4  -1 1.94284 1.13680   5
   4  -4  -1 0.14199 1.31422   4
   4  -4  -1 0.65319 0.67507   2
  -4   4   1 0.81067 1.13846   3
  -4   4   1 0.58150 0.78508   6
  -4   4   1 0.46211 1.36529   7
   3  -4  -1 25.1445 1.99953   1
   3  -4  -1 27.9031 1.97113   5
   3  -4  -1 26.8856 2.26670   4
   3  -4  -1 25.9129 1.57342   2
  -3   4   1 23.5334 1.70507   6
  -3   4   1 25.2440 2.15425   7
  -3   4   1 23.8767 2.05903   3
   2  -4  -1 11.6950 1.47719   4
   2  -4  -1 9.65456 1.06120   5
   2  -4  -1 10.8812 1.47929   1
   2  -4  -1 11.0006 0.84952   2
  -2   4   1 8.32394 0.99066   6
  -2   4   1 9.79000 0.86247   2
  -2   4   1 6.72280 1.02908   3
  -2   4   1 10.1857 1.13974   7
   1  -4  -1 177.354 5.96091   5
   1  -4  -1 190.024 7.03493   1
   1  -4  -1 182.647 6.46680   4
  -1   4   1 184.228 5.94849   2
  -1   4   1 172.079 6.14923   3
  -1   4   1 184.130 6.16365   6
  -1   4   1 176.369 6.32627   7
   0  -4  -1 53.6938 1.93979   5
   0  -4  -1 58.0040 3.34510   1
   0  -4  -1 53.3135 2.41618   4
   0  -4  -1 55.3802 2.54141   7
   0   4   1 52.5894 2.23964   6
   0   4   1 52.4077 1.93199   5
   0   4   1 50.3950 2.17676   3
   0   4   1 54.0568 2.16594   2
  -1  -4  -1 80.2004 3.83814   7
  -1  -4  -1 74.1666 2.89852   4
  -1  -4  -1 75.9368 4.34035   1
   1   4   1 79.9927 3.10693   2
   1   4   1 73.1156 2.94928   3
   1   4   1 74.0853 3.02874   6
   1   4   1 77.4086 2.77853   5
  -2  -4  -1 741.825 24.4968   7
  -2  -4  -1 751.271 22.9267   3
  -2  -4  -1 727.128 24.7005   1
  -2  -4  -1 712.651 22.4583   4
   2   4   1 744.879 22.8128   5
   2   4   1 728.905 22.9240   3
   2   4   1 730.056 23.1380   2
   2   4   1 726.579 22.9750   6
  -3  -4  -1 23.6364 3.27596   1
  -3  -4  -1 22.0192 3.37788   7
  -3  -4  -1 28.2106 2.02043   3
   3   4   1 24.7174 1.73286   6
   3   4   1 24.0588 1.93338   2
   3   4   1 23.2219 1.80387   5
  -4  -4  -1 153.239 8.90577   7
  -4  -4  -1 176.765 8.29403   1
  -4  -4  -1 184.349 7.15350   3
   4   4   1 165.110 6.97179   2
   4   4   1 174.336 6.62601   6
   4   4   1 173.857 6.80818   5
  -5  -4  -1 54.6749 5.89141   7
  -5  -4  -1 62.4374 4.23764   3
   5   4   1 55.3211 3.78917   5
   5   4   1 58.2084 3.59674   6
  -6  -4  -1 5.58680 2.37195   3
  -6  -4  -1 8.07341 3.79177   7
   6   4   1 6.21892 2.18403   2
   6   4   1 3.23706 1.92336   5
   6  -5  -1 -1.9098 1.33142   5
  -6   5   1 4.80766 1.98019   3
  -6   5   1 0.16498 1.24588   6
   5  -5  -1 54.9096 3.31761   2
   5  -5  -1 55.5948 3.76136   5
   5  -5  -1 48.4868 4.27761   4
  -5   5   1 56.4125 3.57427   6
  -5   5   1 60.4574 4.26607   3
   4  -5  -1 28.0657 3.09181   4
   4  -5  -1 28.8250 2.06757   2
   4  -5  -1 32.5199 2.59496   5
  -4   5   1 28.7626 2.85568   7
  -4   5   1 28.9283 2.26240   6
  -4   5   1 26.3215 2.75581   3
   3  -5  -1 19.8559 2.18488   1
   3  -5  -1 17.9118 1.40666   2
   3  -5  -1 22.4820 2.35344   4
   3  -5  -1 19.0883 1.75933   5
  -3   5   1 18.6302 1.42437   2
  -3   5   1 21.2622 1.74241   6
  -3   5   1 18.4900 1.95142   3
  -3   5   1 19.2361 1.85650   7
   2  -5  -1 51.3779 2.98335   4
   2  -5  -1 50.2702 3.27767   1
   2  -5  -1 49.4616 2.41365   5
  -2   5   1 47.6857 2.55346   3
  -2   5   1 52.4146 2.48574   6
  -2   5   1 52.2401 2.60158   7
  -2   5   1 49.5545 2.19972   2
   1  -5  -1 5.18684 0.81993   7
   1  -5  -1 5.66423 0.68036   5
   1  -5  -1 8.73088 1.81028   1
   1  -5  -1 6.14430 1.16781   4
  -1   5   1 4.86938 0.67958   2
  -1   5   1 4.91791 0.79336   3
  -1   5   1 5.76076 0.85160   6
  -1   5   1 4.85377 0.99584   7
   0  -5  -1 148.638 5.02000   5
   0  -5  -1 162.393 7.04737   1
   0  -5  -1 154.931 5.81697   7
   0  -5  -1 151.226 5.64281   4
   0   5   1 153.390 5.03317   5
   0   5   1 146.771 5.30277   3
   0   5   1 150.322 5.41420   6
   0   5   1 154.115 5.31934   2
  -1  -5  -1 171.678 6.95413   7
  -1  -5  -1 172.750 7.77099   1
  -1  -5  -1 168.308 5.91427   4
   1   5   1 166.604 5.64158   5
   1   5   1 177.824 6.08936   2
   1   5   1 164.885 5.86434   3
   1   5   1 162.602 5.98299   6
  -2  -5  -1 19.5481 1.18182   4
  -2  -5  -1 20.0604 1.45621   3
  -2  -5  -1 18.5901 3.12698   1
  -2  -5  -1 20.4051 2.89280   7
   2   5   1 19.1584 1.51358   3
   2   5   1 17.7815 1.42970   6
   2   5   1 20.1079 1.63034   2
   2   5   1 18.7442 1.31248   5
  -3  -5  -1 5.77002 1.19053   3
  -3  -5  -1 3.79825 2.38419   1
  -3  -5  -1 5.84771 2.38973   7
   3   5   1 5.14331 1.05168   6
   3   5   1 4.12603 0.95081   5
   3   5   1 4.81246 1.16092   2
  -4  -5  -1 15.5796 2.16193   3
  -4  -5  -1 14.7786 3.39675   7
   4   5   1 21.0322 2.19420   5
   4   5   1 18.6351 2.01965   6
   4   5   1 16.1839 2.16053   2
  -5  -5  -1 2.54631 1.66410   3
  -5  -5  -1 4.53652 2.99321   7
   5   5   1 2.89931 1.22968   6
   5   5   1 1.83369 1.44714   5
   5   5   1 5.77173 1.83281   2
   6  -6  -1 24.7008 3.30257   5
   6  -6  -1 19.4119 3.57220   4
  -6   6   1 37.4452 3.98315   3
  -6   6   1 34.6278 3.17635   6
   5  -6  -1 104.743 5.36317   5
   5  -6  -1 96.0782 5.98821   4
   5  -6  -1 104.645 4.81586   2
  -5   6   1 110.840 4.96222   2
  -5   6   1 109.722 5.20350   6
  -5   6   1 104.571 5.76012   3
   4  -6  -1 19.6582 2.27179   5
   4  -6  -1 24.1521 1.96944   2
   4  -6  -1 19.4472 2.87798   4
  -4   6   1 22.0003 2.29895   6
  -4   6   1 19.1790 2.49548   3
  -4   6   1 26.4272 1.95662   2
   3  -6  -1 36.1271 3.23800   1
   3  -6  -1 36.8920 3.13002   4
   3  -6  -1 36.6279 2.35898   5
   3  -6  -1 40.2161 2.07902   2
  -3   6   1 39.1141 2.09017   2
  -3   6   1 37.1109 2.49979   7
  -3   6   1 34.2482 2.62940   3
  -3   6   1 35.4958 2.33899   6
   2  -6  -1 79.2619 3.43804   5
   2  -6  -1 87.2561 4.83377   1
   2  -6  -1 85.7030 4.31569   4
  -2   6   1 83.3402 3.71107   7
  -2   6   1 81.4448 3.34889   2
  -2   6   1 84.9057 3.76044   3
  -2   6   1 85.4569 3.66363   6
   1  -6  -1 247.406 8.45999   5
   1  -6  -1 273.629 10.5645   1
   1  -6  -1 262.136 9.30072   4
   1  -6  -1 258.176 8.85329   7
  -1   6   1 256.957 8.77499   3
  -1   6   1 259.564 8.82507   6
  -1   6   1 257.398 8.57979   2
   0  -6  -1 458.308 15.1556   7
   0  -6  -1 463.412 16.7173   1
   0  -6  -1 445.105 14.8860   4
   0  -6  -1 440.233 14.1472   5
   0   6   1 468.266 14.5560   2
   0   6   1 444.090 14.4730   3
   0   6   1 446.118 14.1695   5
   0   6   1 463.556 14.6659   6
  -1  -6  -1 135.586 5.16532   4
  -1  -6  -1 140.842 7.24914   1
  -1  -6  -1 143.636 6.28046   7
   1   6   1 133.709 5.01369   3
   1   6   1 136.381 4.78971   5
   1   6   1 139.199 5.24672   6
   1   6   1 135.105 5.22842   2
  -2  -6  -1 1.59084 0.59159   4
  -2  -6  -1 0.40458 0.59189   3
  -2  -6  -1 1.82623 2.06481   7
  -2  -6  -1 1.18005 2.20796   1
   2   6   1 0.56051 0.67225   2
   2   6   1 0.65202 0.70170   3
   2   6   1 0.38088 0.51228   5
   2   6   1 0.85617 0.63293   6
  -3  -6  -1 25.6843 4.18656   1
  -3  -6  -1 23.7726 2.08959   3
  -3  -6  -1 18.0913 3.47161   7
   3   6   1 25.3267 2.26728   2
   3   6   1 25.7439 1.97578   5
   3   6   1 26.6799 2.17266   6
  -4  -6  -1 1.91773 1.29196   3
  -4  -6  -1 6.72243 2.26301   1
  -4  -6  -1 1.91604 2.35130   7
   4   6   1 1.76304 1.29790   2
   4   6   1 1.74519 1.11034   6
   4   6   1 0.50800 1.07332   5
  -5  -6  -1 3.53754 1.85887   3
  -5  -6  -1 10.4144 3.55786   7
   5   6   1 8.79761 2.14955   6
   5   6   1 8.47799 2.07544   2
   6  -7  -1 1.55660 2.70079   4
   6  -7  -1 6.85743 2.26866   5
  -6   7   1 5.41492 1.78354   6
  -6   7   1 8.23082 2.40815   3
   5  -7  -1 2.36615 1.38614   5
   5  -7  -1 -1.6360 1.99827   4
  -5   7   1 5.02654 1.87262   3
  -5   7   1 3.16642 1.45604   6
   4  -7  -1 12.6956 2.58291   4
   4  -7  -1 15.5314 1.68672   2
   4  -7  -1 17.3398 2.18005   5
  -4   7   1 14.4404 1.99653   6
  -4   7   1 14.6098 1.68673   2
  -4   7   1 14.1209 2.13883   3
   3  -7  -1 2.71161 2.19363   1
   3  -7  -1 3.92470 1.79156   4
   3  -7  -1 1.78151 0.93708   5
  -3   7   1 1.88706 0.72652   2
  -3   7   1 1.85798 0.94041   6
  -3   7   1 0.34051 1.03602   3
   2  -7  -1 5.30905 1.58994   4
   2  -7  -1 4.16769 0.89137   5
   2  -7  -1 6.16781 2.39488   1
  -2   7   1 1.95868 0.81366   3
  -2   7   1 3.28579 0.78146   2
  -2   7   1 2.75755 0.91799   6
   1  -7  -1 104.852 4.82112   4
   1  -7  -1 94.8399 4.19115   7
   1  -7  -1 103.826 6.06746   1
   1  -7  -1 93.6877 3.73380   5
  -1   7   1 102.743 4.20974   6
  -1   7   1 107.370 4.14422   3
  -1   7   1 96.7972 3.90324   2
   0  -7  -1 31.8939 3.81640   1
   0  -7  -1 32.2079 2.54141   7
   0  -7  -1 31.2952 2.36251   4
   0   7   1 30.8110 1.86184   3
   0   7   1 29.8216 1.53753   5
   0   7   1 30.1623 1.86618   2
   0   7   1 30.6340 1.97541   6
  -1  -7  -1 32.0287 2.19270   4
  -1  -7  -1 33.8750 4.36284   1
  -1  -7  -1 33.2040 3.29450   7
   1   7   1 32.6372 2.11084   2
   1   7   1 32.1906 2.11337   6
   1   7   1 33.3732 1.68911   5
   1   7   1 31.6580 1.95042   3
  -2  -7  -1 0.26950 2.07659   7
  -2  -7  -1 2.04741 2.71123   1
  -2  -7  -1 2.00070 0.86229   4
  -2  -7  -1 1.28820 0.74832   3
   2   7   1 1.20305 0.88278   6
   2   7   1 0.45998 0.65151   5
   2   7   1 0.26210 0.83150   2
   2   7   1 1.41196 0.89873   3
  -3  -7  -1 9.16888 3.13525   1
  -3  -7  -1 9.27931 1.51712   3
  -3  -7  -1 5.49879 2.73653   7
   3   7   1 7.53922 1.49872   5
   3   7   1 8.29112 1.71272   2
   3   7   1 7.05831 1.36865   6
  -4  -7  -1 -2.2732 1.04066   3
  -4  -7  -1 2.35560 2.87721   7
   4   7   1 0.68341 1.35802   2
   4   7   1 0.89987 0.96889   6
  -5  -7  -1 -2.0186 2.66381   7
   5   7   1 -0.5377 1.48315   2
   6  -8  -1 -5.0957 2.17296   4
   6  -8  -1 0.53179 1.70898   5
  -6   8   1 2.03329 1.48307   6
   5  -8  -1 17.1980 3.35078   4
   5  -8  -1 21.2072 2.65416   5
  -5   8   1 17.0448 2.77963   3
  -5   8   1 14.6626 2.13692   6
   4  -8  -1 3.75330 1.36092   5
   4  -8  -1 3.14281 2.08487   4
  -4   8   1 1.65790 0.93641   2
  -4   8   1 2.13829 1.24495   6
  -4   8   1 0.30656 1.29836   3
   3  -8  -1 5.02281 2.76462   1
   3  -8  -1 7.89699 2.23186   4
   3  -8  -1 8.25066 1.37620   5
  -3   8   1 6.73537 1.41039   6
  -3   8   1 6.17376 1.49589   3
  -3   8   1 8.74891 1.26215   2
   2  -8  -1 0.36579 0.65724   5
   2  -8  -1 -0.3519 1.52566   4
   2  -8  -1 1.62167 2.49472   1
  -2   8   1 -1.0344 0.72604   3
  -2   8   1 -0.8815 0.71058   6
  -2   8   1 0.55621 0.63711   2
   1  -8  -1 2.39050 2.47517   1
   1  -8  -1 1.76843 1.46547   4
   1  -8  -1 1.57527 1.06330   7
   1  -8  -1 1.30113 0.54053   5
  -1   8   1 1.12667 0.68252   2
  -1   8   1 0.96854 0.77851   3
  -1   8   1 1.68588 0.78798   6
   0  -8  -1 51.4346 3.56004   7
   0  -8  -1 46.4460 5.13297   1
   0  -8  -1 53.0680 3.37826   4
   0   8   1 52.9191 2.74829   2
   0   8   1 57.5772 2.70711   3
   0   8   1 51.2988 2.87529   6
   0   8   1 49.0646 2.31048   5
  -1  -8  -1 5.15231 2.28562   7
  -1  -8  -1 5.12109 1.30229   4
  -1  -8  -1 4.76566 2.90885   1
   1   8   1 3.03673 0.77000   5
   1   8   1 4.07331 1.04534   2
   1   8   1 3.45622 1.04811   3
   1   8   1 5.65065 1.21201   6
  -2  -8  -1 25.2005 4.65311   1
  -2  -8  -1 24.0018 1.89216   3
  -2  -8  -1 23.3102 4.08927   7
   2   8   1 23.1004 2.05306   3
   2   8   1 24.2416 2.40398   2
   2   8   1 22.9479 2.34482   6
  -3  -8  -1 5.06400 1.24004   3
  -3  -8  -1 8.03339 3.16376   1
  -3  -8  -1 4.50864 2.87052   7
   3   8   1 5.28285 1.56612   2
   3   8   1 5.00164 1.35546   6
  -4  -8  -1 0.17009 2.40987   7
   4   8   1 0.18262 0.94022   6
   4   8   1 -0.4756 1.30008   2
   5  -9  -1 5.24680 1.65638   5
   5  -9  -1 2.61143 2.57061   4
  -5   9   1 5.07367 1.66180   6
  -5   9   1 6.10844 2.04559   3
   4  -9  -1 9.71768 1.73629   5
   4  -9  -1 8.57692 2.75765   4
  -4   9   1 7.02597 1.62632   6
  -4   9   1 12.3118 2.31441   3
   3  -9  -1 15.5594 2.92791   4
   3  -9  -1 18.0508 2.00605   5
   3  -9  -1 13.5792 3.88565   1
  -3   9   1 13.8547 1.98985   6
  -3   9   1 17.2593 1.80756   2
  -3   9   1 12.6123 2.02105   3
   2  -9  -1 -1.3494 2.62855   1
   2  -9  -1 0.21229 1.68762   4
   2  -9  -1 0.60449 0.72917   5
  -2   9   1 -1.4951 0.82013   6
  -2   9   1 0.25013 0.71152   2
  -2   9   1 1.25099 1.05687   3
   1  -9  -1 3.18806 0.80177   5
   1  -9  -1 3.37054 1.84752   4
   1  -9  -1 1.66900 1.39626   7
   1  -9  -1 0.45281 2.92382   1
  -1   9   1 2.31094 1.05939   6
  -1   9   1 2.89055 1.04879   3
  -1   9   1 2.91124 0.96177   2
   0  -9  -1 -0.2572 2.93920   1
   0  -9  -1 -1.1097 1.72530   7
   0  -9  -1 -0.4465 1.49571   4
   0   9   1 1.58882 0.88688   2
   0   9   1 2.60759 0.93661   3
   0   9   1 3.48458 1.12465   6
  -1  -9  -1 27.6243 2.53034   4
  -1  -9  -1 21.0036 3.79287   7
  -1  -9  -1 24.0070 4.68928   1
   1   9   1 24.5065 2.14194   3
   1   9   1 24.4658 2.44423   2
   1   9   1 30.0523 2.59630   6
  -2  -9  -1 10.2783 3.28895   7
  -2  -9  -1 12.7025 3.78748   1
   2   9   1 15.3060 2.12407   2
   2   9   1 13.4952 2.44376   3
   2   9   1 13.1513 1.88337   6
  -3  -9  -1 -2.0053 2.39168   7
  -3  -9  -1 4.52643 2.78176   1
   3   9   1 1.46125 1.18795   6
   3   9   1 0.40716 1.32502   2
  -4  -9  -1 2.76351 2.96357   7
   4   9   1 2.89498 1.69216   2
   4   9   1 3.07544 1.26505   6
   5 -10  -1 3.31188 1.51253   5
   5 -10  -1 1.80816 2.63033   4
  -5  10   1 3.89016 1.63511   6
  -5  10   1 4.46042 1.95334   3
   4 -10  -1 1.29958 1.27553   5
   4 -10  -1 -0.3211 2.22981   4
  -4  10   1 1.60181 1.40605   6
  -4  10   1 1.13786 1.48230   3
   3 -10  -1 4.57444 2.32641   4
   3 -10  -1 2.33419 3.37739   1
   3 -10  -1 4.85648 1.34586   5
  -3  10   1 8.00705 1.76781   3
  -3  10   1 6.79763 1.35486   2
  -3  10   1 5.23477 1.68361   6
   2 -10  -1 13.2839 2.75669   4
   2 -10  -1 15.4561 1.69920   5
   2 -10  -1 13.6619 4.32117   1
  -2  10   1 14.1204 1.95271   3
  -2  10   1 13.0588 1.67251   2
  -2  10   1 13.9152 2.04275   6
   1 -10  -1 3.71179 3.54552   1
   1 -10  -1 7.01005 2.18686   4
  -1  10   1 7.39232 1.42678   2
  -1  10   1 5.69569 1.36685   3
  -1  10   1 4.37026 1.31079   6
   0 -10  -1 19.9766 3.43891   7
   0 -10  -1 17.3760 4.62122   1
   0 -10  -1 24.6086 2.79939   4
   0  10   1 28.5292 2.21252   3
   0  10   1 26.3937 2.51674   6
   0  10   1 25.8988 2.38406   2
  -1 -10  -1 38.6215 2.87145   4
  -1 -10  -1 28.7219 4.13263   7
  -1 -10  -1 25.4370 5.20843   1
   1  10   1 32.6810 2.83513   6
   1  10   1 36.7883 2.90494   2
  -2 -10  -1 4.09594 3.02449   7
  -2 -10  -1 8.97308 3.73754   1
   2  10   1 5.89485 1.52992   6
   2  10   1 6.24419 1.68870   2
  -3 -10  -1 4.95167 2.89914   1
  -3 -10  -1 -2.4675 2.77240   7
   3  10   1 -0.8626 0.96303   6
   3  10   1 0.73240 1.48267   2
  -4 -10  -1 22.0334 3.95085   1
   4 -11  -1 5.09953 1.54410   5
   4 -11  -1 5.16840 2.63439   4
  -4  11   1 2.94022 1.58456   3
  -4  11   1 5.43986 1.87426   6
   3 -11  -1 7.60323 4.06908   1
   3 -11  -1 10.9274 2.80366   4
  -3  11   1 10.6499 2.07124   3
  -3  11   1 10.9272 2.09789   6
   2 -11  -1 4.13677 2.14211   4
   2 -11  -1 -1.6065 3.24714   1
  -2  11   1 3.11038 1.49725   6
  -2  11   1 2.16579 1.37010   3
  -2  11   1 2.86295 1.12614   2
   1 -11  -1 0.97756 3.35263   1
   1 -11  -1 7.31446 2.13756   4
  -1  11   1 5.67239 1.44159   2
  -1  11   1 5.35661 1.48781   6
   0 -11  -1 10.4240 2.07794   4
   0 -11  -1 4.74856 3.75028   1
   0  11   1 7.74973 1.65577   2
   0  11   1 6.65236 1.59212   6
  -1 -11  -1 -1.6767 2.42827   7
  -1 -11  -1 1.02849 3.32229   1
   1  11   1 0.40499 1.23072   2
   1  11   1 1.94279 1.22888   6
  -2 -11  -1 5.31208 3.51108   1
  -2 -11  -1 0.42587 2.94185   7
   2  11   1 5.67696 1.65960   2
   2  11   1 4.61834 1.53857   6
  -3 -11  -1 6.99448 3.47346   1
  -3 -11  -1 -1.6704 2.99031   7
   3  11   1 0.75184 1.32064   6
   3  11   1 0.66654 1.54241   2
   4 -12  -1 6.74115 2.89227   4
  -4  12   1 5.67839 2.02549   3
  -4  12   1 3.42886 1.75597   6
   3 -12  -1 47.2952 4.62797   4
  -3  12   1 44.4627 3.89540   6
   2 -12  -1 42.2311 4.07532   4
   2 -12  -1 34.0535 6.14438   1
  -2  12   1 46.6863 3.80858   6
  -2  12   1 42.0265 3.76286   2
   1 -12  -1 0.88619 1.59585   4
   1 -12  -1 -2.1427 3.28729   1
  -1  12   1 -0.1772 1.15429   2
  -1  12   1 -0.3893 1.23120   6
   0 -12  -1 -1.5558 3.39991   1
   0 -12  -1 2.44020 1.50100   4
   0  12   1 -0.9474 1.14815   2
   0  12   1 -1.0833 1.18434   6
  -1 -12  -1 2.11756 3.69068   1
   1  12   1 2.98154 1.50462   2
   1  12   1 5.88430 1.71118   6
  -2 -12  -1 2.16716 3.42806   1
  -2 -12  -1 -0.6177 3.22061   7
   2  12   1 2.18466 1.51479   2
   2  12   1 0.98028 1.43561   6
   3 -13  -1 0.46874 2.24772   4
  -3  13   1 0.43571 1.67990   6
   2 -13  -1 3.68166 2.18917   4
   2 -13  -1 -2.3835 3.51622   1
  -2  13   1 -0.0378 1.51712   6
   1 -13  -1 2.57244 1.75579   4
   1 -13  -1 -3.6676 3.32138   1
  -1  13   1 1.80643 1.52551   6
  -1  13   1 -1.1797 1.29944   2
   0 -13  -1 -0.4217 3.52745   1
   0 -13  -1 1.96325 1.53353   4
   0  13   1 -1.3049 1.26082   6
   0  13   1 -1.7348 1.29414   2
  -1 -13  -1 3.18944 3.72641   1
   1  13   1 4.79668 1.87201   2
   1  13   1 5.25137 1.79641   6
   2 -14  -1 -2.7457 3.80324   1
   1 -14  -1 -1.8694 3.76784   1
   0 -14   2 5.75691 3.57438   1
  -1  14  -2 -1.0880 1.33256   2
   1 -14   2 3.83884 2.01423   4
   1 -14   2 6.54975 3.43740   1
   2 -14   2 8.25045 3.26554   1
   1  13  -2 -1.1037 1.47957   2
   1  13  -2 0.30961 1.42991   6
  -1 -13   2 5.89432 3.51171   1
   0  13  -2 -0.0860 1.36743   2
   0  13  -2 -0.7305 1.34448   6
   0 -13   2 3.51357 1.44919   4
   0 -13   2 3.08137 3.16624   1
  -1  13  -2 0.72274 1.37502   2
  -1  13  -2 1.45044 1.46503   6
   1 -13   2 3.17184 1.78437   4
   1 -13   2 6.52977 3.27760   1
  -2  13  -2 0.46341 1.34972   2
  -2  13  -2 -0.5356 1.48547   6
   2 -13   2 -1.3782 1.60707   4
   2 -13   2 2.04370 2.58987   1
  -3  13  -2 6.60678 1.86497   2
  -3  13  -2 6.30144 2.07418   6
   3 -13   2 4.90463 2.41511   4
   2  12  -2 0.08156 1.50676   2
   2  12  -2 0.30350 1.62155   6
  -2 -12   2 6.78770 3.38863   1
   1  12  -2 -0.6840 1.24287   6
   1  12  -2 -0.4335 1.41429   2
  -1 -12   2 4.80423 1.44487   4
  -1 -12   2 5.47150 3.27749   1
   0  12  -2 8.31463 1.81353   6
   0  12  -2 8.28657 1.86909   2
   0 -12   2 9.32396 2.00602   4
   0 -12   2 12.3719 4.13951   1
  -1  12  -2 5.46265 1.66367   6
  -1  12  -2 4.94620 1.56682   2
   1 -12   2 5.48850 3.09150   1
   1 -12   2 3.82473 1.81601   4
  -2  12  -2 1.77403 1.33795   2
  -2  12  -2 1.81607 1.46944   6
  -2  12  -2 2.17986 1.33334   5
   2 -12   2 2.99247 2.77439   1
   2 -12   2 4.09758 1.36297   5
   2 -12   2 4.39808 2.07480   4
  -3  12  -2 4.11584 1.83093   6
  -3  12  -2 1.85123 1.40140   2
   3 -12   2 4.98224 1.48731   5
   3 -12   2 4.59270 2.21140   4
  -4  12  -2 2.03071 1.57438   2
  -4  12  -2 3.21018 1.88562   6
   4 -12   2 5.01284 2.34450   4
   4 -12   2 2.94011 1.39705   5
   3  11  -2 1.37451 1.66158   2
  -3 -11   2 4.12622 2.81544   7
  -3 -11   2 10.6022 3.54358   1
   2  11  -2 12.1797 2.33986   2
   2  11  -2 10.2367 1.91892   6
  -2 -11   2 13.2307 3.34322   7
   1  11  -2 62.7765 3.94000   6
   1  11  -2 65.9616 4.26237   2
  -1 -11   2 78.5796 4.52839   4
  -1 -11   2 67.4560 6.72297   1
   0  11  -2 8.37923 1.84686   2
   0  11  -2 9.28016 1.78184   6
   0  11  -2 10.3691 1.67516   5
   0 -11   2 12.7186 2.31291   4
   0 -11   2 11.5750 3.76162   1
  -1  11  -2 0.80717 1.11859   6
  -1  11  -2 0.31944 1.10428   2
  -1  11  -2 0.26476 0.98265   5
   1 -11   2 1.10366 1.49162   4
   1 -11   2 -0.0193 0.98762   5
   1 -11   2 0.11530 2.49594   1
  -2  11  -2 6.33925 1.55921   2
  -2  11  -2 4.92353 1.56866   6
   2 -11   2 6.35121 3.08689   1
   2 -11   2 7.00915 2.22225   4
   2 -11   2 6.30743 1.39867   5
  -3  11  -2 1.20952 1.44540   6
  -3  11  -2 -0.3826 1.10627   2
   3 -11   2 0.52043 0.99023   5
   3 -11   2 0.45745 1.79278   4
  -4  11  -2 1.56608 1.30118   2
  -4  11  -2 2.83974 1.66344   6
   4 -11   2 5.44699 2.30971   4
   4 -11   2 3.99250 1.55062   5
   3  10  -2 0.57789 1.48675   2
  -3 -10   2 6.66150 2.76266   1
  -3 -10   2 1.83732 2.42384   7
   2  10  -2 19.1232 2.22826   6
   2  10  -2 22.0630 2.75939   2
  -2 -10   2 30.3350 4.88439   1
  -2 -10   2 22.5612 3.95179   7
   1  10  -2 9.32564 1.91539   2
   1  10  -2 10.0663 1.56536   5
   1  10  -2 8.59344 1.64686   6
  -1 -10   2 10.6163 2.87740   7
  -1 -10   2 9.21557 3.59209   1
  -1 -10   2 10.1076 2.06109   4
   0  10  -2 24.8466 2.06527   5
   0  10  -2 21.7351 2.35958   2
   0  10  -2 21.6035 2.29835   6
   0 -10   2 19.0303 4.26143   1
   0 -10   2 22.8324 2.72092   4
  -1  10  -2 0.84825 1.10355   6
  -1  10  -2 2.18426 0.99969   5
  -1  10  -2 5.28379 1.33687   2
   1 -10   2 1.95133 2.66219   1
   1 -10   2 2.39169 0.98647   5
   1 -10   2 2.25545 1.55357   4
  -2  10  -2 21.8325 2.45594   6
  -2  10  -2 24.0508 2.40803   2
   2 -10   2 28.5221 2.25369   5
   2 -10   2 22.1807 3.97552   1
   2 -10   2 19.6973 2.90768   4
  -3  10  -2 3.63284 1.35998   2
  -3  10  -2 4.12154 1.31843   3
  -3  10  -2 3.07825 1.41633   6
   3 -10   2 4.19319 2.04734   4
   3 -10   2 4.74987 1.36311   5
  -4  10  -2 4.52729 1.57586   2
  -4  10  -2 5.42877 1.71211   6
  -4  10  -2 7.69903 1.75174   3
   4 -10   2 6.99774 1.68069   5
   4 -10   2 6.75313 2.43328   4
  -5  10  -2 2.85460 1.76512   3
  -5  10  -2 4.84571 1.85748   6
  -5  10  -2 2.62218 1.49726   2
   5 -10   2 4.68636 2.37594   4
   5 -10   2 4.97250 1.75344   5
  -4  -9   2 2.33374 2.68533   7
   3   9  -2 -1.4504 1.25694   2
   3   9  -2 -1.4850 0.91823   5
  -3  -9   2 1.73979 2.35789   7
  -3  -9   2 5.04708 2.59656   1
   2   9  -2 5.34461 1.58624   2
   2   9  -2 6.28388 1.38662   5
   2   9  -2 5.21542 1.31297   6
  -2  -9   2 8.80400 3.27828   1
  -2  -9   2 7.33131 1.61398   4
  -2  -9   2 7.83604 2.74567   7
   1   9  -2 2.15965 0.87552   5
   1   9  -2 2.03393 1.00053   6
   1   9  -2 2.25591 1.07048   2
  -1  -9   2 -0.6739 2.52536   1
  -1  -9   2 1.84019 1.48181   4
  -1  -9   2 -1.5912 2.01607   7
   0   9  -2 25.7606 2.12875   6
   0   9  -2 19.8238 2.04730   2
   0   9  -2 23.0242 1.84161   5
   0  -9   2 20.1529 2.80253   7
   0  -9   2 20.9786 2.59623   4
   0  -9   2 21.5661 4.23916   1
   0  -9   2 24.1134 1.86475   5
  -1   9  -2 49.8300 3.02046   6
  -1   9  -2 48.8647 2.73242   5
  -1   9  -2 43.7011 2.80082   2
   1  -9   2 47.9295 4.89269   1
   1  -9   2 46.3801 3.43287   4
   1  -9   2 46.9766 2.67436   5
  -2   9  -2 17.2052 1.78354   3
  -2   9  -2 18.2473 2.05033   2
  -2   9  -2 17.7151 2.11092   6
   2  -9   2 20.9609 2.79856   4
   2  -9   2 23.0212 2.01107   5
   2  -9   2 19.0072 3.64415   1
  -3   9  -2 23.3430 2.31691   3
  -3   9  -2 26.0732 2.67113   6
  -3   9  -2 27.6002 2.45853   2
   3  -9   2 24.8673 3.08591   4
   3  -9   2 24.6243 2.30816   5
  -4   9  -2 4.57055 1.38533   2
  -4   9  -2 5.09624 1.53501   3
  -4   9  -2 6.22537 1.71737   6
   4  -9   2 8.46983 2.42981   4
   4  -9   2 7.63250 1.60043   5
  -5   9  -2 0.91443 1.24457   2
  -5   9  -2 3.17671 1.55563   3
  -5   9  -2 -0.9631 1.27663   6
   5  -9   2 -1.2017 1.34642   5
   5  -9   2 1.59033 1.28987   2
   5  -9   2 4.37656 2.20863   4
   4   8  -2 0.13429 1.16788   5
   4   8  -2 0.85819 1.51138   2
  -4  -8   2 7.58474 2.53824   1
  -4  -8   2 2.88597 2.37454   7
   3   8  -2 7.73137 1.53620   5
   3   8  -2 10.5788 1.50568   6
   3   8  -2 12.8795 2.03544   2
  -3  -8   2 12.0976 3.28313   7
  -3  -8   2 15.1285 3.67341   1
   2   8  -2 31.7080 2.26685   6
   2   8  -2 24.6348 2.35880   2
   2   8  -2 25.6345 2.12089   5
  -2  -8   2 29.3050 2.44212   4
  -2  -8   2 23.2721 3.83158   7
  -2  -8   2 23.3772 4.23061   1
   1   8  -2 4.38981 1.00905   5
   1   8  -2 4.04692 1.00065   6
   1   8  -2 4.07594 1.06348   2
  -1  -8   2 3.86389 2.30527   7
  -1  -8   2 2.20662 2.61666   1
  -1  -8   2 3.24404 1.36471   4
   0   8  -2 2.30260 0.88003   2
   0   8  -2 3.01408 0.91399   6
   0   8  -2 2.68421 0.61470   3
   0   8  -2 2.32595 0.77155   5
   0  -8   2 2.76754 1.53148   7
   0  -8   2 3.40196 0.86039   5
   0  -8   2 2.16062 1.21176   4
   0  -8   2 0.90741 2.24497   1
  -1   8  -2 158.669 5.68278   3
  -1   8  -2 164.684 6.25142   2
  -1   8  -2 166.573 6.28809   6
   1  -8   2 155.322 8.03697   1
   1  -8   2 167.427 6.84370   4
   1  -8   2 158.287 6.05369   5
  -2   8  -2 2.61838 0.93928   2
  -2   8  -2 0.54155 0.86890   6
  -2   8  -2 2.20724 0.87965   3
   2  -8   2 3.60024 2.20875   1
   2  -8   2 2.42847 1.52748   4
   2  -8   2 2.01311 0.89669   5
  -3   8  -2 8.63537 1.54568   6
  -3   8  -2 8.41738 1.48089   2
  -3   8  -2 6.61882 1.45670   3
   3  -8   2 8.54098 2.13911   4
   3  -8   2 9.88754 2.37726   1
   3  -8   2 7.73267 1.43926   5
  -4   8  -2 62.3623 3.96713   3
  -4   8  -2 65.5372 4.05788   6
  -4   8  -2 64.7054 3.73979   2
   4  -8   2 62.0011 4.47296   4
   4  -8   2 65.5931 3.64484   2
   4  -8   2 62.4458 3.82424   5
  -5   8  -2 9.45830 1.93730   3
  -5   8  -2 7.72394 1.80409   2
  -5   8  -2 8.26246 1.91656   6
   5  -8   2 6.94073 2.28759   4
   5  -8   2 4.81756 1.63558   5
   5  -8   2 5.09300 1.54816   2
  -6   8  -2 8.26198 2.23777   2
   6  -8   2 7.26908 1.99431   2
   6  -8   2 6.06935 2.06857   5
   5   7  -2 -1.1500 1.42043   5
   5   7  -2 1.29327 1.67454   2
  -5  -7   2 5.73811 2.73278   7
   4   7  -2 2.97153 1.31356   5
   4   7  -2 2.79400 1.45721   2
  -4  -7   2 4.85564 2.75269   7
  -4  -7   2 8.44725 2.70487   1
   3   7  -2 0.82316 1.05416   2
   3   7  -2 0.13121 0.70926   6
   3   7  -2 0.45625 0.90557   5
  -3  -7   2 2.38001 2.17633   1
  -3  -7   2 0.13118 2.10210   7
   2   7  -2 6.54724 1.16995   5
   2   7  -2 6.44497 1.10922   6
   2   7  -2 6.32217 1.22709   2
  -2  -7   2 5.29054 2.40479   7
  -2  -7   2 4.81596 2.65814   1
  -2  -7   2 7.57871 1.39590   4
  -2  -7   2 8.01604 1.54345   3
   1   7  -2 23.8482 1.74862   6
   1   7  -2 24.8944 1.72638   5
   1   7  -2 22.7569 1.84813   2
  -1  -7   2 20.8625 3.41892   1
  -1  -7   2 24.6005 2.03455   4
  -1  -7   2 24.4790 2.91030   7
  -1  -7   2 22.6700 1.18909   3
   0   7  -2 4.58124 0.89166   2
   0   7  -2 4.13302 0.60267   3
   0   7  -2 3.75765 0.85286   6
   0   7  -2 5.03383 0.91517   5
   0  -7   2 5.65958 1.49681   7
   0  -7   2 5.00077 0.91407   5
   0  -7   2 5.73594 2.25602   1
   0  -7   2 4.91416 1.24431   4
  -1   7  -2 318.907 10.3331   6
  -1   7  -2 308.988 10.2855   2
  -1   7  -2 279.205 9.74530   3
   1  -7   2 303.360 11.9177   1
   1  -7   2 299.973 10.1449   5
   1  -7   2 297.545 10.7172   4
  -2   7  -2 6.04996 1.07246   6
  -2   7  -2 6.95133 1.17574   3
  -2   7  -2 8.32960 1.24375   2
   2  -7   2 7.36640 1.18792   5
   2  -7   2 9.25597 1.78232   4
   2  -7   2 10.0875 2.31459   1
  -3   7  -2 1.02736 0.85646   6
  -3   7  -2 2.05001 0.95111   2
  -3   7  -2 0.84955 1.09374   3
   3  -7   2 0.55138 0.73203   2
   3  -7   2 3.04133 1.61428   1
   3  -7   2 2.42155 1.58464   4
   3  -7   2 0.78706 0.90642   5
  -4   7  -2 224.990 8.93662   3
  -4   7  -2 226.155 8.72585   6
  -4   7  -2 232.211 8.50974   2
   4  -7   2 222.727 8.68429   5
   4  -7   2 216.827 8.39170   2
   4  -7   2 220.469 9.23216   4
  -5   7  -2 20.5766 2.48519   2
  -5   7  -2 13.4928 2.13383   6
  -5   7  -2 17.3219 2.52801   3
   5  -7   2 18.5920 3.01936   4
   5  -7   2 18.9208 2.62371   5
   5  -7   2 24.4908 2.64959   2
  -6   7  -2 1.17326 1.43563   2
  -6   7  -2 3.23983 1.94389   3
  -6   7  -2 1.65552 1.65530   6
   6  -7   2 2.01979 1.54902   2
   6  -7   2 2.47365 1.77790   5
   5   6  -2 1.76064 1.55668   2
   5   6  -2 1.92438 1.54159   5
  -5  -6   2 5.30908 2.82298   7
   4   6  -2 -0.4071 0.98788   5
   4   6  -2 0.40977 1.13066   2
  -4  -6   2 0.31249 2.08573   7
  -4  -6   2 4.66663 2.17369   1
   3   6  -2 56.3395 3.36080   2
   3   6  -2 55.9603 3.17886   5
   3   6  -2 56.4561 2.87314   6
  -3  -6   2 55.3173 2.99528   3
  -3  -6   2 67.9361 3.65595   4
  -3  -6   2 57.4168 5.22726   1
  -3  -6   2 52.8684 4.92273   7
   2   6  -2 123.986 4.96975   5
   2   6  -2 126.269 5.12251   2
   2   6  -2 126.370 4.72851   6
  -2  -6   2 125.134 7.03143   1
  -2  -6   2 128.475 5.09129   4
  -2  -6   2 116.428 6.33229   7
  -2  -6   2 117.564 4.43991   3
   1   6  -2 43.1549 2.23254   5
   1   6  -2 40.9267 2.12662   6
   1   6  -2 41.3749 2.33543   2
  -1  -6   2 43.6516 3.85739   1
  -1  -6   2 44.3007 2.50602   4
  -1  -6   2 40.0448 1.67394   3
  -1  -6   2 44.2007 3.25528   7
   0   6  -2 65.9917 2.87138   6
   0   6  -2 64.7491 2.94755   2
   0   6  -2 71.0270 2.93894   5
   0   6  -2 61.7905 2.36193   3
   0  -6   2 67.4456 2.91268   5
   0  -6   2 66.4457 3.28997   4
   0  -6   2 65.4801 4.39425   1
   0  -6   2 65.8717 3.27470   7
  -1   6  -2 57.5863 2.41678   3
  -1   6  -2 59.6684 2.75441   2
  -1   6  -2 60.1372 2.74868   6
   1  -6   2 60.3496 3.94241   1
   1  -6   2 54.5089 2.62416   5
   1  -6   2 60.9121 3.18814   4
  -2   6  -2 14.1510 1.32601   2
  -2   6  -2 8.54544 1.10130   6
  -2   6  -2 10.2910 1.29313   3
   2  -6   2 13.3734 1.19578   2
   2  -6   2 12.2265 1.81381   4
   2  -6   2 13.9750 2.16586   1
   2  -6   2 13.3645 1.29371   5
  -3   6  -2 12.0937 1.72297   3
  -3   6  -2 13.7362 1.55161   2
  -3   6  -2 11.3203 1.49500   6
   3  -6   2 11.7537 1.89876   1
   3  -6   2 14.2395 2.15913   4
   3  -6   2 11.9552 1.62204   5
   3  -6   2 12.3711 1.41996   2
  -4   6  -2 74.1504 3.82470   2
  -4   6  -2 76.3795 4.29926   3
  -4   6  -2 70.0637 3.89796   6
   4  -6   2 72.4560 4.03148   5
   4  -6   2 68.9269 4.45564   4
   4  -6   2 76.9116 3.78971   2
  -5   6  -2 2.43784 1.34275   6
  -5   6  -2 3.22960 1.28847   2
  -5   6  -2 2.59464 1.48836   3
   5  -6   2 4.95916 1.53727   2
   5  -6   2 1.56147 1.38633   5
   5  -6   2 2.65339 1.90628   4
  -6   6  -2 1.05728 1.77415   3
  -6   6  -2 0.45109 1.44581   6
   6  -6   2 1.57568 1.57138   5
   6  -6   2 0.14153 1.33558   2
   5   5  -2 18.2518 2.54289   5
   5   5  -2 30.4035 3.19124   2
  -5  -5   2 21.0867 3.16898   3
  -5  -5   2 32.2133 4.66150   7
   4   5  -2 38.3145 2.94258   2
   4   5  -2 33.5213 2.78856   5
  -4  -5   2 40.4415 4.23263   1
  -4  -5   2 33.6269 4.52496   7
  -4  -5   2 32.4736 2.78096   3
   3   5  -2 290.957 9.66810   6
   3   5  -2 297.636 10.2594   2
   3   5  -2 290.437 10.1624   5
   3   5  -2 283.672 9.97332   4
  -3  -5   2 287.350 9.81994   3
  -3  -5   2 263.503 11.8529   7
  -3  -5   2 296.586 10.0110   4
  -3  -5   2 292.206 12.3107   1
   2   5  -2 144.872 5.18900   6
   2   5  -2 146.574 5.58553   2
   2   5  -2 144.196 5.49757   5
  -2  -5   2 145.983 5.55843   4
  -2  -5   2 138.670 7.10988   1
  -2  -5   2 140.548 6.75015   7
  -2  -5   2 148.952 5.07503   3
   1   5  -2 54.7647 2.33091   6
   1   5  -2 54.7392 2.56203   2
   1   5  -2 55.3618 2.50653   5
  -1  -5   2 56.7513 3.92157   1
  -1  -5   2 51.9129 1.96806   3
  -1  -5   2 57.2386 3.36042   7
  -1  -5   2 49.3711 2.59095   4
   0   5  -2 40.6437 1.88268   6
   0   5  -2 38.2264 1.88697   5
   0   5  -2 37.3487 1.45022   3
   0   5  -2 38.6823 1.94530   2
   0  -5   2 37.0948 1.89755   5
   0  -5   2 35.9111 2.14549   4
   0  -5   2 41.2207 3.10205   1
   0  -5   2 41.6308 2.23417   7
  -1   5  -2 133.628 4.78530   6
  -1   5  -2 117.254 4.43681   3
  -1   5  -2 131.494 4.77854   2
   1  -5   2 131.180 5.77278   1
   1  -5   2 135.318 5.17969   4
   1  -5   2 127.989 4.73372   5
  -2   5  -2 -1.1672 0.58970   3
  -2   5  -2 0.04728 0.44753   2
  -2   5  -2 -0.1426 0.41100   6
   2  -5   2 0.70731 0.53666   5
   2  -5   2 0.18564 0.84288   4
   2  -5   2 0.10473 0.38603   2
   2  -5   2 0.78414 0.93157   1
  -3   5  -2 133.843 5.59812   3
  -3   5  -2 135.606 5.31874   2
   3  -5   2 138.276 5.50876   5
   3  -5   2 137.705 5.88435   4
   3  -5   2 139.353 5.33623   2
  -4   5  -2 136.588 5.75958   6
  -4   5  -2 131.908 6.05309   3
   4  -5   2 134.164 6.18174   4
   4  -5   2 134.880 5.84619   5
   4  -5   2 137.573 5.59655   2
  -5   5  -2 8.15062 2.00685   3
  -5   5  -2 7.02251 1.77797   6
   5  -5   2 9.44739 1.96754   5
   5  -5   2 8.91783 2.11641   4
   5  -5   2 12.1980 1.95698   2
  -6   5  -2 4.43639 1.99063   3
  -6   5  -2 6.39987 1.88068   6
   6  -5   2 2.70618 1.69385   5
   6  -5   2 5.17819 1.76341   2
   6   4  -2 -0.9617 1.56400   5
   6   4  -2 1.02599 1.64328   2
  -6  -4   2 9.87882 3.20061   7
  -6  -4   2 1.89801 2.04457   3
   5   4  -2 4.48079 1.69513   5
   5   4  -2 5.41730 1.64267   2
  -5  -4   2 5.54349 1.77415   3
  -5  -4   2 7.32911 3.01030   7
   4   4  -2 28.0782 2.45272   5
   4   4  -2 24.0617 2.33548   2
   4   4  -2 24.9256 1.85326   6
  -4  -4   2 21.9544 2.47253   3
  -4  -4   2 30.5444 3.63929   1
  -4  -4   2 22.9132 3.86048   7
   3   4  -2 0.73231 0.61667   4
   3   4  -2 1.31822 0.55893   6
   3   4  -2 1.03993 0.69117   5
   3   4  -2 2.30590 0.87376   2
  -3  -4   2 0.86630 0.81677   3
  -3  -4   2 0.96315 1.74578   7
  -3  -4   2 0.16857 1.55717   1
   2   4  -2 294.827 9.56119   6
   2   4  -2 289.265 9.95202   2
   2   4  -2 301.660 9.98990   5
  -2  -4   2 303.020 9.58255   3
  -2  -4   2 302.173 11.5635   1
  -2  -4   2 283.337 9.95115   4
  -2  -4   2 291.593 11.1521   7
   1   4  -2 132.608 4.58975   6
   1   4  -2 130.801 4.84653   2
   1   4  -2 134.427 4.85963   5
  -1  -4   2 138.585 5.59724   7
  -1  -4   2 133.629 4.97422   4
  -1  -4   2 131.505 4.34439   3
  -1  -4   2 139.726 6.17444   1
   0   4  -2 2.60076 0.48875   6
   0   4  -2 2.12298 0.49132   2
   0   4  -2 3.03826 0.53204   5
   0  -4   2 1.89748 0.63689   4
   0  -4   2 3.04981 0.55152   5
   0  -4   2 2.36716 0.75994   7
   0  -4   2 2.45692 1.19646   1
  -1   4  -2 74.4522 2.87232   6
  -1   4  -2 72.1464 2.68647   3
  -1   4  -2 71.2573 2.82022   2
   1  -4   2 67.9540 2.83895   5
   1  -4   2 71.5940 3.49043   1
   1  -4   2 65.4740 3.07378   4
  -2   4  -2 82.8838 3.38770   2
  -2   4  -2 84.6046 3.45879   6
  -2   4  -2 87.0269 3.49807   3
   2  -4   2 80.5539 3.55091   1
   2  -4   2 78.9252 3.34901   2
   2  -4   2 87.7810 3.50159   5
   2  -4   2 88.2450 3.77791   4
  -3   4  -2 5.94355 1.17494   3
  -3   4  -2 4.07090 0.83857   6
   3  -4   2 5.70067 0.95850   2
   3  -4   2 8.63420 1.54212   4
   3  -4   2 5.75475 1.10244   5
  -4   4  -2 10.3738 1.84623   3
  -4   4  -2 8.93168 1.45513   6
  -4   4  -2 11.6084 1.86877   7
   4  -4   2 10.5831 1.47118   2
   4  -4   2 11.1992 1.70188   5
   4  -4   2 11.0942 1.99497   4
  -5   4  -2 -0.2053 1.04568   6
  -5   4  -2 0.83652 1.32452   3
   5  -4   2 1.15039 1.10058   2
   5  -4   2 0.79567 1.46364   4
   5  -4   2 0.36629 1.18259   5
  -6   4  -2 -0.7902 1.61476   3
  -6   4  -2 -0.1173 1.26684   6
   6  -4   2 -0.8844 1.38606   5
   6  -4   2 0.33776 1.34978   2
   6   3  -2 6.69588 2.04891   2
  -6  -3   2 2.26981 1.74410   3
  -6  -3   2 11.6502 3.28678   7
   5   3  -2 0.74482 1.15007   2
   5   3  -2 -0.4245 1.18951   5
  -5  -3   2 -0.1209 1.26379   3
  -5  -3   2 1.61075 2.29661   7
   4   3  -2 7.73722 1.50350   5
   4   3  -2 5.06053 0.92771   6
   4   3  -2 7.55153 1.34658   2
  -4  -3   2 3.90873 2.36522   7
  -4  -3   2 6.01264 0.95326   6
  -4  -3   2 5.83775 1.61393   3
  -4  -3   2 8.39246 2.38762   1
   3   3  -2 52.7883 2.33113   6
   3   3  -2 53.8699 2.75601   2
   3   3  -2 55.4240 2.84872   5
   3   3  -2 53.7470 2.64986   4
  -3  -3   2 47.9393 4.03659   7
  -3  -3   2 58.8028 2.83910   3
  -3  -3   2 57.4907 3.97225   1
   2   3  -2 151.121 5.49445   5
   2   3  -2 151.448 5.48694   4
   2   3  -2 147.386 5.03296   6
   2   3  -2 148.220 5.41777   2
  -2  -3   2 153.108 6.58031   7
  -2  -3   2 143.954 5.42479   4
  -2  -3   2 147.896 6.63439   1
  -2  -3   2 153.573 5.20844   3
   1   3  -2 9.78186 0.67318   6
   1   3  -2 10.9116 0.87970   2
   1   3  -2 9.96734 0.83148   5
  -1  -3   2 10.4827 1.45353   7
  -1  -3   2 10.7558 0.64458   3
  -1  -3   2 10.0277 1.55695   1
  -1  -3   2 9.79877 0.91167   4
   0   3  -2 25.3300 1.30109   2
   0   3  -2 27.0014 1.21327   6
   0   3  -2 26.2885 1.29693   5
   0  -3   2 27.3328 1.51594   7
   0  -3   2 24.6003 2.01486   1
   0  -3   2 24.7035 1.48152   4
   0  -3   2 25.5634 1.28938   5
  -1   3  -2 57.7441 2.35014   2
  -1   3  -2 62.1508 2.29710   3
  -1   3  -2 59.0400 2.38948   6
   1  -3   2 58.3940 2.76021   1
   1  -3   2 55.5016 2.38355   5
   1  -3   2 56.8764 2.34315   2
   1  -3   2 59.8351 2.59627   4
  -2   3  -2 95.1959 3.73671   3
   2  -3   2 94.7699 3.66138   2
   2  -3   2 90.8937 3.70642   5
   2  -3   2 97.0902 3.87571   4
  -3   3  -2 -0.1309 0.67116   3
  -3   3  -2 0.98761 0.50023   6
  -3   3  -2 0.14739 0.88711   7
   3  -3   2 -0.3811 0.83376   4
   3  -3   2 0.11947 0.45696   2
   3  -3   2 0.00660 0.59814   5
  -4   3  -2 0.69584 1.28051   7
  -4   3  -2 0.57218 1.06436   3
  -4   3  -2 0.57266 0.73796   6
   4  -3   2 2.81986 1.27225   4
   4  -3   2 0.75729 0.75629   2
   4  -3   2 0.33882 0.90978   5
  -5   3  -2 3.53948 1.53870   7
  -5   3  -2 0.58445 1.09467   6
  -5   3  -2 0.68553 1.34936   3
   5  -3   2 0.21002 1.12536   5
   5  -3   2 0.42610 1.06752   2
  -6   3  -2 -1.0197 1.55500   3
  -6   3  -2 -2.0143 1.12199   6
   6  -3   2 0.66605 1.40475   2
   6  -3   2 -0.6798 1.32222   5
   6   2  -2 6.92976 1.79969   2
   6   2  -2 1.34311 1.77746   5
  -6  -2   2 5.34549 1.86144   3
   5   2  -2 1.60356 1.31846   5
   5   2  -2 4.41666 1.39951   2
  -5  -2   2 3.26320 1.59634   3
  -5  -2   2 4.43397 2.39689   7
   4   2  -2 4.82777 1.12340   2
   4   2  -2 2.15021 0.66892   6
   4   2  -2 2.14454 0.84239   4
   4   2  -2 2.67186 1.05752   5
  -4  -2   2 0.61477 2.18357   7
  -4  -2   2 2.39611 0.73014   6
  -4  -2   2 1.64555 1.48600   1
  -4  -2   2 1.96893 1.19061   3
   3   2  -2 130.506 5.12927   2
   3   2  -2 134.235 4.74851   6
   3   2  -2 134.185 5.29388   5
   3   2  -2 132.413 5.12546   4
  -3  -2   2 142.313 5.31310   3
  -3  -2   2 141.517 6.37068   1
  -3  -2   2 132.656 6.62158   7
   2   2  -2 18.0067 0.96886   6
   2   2  -2 19.1679 1.28878   4
   2   2  -2 18.9519 1.26201   2
   2   2  -2 19.6753 1.32920   5
  -2  -2   2 19.2953 1.92760   1
  -2  -2   2 20.8411 1.36317   4
  -2  -2   2 22.4143 1.34538   3
  -2  -2   2 18.8171 2.11633   7
   1   2  -2 571.425 18.3518   6
   1   2  -2 585.275 18.6356   2
   1   2  -2 602.361 18.7842   5
  -1  -2   2 620.435 19.7115   1
  -1  -2   2 569.568 18.8349   4
  -1  -2   2 639.256 18.4576   3
  -1  -2   2 638.700 19.4404   7
   0   2  -2 5200.32 159.708   2
   0   2  -2 5159.94 159.795   5
   0   2  -2 5239.10 159.272   6
   0  -2   2 5393.83 163.588   1
   0  -2   2 5000.66 160.304   4
   0  -2   2 5677.55 161.441   7
   0  -2   2 5209.88 159.358   5
  -1   2  -2 9987.24 298.462   6
  -1   2  -2 9763.28 297.975   3
   1  -2   2 9795.79 299.096   4
   1  -2   2 9999.99 298.609   5
   1  -2   2 9750.08 298.518   2
  -2   2  -2 547.664 17.4816   3
  -2   2  -2 545.623 17.6138   7
  -2   2  -2 568.763 17.4366   6
   2  -2   2 563.696 17.4551   4
   2  -2   2 540.369 17.4186   2
   2  -2   2 553.786 17.4605   5
   2  -2   2 556.303 17.3904   6
  -3   2  -2 3.97582 0.77854   6
  -3   2  -2 2.49415 0.81601   3
   3  -2   2 2.88993 0.77883   2
   3  -2   2 3.29002 0.90801   5
   3  -2   2 2.66056 0.63455   6
   3  -2   2 3.06620 0.98636   4
  -4   2  -2 4.22642 1.86451   7
  -4   2  -2 3.33002 0.87716   6
  -4   2  -2 1.43575 1.12079   3
   4  -2   2 2.99650 0.81154   6
   4  -2   2 4.38220 1.26866   5
   4  -2   2 5.69108 1.15701   2
   4  -2   2 4.03189 1.24219   4
  -5   2  -2 10.0431 2.38882   7
  -5   2  -2 8.12105 1.53479   6
  -5   2  -2 6.87385 1.91626   3
   5  -2   2 8.67051 1.71480   2
   5  -2   2 8.66474 1.91025   5
  -6   2  -2 4.72156 2.11925   3
  -6   2  -2 2.69357 1.46515   6
   6  -2   2 6.69848 1.89443   2
   6  -2   2 4.28919 1.80527   5
   6   1  -2 0.79738 1.27111   2
   6   1  -2 -1.7225 1.36541   5
  -6  -1   2 0.88803 1.66582   3
   5   1  -2 3.58421 1.46832   5
   5   1  -2 4.23578 1.40762   2
  -5  -1   2 2.29497 1.65489   3
  -5  -1   2 2.73237 2.40214   7
   4   1  -2 2.71041 1.05830   5
   4   1  -2 0.41636 0.76731   2
   4   1  -2 2.40456 0.84365   4
   4   1  -2 1.20462 0.57021   6
  -4  -1   2 -1.1695 1.59511   7
  -4  -1   2 1.63411 1.28906   1
  -4  -1   2 2.20324 1.18918   3
  -4  -1   2 2.06529 0.65242   6
   3   1  -2 124.682 4.38277   6
   3   1  -2 125.742 4.80544   4
   3   1  -2 127.040 4.94972   5
   3   1  -2 125.436 4.73953   2
  -3  -1   2 127.558 5.70495   1
  -3  -1   2 110.930 5.91704   7
  -3  -1   2 127.411 4.94937   3
  -3  -1   2 123.870 4.38348   6
   2   1  -2 0.06258 0.34177   5
   2   1  -2 0.22816 0.21805   6
   2   1  -2 -0.0080 0.30299   4
   2   1  -2 -0.1562 0.31180   2
  -2  -1   2 0.16775 0.64465   1
  -2  -1   2 -0.1808 0.19908   6
  -2  -1   2 0.14598 0.41070   3
  -2  -1   2 1.72984 1.03302   7
   1   1  -2 4483.02 139.161   6
   1   1  -2 4616.50 140.127   2
   1   1  -2 4695.34 141.065   4
   1   1  -2 4667.94 140.922   5
  -1  -1   2 5023.76 140.531   3
  -1  -1   2 4001.72 140.159   4
  -1  -1   2 4709.22 142.530   1
  -1  -1   2 5133.16 144.156   7
  -1  -1   2 4349.75 139.125   6
   0   1  -2 12.6881 0.68014   5
   0   1  -2 12.7713 0.55747   6
   0   1  -2 11.7011 0.61522   2
   0   1  -2 14.2450 0.98034   7
   0   1  -2 12.5287 0.54742   3
   0   1  -2 12.3135 0.54725   6
   0  -1   2 12.1027 0.54282   6
   0  -1   2 12.4921 1.01686   1
   0  -1   2 10.1447 0.72544   4
   0  -1   2 11.4698 0.52656   3
   0  -1   2 12.8105 0.68313   5
   0  -1   2 12.5118 0.81092   7
  -1   1  -2 2146.18 64.5998   6
  -1   1  -2 2084.80 65.1659   7
  -1   1  -2 2104.22 64.9365   1
  -1   1  -2 2113.96 64.7383   3
   1  -1   2 2022.82 65.2139   1
   1  -1   2 2187.45 65.1318   4
   1  -1   2 2152.37 65.2161   2
   1  -1   2 2182.54 65.2381   5
   1  -1   2 2198.05 65.5332   6
  -2   1  -2 532.510 16.8880   6
  -2   1  -2 543.225 17.0195   3
  -2   1  -2 537.486 17.4163   7
   2  -1   2 546.171 16.7759   4
   2  -1   2 533.248 16.8941   6
   2  -1   2 535.529 16.9595   5
   2  -1   2 541.990 16.9742   2
  -3   1  -2 2.65813 0.85734   3
  -3   1  -2 4.34457 1.46531   7
  -3   1  -2 3.80303 0.75417   6
   3  -1   2 2.50515 0.61696   6
   3  -1   2 3.22549 0.85001   4
   3  -1   2 2.66965 0.77637   2
   3  -1   2 2.44161 0.90938   5
  -4   1  -2 41.5001 2.92179   3
  -4   1  -2 40.0057 3.79805   7
  -4   1  -2 44.6297 2.52207   6
   4  -1   2 44.5926 2.83822   5
   4  -1   2 42.8509 2.66720   2
   4  -1   2 38.4099 2.39318   4
   4  -1   2 41.6358 2.42178   6
  -5   1  -2 3.33103 1.97757   7
  -5   1  -2 -0.2148 1.14007   6
  -5   1  -2 1.65503 1.49947   3
   5  -1   2 0.48775 0.97052   6
   5  -1   2 1.80808 1.39564   5
   5  -1   2 1.77109 1.22337   2
  -6   1  -2 8.33058 2.40251   3
  -6   1  -2 6.91653 1.73941   6
   6  -1   2 7.24487 2.07420   5
   6  -1   2 6.44104 1.81430   2
   6   0  -2 -1.3659 1.49616   5
   6   0  -2 1.11733 1.26356   2
  -6   0   2 -0.2080 1.54833   3
   5   0  -2 1.35842 1.29296   5
   5   0  -2 2.21081 1.08242   2
  -5   0   2 4.15082 2.24646   7
  -5   0   2 0.01644 1.37615   3
   4   0  -2 92.5068 4.23012   4
   4   0  -2 98.0498 4.20718   2
   4   0  -2 102.705 4.55382   5
  -4   0   2 101.347 3.92695   6
  -4   0   2 98.5587 4.68414   3
  -4   0   2 90.6141 5.74277   7
  -4   0   2 97.9379 4.91018   1
   3   0  -2 234.466 8.13523   5
   3   0  -2 214.880 7.77225   2
   3   0  -2 235.790 8.08978   4
  -3   0   2 223.138 9.18648   7
  -3   0   2 230.053 7.58733   6
  -3   0   2 240.573 8.21790   3
  -3   0   2 232.012 8.73575   1
   2   0  -2 285.462 9.55787   2
   2   0  -2 295.811 9.91070   4
   2   0  -2 298.962 9.84175   5
  -2   0   2 315.914 9.88692   3
  -2   0   2 305.384 10.4814   1
  -2   0   2 303.828 9.39761   6
  -2   0   2 295.345 10.6519   7
   1   0  -2 148.707 4.96238   5
   1   0  -2 147.235 4.59193   6
   1   0  -2 143.066 4.71580   2
   1   0  -2 152.364 5.14039   4
  -1   0   2 141.498 5.49706   1
  -1   0   2 149.592 4.59438   6
  -1   0   2 150.735 4.59315   6
  -1   0   2 149.661 4.92532   3
  -1   0   2 155.931 5.54952   7
   0   0  -2 530.150 16.3503   4
   0   0  -2 529.889 16.1431   5
   0   0  -2 534.973 16.1147   6
   0   0  -2 535.622 16.0978   2
   0   0  -2 518.589 16.1548   5
   0   0   2 534.129 16.1131   6
   0   0   2 534.729 16.0987   2
   0   0   2 537.889 16.3438   4
   0   0   2 536.949 16.5503   7
   0   0   2 500.774 16.1414   5
   0   0   2 543.634 16.1642   5
   0   0   2 525.739 16.7242   1
   0   0   2 535.513 16.2007   3
  -1   0  -2 620.411 18.9303   3
  -1   0  -2 615.345 19.0658   1
  -1   0  -2 607.909 19.2341   7
  -1   0  -2 598.048 19.0980   1
  -1   0  -2 631.824 18.7578   4
   1   0   2 622.046 18.9541   3
   1   0   2 624.871 18.9568   2
   1   0   2 617.232 19.1120   1
   1   0   2 630.610 18.8839   5
   1   0   2 588.569 18.7404   4
   1   0   2 619.192 18.9213   6
  -2   0  -2 527.166 16.9308   7
  -2   0  -2 510.871 16.2250   3
   2   0   2 503.075 15.7688   4
   2   0   2 521.159 16.1418   5
   2   0   2 520.181 16.2151   2
   2   0   2 496.581 16.1064   6
  -3   0  -2 32.9415 1.86721   6
  -3   0  -2 29.9608 2.08462   3
  -3   0  -2 31.1220 2.89708   7
   3   0   2 31.3442 1.91361   2
   3   0   2 32.6657 1.83474   6
   3   0   2 37.1563 2.07340   5
   3   0   2 30.2489 1.60727   4
  -4   0  -2 46.8715 3.18289   3
  -4   0  -2 52.6600 4.44725   7
  -4   0  -2 47.6230 2.75436   6
   4   0   2 51.3026 2.97941   5
   4   0   2 50.5379 2.72773   6
   4   0   2 48.2921 2.85861   2
  -5   0  -2 -2.0781 1.28215   3
  -5   0  -2 2.41885 2.21409   7
  -5   0  -2 -2.7291 0.90827   6
   5   0   2 -1.9623 0.83810   6
   5   0   2 0.07296 1.04321   2
   5   0   2 -0.5968 1.21870   5
  -6   0  -2 24.9393 2.87098   6
  -6   0  -2 22.0267 3.38037   3
  -6   0  -2 37.4126 4.66764   7
   6   0   2 29.6747 2.87141   6
   6   0   2 32.8310 3.43748   2
   6   0   2 27.5298 3.27471   5
   6  -1  -2 0.91618 1.58445   5
   6  -1  -2 3.03525 1.41387   2
  -6   1   2 1.28301 1.69646   3
   5  -1  -2 74.8263 4.28656   5
   5  -1  -2 69.9978 3.96462   4
   5  -1  -2 73.5492 3.76944   2
  -5   1   2 72.4160 3.56985   6
  -5   1   2 74.4663 4.56954   3
  -5   1   2 71.8308 5.40096   7
   4  -1  -2 39.5485 2.66691   5
   4  -1  -2 40.4450 2.59304   4
   4  -1  -2 41.8290 2.32023   2
  -4   1   2 36.4069 2.83993   3
  -4   1   2 37.7667 2.16455   6
  -4   1   2 34.9075 3.48301   7
  -4   1   2 39.7710 2.83277   1
   3  -1  -2 5.80940 1.02849   5
   3  -1  -2 4.04922 0.74484   2
   3  -1  -2 5.87907 1.03884   4
  -3   1   2 3.62104 1.01523   3
  -3   1   2 4.43137 0.68221   6
  -3   1   2 3.91648 1.19916   1
  -3   1   2 2.40075 1.11934   7
   2  -1  -2 64.3501 2.82975   4
   2  -1  -2 63.0666 2.43973   2
   2  -1  -2 63.3979 2.69341   5
  -2   1   2 65.2259 3.34610   7
  -2   1   2 64.8620 3.17691   1
  -2   1   2 69.5119 2.85947   3
  -2   1   2 66.7232 2.42743   6
   1  -1  -2 358.918 11.5382   1
   1  -1  -2 339.076 10.8060   5
   1  -1  -2 337.782 11.0547   4
   1  -1  -2 343.080 10.5191   2
  -1   1   2 357.256 10.9288   3
  -1   1   2 352.653 10.6334   6
  -1   1   2 364.841 11.4532   7
  -1   1   2 345.798 11.5226   1
  -1   1   2 312.336 10.5059   2
   0  -1  -2 17.1969 0.65287   5
   0  -1  -2 17.7587 0.69924   2
   0  -1  -2 17.4256 0.88094   4
   0  -1  -2 17.5305 1.18651   1
   0  -1  -2 17.7269 0.64646   5
   0   1   2 17.0999 0.69265   2
   0   1   2 16.8748 0.87422   3
   0   1   2 17.2980 0.80758   6
   0   1   2 17.7082 1.12774   7
   0   1   2 17.6166 0.65008   5
  -1  -1  -2 4.26521 0.73100   1
  -1  -1  -2 3.37399 0.50291   3
  -1  -1  -2 5.88263 0.90180   7
   1   1   2 5.24062 0.59204   6
   1   1   2 4.62960 0.57347   3
   1   1   2 4.47129 0.46738   5
   1   1   2 5.19146 0.61377   2
  -2  -1  -2 15.1205 1.52229   1
  -2  -1  -2 15.1468 1.12397   3
  -2  -1  -2 14.7419 1.76385   7
   2   1   2 13.5853 1.06387   2
   2   1   2 14.5428 1.04229   5
   2   1   2 13.5573 1.01715   6
  -3  -1  -2 1.58641 0.89708   1
  -3  -1  -2 0.60583 0.66262   3
  -3  -1  -2 0.96821 1.41695   7
   3   1   2 0.06303 0.43195   6
   3   1   2 0.75823 0.66511   5
   3   1   2 0.07948 0.52009   2
  -4  -1  -2 23.3919 1.93945   6
  -4  -1  -2 21.5252 3.74985   7
  -4  -1  -2 21.6884 2.33040   3
   4   1   2 21.6889 2.12333   5
   4   1   2 23.1462 2.08428   2
   4   1   2 19.2712 1.75105   6
  -5  -1  -2 63.6101 4.37375   3
  -5  -1  -2 58.9409 5.54249   7
  -5  -1  -2 64.8851 3.76849   6
   5   1   2 66.8293 4.04725   5
   5   1   2 67.8745 3.73568   6
   5   1   2 65.4280 3.93889   2
  -6  -1  -2 42.4556 5.05098   7
  -6  -1  -2 32.5106 3.00842   6
  -6  -1  -2 32.1329 4.01866   3
   6   1   2 31.7078 2.97415   6
   6   1   2 33.8409 3.51118   5
   6   1   2 35.1554 3.43912   2
   6  -2  -2 12.7518 2.02181   2
   6  -2  -2 10.3074 2.31822   5
  -6   2   2 10.3680 2.43640   3
   5  -2  -2 69.1597 4.16271   5
   5  -2  -2 68.9841 4.13190   4
   5  -2  -2 75.7082 3.76881   2
  -5   2   2 70.3125 4.53292   3
  -5   2   2 68.7652 3.57126   6
  -5   2   2 77.3360 5.32480   7
   4  -2  -2 6.16841 1.39505   4
   4  -2  -2 7.50449 1.60484   1
   4  -2  -2 6.29852 1.38757   5
   4  -2  -2 5.55693 1.06454   2
  -4   2   2 4.84697 0.91085   6
  -4   2   2 6.00330 1.55306   1
  -4   2   2 5.09292 1.47708   3
  -4   2   2 1.99315 1.44555   7
   3  -2  -2 4.73284 1.17504   1
   3  -2  -2 3.71382 0.85976   5
   3  -2  -2 3.28881 0.94826   4
   3  -2  -2 4.19879 0.73713   2
  -3   2   2 4.47976 1.19948   1
  -3   2   2 3.04302 0.96316   3
  -3   2   2 3.35871 1.25065   7
  -3   2   2 3.49517 0.67184   6
   2  -2  -2 0.80285 0.42078   5
   2  -2  -2 0.65561 0.29622   2
   2  -2  -2 1.01161 0.60145   1
   2  -2  -2 0.94315 0.51075   4
  -2   2   2 0.46333 0.60747   1
  -2   2   2 1.13005 0.36863   6
  -2   2   2 0.66164 0.51075   3
  -2   2   2 0.56013 0.64974   7
   1  -2  -2 320.436 9.70053   2
   1  -2  -2 306.096 9.94029   5
   1  -2  -2 326.353 10.3430   4
   1  -2  -2 320.587 10.7546   1
  -1   2   2 311.353 9.70732   2
  -1   2   2 334.321 10.2212   3
  -1   2   2 319.169 9.95931   6
  -1   2   2 311.138 9.69451   2
  -1   2   2 312.636 10.5587   7
   0  -2  -2 80.2346 2.78387   4
   0  -2  -2 72.1797 3.06353   7
   0  -2  -2 76.1806 3.31095   1
   0   2   2 75.8851 2.77557   3
   0   2   2 75.7485 2.69837   6
   0   2   2 75.0125 2.55220   2
   0   2   2 75.3801 3.15351   7
  -1  -2  -2 25.6977 1.81697   1
  -1  -2  -2 26.3592 1.75091   7
   1   2   2 24.7132 1.30693   3
   1   2   2 23.8590 1.25852   2
   1   2   2 24.3838 1.04726   5
   1   2   2 23.4725 1.26853   6
  -2  -2  -2 24.9934 2.37971   7
  -2  -2  -2 25.0802 1.50073   3
  -2  -2  -2 27.5482 2.28065   1
   2   2   2 24.9148 1.46356   6
   2   2   2 26.7258 1.58921   2
   2   2   2 25.0619 1.40622   5
   2   2   2 23.6341 1.52887   3
  -3  -2  -2 0.98998 0.73088   3
  -3  -2  -2 1.72659 1.27643   1
  -3  -2  -2 0.23458 1.46808   7
   3   2   2 1.25398 0.53669   6
   3   2   2 0.47720 0.62047   5
   3   2   2 0.26872 0.55275   2
  -4  -2  -2 32.0158 4.47362   7
  -4  -2  -2 32.6748 2.80369   3
   4   2   2 36.5268 2.64888   5
   4   2   2 37.0588 2.64755   2
   4   2   2 38.0550 2.43320   6
  -5  -2  -2 152.854 7.22897   3
  -5  -2  -2 157.993 6.56878   6
  -5  -2  -2 140.323 8.75183   7
   5   2   2 155.205 6.78902   5
   5   2   2 168.086 6.63495   6
   5   2   2 170.216 7.02974   2
  -6  -2  -2 1.68475 1.95058   3
  -6  -2  -2 6.14880 1.62006   6
  -6  -2  -2 11.7364 3.61358   7
   6   2   2 3.72649 1.84272   5
   6   2   2 3.03587 1.85119   2
   6   2   2 3.95250 1.45686   6
   6  -3  -2 21.8813 2.96602   5
  -6   3   2 17.9532 2.93172   3
   5  -3  -2 0.35056 1.24747   5
   5  -3  -2 1.02271 1.05406   2
   5  -3  -2 -2.6072 1.42465   4
  -5   3   2 2.64953 1.58397   3
  -5   3   2 6.02412 2.05740   7
  -5   3   2 -0.1934 0.88921   6
   4  -3  -2 1.05081 1.17332   4
   4  -3  -2 -0.4756 0.65549   2
   4  -3  -2 0.24376 0.89543   5
  -4   3   2 -0.1025 1.04993   3
  -4   3   2 0.78540 0.69994   6
  -4   3   2 0.46721 1.32493   7
   3  -3  -2 64.6367 3.20401   5
   3  -3  -2 70.4976 3.47270   4
   3  -3  -2 70.4093 3.47303   1
   3  -3  -2 72.7344 2.88544   2
  -3   3   2 70.2958 3.95099   7
  -3   3   2 68.9126 3.00251   6
  -3   3   2 73.1013 3.53434   3
   2  -3  -2 180.042 6.79996   1
   2  -3  -2 170.800 6.14623   5
   2  -3  -2 184.441 6.56548   4
   2  -3  -2 172.459 5.81400   2
  -2   3   2 177.174 6.78727   7
  -2   3   2 180.589 6.06989   6
  -2   3   2 185.667 6.44518   3
   1  -3  -2 0.28756 0.26522   5
   1  -3  -2 0.35725 0.42733   4
   1  -3  -2 0.25883 0.48869   1
  -1   3   2 0.22240 0.30183   6
  -1   3   2 0.34056 0.36699   3
  -1   3   2 0.57313 0.50709   7
  -1   3   2 0.42702 0.20754   2
   0  -3  -2 676.861 21.5955   1
   0  -3  -2 664.890 20.6631   4
   0  -3  -2 666.048 21.0353   7
   0   3   2 638.707 21.1317   7
   0   3   2 679.561 20.4409   2
   0   3   2 667.167 20.6083   6
   0   3   2 677.165 20.6685   3
  -1  -3  -2 837.792 27.3137   1
  -1  -3  -2 867.495 25.8788   4
  -1  -3  -2 841.581 26.9336   7
   1   3   2 858.514 26.1889   2
   1   3   2 851.991 26.2010   3
   1   3   2 838.436 26.2024   6
   1   3   2 844.925 25.7746   5
  -2  -3  -2 20.7328 2.42843   7
  -2  -3  -2 22.1543 2.46669   1
  -2  -3  -2 20.7066 1.39896   3
   2   3   2 21.7074 1.48747   3
   2   3   2 20.4232 1.49051   2
   2   3   2 20.1236 1.29419   5
   2   3   2 21.6178 1.46664   6
  -3  -3  -2 22.8410 2.89861   1
  -3  -3  -2 22.6791 1.86583   3
  -3  -3  -2 26.0051 3.37250   7
   3   3   2 23.0048 1.72767   5
   3   3   2 22.7530 1.82822   2
   3   3   2 22.6546 1.66663   6
  -4  -3  -2 85.6064 7.21100   1
  -4  -3  -2 89.5276 4.54581   3
  -4  -3  -2 76.0448 6.10288   7
   4   3   2 86.0217 4.02068   6
   4   3   2 84.4731 4.17009   5
   4   3   2 87.0340 4.32846   2
  -5  -3  -2 8.24894 2.06994   3
  -5  -3  -2 5.19863 2.88911   7
  -5  -3  -2 5.76175 1.49923   6
   5   3   2 4.98200 1.67727   5
   5   3   2 6.16124 1.78395   2
   5   3   2 5.19842 1.43443   6
  -6  -3  -2 -0.0153 1.90382   3
  -6  -3  -2 0.30273 1.80977   6
  -6  -3  -2 1.96595 2.80283   7
   6   3   2 0.06874 1.62260   2
   6   3   2 2.23954 1.32715   6
   6   3   2 -1.6890 1.46592   5
   6  -4  -2 2.58923 1.83086   5
  -6   4   2 5.48355 2.18692   3
   5  -4  -2 6.55808 1.33998   2
   5  -4  -2 5.39756 2.06772   4
   5  -4  -2 7.11266 1.79275   5
  -5   4   2 5.00068 1.35555   6
  -5   4   2 7.44692 2.27377   7
  -5   4   2 4.62431 1.88074   3
   4  -4  -2 51.4108 2.59637   2
   4  -4  -2 50.6009 3.07788   5
   4  -4  -2 48.0003 3.47096   4
  -4   4   2 45.5989 3.35134   3
  -4   4   2 53.9618 3.89379   7
  -4   4   2 51.9479 2.82260   6
   3  -4  -2 43.0784 2.47465   5
   3  -4  -2 43.1679 2.08753   2
   3  -4  -2 40.1748 2.70670   1
   3  -4  -2 43.7085 2.91267   4
  -3   4   2 49.3176 2.41140   6
  -3   4   2 45.8130 3.02724   7
  -3   4   2 48.0793 2.80480   3
   2  -4  -2 2091.86 63.7875   1
   2  -4  -2 2020.14 62.4860   2
   2  -4  -2 2124.84 63.4164   4
   2  -4  -2 2107.41 62.8530   5
  -2   4   2 2022.76 63.4752   7
  -2   4   2 2046.34 63.1388   3
  -2   4   2 2094.68 62.8443   6
  -2   4   2 2022.69 62.4790   2
   1  -4  -2 104.236 3.70145   5
   1  -4  -2 108.044 4.28702   4
   1  -4  -2 108.952 4.86958   1
  -1   4   2 109.630 3.95629   6
  -1   4   2 109.710 4.42734   7
  -1   4   2 103.020 3.63835   2
  -1   4   2 111.654 4.10374   3
   0  -4  -2 13.8586 1.14688   4
   0  -4  -2 12.7478 1.21904   7
   0  -4  -2 14.5299 1.72902   1
   0   4   2 12.8362 1.03341   3
   0   4   2 11.6236 0.96844   6
   0   4   2 12.8722 0.87870   2
  -1  -4  -2 195.970 6.57187   4
  -1  -4  -2 195.061 8.23893   1
  -1  -4  -2 201.525 7.67050   7
   1   4   2 201.797 6.83289   6
   1   4   2 195.445 6.76373   3
   1   4   2 200.277 6.78049   2
  -2  -4  -2 1.60501 1.36445   7
  -2  -4  -2 1.18404 1.58561   1
  -2  -4  -2 1.00352 0.52491   3
   2   4   2 1.26739 0.62898   3
   2   4   2 1.82154 0.63667   2
   2   4   2 0.99314 0.53114   6
   2   4   2 1.84809 0.54909   5
  -3  -4  -2 76.5737 3.63985   3
  -3  -4  -2 78.6019 5.21917   1
  -3  -4  -2 76.7766 5.36858   7
   3   4   2 77.5322 3.52956   6
   3   4   2 74.0563 3.39370   5
   3   4   2 77.9788 3.72010   2
  -4  -4  -2 1.96721 1.40190   3
  -4  -4  -2 0.45396 2.27413   7
  -4  -4  -2 2.47491 1.89697   1
   4   4   2 0.11968 1.01013   2
   4   4   2 0.69133 0.92096   6
   4   4   2 1.87633 1.13432   5
  -5  -4  -2 39.0104 5.33390   7
  -5  -4  -2 40.1264 3.71209   3
   5   4   2 55.4650 3.87614   2
   5   4   2 40.7558 3.31543   5
   5   4   2 44.6325 3.16360   6
   6   4   2 2.09603 1.72136   2
   6  -5  -2 11.2711 3.16754   4
   6  -5  -2 14.5252 2.69215   5
  -6   5   2 18.2998 2.94391   3
   5  -5  -2 51.8236 4.16752   2
   5  -5  -2 31.9130 3.78082   4
   5  -5  -2 40.9464 3.39916   5
  -5   5   2 41.7978 3.12535   6
  -5   5   2 42.4988 3.76277   3
   4  -5  -2 0.89784 1.57444   4
   4  -5  -2 2.18875 1.26449   5
   4  -5  -2 1.75292 0.80540   2
  -4   5   2 2.70188 1.34849   3
  -4   5   2 3.44484 1.63256   7
  -4   5   2 4.07356 1.06147   6
   3  -5  -2 109.557 5.14530   4
   3  -5  -2 111.628 5.24018   1
   3  -5  -2 111.060 4.61950   5
   3  -5  -2 110.343 4.16070   2
  -3   5   2 112.413 4.51935   6
  -3   5   2 111.916 5.14723   7
  -3   5   2 108.618 4.12808   2
  -3   5   2 109.948 4.90531   3
   2  -5  -2 25.9296 1.58344   5
   2  -5  -2 26.6988 2.18181   4
   2  -5  -2 25.0682 2.36657   1
  -2   5   2 23.7099 1.66977   6
  -2   5   2 25.2864 1.88163   3
  -2   5   2 23.9820 1.35374   2
  -2   5   2 23.2852 1.96800   7
   1  -5  -2 234.418 7.86430   5
   1  -5  -2 250.097 8.58375   7
   1  -5  -2 240.117 8.59201   4
   1  -5  -2 246.848 9.46398   1
  -1   5   2 252.383 8.36180   3
  -1   5   2 241.501 8.70137   7
  -1   5   2 248.236 8.24748   6
  -1   5   2 243.051 7.89568   2
   0  -5  -2 97.0469 3.98418   4
   0  -5  -2 99.2060 5.15952   1
   0  -5  -2 98.6037 4.24670   7
   0   5   2 98.3331 3.78879   3
   0   5   2 93.9186 3.59397   2
   0   5   2 94.3723 3.77738   6
  -1  -5  -2 12.7381 1.82282   7
  -1  -5  -2 11.6304 1.18869   4
  -1  -5  -2 13.7741 2.51080   1
   1   5   2 11.7472 1.18679   2
   1   5   2 11.3509 0.77098   5
   1   5   2 10.1918 1.19494   6
   1   5   2 11.4799 1.14906   3
  -2  -5  -2 16.9356 2.73619   7
  -2  -5  -2 13.5058 1.26690   3
  -2  -5  -2 14.2988 3.00814   1
   2   5   2 12.9447 1.28808   6
   2   5   2 12.9398 1.09823   5
   2   5   2 14.5087 1.42545   2
   2   5   2 14.1827 1.39111   3
  -3  -5  -2 33.9349 4.27743   1
  -3  -5  -2 33.1734 2.38823   3
  -3  -5  -2 32.8495 4.11718   7
   3   5   2 36.7561 2.39129   6
   3   5   2 34.2192 2.15405   5
   3   5   2 32.3251 2.41118   2
  -4  -5  -2 51.6306 4.50967   1
  -4  -5  -2 36.0640 4.91677   7
  -4  -5  -2 45.2938 3.32483   3
   4   5   2 42.7254 2.91957   6
   4   5   2 40.0049 2.83650   5
   4   5   2 52.4397 3.39128   2
  -5  -5  -2 0.09022 2.51597   7
  -5  -5  -2 -0.5668 1.51894   3
   5   5   2 0.18916 1.35016   2
   5   5   2 0.19751 1.05612   6
   6  -6  -2 -2.0009 2.31305   4
   6  -6  -2 3.23733 1.90168   5
  -6   6   2 4.24031 2.06405   6
  -6   6   2 6.76306 2.25429   3
   5  -6  -2 1.01055 1.27881   5
   5  -6  -2 -1.3977 1.94482   4
  -5   6   2 0.71481 1.20101   6
  -5   6   2 0.22904 1.54287   3
   4  -6  -2 -1.8061 0.85285   5
   4  -6  -2 -1.3455 0.60098   2
   4  -6  -2 -0.6554 1.55165   4
  -4   6   2 -0.7767 1.21123   7
  -4   6   2 -0.0225 0.66598   2
  -4   6   2 -1.0106 1.24479   3
  -4   6   2 -0.0824 0.83324   6
   3  -6  -2 0.16769 1.28181   1
   3  -6  -2 -0.3339 0.70893   5
   3  -6  -2 0.49738 1.28998   4
   3  -6  -2 -0.1856 0.43944   2
  -3   6   2 -2.0875 0.74253   3
  -3   6   2 -0.3228 0.86845   7
  -3   6   2 -0.4753 0.44340   2
  -3   6   2 -0.1321 0.67781   6
   2  -6  -2 290.493 11.1693   1
   2  -6  -2 286.402 9.66443   5
   2  -6  -2 297.772 10.5451   4
  -2   6   2 296.762 9.92375   6
  -2   6   2 286.302 9.45981   2
  -2   6   2 292.695 10.3035   7
  -2   6   2 276.795 10.0236   3
   1  -6  -2 110.628 4.53106   7
   1  -6  -2 108.881 4.74234   4
   1  -6  -2 113.244 5.74217   1
   1  -6  -2 105.303 3.82663   5
  -1   6   2 104.336 3.93483   2
  -1   6   2 103.002 4.24035   6
  -1   6   2 110.859 4.33541   3
  -1   6   2 103.973 4.69371   7
   0  -6  -2 1.20326 0.84649   7
   0  -6  -2 3.35540 1.02992   4
   0  -6  -2 2.05714 1.63978   1
   0   6   2 1.33954 0.32676   5
   0   6   2 1.86548 0.65714   3
   0   6   2 1.05281 0.52293   2
   0   6   2 0.30292 0.51332   6
  -1  -6  -2 3.50593 2.14045   1
  -1  -6  -2 1.59939 1.29692   7
  -1  -6  -2 2.15375 0.83836   4
   1   6   2 1.64388 0.64023   3
   1   6   2 1.44948 0.40548   5
   1   6   2 0.17629 0.54045   6
   1   6   2 0.94965 0.59591   2
  -2  -6  -2 76.9828 3.04679   4
  -2  -6  -2 73.5295 5.64783   1
  -2  -6  -2 71.2595 4.99265   7
  -2  -6  -2 71.5048 3.25476   3
   2   6   2 66.1405 3.42758   2
   2   6   2 71.7784 3.37283   3
   2   6   2 71.3924 3.43752   6
   2   6   2 68.7295 2.92248   5
  -3  -6  -2 160.251 6.20987   3
  -3  -6  -2 143.482 8.32492   7
  -3  -6  -2 155.651 8.59361   1
   3   6   2 164.256 6.35108   6
   3   6   2 158.488 6.46285   2
   3   6   2 148.427 5.82165   5
  -4  -6  -2 1.42557 1.30217   3
  -4  -6  -2 1.38161 2.57464   7
   4   6   2 1.82523 1.05106   6
   4   6   2 3.15170 1.48418   2
  -5  -6  -2 3.13857 2.81390   7
  -5  -6  -2 2.69304 1.82483   3
   5   6   2 2.42246 1.26369   6
   5   6   2 4.77131 1.82414   2
   6  -7  -2 -2.4519 1.33606   5
   6  -7  -2 -4.7681 2.27297   4
  -6   7   2 0.69247 1.96244   3
  -6   7   2 0.89232 1.36894   6
   5  -7  -2 2.28549 2.36908   4
   5  -7  -2 4.04082 1.57226   5
  -5   7   2 3.00262 1.75261   3
  -5   7   2 0.31888 1.20912   6
   4  -7  -2 0.11413 1.00634   5
   4  -7  -2 -0.2654 1.81827   4
   4  -7  -2 0.37595 0.75914   2
  -4   7   2 -1.4930 1.19608   3
  -4   7   2 -0.5789 1.01976   6
   3  -7  -2 4.08759 1.80951   4
   3  -7  -2 2.74660 1.00596   5
   3  -7  -2 1.72093 1.80450   1
  -3   7   2 2.14639 0.96680   6
  -3   7   2 2.00933 1.22545   7
  -3   7   2 0.39377 1.11001   3
  -3   7   2 1.79589 0.69276   2
   2  -7  -2 65.1420 2.88954   5
   2  -7  -2 63.5150 4.64596   1
   2  -7  -2 73.2027 4.10079   4
   2  -7  -2 65.0481 3.20934   7
  -2   7   2 57.9245 2.69374   2
  -2   7   2 58.5048 3.11456   6
  -2   7   2 60.4088 3.40951   7
  -2   7   2 62.4362 3.28743   3
   1  -7  -2 20.9298 3.16823   1
   1  -7  -2 18.0120 1.75207   7
   1  -7  -2 15.8823 1.12007   5
   1  -7  -2 18.2380 2.14030   4
  -1   7   2 16.9073 1.31835   2
  -1   7   2 18.7765 1.62165   6
  -1   7   2 20.7471 1.66036   3
   0  -7  -2 12.4129 3.02265   1
   0  -7  -2 10.6689 1.78218   7
   0  -7  -2 12.0437 1.73675   4
   0   7   2 10.5745 1.24119   2
   0   7   2 9.87961 1.25746   6
   0   7   2 8.29554 0.73549   5
   0   7   2 10.0005 1.23756   3
  -1  -7  -2 52.4141 5.00571   1
  -1  -7  -2 52.8291 3.89122   7
  -1  -7  -2 48.6645 2.74138   4
   1   7   2 50.5871 2.66028   3
   1   7   2 51.5806 2.72415   2
   1   7   2 49.7714 2.74818   6
  -2  -7  -2 192.187 9.21934   7
  -2  -7  -2 183.599 7.01468   3
  -2  -7  -2 190.218 10.0328   1
   2   7   2 201.978 7.50844   2
   2   7   2 199.083 7.21974   3
   2   7   2 196.476 7.39965   6
  -3  -7  -2 27.2885 4.42484   7
  -3  -7  -2 32.3867 4.64248   1
  -3  -7  -2 31.6828 2.39027   3
   3   7   2 31.8552 2.73463   2
   3   7   2 27.8333 2.47292   6
  -4  -7  -2 0.17949 1.26978   3
  -4  -7  -2 6.15371 2.43691   1
  -4  -7  -2 -0.5434 2.59072   7
   4   7   2 1.73958 1.42655   2
   4   7   2 0.15238 1.02732   6
  -5  -7  -2 -0.9076 2.68087   7
  -5  -7  -2 -3.7466 1.49136   3
   5   7   2 0.21577 1.52879   2
   5   7   2 0.03229 1.22418   6
   6  -8  -2 -1.2355 1.61117   5
   5  -8  -2 -3.6699 1.91988   4
   5  -8  -2 -0.2258 1.23992   5
  -5   8   2 -0.6928 1.19011   6
  -5   8   2 1.25726 1.65395   3
   4  -8  -2 0.58355 1.08661   5
   4  -8  -2 -2.8281 1.61508   4
  -4   8   2 -1.1205 1.27628   3
  -4   8   2 -0.9960 1.00282   6
   3  -8  -2 1.69805 1.75129   4
   3  -8  -2 0.38330 2.29894   1
   3  -8  -2 2.02268 0.94681   5
  -3   8   2 2.29312 0.80591   2
  -3   8   2 1.96694 1.24391   3
  -3   8   2 2.07975 1.14059   6
   2  -8  -2 24.6644 2.00157   7
   2  -8  -2 25.8909 4.11576   1
   2  -8  -2 24.4866 1.75042   5
   2  -8  -2 28.4252 3.07407   4
  -2   8   2 22.0523 2.04892   6
  -2   8   2 20.9833 1.60108   2
  -2   8   2 23.5644 2.42607   7
  -2   8   2 24.5625 2.17332   3
   1  -8  -2 49.0347 3.59953   4
   1  -8  -2 47.2877 2.97889   7
   1  -8  -2 46.8963 2.13526   5
   1  -8  -2 47.3103 4.89499   1
  -1   8   2 42.7181 2.69180   6
  -1   8   2 46.4863 2.43771   2
  -1   8   2 50.0144 2.77261   3
   0  -8  -2 152.599 8.90288   1
   0  -8  -2 154.147 7.05114   7
   0  -8  -2 169.851 6.81887   4
   0   8   2 174.571 6.24327   3
   0   8   2 162.318 6.34621   6
   0   8   2 159.720 6.10174   2
  -1  -8  -2 5.66114 3.09852   1
  -1  -8  -2 4.72452 2.18850   7
  -1  -8  -2 7.23868 1.49308   4
   1   8   2 6.44332 1.30692   3
   1   8   2 6.24935 1.31779   6
   1   8   2 5.08872 1.21157   2
  -2  -8  -2 21.7874 1.87721   3
  -2  -8  -2 19.5826 4.29919   1
  -2  -8  -2 21.8728 3.94949   7
   2   8   2 24.0672 2.15951   3
   2   8   2 23.6313 2.49441   2
   2   8   2 22.1648 2.31131   6
  -3  -8  -2 5.07181 3.19690   7
  -3  -8  -2 6.55072 1.36809   3
  -3  -8  -2 6.12067 3.06140   1
   3   8   2 6.57114 1.68175   2
   3   8   2 7.22977 1.48897   6
  -4  -8  -2 -2.8390 2.67867   7
  -4  -8  -2 5.52114 2.43018   1
   4   8   2 -0.4238 1.23765   2
   4   8   2 -0.2299 0.95743   6
   5  -9  -2 1.83991 1.40253   5
   5  -9  -2 -2.7437 2.18215   4
  -5   9   2 2.95178 1.88949   3
  -5   9   2 1.23544 1.47189   6
   4  -9  -2 0.00824 2.21667   4
   4  -9  -2 2.21183 1.22790   5
  -4   9   2 3.72240 1.53777   6
  -4   9   2 3.94574 1.76473   3
   3  -9  -2 142.233 5.56767   5
   3  -9  -2 113.629 7.84068   1
   3  -9  -2 121.082 6.69956   4
  -3   9   2 135.833 5.95315   6
  -3   9   2 134.614 6.07832   3
   2  -9  -2 4.00675 0.98004   5
   2  -9  -2 3.43698 1.96523   4
   2  -9  -2 3.25107 3.06604   1
  -2   9   2 1.01905 1.09754   6
  -2   9   2 5.17012 1.42966   3
  -2   9   2 3.36323 0.90856   2
   1  -9  -2 96.6365 5.00768   7
   1  -9  -2 113.824 5.75792   4
   1  -9  -2 96.2866 7.51919   1
  -1   9   2 102.093 4.78889   6
  -1   9   2 109.980 4.71119   3
  -1   9   2 105.924 4.41435   2
   0  -9  -2 96.5783 4.98722   4
   0  -9  -2 84.1998 7.24052   1
   0  -9  -2 87.9812 5.32444   7
   0   9   2 99.0529 4.63077   6
   0   9   2 105.495 4.39469   3
   0   9   2 97.8729 4.35370   2
  -1  -9  -2 0.87970 1.05457   4
  -1  -9  -2 1.04222 3.00333   1
   1   9   2 -1.4336 0.89514   3
   1   9   2 -0.3399 1.01104   2
   1   9   2 -0.2909 0.98952   6
  -2  -9  -2 2.61523 0.91420   3
  -2  -9  -2 0.25487 2.98009   1
  -2  -9  -2 -1.0145 2.55490   7
   2   9   2 -1.1578 1.03535   2
   2   9   2 -0.1109 0.93070   6
   2   9   2 -0.3324 0.94254   3
  -3  -9  -2 -0.2553 2.72136   7
  -3  -9  -2 3.09697 2.80089   1
   3   9   2 -2.0038 1.12023   2
   3   9   2 0.09481 1.03521   6
  -4  -9  -2 8.83756 2.93886   1
  -4  -9  -2 1.43990 3.26919   7
   4   9   2 1.80045 1.29140   6
   4   9   2 -0.0431 1.39051   2
   5 -10  -2 6.37027 1.78182   5
   5 -10  -2 0.51268 2.69114   4
  -5  10   2 5.00435 1.74554   6
  -5  10   2 3.73811 1.99302   3
   4 -10  -2 52.8748 5.18706   4
   4 -10  -2 59.4412 3.72303   5
  -4  10   2 62.7308 4.09323   6
  -4  10   2 59.1453 4.28613   3
   3 -10  -2 -0.3161 2.11795   4
   3 -10  -2 -0.8435 3.28865   1
   3 -10  -2 3.53276 1.28409   5
  -3  10   2 4.90771 1.59763   3
  -3  10   2 3.93410 1.43057   6
   2 -10  -2 82.8244 5.37960   4
   2 -10  -2 68.0868 6.95592   1
  -2  10   2 82.1779 4.51520   6
  -2  10   2 80.3883 3.81454   2
  -2  10   2 88.4006 4.40984   3
   1 -10  -2 13.9444 4.54870   1
   1 -10  -2 20.1349 2.96561   4
  -1  10   2 18.4908 2.14541   3
  -1  10   2 16.7942 1.94071   2
  -1  10   2 20.8643 2.29291   6
   0 -10  -2 24.2325 3.59664   7
   0 -10  -2 25.4992 2.84375   4
   0 -10  -2 22.7063 5.00551   1
   0  10   2 29.2142 2.40825   2
   0  10   2 29.4491 2.32391   3
   0  10   2 28.7627 2.59291   6
  -1 -10  -2 9.22898 2.53147   4
  -1 -10  -2 4.55163 3.54397   1
  -1 -10  -2 6.00761 2.85703   7
   1  10   2 7.61686 1.58826   2
   1  10   2 7.36591 1.57054   3
   1  10   2 8.71809 1.66745   6
  -2 -10  -2 -1.2104 2.88747   1
  -2 -10  -2 -3.4662 2.36711   7
   2  10   2 0.47317 1.20950   2
   2  10   2 -0.4421 1.07422   6
  -3 -10  -2 7.91738 3.62015   1
  -3 -10  -2 2.06982 3.15400   7
   3  10   2 5.24606 1.70636   2
   3  10   2 5.54509 1.53723   6
   4 -11  -2 8.38631 3.06930   4
  -4  11   2 11.6563 2.25877   3
  -4  11   2 11.3056 2.19224   6
   3 -11  -2 -1.0464 2.11960   4
   3 -11  -2 -2.2710 3.49942   1
  -3  11   2 3.71815 1.56315   6
  -3  11   2 2.26140 1.54782   3
   2 -11  -2 7.76028 2.48995   4
   2 -11  -2 7.37851 4.13995   1
  -2  11   2 12.9912 2.08914   6
  -2  11   2 9.86228 1.93446   3
   1 -11  -2 6.03592 2.12144   4
   1 -11  -2 4.51151 3.87286   1
  -1  11   2 5.83851 1.60244   6
  -1  11   2 3.78646 1.34582   3
  -1  11   2 4.52320 1.29947   2
   0 -11  -2 1.22329 1.39319   4
   0 -11  -2 -3.9420 3.19358   1
   0  11   2 -1.3377 0.99411   2
   0  11   2 -0.4244 1.17577   6
  -1 -11  -2 -0.9797 3.46013   1
  -1 -11  -2 -2.6796 2.30901   7
   1  11   2 1.63827 1.23834   2
   1  11   2 1.17553 1.22657   6
  -2 -11  -2 -0.9382 3.03955   1
   2  11   2 -0.4174 1.20877   6
   2  11   2 -1.0755 1.24515   2
  -3 -11  -2 3.51067 3.30816   1
  -3 -11  -2 -2.4247 3.02696   7
   3  11   2 0.52799 1.30065   6
   3  11   2 -0.0439 1.42577   2
   4 -12  -2 -0.7255 2.64559   4
  -4  12   2 -0.5514 1.50839   6
  -4  12   2 -0.5399 1.65794   3
   3 -12  -2 -3.1694 3.71453   1
   3 -12  -2 0.82709 2.39149   4
  -3  12   2 1.53495 1.70533   6
  -3  12   2 3.24532 1.62567   3
   2 -12  -2 -4.1824 3.54550   1
   2 -12  -2 -0.5894 1.98655   4
  -2  12   2 -0.5758 1.31420   6
   1 -12  -2 -3.3541 3.41219   1
   1 -12  -2 1.05015 1.76912   4
  -1  12   2 -0.7086 1.26303   6
  -1  12   2 -0.8813 1.06689   2
   0 -12  -2 1.19269 3.84228   1
   0 -12  -2 6.53882 1.83371   4
   0  12   2 1.28025 1.35178   2
   0  12   2 5.43812 1.72473   6
  -1 -12  -2 -0.0906 3.80142   1
  -1 -12  -2 -1.4372 3.99102   7
   1  12   2 5.03412 1.68065   2
   1  12   2 3.49598 1.54513   6
  -2 -12  -2 -4.0429 3.07363   7
  -2 -12  -2 2.06391 3.49672   1
   2  12   2 2.87463 1.64402   6
   2  12   2 1.17701 1.49552   2
   3 -13  -2 1.04989 2.44755   4
  -3  13   2 0.48016 1.72592   6
   2 -13  -2 -5.4577 3.55107   1
   2 -13  -2 1.60058 2.09827   4
  -2  13   2 0.07235 1.47737   6
   1 -13  -2 0.97505 4.11716   1
   1 -13  -2 2.87330 1.92061   4
  -1  13   2 4.87384 1.81502   6
   0 -13  -2 1.40020 4.27227   1
   0  13   2 4.34165 1.60120   2
   0  13   2 6.58392 1.94864   6
  -1 -13  -2 -2.4497 3.79369   1
   1  13   2 1.02137 1.47485   2
   1  13   2 1.39390 1.50073   6
   1 -14  -2 4.56711 4.98276   1
   0 -14   3 11.4496 4.05203   1
   1 -14   3 24.1584 4.55894   1
   2 -14   3 18.6342 3.74842   1
   1  13  -3 -0.1445 1.57199   2
   1  13  -3 0.52897 1.46811   6
  -1 -13   3 7.72672 3.51951   1
   0  13  -3 -1.0241 1.29420   6
   0  13  -3 1.27423 1.52868   2
   0 -13   3 5.79575 1.65875   4
   0 -13   3 8.27730 3.29455   1
  -1  13  -3 1.37351 1.46946   2
  -1  13  -3 4.25216 1.62194   6
   1 -13   3 5.96250 2.92695   1
   1 -13   3 4.07897 1.88296   4
  -2  13  -3 1.06300 1.48483   6
  -2  13  -3 -0.6353 1.23149   2
   2 -13   3 6.69495 2.51608   1
   2 -13   3 2.20278 1.93573   4
  -3  13  -3 3.84261 1.76304   2
  -3  13  -3 2.05276 1.88051   6
   3 -13   3 4.14794 1.59423   5
   3 -13   3 2.92568 2.09136   4
   2  12  -3 0.54944 1.70502   2
  -2 -12   3 9.98537 3.65407   1
   1  12  -3 3.40655 1.54883   6
   1  12  -3 4.62660 1.91839   2
  -1 -12   3 9.39669 3.63524   1
   0  12  -3 21.1885 2.80584   2
   0  12  -3 20.6971 2.48280   6
   0 -12   3 26.3608 3.00186   4
   0 -12   3 30.9427 5.05108   1
  -1  12  -3 13.9118 2.18128   6
  -1  12  -3 14.8345 2.15554   5
  -1  12  -3 15.3014 2.29302   2
   1 -12   3 15.7398 2.66634   4
   1 -12   3 15.3832 2.12857   5
   1 -12   3 15.2001 3.94001   1
  -2  12  -3 3.05600 1.42398   2
  -2  12  -3 -0.3103 1.10668   5
  -2  12  -3 -0.2811 1.27105   6
   2 -12   3 2.63979 1.94136   4
   2 -12   3 1.87350 1.25582   5
   2 -12   3 5.09542 2.65740   1
  -3  12  -3 0.63888 1.35069   2
  -3  12  -3 0.20881 1.51620   6
   3 -12   3 2.38861 1.26779   5
   3 -12   3 1.41821 1.93836   4
  -4  12  -3 -1.1627 1.31755   2
  -4  12  -3 0.02257 1.53797   6
   4 -12   3 2.02651 2.17208   4
   4 -12   3 1.64718 1.33907   5
  -3 -11   3 6.42444 2.67446   7
   2  11  -3 5.26682 1.89438   2
  -2 -11   3 10.0140 3.63253   1
  -2 -11   3 8.48389 2.79545   7
   1  11  -3 1.06345 1.27298   6
   1  11  -3 1.36340 1.12048   5
   1  11  -3 1.38028 1.43826   2
  -1 -11   3 7.49109 3.45937   1
  -1 -11   3 5.88819 1.70727   4
   0  11  -3 51.2868 3.43960   6
   0  11  -3 50.9283 3.26306   5
   0  11  -3 48.6256 3.54948   2
   0 -11   3 53.9231 3.87328   4
   0 -11   3 50.2738 5.72576   1
  -1  11  -3 40.2700 3.12369   6
  -1  11  -3 36.1968 2.83241   5
  -1  11  -3 38.8154 3.01663   2
   1 -11   3 35.6183 4.77888   1
   1 -11   3 37.4126 2.85666   5
   1 -11   3 36.1551 3.39435   4
  -2  11  -3 15.8924 2.24945   6
  -2  11  -3 19.4783 2.46742   2
   2 -11   3 19.6520 2.23630   5
   2 -11   3 19.5828 3.01439   4
   2 -11   3 24.2820 4.00862   1
  -3  11  -3 8.87417 1.81154   6
  -3  11  -3 9.52268 1.88821   2
   3 -11   3 9.70663 1.75956   5
   3 -11   3 10.6452 2.59693   4
  -4  11  -3 1.64648 1.59426   6
  -4  11  -3 3.10308 1.53484   2
   4 -11   3 4.56802 1.54871   5
   4 -11   3 5.89917 2.23004   4
  -4 -10   3 30.2481 4.47576   1
   3  10  -3 4.06477 1.90977   2
  -3 -10   3 7.36631 2.79053   7
  -3 -10   3 11.8568 3.40669   1
   2  10  -3 33.0795 2.82452   5
   2  10  -3 36.6537 2.87439   6
   2  10  -3 30.3181 3.24604   2
  -2 -10   3 43.1644 5.42066   1
  -2 -10   3 33.2832 4.29073   7
  -2 -10   3 41.1209 3.78956   4
   1  10  -3 178.659 6.93178   6
   1  10  -3 179.343 7.28327   2
   1  10  -3 167.183 6.90302   5
  -1 -10   3 157.310 9.75258   1
  -1 -10   3 180.234 7.59851   4
  -1 -10   3 162.372 8.11036   7
   0  10  -3 13.3620 1.76934   6
   0  10  -3 13.0654 1.92485   2
   0  10  -3 13.5038 1.79320   5
   0 -10   3 13.1504 3.57871   1
   0 -10   3 16.3204 2.38415   4
  -1  10  -3 21.7268 2.40258   6
  -1  10  -3 24.6314 2.37573   2
  -1  10  -3 22.7429 2.18871   5
   1 -10   3 22.2196 2.09066   5
   1 -10   3 25.2221 2.90476   4
   1 -10   3 23.3159 3.97608   1
  -2  10  -3 21.0098 2.34732   2
  -2  10  -3 18.4748 2.23831   6
   2 -10   3 26.7042 3.85964   1
   2 -10   3 22.6666 2.13943   5
   2 -10   3 20.6457 2.83370   4
  -3  10  -3 13.0663 2.03874   2
  -3  10  -3 10.0117 1.88802   6
   3 -10   3 12.4379 1.88844   5
   3 -10   3 15.0444 2.68060   4
  -4  10  -3 -0.2465 1.29891   6
  -4  10  -3 0.07449 1.19018   2
  -4  10  -3 0.50966 1.30931   3
   4 -10   3 -0.1936 1.07846   5
   4 -10   3 0.14807 1.55507   4
  -5  10  -3 0.37711 1.48423   6
  -5  10  -3 0.99153 1.31719   2
  -5  10  -3 2.32995 1.65067   3
   5 -10   3 1.66575 1.87512   4
   5 -10   3 1.05956 1.33909   5
   4   9  -3 1.57419 2.05663   5
  -4  -9   3 8.12127 2.85603   7
   3   9  -3 9.69495 1.87304   5
   3   9  -3 11.2610 2.21604   2
  -3  -9   3 16.3298 3.68835   7
   2   9  -3 2.87436 1.30413   5
   2   9  -3 3.07969 1.40008   2
   2   9  -3 3.35068 1.12225   6
  -2  -9   3 6.41467 2.89064   1
  -2  -9   3 3.86277 2.41201   7
  -2  -9   3 4.75258 1.51702   4
   1   9  -3 8.84480 1.39117   6
   1   9  -3 9.81514 1.53525   5
   1   9  -3 7.05381 1.49667   2
  -1  -9   3 11.2769 2.03270   4
  -1  -9   3 9.12580 2.52230   7
  -1  -9   3 9.00833 3.15747   1
   0   9  -3 24.3853 2.22853   2
   0   9  -3 23.2394 1.99492   5
   0   9  -3 26.8039 2.18933   6
   0  -9   3 27.4875 2.11930   5
   0  -9   3 29.3500 4.20433   7
   0  -9   3 27.3603 2.74954   4
   0  -9   3 22.6165 4.24249   1
  -1   9  -3 26.9069 2.42651   6
  -1   9  -3 28.4413 2.29748   2
  -1   9  -3 29.7114 2.21686   5
   1  -9   3 28.3734 2.15994   5
   1  -9   3 26.6817 4.02313   1
   1  -9   3 29.2974 2.85449   4
  -2   9  -3 17.0134 2.02382   2
  -2   9  -3 15.0708 1.99189   6
  -2   9  -3 15.7905 1.97687   3
   2  -9   3 17.9757 3.26603   1
   2  -9   3 16.3383 2.51099   4
   2  -9   3 19.3395 1.89506   5
  -3   9  -3 0.17650 1.07367   6
  -3   9  -3 -0.3770 0.98344   3
  -3   9  -3 -0.6413 0.96975   2
   3  -9   3 -0.2159 1.00371   5
   3  -9   3 1.58583 1.53824   4
  -4   9  -3 4.44749 1.59163   6
  -4   9  -3 6.14129 1.52900   2
  -4   9  -3 4.53977 1.41470   3
   4  -9   3 5.43641 2.06860   4
   4  -9   3 4.01211 1.49395   5
  -5   9  -3 0.22320 1.33273   3
  -5   9  -3 -0.5148 1.38660   6
  -5   9  -3 0.09518 1.23259   2
   5  -9   3 -0.3437 1.13614   2
   5  -9   3 2.61282 1.80553   4
   5  -9   3 0.34929 1.35254   5
   4   8  -3 0.07851 1.20741   5
  -4  -8   3 3.98142 2.46236   7
   3   8  -3 2.96770 1.45162   2
   3   8  -3 3.76884 1.33804   5
  -3  -8   3 6.34247 2.76946   1
  -3  -8   3 6.27423 2.67053   7
   2   8  -3 23.3665 2.16613   5
   2   8  -3 25.0834 2.35593   2
   2   8  -3 24.2656 1.99550   6
  -2  -8   3 23.2686 2.46552   4
  -2  -8   3 24.0135 3.86664   7
  -2  -8   3 20.8810 3.92448   1
   1   8  -3 3.21954 1.03826   2
   1   8  -3 3.73667 0.97177   6
   1   8  -3 4.28647 1.00715   5
  -1  -8   3 0.86398 2.33695   1
  -1  -8   3 3.62110 1.38495   4
  -1  -8   3 4.24287 2.03494   7
   0   8  -3 105.310 4.45718   5
   0   8  -3 96.4549 4.43735   2
   0   8  -3 106.690 4.38499   6
   0  -8   3 94.6405 6.30737   1
   0  -8   3 101.572 4.83216   7
   0  -8   3 107.321 4.43601   5
   0  -8   3 107.292 4.99361   4
  -1   8  -3 14.8995 1.64324   2
  -1   8  -3 17.4021 1.84214   6
  -1   8  -3 16.1883 1.20277   3
   1  -8   3 17.6584 1.61776   5
   1  -8   3 16.1375 2.18535   4
   1  -8   3 15.8746 3.19069   1
  -2   8  -3 1.85170 0.98108   2
  -2   8  -3 1.06582 0.90100   6
  -2   8  -3 1.64744 0.85413   3
   2  -8   3 2.43196 1.91249   1
   2  -8   3 2.37547 0.94481   5
   2  -8   3 3.36231 1.48004   4
  -3   8  -3 45.6486 3.16683   6
  -3   8  -3 56.5085 3.23870   2
  -3   8  -3 48.8881 3.12602   3
   3  -8   3 52.5616 3.81636   4
   3  -8   3 52.1332 3.18190   5
  -4   8  -3 32.4227 2.93694   3
  -4   8  -3 28.4995 2.97008   6
  -4   8  -3 28.2578 2.66178   2
   4  -8   3 27.3365 3.12851   4
   4  -8   3 27.0821 2.49812   2
   4  -8   3 22.2465 2.61178   5
  -5   8  -3 -0.4910 1.14968   2
  -5   8  -3 1.82986 1.54762   3
  -5   8  -3 0.62359 1.36228   6
   5  -8   3 -0.2529 1.17977   2
   5  -8   3 -0.4734 1.18887   5
   5  -8   3 1.10799 1.65490   4
   6  -8   3 -1.0396 1.46496   2
   5   7  -3 -2.2767 1.36397   5
   5   7  -3 -0.0592 1.62745   2
  -5  -7   3 7.31557 2.89676   7
   4   7  -3 1.25755 1.47418   2
   4   7  -3 2.36917 1.25578   5
  -4  -7   3 4.55641 2.36084   7
   3   7  -3 17.4978 2.23097   2
   3   7  -3 18.1832 2.15814   5
  -3  -7   3 16.9643 3.45631   7
  -3  -7   3 23.7681 3.96638   1
   2   7  -3 0.11619 0.66815   5
   2   7  -3 -0.2387 0.80427   2
   2   7  -3 0.20737 0.64416   6
  -2  -7   3 -2.9013 1.85420   1
  -2  -7   3 -2.2948 1.69283   7
  -2  -7   3 -0.0734 0.88800   4
   1   7  -3 0.49803 0.69665   2
   1   7  -3 -0.2555 0.54335   6
   1   7  -3 -0.0905 0.54560   5
  -1  -7   3 -0.8487 1.29418   7
  -1  -7   3 -1.5160 1.59026   1
  -1  -7   3 -0.7785 0.73633   4
   0   7  -3 130.000 5.00625   5
   0   7  -3 127.628 5.01823   2
   0   7  -3 128.401 4.84982   6
   0  -7   3 127.182 5.31205   7
   0  -7   3 117.897 6.66277   1
   0  -7   3 125.638 5.40466   4
   0  -7   3 119.319 4.91197   5
  -1   7  -3 42.4110 2.42500   6
  -1   7  -3 45.2725 2.46051   2
  -1   7  -3 37.6255 1.84462   3
   1  -7   3 40.0506 3.72035   1
   1  -7   3 41.6420 2.82503   4
   1  -7   3 41.3679 2.30518   5
  -2   7  -3 31.0466 2.22123   6
  -2   7  -3 31.2908 2.01836   3
  -2   7  -3 36.4234 2.25724   2
   2  -7   3 34.9036 2.22848   5
   2  -7   3 32.5009 2.72974   4
   2  -7   3 31.5870 3.09380   1
  -3   7  -3 95.7098 4.51614   3
  -3   7  -3 96.1570 4.38367   2
  -3   7  -3 89.1548 4.43756   6
   3  -7   3 89.4950 4.88931   4
   3  -7   3 96.5060 4.29556   2
   3  -7   3 97.9643 4.51986   5
  -4   7  -3 33.5863 2.71412   2
  -4   7  -3 32.6767 2.93392   6
  -4   7  -3 27.7556 2.92130   3
   4  -7   3 34.8729 2.67736   2
   4  -7   3 27.7219 2.67791   5
   4  -7   3 30.2743 3.28581   4
  -5   7  -3 4.12566 1.68641   3
  -5   7  -3 3.89778 1.64017   6
  -5   7  -3 2.49794 1.34365   2
   5  -7   3 2.43212 1.42107   2
   5  -7   3 3.91717 1.87029   4
   5  -7   3 5.47456 1.68215   5
  -6   7  -3 -1.0705 1.33195   2
  -6   7  -3 4.15613 1.83345   3
  -6   7  -3 0.89512 1.48366   6
   6  -7   3 0.44362 1.41706   2
   6  -7   3 0.37616 1.50047   5
   5   6  -3 -0.1925 1.41295   2
   5   6  -3 -0.8201 1.36681   5
  -5  -6   3 6.50273 2.62659   7
   4   6  -3 25.1536 2.79629   2
   4   6  -3 26.0083 2.60731   5
  -4  -6   3 25.5521 4.03109   7
  -4  -6   3 34.4023 4.32304   1
   3   6  -3 104.584 4.86853   4
   3   6  -3 107.889 4.97223   5
   3   6  -3 108.129 4.37118   6
   3   6  -3 113.251 5.05106   2
  -3  -6   3 112.107 4.95528   4
  -3  -6   3 105.263 6.73115   7
  -3  -6   3 113.193 7.15308   1
   2   6  -3 2.12130 0.79488   5
   2   6  -3 1.66012 0.65070   6
   2   6  -3 0.53755 0.74872   2
  -2  -6   3 0.39132 1.74504   7
  -2  -6   3 -0.6543 1.75361   1
  -2  -6   3 1.59748 0.61199   3
  -2  -6   3 1.80684 0.88391   4
   1   6  -3 37.6716 2.22958   2
   1   6  -3 35.6035 2.14472   5
   1   6  -3 39.8089 1.99558   6
  -1  -6   3 40.6594 3.11713   7
  -1  -6   3 36.9763 2.37633   4
  -1  -6   3 36.9668 3.57229   1
   0   6  -3 357.713 12.0132   2
   0   6  -3 367.812 11.8055   6
   0   6  -3 376.569 12.0586   5
   0  -6   3 369.208 13.7289   1
   0  -6   3 335.305 12.3027   4
   0  -6   3 350.901 11.9844   5
   0  -6   3 381.719 12.2668   7
  -1   6  -3 6.52806 0.98444   6
  -1   6  -3 6.00679 0.74131   3
  -1   6  -3 7.68019 1.08488   2
   1  -6   3 9.77112 2.07416   1
   1  -6   3 6.85084 1.30618   4
   1  -6   3 6.86416 0.98462   5
  -2   6  -3 -0.4170 0.52547   2
  -2   6  -3 -0.0806 0.54182   6
  -2   6  -3 -0.9100 0.60290   3
   2  -6   3 -0.3117 0.89961   4
   2  -6   3 -0.5410 0.36798   2
   2  -6   3 -0.8350 1.00329   1
   2  -6   3 -0.5037 0.46725   5
  -3   6  -3 196.655 7.24267   2
  -3   6  -3 196.310 7.41994   3
   3  -6   3 198.729 7.25314   2
   3  -6   3 173.924 8.71402   1
   3  -6   3 201.007 7.81322   4
   3  -6   3 192.553 7.34249   5
  -4   6  -3 5.74458 1.33327   2
  -4   6  -3 5.81465 1.61293   3
  -4   6  -3 7.24988 1.50027   6
   4  -6   3 4.98459 1.81638   4
   4  -6   3 7.07194 1.38399   2
   4  -6   3 6.75714 1.54011   5
  -5   6  -3 -0.1726 1.23888   3
  -5   6  -3 -0.1774 1.08559   2
  -5   6  -3 -0.7699 1.19255   6
   5  -6   3 -0.8155 1.38760   4
   5  -6   3 0.03521 1.19062   5
   5  -6   3 -0.6189 1.10707   2
  -6   6  -3 -0.5856 1.37339   6
  -6   6  -3 0.00662 1.67726   3
   6  -6   3 -0.3280 1.40826   5
   6  -6   3 4.18395 1.85124   2
   5   5  -3 5.12453 1.76540   2
   5   5  -3 6.89100 1.87503   5
  -5  -5   3 11.0634 3.31944   7
   4   5  -3 75.4448 4.22491   5
   4   5  -3 84.7768 4.39213   2
  -4  -5   3 85.5996 6.12983   1
  -4  -5   3 74.9758 5.95293   7
  -4  -5   3 79.9785 4.06438   3
   3   5  -3 23.4238 1.51273   6
   3   5  -3 21.9933 1.99886   5
   3   5  -3 28.6829 2.21293   2
   3   5  -3 22.8906 1.93674   4
  -3  -5   3 21.4503 1.98101   4
  -3  -5   3 17.7844 3.38679   1
  -3  -5   3 16.7103 3.49731   7
  -3  -5   3 20.0845 1.90252   3
   2   5  -3 3.37104 0.83870   2
   2   5  -3 2.71984 0.58532   6
   2   5  -3 2.47816 0.72217   5
  -2  -5   3 2.95135 1.82718   1
  -2  -5   3 2.66840 0.64791   3
  -2  -5   3 2.61017 0.92531   4
  -2  -5   3 2.63897 1.81648   7
   1   5  -3 -0.1018 0.44231   2
   1   5  -3 0.00381 0.35185   6
   1   5  -3 0.10588 0.42763   5
  -1  -5   3 -0.1820 0.53556   4
  -1  -5   3 -0.2432 1.16139   1
  -1  -5   3 0.17145 1.01171   7
   0   5  -3 9.87370 0.93968   6
   0   5  -3 11.8310 1.03969   5
   0   5  -3 11.1176 1.09005   2
   0  -5   3 9.78574 1.21216   7
   0  -5   3 8.89914 0.95610   5
   0  -5   3 10.5224 1.93334   1
   0  -5   3 8.79025 1.28461   4
  -1   5  -3 6.72189 0.88813   6
  -1   5  -3 6.45988 0.74697   3
  -1   5  -3 7.55678 0.96919   2
   1  -5   3 8.67315 1.75833   1
   1  -5   3 7.23336 0.90193   5
   1  -5   3 7.59663 1.25237   4
  -2   5  -3 75.3113 3.29646   2
  -2   5  -3 72.1518 3.27038   3
  -2   5  -3 74.5126 3.34216   6
   2  -5   3 72.5051 3.30950   5
   2  -5   3 77.3797 3.71014   1
   2  -5   3 77.3030 3.29606   2
   2  -5   3 74.5711 3.62876   4
  -3   5  -3 49.8632 2.82245   6
  -3   5  -3 51.8870 2.80053   2
  -3   5  -3 50.4730 2.97369   3
   3  -5   3 56.0896 2.95505   5
   3  -5   3 53.4336 3.28912   4
   3  -5   3 51.7138 2.74623   2
  -4   5  -3 20.6935 2.19392   6
  -4   5  -3 22.0296 2.52626   3
   4  -5   3 22.4102 2.08410   2
   4  -5   3 20.5817 2.61025   4
   4  -5   3 23.9169 2.31159   5
  -5   5  -3 6.07730 1.67223   6
  -5   5  -3 4.01075 1.57569   3
   5  -5   3 4.22377 1.72830   4
   5  -5   3 6.13399 1.71929   5
   5  -5   3 5.55334 1.59215   2
  -6   5  -3 16.8076 2.87694   3
  -6   5  -3 18.5939 2.74659   6
   6  -5   3 27.3164 3.21044   5
   6  -5   3 20.1359 2.74941   2
   6   4  -3 -1.3458 1.54228   5
   6   4  -3 -0.0421 1.56563   2
   5   4  -3 1.00835 1.31732   5
   5   4  -3 0.97881 1.35225   2
  -5  -4   3 3.64286 2.33495   7
  -5  -4   3 2.98384 1.55163   3
   4   4  -3 19.1171 2.19225   5
   4   4  -3 22.3761 2.24619   2
  -4  -4   3 20.9199 3.39293   1
  -4  -4   3 17.0037 3.65983   7
  -4  -4   3 15.3886 2.00571   3
   3   4  -3 5.19862 0.72458   6
   3   4  -3 6.53600 1.19794   4
   3   4  -3 5.50871 1.11596   5
   3   4  -3 4.48440 1.06364   2
  -3  -4   3 3.79200 2.04099   7
  -3  -4   3 4.74693 1.10505   3
  -3  -4   3 5.47084 1.19846   4
  -3  -4   3 3.55461 1.98342   1
   2   4  -3 0.14624 0.41809   5
   2   4  -3 0.39609 0.33014   6
   2   4  -3 0.19668 0.45557   2
  -2  -4   3 -0.6508 1.17385   7
  -2  -4   3 -0.6654 0.44113   3
  -2  -4   3 0.22912 0.60845   4
  -2  -4   3 -0.8079 1.04522   1
   1   4  -3 335.430 11.0389   5
   1   4  -3 344.053 10.9747   2
   1   4  -3 334.283 10.5558   6
  -1  -4   3 354.562 11.8209   7
  -1  -4   3 343.761 12.5089   1
  -1  -4   3 297.923 11.1173   4
   0   4  -3 5.45225 0.73840   2
   0   4  -3 4.93319 0.70877   5
   0   4  -3 3.86371 0.54990   6
   0  -4   3 6.15627 1.03003   7
   0  -4   3 4.12124 0.84639   4
   0  -4   3 3.57058 1.23365   1
   0  -4   3 4.44902 0.69668   5
  -1   4  -3 14.7005 1.12547   2
  -1   4  -3 13.6835 0.96222   3
   1  -4   3 15.7772 1.37241   4
   1  -4   3 14.4605 1.08052   2
   1  -4   3 13.0205 1.05990   5
   1  -4   3 15.2138 1.64908   1
  -2   4  -3 17.1084 1.46285   6
  -2   4  -3 21.8545 1.51515   2
  -2   4  -3 18.9682 1.57062   3
   2  -4   3 20.9661 1.42400   2
   2  -4   3 21.7133 1.77014   4
   2  -4   3 19.8143 1.48007   5
   2  -4   3 21.0811 1.56778   1
  -3   4  -3 3.37676 1.04746   3
  -3   4  -3 3.74212 0.84105   6
   3  -4   3 5.26791 1.11582   5
   3  -4   3 5.01608 1.28743   4
   3  -4   3 4.36206 0.89095   2
  -4   4  -3 13.4874 1.77503   6
  -4   4  -3 12.4089 2.04819   3
  -4   4  -3 15.7818 2.21829   7
   4  -4   3 14.2917 2.04486   4
   4  -4   3 18.5470 1.99738   5
   4  -4   3 14.7779 1.73219   2
  -5   4  -3 24.2210 3.00325   3
  -5   4  -3 28.2486 2.81947   6
   5  -4   3 30.1225 2.66733   2
   5  -4   3 26.5496 2.73329   5
  -6   4  -3 5.18179 1.70512   6
  -6   4  -3 2.84821 1.80792   3
   6  -4   3 4.30882 1.72791   5
   6  -4   3 4.02773 1.76218   2
   6   3  -3 -2.8233 1.34393   5
   6   3  -3 -1.5032 1.32487   2
  -6  -3   3 0.59732 1.53127   3
   5   3  -3 2.16145 1.36591   2
   5   3  -3 2.67171 1.49397   5
  -5  -3   3 3.17455 1.44843   3
  -5  -3   3 5.70565 2.74280   7
   4   3  -3 1.64237 1.04431   5
   4   3  -3 0.06500 0.65892   4
   4   3  -3 0.78845 0.90734   2
  -4  -3   3 -0.7843 1.51751   1
  -4  -3   3 -0.7170 1.79541   7
  -4  -3   3 -0.0476 1.07372   3
   3   3  -3 0.35785 0.55132   4
   3   3  -3 0.01270 0.32345   6
   3   3  -3 0.48012 0.61012   5
   3   3  -3 0.22090 0.55403   2
  -3  -3   3 -0.2439 1.28542   7
  -3  -3   3 0.29860 0.68001   3
  -3  -3   3 -0.6358 1.22537   1
   2   3  -3 61.3544 2.83033   5
   2   3  -3 59.8773 2.25896   6
   2   3  -3 58.2522 2.87635   4
   2   3  -3 58.6149 2.67642   2
  -2  -3   3 58.3636 2.87533   4
  -2  -3   3 61.3904 3.76907   7
  -2  -3   3 64.0812 2.54614   3
  -2  -3   3 62.0205 3.89213   1
   1   3  -3 38.0938 1.90396   5
   1   3  -3 37.4345 1.49885   6
   1   3  -3 39.2282 1.84404   2
  -1  -3   3 39.8759 2.75110   1
  -1  -3   3 38.4742 1.44442   3
  -1  -3   3 35.4825 1.99293   4
  -1  -3   3 42.2277 2.48598   7
   0   3  -3 369.225 12.1745   5
   0   3  -3 378.031 11.9049   6
   0   3  -3 384.552 12.1350   2
   0  -3   3 386.943 13.1520   1
   0  -3   3 385.800 12.4164   4
   0  -3   3 406.104 12.4029   7
   0  -3   3 364.419 12.1681   5
  -1   3  -3 673.639 21.4401   2
  -1   3  -3 705.853 21.2420   3
  -1   3  -3 703.370 21.4445   6
   1  -3   3 683.617 21.4734   2
   1  -3   3 696.613 21.7025   4
   1  -3   3 682.083 21.5110   5
   1  -3   3 693.466 22.0241   1
  -2   3  -3 0.90260 0.48065   6
  -2   3  -3 -0.1805 0.50623   3
   2  -3   3 0.32482 0.38589   2
   2  -3   3 0.56461 0.61280   4
   2  -3   3 0.53279 0.46727   5
  -3   3  -3 -0.2980 0.43071   6
  -3   3  -3 -0.3497 0.62042   3
  -3   3  -3 -0.4373 0.90782   7
   3  -3   3 -0.2438 0.42718   2
   3  -3   3 0.56022 0.76659   4
   3  -3   3 0.26163 0.64173   5
  -4   3  -3 6.57491 1.22975   6
  -4   3  -3 11.4516 2.20091   7
  -4   3  -3 9.92303 1.78453   3
   4  -3   3 11.8179 1.64853   2
   4  -3   3 12.2336 1.81706   5
   4  -3   3 13.1951 1.81002   4
  -5   3  -3 -1.7563 0.93777   6
  -5   3  -3 -0.7690 1.19521   3
   5  -3   3 -0.1916 1.07568   2
   5  -3   3 -0.1375 1.09406   5
  -6   3  -3 5.55582 2.06143   3
  -6   3  -3 6.95564 1.84882   6
   6  -3   3 11.3308 2.33190   5
   6  -3   3 9.22125 2.17179   2
   6   2  -3 -1.6646 1.45277   5
   6   2  -3 -0.7820 1.28892   2
  -6  -2   3 0.13307 1.51224   3
   5   2  -3 1.60613 1.40980   5
   5   2  -3 2.31791 1.24573   2
  -5  -2   3 -0.4414 1.37478   3
  -5  -2   3 0.77298 1.88658   7
   4   2  -3 74.7343 3.70307   2
   4   2  -3 79.4556 3.35879   6
   4   2  -3 80.5376 3.99010   5
   4   2  -3 71.4079 3.59076   4
  -4  -2   3 68.5035 5.31098   7
  -4  -2   3 77.0174 4.01111   3
  -4  -2   3 77.2070 5.01946   1
   3   2  -3 28.3551 1.93506   4
   3   2  -3 27.4006 1.79676   2
   3   2  -3 31.6061 2.04923   5
   3   2  -3 29.8288 1.42645   6
  -3  -2   3 31.8989 2.04689   3
  -3  -2   3 30.1547 2.91787   1
  -3  -2   3 28.8700 1.41491   6
  -3  -2   3 22.4796 2.79907   7
   2   2  -3 111.059 3.77048   6
   2   2  -3 114.658 4.27152   2
   2   2  -3 114.927 4.56711   4
   2   2  -3 116.799 4.49438   5
  -2  -2   3 116.567 5.39759   7
  -2  -2   3 117.835 5.52448   1
  -2  -2   3 124.776 4.27479   3
  -2  -2   3 109.755 4.54647   4
   1   2  -3 408.440 12.7565   6
   1   2  -3 428.608 13.1779   2
   1   2  -3 430.733 13.3958   5
  -1  -2   3 390.315 13.5359   4
  -1  -2   3 425.356 14.4305   1
  -1  -2   3 458.147 14.1423   7
  -1  -2   3 384.420 12.7398   6
  -1  -2   3 433.562 12.9562   3
   0   2  -3 848.267 25.2023   6
   0   2  -3 816.913 25.0528   3
   0   2  -3 802.176 25.3485   2
   0   2  -3 810.511 25.4587   5
   0  -2   3 825.904 25.4699   5
   0  -2   3 844.499 25.6773   4
   0  -2   3 850.125 25.7175   7
   0  -2   3 817.991 25.0358   3
   0  -2   3 842.765 26.3354   1
  -1   2  -3 3766.24 112.576   6
  -1   2  -3 3722.32 113.079   3
  -1   2  -3 3630.94 113.028   7
   1  -2   3 3735.62 113.102   2
   1  -2   3 3578.17 112.521   7
   1  -2   3 3825.64 113.556   4
   1  -2   3 3737.36 115.343   1
   1  -2   3 3686.86 112.678   5
   1  -2   3 3799.17 113.643   6
  -2   2  -3 233.989 7.85139   6
  -2   2  -3 239.108 7.90064   3
  -2   2  -3 229.644 8.05088   7
   2  -2   3 235.619 7.82553   4
   2  -2   3 233.467 7.90403   5
   2  -2   3 229.259 7.88189   2
   2  -2   3 229.135 7.81157   6
  -3   2  -3 185.914 6.61223   6
  -3   2  -3 183.886 7.25880   7
  -3   2  -3 175.844 6.73188   3
   3  -2   3 178.688 6.52059   6
   3  -2   3 179.696 6.64108   5
   3  -2   3 187.148 6.67097   2
   3  -2   3 176.852 6.42058   4
  -4   2  -3 42.7129 2.70319   6
  -4   2  -3 44.4923 3.74460   7
  -4   2  -3 39.6828 2.94876   3
   4  -2   3 44.9410 2.61786   6
   4  -2   3 40.9532 2.67157   2
   4  -2   3 48.6449 2.91640   5
   4  -2   3 39.4203 2.46005   4
  -5   2  -3 39.8162 3.96154   7
  -5   2  -3 32.7027 2.80249   6
  -5   2  -3 29.8797 3.15590   3
   5  -2   3 33.5054 2.86991   2
   5  -2   3 31.7387 2.91445   5
  -6   2  -3 -2.8674 1.55694   3
  -6   2  -3 -0.5413 1.25358   6
   6  -2   3 0.01652 1.48175   5
   6  -2   3 -0.6585 1.44488   2
   6   1  -3 -2.6040 1.39503   5
   6   1  -3 -0.3899 1.19870   2
  -6  -1   3 0.24553 1.63332   3
   5   1  -3 23.3600 2.30828   2
   5   1  -3 21.6622 2.60542   5
  -5  -1   3 14.6400 3.24175   7
  -5  -1   3 14.4065 2.42556   3
   4   1  -3 29.8726 2.11708   2
   4   1  -3 32.2017 2.44820   5
   4   1  -3 27.7632 2.12289   4
  -4  -1   3 26.8621 2.94841   1
  -4  -1   3 26.5009 1.65823   6
  -4  -1   3 20.6638 3.14545   7
  -4  -1   3 25.5321 2.51902   3
   3   1  -3 49.4708 2.38375   2
   3   1  -3 48.5634 1.99056   6
   3   1  -3 47.6742 2.57652   4
   3   1  -3 49.1819 2.62878   5
  -3  -1   3 49.5561 2.01526   6
  -3  -1   3 48.6157 3.38984   1
  -3  -1   3 41.1442 3.34013   7
  -3  -1   3 55.2220 2.75851   3
   2   1  -3 8.07022 0.51039   6
   2   1  -3 8.23012 0.92106   5
   2   1  -3 7.65217 0.94831   4
   2   1  -3 7.04997 0.76786   2
  -2  -1   3 7.69636 0.52393   6
  -2  -1   3 8.68843 0.94912   3
  -2  -1   3 7.88507 1.37778   7
  -2  -1   3 8.31955 1.45648   1
   1   1  -3 6403.00 199.258   5
   1   1  -3 6344.64 200.035   4
   1   1  -3 6337.34 198.015   2
  -1  -1   3 6616.91 201.877   1
  -1  -1   3 6569.46 198.191   3
  -1  -1   3 6596.49 198.237   4
  -1  -1   3 7002.83 203.656   7
   0   1  -3 3110.37 92.6443   6
   0   1  -3 3011.29 93.0167   2
   0   1  -3 3015.44 93.2138   5
   0  -1   3 3120.51 92.8361   6
   0  -1   3 2950.19 92.2919   3
   0  -1   3 3066.19 92.9921   2
   0  -1   3 3130.28 94.4991   7
   0  -1   3 3024.58 93.0047   4
   0  -1   3 3067.19 96.1429   1
   0  -1   3 3149.56 92.4021   5
  -1   1  -3 1491.94 44.9617   3
  -1   1  -3 1466.46 45.1852   7
  -1   1  -3 1453.82 44.9777   6
   1  -1   3 1519.72 45.0666   2
   1  -1   3 1509.24 45.0488   5
   1  -1   3 1493.75 45.0626   4
   1  -1   3 1501.06 45.0098   6
   1  -1   3 1469.61 45.2592   7
   1  -1   3 1442.27 45.7360   1
   1  -1   3 1477.94 44.9667   3
  -2   1  -3 835.583 27.0254   7
  -2   1  -3 860.566 26.6231   3
  -2   1  -3 851.107 26.5502   6
   2  -1   3 868.335 26.5744   5
   2  -1   3 858.692 26.5744   6
   2  -1   3 883.834 26.6693   2
   2  -1   3 848.991 26.3632   4
  -3   1  -3 20.3913 1.73193   3
  -3   1  -3 18.2807 1.49777   6
  -3   1  -3 21.4460 2.37218   7
   3  -1   3 20.8160 1.58326   2
   3  -1   3 20.5530 1.49709   6
   3  -1   3 20.9406 1.65928   5
   3  -1   3 19.7509 1.33508   4
  -4   1  -3 11.4828 1.81642   3
  -4   1  -3 12.3196 2.75858   7
  -4   1  -3 12.8991 1.61809   6
   4  -1   3 14.0277 1.87596   5
   4  -1   3 12.8962 1.71057   2
   4  -1   3 9.79572 1.38835   6
  -5   1  -3 1.62510 2.10013   7
  -5   1  -3 -0.5282 1.25030   3
  -5   1  -3 -0.9392 0.98661   6
   5  -1   3 -1.4360 0.82677   6
   5  -1   3 -1.8692 0.95195   2
   5  -1   3 -0.9743 1.09555   5
  -6   1  -3 -1.3989 1.70301   3
  -6   1  -3 7.63993 2.65901   7
  -6   1  -3 2.36559 1.42019   6
   6  -1   3 3.78952 1.80681   2
   6  -1   3 0.28189 1.50900   5
   6   0  -3 -0.6391 1.47887   5
   6   0  -3 2.51653 1.31478   2
  -6   0   3 2.93893 1.68080   3
   5   0  -3 19.1639 2.11442   2
   5   0  -3 21.5774 3.42631   4
   5   0  -3 22.2626 2.59474   5
  -5   0   3 18.0472 2.62335   3
  -5   0   3 23.6018 3.75283   7
   4   0  -3 51.9048 3.03841   5
   4   0  -3 46.5617 2.82576   4
   4   0  -3 46.2367 2.57032   2
  -4   0   3 48.2286 3.20593   3
  -4   0   3 47.5131 2.31267   6
  -4   0   3 51.6797 3.60282   1
  -4   0   3 38.1451 3.83303   7
   3   0  -3 4.54034 0.79603   2
   3   0  -3 4.24219 0.94881   5
   3   0  -3 5.86251 1.05753   4
  -3   0   3 1.84438 1.04292   7
  -3   0   3 4.80581 1.07539   3
  -3   0   3 4.76443 1.43449   1
  -3   0   3 4.79282 0.62341   6
   2   0  -3 300.126 10.0325   5
   2   0  -3 306.909 10.2659   4
   2   0  -3 298.336 9.66319   2
  -2   0   3 304.796 9.43687   6
  -2   0   3 310.957 10.0192   3
  -2   0   3 305.971 10.9590   1
  -2   0   3 302.009 10.9946   7
   1   0  -3 1324.69 40.7449   6
   1   0  -3 1363.61 41.2444   5
   1   0  -3 1400.65 41.5711   4
   1   0  -3 1335.78 40.8895   2
  -1   0   3 1440.08 42.0762   7
  -1   0   3 1364.41 41.1761   3
  -1   0   3 1319.23 42.1420   1
  -1   0   3 1291.66 40.7425   6
   0   0  -3 411.592 13.0149   4
   0   0  -3 403.045 12.7243   5
   0   0   3 410.286 13.5671   1
   0   0   3 413.127 13.2942   7
   0   0   3 412.372 12.6361   2
   0   0   3 409.812 12.9940   4
   0   0   3 417.979 12.7905   3
   0   0   3 414.841 12.7350   5
   0   0   3 415.971 12.6567   6
  -1   0  -3 88.7417 3.58572   1
  -1   0  -3 90.8856 3.23750   3
  -1   0  -3 92.2892 3.58661   7
   1   0   3 92.1288 3.27391   3
   1   0   3 89.0599 3.14571   4
   1   0   3 85.6693 3.61621   1
   1   0   3 90.6280 3.16494   5
   1   0   3 91.8601 3.26299   2
   1   0   3 91.1512 3.23490   6
  -2   0  -3 0.87373 0.54735   1
  -2   0  -3 2.35988 0.93865   7
  -2   0  -3 0.97447 0.46809   3
   2   0   3 0.50722 0.40263   2
   2   0   3 0.88383 0.39865   6
   2   0   3 0.96302 0.44465   5
   2   0   3 0.56320 0.31931   4
  -3   0  -3 7.01441 1.89807   7
  -3   0  -3 6.15462 0.95903   6
  -3   0  -3 4.32290 0.95159   3
   3   0   3 5.45974 0.96147   2
   3   0   3 5.76094 0.90727   6
   3   0   3 5.51079 1.01684   5
  -4   0  -3 -0.2650 0.76232   6
  -4   0  -3 0.65604 2.00660   7
  -4   0  -3 0.26636 1.05740   3
   4   0   3 0.24104 0.66999   6
   4   0   3 1.62483 1.04439   5
   4   0   3 -0.2499 0.71686   2
  -5   0  -3 7.82778 2.01585   3
  -5   0  -3 6.24640 1.49233   6
  -5   0  -3 6.22835 2.74605   7
   5   0   3 8.19485 1.90466   5
   5   0   3 6.12844 1.40906   6
   5   0   3 5.73453 1.74866   2
  -6   0  -3 1.81099 1.38150   6
  -6   0  -3 -0.2778 1.84138   3
  -6   0  -3 5.28135 2.56023   7
   6   0   3 1.79759 1.55048   2
   6   0   3 1.88360 1.22536   6
   6   0   3 -1.5027 1.28634   5
   6  -1  -3 8.13596 2.25199   5
  -6   1   3 7.05659 2.02170   3
   5  -1  -3 0.11963 1.23920   4
   5  -1  -3 -0.1643 1.30547   5
   5  -1  -3 1.81278 1.03792   2
  -5   1   3 0.57468 1.40550   3
  -5   1   3 2.40510 1.82866   7
   4  -1  -3 61.1101 3.36312   5
   4  -1  -3 62.2459 2.94571   2
   4  -1  -3 61.9548 3.36048   4
  -4   1   3 59.4848 2.74577   6
  -4   1   3 52.1742 4.28962   7
  -4   1   3 60.5457 3.60994   3
  -4   1   3 61.0487 3.90500   1
   3  -1  -3 92.8802 3.94245   5
   3  -1  -3 92.5923 4.05972   4
   3  -1  -3 90.8379 3.52536   2
  -3   1   3 94.6808 4.66106   1
  -3   1   3 87.5150 4.83717   7
  -3   1   3 90.9855 4.06402   3
  -3   1   3 90.4839 3.39908   6
   2  -1  -3 45.6848 2.31044   4
   2  -1  -3 42.7778 1.72490   2
   2  -1  -3 42.8541 2.06517   5
  -2   1   3 43.1173 2.76961   7
  -2   1   3 44.2132 2.16970   3
  -2   1   3 42.2089 1.69125   6
  -2   1   3 41.9275 2.69600   1
   1  -1  -3 441.011 13.6607   5
   1  -1  -3 437.972 14.6576   1
   1  -1  -3 439.059 14.0323   4
  -1   1   3 426.089 13.4052   6
  -1   1   3 430.045 14.6747   1
  -1   1   3 444.404 13.7780   3
  -1   1   3 443.999 14.4415   7
   0  -1  -3 300.242 10.6627   1
   0  -1  -3 315.864 9.70186   5
   0  -1  -3 316.121 10.0799   4
   0  -1  -3 309.579 9.66512   5
   0  -1  -3 354.790 9.77906   2
   0   1   3 312.591 9.84128   6
   0   1   3 306.167 10.7608   1
   0   1   3 305.735 9.67422   2
   0   1   3 306.517 10.4729   7
   0   1   3 318.055 9.98566   3
  -1  -1  -3 26.4174 1.11407   4
  -1  -1  -3 25.4160 1.64353   1
  -1  -1  -3 24.0489 1.29766   3
  -1  -1  -3 26.8827 1.68500   7
   1   1   3 26.2019 1.29629   2
   1   1   3 25.2995 1.13814   5
   1   1   3 24.5682 1.29187   6
   1   1   3 26.1898 1.36084   3
  -2  -1  -3 13.8505 1.67836   7
  -2  -1  -3 14.2442 1.11204   3
  -2  -1  -3 12.4403 1.36199   1
   2   1   3 13.1946 1.14055   3
   2   1   3 11.4517 1.00144   6
   2   1   3 11.7996 1.08741   2
   2   1   3 12.7407 1.02315   5
  -3  -1  -3 56.1827 2.95135   3
  -3  -1  -3 59.5811 4.11510   7
   3   1   3 59.6167 2.92463   2
   3   1   3 57.7843 2.81589   5
   3   1   3 60.7721 2.82545   6
  -4  -1  -3 -0.2853 2.09147   7
  -4  -1  -3 -0.0956 1.02578   3
  -4  -1  -3 -1.1865 0.72814   6
   4   1   3 -0.1856 0.94019   5
   4   1   3 -0.6652 0.62622   6
   4   1   3 -1.5078 0.62886   2
  -5  -1  -3 1.92508 2.40639   7
  -5  -1  -3 0.54179 1.09886   6
  -5  -1  -3 -0.1294 1.54600   3
   5   1   3 -1.7176 1.27046   5
   5   1   3 -0.3213 1.22786   2
   5   1   3 0.24240 1.01441   6
  -6  -1  -3 0.15050 1.19634   6
  -6  -1  -3 0.13042 1.90016   3
  -6  -1  -3 6.11060 2.80421   7
   6   1   3 1.26473 1.28883   6
   6   1   3 0.22149 1.58782   2
   6   1   3 -1.1861 1.42901   5
   6  -2  -3 11.1017 2.40278   5
  -6   2   3 11.0335 2.47576   3
   5  -2  -3 17.0700 2.51546   4
   5  -2  -3 16.7672 1.97669   2
   5  -2  -3 18.2527 2.50495   5
  -5   2   3 18.2533 2.70574   3
  -5   2   3 25.8580 3.72439   7
   4  -2  -3 177.593 7.43225   1
   4  -2  -3 172.417 6.93432   5
   4  -2  -3 173.705 7.07870   4
   4  -2  -3 181.718 6.43917   2
  -4   2   3 176.589 6.33827   6
  -4   2   3 167.690 7.11254   3
  -4   2   3 182.384 7.64122   1
  -4   2   3 179.058 8.37008   7
   3  -2  -3 93.3231 4.31387   4
   3  -2  -3 99.0833 4.80082   1
   3  -2  -3 96.9269 3.69306   2
   3  -2  -3 100.308 4.19299   5
  -3   2   3 103.574 5.26034   7
  -3   2   3 102.213 3.76325   6
  -3   2   3 104.120 4.95613   1
  -3   2   3 98.8972 4.35641   3
   2  -2  -3 80.9437 3.99237   1
   2  -2  -3 82.7911 3.54195   4
   2  -2  -3 79.6428 3.19838   5
   2  -2  -3 77.5791 2.76509   2
  -2   2   3 81.5186 3.98840   7
  -2   2   3 80.6222 2.94009   6
  -2   2   3 84.2594 3.42232   3
  -2   2   3 74.5289 3.94496   1
   1  -2  -3 149.895 4.92400   5
   1  -2  -3 153.555 5.99481   1
   1  -2  -3 153.384 5.40311   4
  -1   2   3 144.587 5.69496   7
  -1   2   3 143.772 6.03542   1
  -1   2   3 146.799 4.90161   6
  -1   2   3 148.037 5.19807   3
   0  -2  -3 2.18920 0.44908   4
   0  -2  -3 2.93512 0.81154   1
   0   2   3 1.97511 0.70422   7
   0   2   3 1.74635 0.46289   3
   0   2   3 2.11942 0.31342   2
   0   2   3 1.40164 0.36727   6
  -1  -2  -3 93.0799 3.12228   4
  -1  -2  -3 101.546 3.25344   4
  -1  -2  -3 87.7206 3.96372   7
  -1  -2  -3 90.2653 4.09929   1
   1   2   3 88.8614 3.07909   5
   1   2   3 91.2952 3.39387   2
   1   2   3 91.9310 3.46523   6
   1   2   3 95.8539 3.53620   3
  -2  -2  -3 200.020 7.80574   1
  -2  -2  -3 197.957 6.96032   3
  -2  -2  -3 198.833 7.96721   7
   2   2   3 196.403 6.99752   3
   2   2   3 204.819 6.98284   6
   2   2   3 205.092 7.02249   2
   2   2   3 204.826 6.71645   5
  -3  -2  -3 85.9026 3.84661   3
  -3  -2  -3 87.7685 4.62202   1
  -3  -2  -3 82.3536 5.13652   7
   3   2   3 86.5709 3.61529   5
   3   2   3 83.7993 3.65402   6
   3   2   3 81.7723 3.77924   2
  -4  -2  -3 48.3840 3.36179   3
  -4  -2  -3 52.1778 5.09449   7
   4   2   3 52.0983 3.21457   2
   4   2   3 52.4557 3.10768   5
   4   2   3 51.2886 3.03943   6
  -5  -2  -3 0.87227 1.64099   3
  -5  -2  -3 0.96206 1.17665   6
  -5  -2  -3 0.86335 2.48126   7
   5   2   3 -0.2842 1.34924   5
   5   2   3 0.36523 1.32150   2
   5   2   3 1.88985 1.13455   6
  -6  -2  -3 0.77187 1.21949   6
  -6  -2  -3 -1.5727 1.74806   3
  -6  -2  -3 5.38343 2.95979   7
   6   2   3 2.68546 1.43775   6
   6   2   3 2.03268 1.67333   2
   6   2   3 -0.9165 1.58844   5
  -6   3   3 5.65494 2.10187   3
   5  -3  -3 31.7049 2.92905   5
   5  -3  -3 28.9642 3.12545   4
   5  -3  -3 29.9245 2.33031   2
  -5   3   3 39.7454 4.47679   7
  -5   3   3 29.2952 3.36264   3
  -5   3   3 31.4233 2.60948   6
   4  -3  -3 5.97886 1.58405   1
   4  -3  -3 6.83722 1.06266   2
   4  -3  -3 7.60641 1.50523   5
   4  -3  -3 5.95027 1.58095   4
  -4   3   3 6.66128 1.56835   3
  -4   3   3 7.57118 2.17159   7
  -4   3   3 6.74505 1.09292   6
   3  -3  -3 186.386 7.54351   1
   3  -3  -3 178.657 6.25700   2
   3  -3  -3 189.540 6.84742   5
   3  -3  -3 185.658 7.20441   4
  -3   3   3 189.442 7.87634   7
  -3   3   3 191.781 6.50507   6
  -3   3   3 184.691 7.08867   3
   2  -3  -3 48.2611 2.63091   4
   2  -3  -3 53.1714 3.08631   1
   2  -3  -3 49.2725 2.28945   5
   2  -3  -3 49.4147 1.87829   2
  -2   3   3 51.6141 2.56237   3
  -2   3   3 51.3517 2.97726   7
  -2   3   3 51.3127 2.19283   6
   1  -3  -3 140.509 4.61093   5
   1  -3  -3 138.503 5.17066   4
   1  -3  -3 140.922 5.82647   1
  -1   3   3 139.142 5.50605   7
  -1   3   3 144.958 5.05282   3
  -1   3   3 140.781 4.77976   6
  -1   3   3 128.698 4.35983   2
   0  -3  -3 133.873 4.82874   4
   0  -3  -3 135.071 5.29358   7
   0  -3  -3 132.251 5.66537   1
   0   3   3 143.366 4.90633   3
   0   3   3 138.068 4.52562   2
   0   3   3 141.451 4.77587   6
   0   3   3 134.044 5.42957   7
  -1  -3  -3 379.594 11.9192   4
  -1  -3  -3 376.594 13.3308   1
  -1  -3  -3 372.907 13.0235   7
   1   3   3 357.467 11.7198   5
   1   3   3 400.160 12.2444   2
   1   3   3 392.268 12.3527   3
   1   3   3 400.071 12.3680   6
  -2  -3  -3 11.8426 1.12475   3
  -2  -3  -3 9.78994 1.82027   7
  -2  -3  -3 10.2655 2.02623   1
   2   3   3 10.6348 1.19165   3
   2   3   3 12.8355 1.17369   6
   2   3   3 10.8625 1.15913   2
   2   3   3 11.8156 0.95556   5
  -3  -3  -3 60.8500 4.33065   1
  -3  -3  -3 60.0832 3.10694   3
  -3  -3  -3 61.8248 4.64045   7
   3   3   3 57.8278 3.06755   2
   3   3   3 58.1645 2.94961   6
   3   3   3 58.0816 2.83469   5
  -4  -3  -3 61.4635 3.79460   3
  -4  -3  -3 55.9273 5.42683   7
   4   3   3 63.9891 3.44289   6
   4   3   3 60.9401 3.61614   2
   4   3   3 60.9020 3.40505   5
  -5  -3  -3 0.60572 1.14742   6
  -5  -3  -3 1.01219 2.70967   7
  -5  -3  -3 0.20635 1.54131   3
   5   3   3 -0.1930 1.06753   6
   5   3   3 -0.2107 1.24336   5
   5   3   3 -0.0949 1.28253   2
  -6  -3  -3 5.47671 3.25825   7
  -6  -3  -3 1.03414 1.31116   6
  -6  -3  -3 0.44293 1.96869   3
   6   3   3 -1.2297 1.55983   5
   6   3   3 -1.0067 1.19052   6
   6   3   3 1.62086 1.70467   2
   6  -4  -3 12.9571 3.26232   4
   6  -4  -3 16.0146 2.74325   5
  -6   4   3 19.9474 3.15191   3
   5  -4  -3 68.1578 4.11000   5
   5  -4  -3 62.9010 4.54861   4
  -5   4   3 79.2911 5.70943   7
  -5   4   3 66.3437 4.63324   3
  -5   4   3 69.2284 3.67817   6
   4  -4  -3 54.1225 3.29503   5
   4  -4  -3 54.6551 3.70545   1
   4  -4  -3 56.1305 3.69243   4
   4  -4  -3 51.6345 2.58463   2
  -4   4   3 58.8241 4.24977   7
  -4   4   3 46.7246 3.40237   3
  -4   4   3 51.7490 2.86095   6
   3  -4  -3 99.2008 4.25227   5
   3  -4  -3 101.251 4.91906   1
   3  -4  -3 101.346 3.70217   2
   3  -4  -3 97.5110 4.64069   4
  -3   4   3 100.833 4.01788   6
  -3   4   3 102.816 5.08869   7
  -3   4   3 97.6122 4.52188   3
   2  -4  -3 -0.4095 0.67639   4
   2  -4  -3 0.55788 0.46205   5
   2  -4  -3 0.65090 0.84528   1
  -2   4   3 -0.1489 0.71488   7
  -2   4   3 -0.8212 0.41665   6
  -2   4   3 0.20798 0.27954   2
  -2   4   3 -0.8327 0.57468   3
   1  -4  -3 7.75588 0.66522   5
   1  -4  -3 7.21686 1.05420   4
   1  -4  -3 7.24539 1.34283   1
  -1   4   3 7.52552 1.03249   3
  -1   4   3 6.43121 1.25785   7
  -1   4   3 5.31124 0.54156   2
  -1   4   3 6.75907 0.83442   6
   0  -4  -3 16.5621 1.52449   7
   0  -4  -3 15.9514 1.28895   4
   0  -4  -3 17.0548 1.91405   1
   0   4   3 17.2390 1.02269   2
   0   4   3 17.5729 1.75618   7
   0   4   3 17.1904 1.21181   6
   0   4   3 18.8678 1.32269   3
  -1  -4  -3 1050.57 32.0708   4
  -1  -4  -3 1038.41 33.3028   7
  -1  -4  -3 1032.53 33.8669   1
   1   4   3 1054.03 32.4097   6
   1   4   3 1071.74 32.3230   2
   1   4   3 1037.97 32.3928   3
  -2  -4  -3 76.2807 3.31583   3
  -2  -4  -3 73.6938 4.79575   1
  -2  -4  -3 76.8376 4.51025   7
   2   4   3 75.4972 2.93074   5
   2   4   3 79.8516 3.43431   2
   2   4   3 76.2454 3.36990   3
   2   4   3 75.8503 3.34364   6
  -3  -4  -3 2.42910 0.91314   3
  -3  -4  -3 1.92803 1.93882   7
  -3  -4  -3 1.38186 2.22174   1
   3   4   3 2.49049 0.86682   6
   3   4   3 1.68889 0.77496   5
   3   4   3 1.90622 0.94169   2
  -4  -4  -3 19.5888 3.82510   7
  -4  -4  -3 27.6972 2.75489   3
   4   4   3 29.3944 2.46623   6
   4   4   3 22.1639 2.25992   5
   4   4   3 27.6664 2.61311   2
  -5  -4  -3 -1.6744 1.39588   3
  -5  -4  -3 0.11076 2.41569   7
   5   4   3 0.46912 1.45506   2
   5   4   3 -0.5128 1.01583   6
   5   4   3 0.19536 1.25201   5
   6  -5  -3 13.4127 2.58847   5
   6  -5  -3 5.59471 2.82249   4
  -6   5   3 17.1994 3.01797   3
   5  -5  -3 0.55575 1.34057   5
   5  -5  -3 -2.4775 1.62763   4
  -5   5   3 1.86751 1.72284   3
  -5   5   3 2.49731 2.09364   7
  -5   5   3 1.59260 1.13800   6
   4  -5  -3 4.44510 1.34271   5
   4  -5  -3 2.05649 0.79857   2
   4  -5  -3 4.28249 1.85434   4
  -4   5   3 5.01609 1.10560   6
  -4   5   3 4.40868 1.84139   7
  -4   5   3 5.50322 1.19932   2
  -4   5   3 3.37991 1.39815   3
   3  -5  -3 7.95357 0.90958   2
   3  -5  -3 11.9987 2.00900   4
   3  -5  -3 9.73386 1.82841   1
   3  -5  -3 9.19084 1.34228   5
  -3   5   3 7.68481 0.89558   2
  -3   5   3 9.41407 1.22040   6
  -3   5   3 7.76441 1.52210   3
  -3   5   3 10.3917 1.83021   7
   2  -5  -3 65.6740 2.85326   5
   2  -5  -3 70.2077 4.00194   1
   2  -5  -3 72.3129 3.57712   4
  -2   5   3 63.6082 2.51370   2
  -2   5   3 64.3589 3.21166   3
  -2   5   3 63.7026 3.56620   7
  -2   5   3 67.3334 3.00172   6
   1  -5  -3 2.24305 0.45947   5
   1  -5  -3 2.47671 1.19072   1
   1  -5  -3 3.04678 0.96030   4
  -1   5   3 1.51187 0.54402   6
  -1   5   3 1.88167 0.45714   2
  -1   5   3 3.00734 0.80418   3
  -1   5   3 3.97973 1.19167   7
   0  -5  -3 108.485 5.59474   1
   0  -5  -3 113.306 4.89096   7
   0  -5  -3 110.744 4.45523   4
   0   5   3 116.363 4.42175   3
   0   5   3 115.930 4.37107   6
   0   5   3 114.531 4.11620   2
  -1  -5  -3 92.5911 5.34320   1
  -1  -5  -3 93.4981 3.70277   4
  -1  -5  -3 92.7349 4.66299   7
   1   5   3 91.2753 3.82735   3
   1   5   3 97.5596 3.90715   6
   1   5   3 95.4874 3.78963   2
  -2  -5  -3 187.606 6.85976   3
  -2  -5  -3 192.102 8.46654   7
  -2  -5  -3 192.179 9.05423   1
   2   5   3 188.239 6.94738   3
   2   5   3 187.034 6.34746   5
   2   5   3 193.529 7.01877   2
   2   5   3 188.254 6.97304   6
  -3  -5  -3 2.52797 2.43011   7
  -3  -5  -3 0.40655 0.84077   3
  -3  -5  -3 0.38352 2.53150   1
   3   5   3 -0.3987 0.77156   6
   3   5   3 1.59314 1.02310   2
  -4  -5  -3 -0.8221 1.14312   3
  -4  -5  -3 3.33440 2.49415   1
  -4  -5  -3 -1.9727 2.13934   7
   4   5   3 0.54506 1.07582   2
   4   5   3 0.67789 0.91230   6
  -5  -5  -3 -1.2619 1.38698   3
  -5  -5  -3 1.36142 2.78227   7
   5   5   3 1.84124 1.59496   2
   5   5   3 0.21353 1.06854   6
   6  -6  -3 -0.9852 1.46901   5
  -6   6   3 1.46123 1.95910   3
   5  -6  -3 6.93088 1.79330   5
   5  -6  -3 1.75102 2.13618   4
  -5   6   3 3.74650 1.33790   6
  -5   6   3 1.61580 1.73546   3
   4  -6  -3 13.3111 2.53214   4
   4  -6  -3 15.8029 2.08424   5
  -4   6   3 15.8924 1.83253   6
  -4   6   3 16.3648 2.36479   3
  -4   6   3 15.3214 2.65394   7
   3  -6  -3 2.48707 1.60273   1
   3  -6  -3 3.01224 1.51499   4
   3  -6  -3 3.57273 1.02194   5
  -3   6   3 3.35520 1.26932   3
  -3   6   3 2.92618 0.64383   2
  -3   6   3 5.06126 1.59903   7
  -3   6   3 5.34654 1.10037   6
   2  -6  -3 0.99998 0.61129   5
   2  -6  -3 1.59470 1.15489   4
   2  -6  -3 0.76603 1.24791   1
  -2   6   3 0.04103 0.62443   6
  -2   6   3 0.08275 0.39273   2
  -2   6   3 0.17561 0.97353   7
  -2   6   3 0.41931 0.76530   3
   1  -6  -3 50.7626 2.88282   7
   1  -6  -3 48.2509 2.00641   5
   1  -6  -3 47.0692 3.63772   1
   1  -6  -3 54.3505 3.01788   4
  -1   6   3 51.2066 3.14097   7
  -1   6   3 48.7872 2.51204   6
  -1   6   3 47.6300 2.13073   2
  -1   6   3 50.2543 2.62783   3
   0  -6  -3 18.6972 1.82966   4
   0  -6  -3 20.0360 2.73228   1
   0  -6  -3 17.9521 1.86247   7
   0   6   3 16.7997 1.45000   6
   0   6   3 16.8158 1.27677   2
   0   6   3 18.6564 1.51192   3
  -1  -6  -3 6.60067 1.70987   7
  -1  -6  -3 6.40666 2.38737   1
  -1  -6  -3 6.05899 1.15602   4
   1   6   3 7.39500 1.07631   2
   1   6   3 5.28009 0.94257   6
   1   6   3 7.86005 1.20497   3
  -2  -6  -3 99.3034 6.72258   1
  -2  -6  -3 99.1948 5.94068   7
  -2  -6  -3 100.207 4.30028   3
   2   6   3 113.052 4.19399   5
   2   6   3 105.685 4.51353   6
   2   6   3 95.0855 4.41517   2
   2   6   3 102.887 4.43815   3
  -3  -6  -3 0.03398 0.84864   3
  -3  -6  -3 -1.1084 2.35517   7
  -3  -6  -3 -0.7907 2.43250   1
   3   6   3 -1.2615 0.93919   2
   3   6   3 -0.1951 0.83746   6
   3   6   3 0.31257 1.03779   3
  -4  -6  -3 3.13688 2.88470   7
  -4  -6  -3 7.37389 2.77447   1
  -4  -6  -3 3.12191 1.48646   3
   4   6   3 4.99419 1.57361   2
   4   6   3 4.43060 1.35323   6
  -5  -6  -3 -2.0913 1.42533   3
  -5  -6  -3 0.46868 2.69671   7
   5   6   3 -0.5344 1.08991   6
   5   6   3 0.03233 1.44183   2
   6  -7  -3 2.87882 1.80246   5
   6  -7  -3 -5.0241 2.42164   4
  -6   7   3 4.51159 2.34231   3
   5  -7  -3 -3.0816 1.94261   4
   5  -7  -3 -0.4402 1.21090   5
  -5   7   3 1.86792 1.78405   3
  -5   7   3 -0.6207 1.07706   6
   4  -7  -3 4.31680 1.30494   5
   4  -7  -3 3.54673 2.07333   4
  -4   7   3 3.75317 1.30213   6
  -4   7   3 2.87096 1.56993   3
   3  -7  -3 20.3826 2.94471   4
   3  -7  -3 18.7445 3.03369   1
   3  -7  -3 18.8417 1.82153   5
  -3   7   3 18.7842 2.05219   2
  -3   7   3 16.5873 2.23458   7
  -3   7   3 19.3867 2.30468   3
  -3   7   3 15.5580 1.79738   6
   2  -7  -3 12.0702 2.58237   1
   2  -7  -3 12.3117 1.26277   5
   2  -7  -3 12.6811 2.13170   4
  -2   7   3 13.3850 1.59286   6
  -2   7   3 11.6178 1.64209   3
  -2   7   3 11.0683 1.03262   2
  -2   7   3 13.7357 2.00886   7
   1  -7  -3 5.00034 1.29874   7
   1  -7  -3 4.62044 1.49098   4
   1  -7  -3 3.68146 0.59147   5
   1  -7  -3 3.11575 1.88373   1
  -1   7   3 4.32570 1.57748   7
  -1   7   3 3.20898 0.86730   6
  -1   7   3 2.99268 0.68847   2
  -1   7   3 1.62706 0.84849   3
   0  -7  -3 114.755 6.80222   1
   0  -7  -3 114.301 5.37733   7
   0  -7  -3 111.865 4.99684   4
   0   7   3 114.643 4.42682   2
   0   7   3 109.984 4.63598   3
   0   7   3 112.900 4.67548   6
  -1  -7  -3 1.52027 2.31335   1
  -1  -7  -3 0.21921 0.95384   4
  -1  -7  -3 -0.0317 1.36565   7
   1   7   3 -0.2743 0.73000   3
   1   7   3 -0.0200 0.64770   6
   1   7   3 -0.1076 0.63209   2
  -2  -7  -3 12.6172 2.99612   7
  -2  -7  -3 14.3177 3.82603   1
  -2  -7  -3 13.1182 1.67646   3
   2   7   3 9.41602 1.50403   2
   2   7   3 11.8238 1.70574   6
   2   7   3 14.7221 1.84657   3
  -3  -7  -3 3.69761 1.16276   3
  -3  -7  -3 3.30369 2.85349   7
  -3  -7  -3 5.41206 3.14265   1
   3   7   3 3.94852 1.39162   3
   3   7   3 6.95377 1.61612   2
   3   7   3 7.22073 1.51732   6
  -4  -7  -3 4.64838 1.70629   3
  -4  -7  -3 8.80518 3.12063   1
  -4  -7  -3 2.52457 2.93716   7
   4   7   3 6.02094 1.75333   2
   4   7   3 4.15230 1.34202   6
  -5  -7  -3 2.17223 3.54301   7
  -5  -7  -3 -2.5961 1.46446   3
   5   7   3 -1.5099 1.09563   6
   5   7   3 1.39810 1.67251   2
   5  -8  -3 -3.9371 2.17515   4
   5  -8  -3 -0.5981 1.19121   5
  -5   8   3 -0.1377 1.17843   6
  -5   8   3 0.22516 1.58804   3
   4  -8  -3 20.0621 2.33768   5
   4  -8  -3 17.4948 3.25735   4
  -4   8   3 15.4096 2.05659   6
  -4   8   3 14.8374 2.48845   3
   3  -8  -3 -0.2983 1.68960   4
   3  -8  -3 1.20634 2.11023   1
   3  -8  -3 1.79187 0.96850   5
  -3   8   3 2.85508 1.39923   3
  -3   8   3 0.71395 1.04678   6
   2  -8  -3 0.50790 1.68040   4
   2  -8  -3 0.12781 2.07402   1
   2  -8  -3 0.64748 0.90333   7
   2  -8  -3 -0.4302 0.64266   5
  -2   8   3 0.08015 1.36571   7
  -2   8   3 0.53924 0.85443   6
  -2   8   3 0.40704 0.57809   2
  -2   8   3 -0.1852 0.93400   3
   1  -8  -3 95.4946 5.00271   4
   1  -8  -3 92.5766 4.65874   7
   1  -8  -3 104.524 4.22850   5
   1  -8  -3 86.4076 6.36907   1
  -1   8   3 97.1994 4.37655   3
  -1   8   3 84.6883 3.73851   2
  -1   8   3 89.7081 4.25711   6
   0  -8  -3 301.245 10.9735   4
   0  -8  -3 291.554 11.4470   7
   0  -8  -3 299.376 13.4635   1
   0   8   3 313.767 10.5870   3
   0   8   3 294.237 10.5859   6
   0   8   3 311.368 10.3487   2
  -1  -8  -3 57.9106 3.24182   4
  -1  -8  -3 53.6461 5.81117   1
  -1  -8  -3 52.8732 4.42991   7
   1   8   3 58.0702 3.17177   3
   1   8   3 54.8492 3.07610   2
   1   8   3 54.7864 3.20666   6
  -2  -8  -3 33.1367 4.36387   7
  -2  -8  -3 34.9530 2.40129   3
  -2  -8  -3 30.4186 5.19793   1
   2   8   3 37.6177 2.77330   2
   2   8   3 34.8673 2.74267   6
   2   8   3 34.7383 2.63473   3
  -3  -8  -3 9.27077 1.63290   3
  -3  -8  -3 7.72771 3.61501   1
  -3  -8  -3 6.02739 3.15167   7
   3   8   3 10.3282 1.70457   6
   3   8   3 9.04118 1.86480   2
   3   8   3 8.55994 1.84995   3
  -4  -8  -3 -1.9228 1.17942   3
  -4  -8  -3 5.95310 2.87238   1
  -4  -8  -3 0.11309 2.91531   7
   4   8   3 0.35769 1.39671   2
   4   8   3 1.47913 1.14598   6
   5  -9  -3 1.04712 2.58512   4
   5  -9  -3 5.74880 1.80879   5
  -5   9   3 4.97471 1.67546   6
  -5   9   3 5.25708 2.02899   3
   4  -9  -3 16.9817 3.28755   4
   4  -9  -3 25.1120 2.58094   5
  -4   9   3 28.9389 3.20610   3
  -4   9   3 19.5916 2.43998   6
   3  -9  -3 45.5959 4.33634   4
   3  -9  -3 55.3575 3.06932   5
   3  -9  -3 51.1514 5.58166   1
  -3   9   3 49.3852 3.65382   3
  -3   9   3 61.3457 3.71421   6
   2  -9  -3 22.4794 2.92696   7
   2  -9  -3 16.8285 2.85006   4
   2  -9  -3 20.3151 4.35832   1
  -2   9   3 18.0803 2.86888   7
  -2   9   3 19.4281 1.99577   2
  -2   9   3 20.0747 2.34219   3
  -2   9   3 17.3790 2.04393   6
   1  -9  -3 189.928 8.06910   4
   1  -9  -3 167.198 9.97699   1
   1  -9  -3 172.362 7.58830   7
  -1   9   3 177.909 6.63776   2
  -1   9   3 191.223 7.17891   3
  -1   9   3 185.623 7.23833   6
   0  -9  -3 124.485 5.75521   4
   0  -9  -3 111.747 6.24273   7
   0  -9  -3 104.324 8.04847   1
   0   9   3 122.139 5.15917   3
   0   9   3 116.860 4.92149   2
   0   9   3 113.923 5.17928   6
  -1  -9  -3 24.5940 5.05086   1
  -1  -9  -3 27.7396 3.75264   7
  -1  -9  -3 32.3700 2.65263   4
   1   9   3 28.9188 2.45514   2
   1   9   3 27.7655 2.39556   3
   1   9   3 29.4526 2.53868   6
  -2  -9  -3 -0.9317 2.84108   1
  -2  -9  -3 0.94850 2.74535   7
  -2  -9  -3 5.02965 1.19156   3
   2   9   3 3.08033 1.28623   2
   2   9   3 3.91347 1.29040   6
   2   9   3 3.63292 1.32774   3
  -3  -9  -3 0.68902 1.00157   3
  -3  -9  -3 -0.3672 2.84147   1
  -3  -9  -3 -1.9230 2.53016   7
   3   9   3 1.24312 1.42335   2
   3   9   3 0.64506 1.11293   6
  -4  -9  -3 -2.9183 3.17343   7
  -4  -9  -3 7.02699 3.21329   1
   4   9   3 0.33576 1.44926   2
   4   9   3 0.49462 1.10425   6
   5 -10  -3 -0.6235 2.69733   4
   5 -10  -3 5.97366 1.96125   5
  -5  10   3 2.97609 1.59880   6
  -5  10   3 8.03020 2.34519   3
   4 -10  -3 -4.1245 2.09680   4
  -4  10   3 -0.4060 1.25300   6
  -4  10   3 2.53342 1.69510   3
   3 -10  -3 21.2100 4.96893   1
   3 -10  -3 25.5738 3.69393   4
  -3  10   3 34.2110 3.11105   6
  -3  10   3 27.1443 3.06103   3
   2 -10  -3 84.3864 5.43034   4
   2 -10  -3 75.4823 7.18379   1
  -2  10   3 91.6979 4.72794   3
  -2  10   3 89.5049 4.70288   6
   1 -10  -3 68.9467 7.03752   1
   1 -10  -3 87.1282 5.11385   4
   1 -10  -3 71.6239 4.62973   7
  -1  10   3 80.9684 4.16121   3
  -1  10   3 77.3643 4.30772   6
  -1  10   3 78.5451 3.75897   2
   0 -10  -3 10.0909 4.18420   1
   0 -10  -3 8.23192 2.51790   7
   0 -10  -3 13.8793 2.34951   4
   0  10   3 11.3770 1.81467   3
   0  10   3 9.89544 1.56035   2
   0  10   3 9.67234 1.79918   6
  -1 -10  -3 -1.3245 2.23280   7
  -1 -10  -3 0.85143 3.33622   1
   1  10   3 1.02103 1.09716   6
   1  10   3 1.66821 1.22240   3
   1  10   3 0.72402 1.07636   2
  -2 -10  -3 -1.0160 3.23392   1
  -2 -10  -3 -1.5143 2.48526   7
   2  10   3 2.34552 1.28958   6
   2  10   3 0.86384 1.33315   3
   2  10   3 2.55129 1.33444   2
  -3 -10  -3 -3.9205 2.93272   7
  -3 -10  -3 -0.9660 2.88273   1
   3  10   3 0.16911 1.35200   2
   3  10   3 -0.6153 1.11675   6
   4 -11  -3 -2.4988 2.51309   4
  -4  11   3 1.01567 1.69861   3
  -4  11   3 1.07859 1.49688   6
   3 -11  -3 1.58417 3.90784   1
   3 -11  -3 8.47073 2.95838   4
  -3  11   3 10.5879 2.02002   6
  -3  11   3 9.87533 2.17457   3
   2 -11  -3 -0.7675 3.55011   1
   2 -11  -3 0.16326 2.08035   4
  -2  11   3 1.49492 1.43843   3
  -2  11   3 0.47152 1.19922   6
   1 -11  -3 -0.4481 3.54005   1
   1 -11  -3 2.95033 1.98755   4
  -1  11   3 1.34019 1.65792   2
  -1  11   3 1.25061 1.33385   6
  -1  11   3 3.58788 1.33198   3
   0 -11  -3 2.32870 2.37163   7
   0 -11  -3 2.99159 4.07721   1
   0 -11  -3 6.38839 1.91420   4
   0  11   3 6.56283 1.74211   6
   0  11   3 5.83899 1.54006   3
   0  11   3 4.06963 1.34098   2
  -1 -11  -3 -3.7624 2.25218   7
  -1 -11  -3 -2.1732 3.56811   1
   1  11   3 -0.4196 1.13758   6
   1  11   3 1.18907 1.17983   2
  -2 -11  -3 -0.9433 3.71025   1
  -2 -11  -3 -4.5679 2.66866   7
   2  11   3 1.93942 1.38047   6
   2  11   3 -1.2399 1.25525   2
  -3 -11  -3 1.38253 3.38035   1
   3  11   3 1.63102 1.64411   2
   3 -12  -3 -3.1093 3.88723   1
   3 -12  -3 4.05689 2.77300   4
  -3  12   3 8.22235 2.05853   3
  -3  12   3 7.90717 2.02093   6
   2 -12  -3 -0.8535 2.02894   4
   2 -12  -3 -5.2834 3.66332   1
  -2  12   3 -0.8352 1.36655   3
  -2  12   3 -0.3801 1.28850   6
   1 -12  -3 7.41800 2.29729   4
   1 -12  -3 3.12332 4.38450   1
  -1  12   3 3.64433 1.60620   6
   0 -12  -3 -4.8059 3.59967   1
   0 -12  -3 2.35368 1.68555   4
   0  12   3 0.52300 1.31965   6
   0  12   3 0.01942 1.15892   2
  -1 -12  -3 -2.7308 2.81647   7
  -1 -12  -3 -3.3735 3.84694   1
   1  12   3 0.38594 1.29377   2
   1  12   3 1.49386 1.47202   6
  -2 -12  -3 -5.7435 3.05653   7
  -2 -12  -3 0.05111 3.91568   1
   2  12   3 2.15198 1.59612   6
   2  12   3 0.78584 1.54657   2
   2 -13  -3 -6.3223 3.82879   1
   2 -13  -3 -2.7348 1.94302   4
  -2  13   3 -1.3067 1.32880   6
   1 -13  -3 -4.7935 3.96154   1
   1 -13  -3 0.89009 1.84043   4
  -1  13   3 -0.9918 1.43531   6
   0 -13  -3 -6.1339 3.84385   1
   0  13   3 -1.6111 1.42042   6
  -1 -13  -3 0.45296 4.84822   1
   1  13   3 5.20060 1.77899   2
   1 -14   4 11.7796 3.26427   1
   1  13  -4 2.03764 1.83662   2
  -1 -13   4 9.12436 3.66359   1
   0  13  -4 0.04995 1.54147   2
   0  13  -4 0.72379 1.43039   6
   0 -13   4 5.30773 1.70735   4
   0 -13   4 7.61109 3.03839   1
  -1  13  -4 6.77304 1.89359   6
  -1  13  -4 5.60971 1.78199   2
   1 -13   4 11.3377 2.41887   5
   1 -13   4 10.0769 2.23156   4
  -2  13  -4 -0.2853 1.28687   2
  -2  13  -4 -0.6119 1.26711   5
  -2  13  -4 0.81332 1.49040   6
   2 -13   4 2.49280 1.84226   4
   2 -13   4 2.17525 1.48132   5
  -3  13  -4 1.22910 1.78184   6
  -3  13  -4 3.36110 1.76702   2
   3 -13   4 6.77828 2.39444   4
   3 -13   4 5.38880 1.67100   5
   2  12  -4 2.90994 1.95848   2
  -2 -12   4 9.08429 3.48971   1
   1  12  -4 8.24499 1.97051   6
   1  12  -4 5.63048 2.01489   2
  -1 -12   4 14.5170 4.20862   1
   0  12  -4 1.09082 1.44032   2
   0  12  -4 0.98272 1.29887   6
   0  12  -4 0.70371 1.21772   5
   0 -12   4 7.84554 3.08078   1
   0 -12   4 4.08358 1.65012   4
  -1  12  -4 18.2767 2.54167   2
  -1  12  -4 16.7249 2.29450   6
  -1  12  -4 19.3954 2.46434   5
   1 -12   4 27.9300 4.25133   1
   1 -12   4 28.2387 3.15760   4
   1 -12   4 25.3996 2.63537   5
  -2  12  -4 1.12277 1.25207   5
  -2  12  -4 0.35505 1.42034   6
  -2  12  -4 -0.3130 1.19171   2
   2 -12   4 2.09071 1.31304   5
   2 -12   4 3.58998 1.84884   4
  -3  12  -4 1.10840 1.37650   2
  -3  12  -4 -2.1010 1.33499   6
   3 -12   4 0.42404 1.68766   4
   3 -12   4 -0.5397 1.05450   5
  -4  12  -4 4.87509 1.89286   2
  -4  12  -4 5.38182 1.94395   6
   4 -12   4 7.13973 2.48811   4
   4 -12   4 4.59427 1.66304   5
  -3 -11   4 27.6299 4.02798   7
  -3 -11   4 26.9611 4.95506   1
   2  11  -4 1.63930 1.40443   5
   2  11  -4 -0.0497 1.56305   2
  -2 -11   4 7.59302 3.30423   1
   1  11  -4 6.78783 1.56504   6
   1  11  -4 5.16755 1.59674   5
   1  11  -4 5.55503 1.88376   2
  -1 -11   4 10.9372 2.10537   4
  -1 -11   4 8.46555 3.41855   1
   0  11  -4 14.9012 1.98596   6
   0  11  -4 23.7704 2.68992   2
   0  11  -4 14.7103 2.18796   5
   0 -11   4 24.4170 4.40494   1
   0 -11   4 26.0410 3.05063   4
  -1  11  -4 36.1278 3.04843   6
  -1  11  -4 38.9267 3.08615   2
  -1  11  -4 35.2702 2.85758   5
   1 -11   4 42.1219 3.10995   5
   1 -11   4 37.2752 3.44836   4
   1 -11   4 40.6537 4.73452   1
  -2  11  -4 3.15011 1.45225   6
  -2  11  -4 3.73176 1.50842   2
   2 -11   4 4.77461 1.97087   4
   2 -11   4 7.06694 2.46271   1
   2 -11   4 5.56889 1.49657   5
  -3  11  -4 1.13332 1.34962   6
  -3  11  -4 0.40951 1.25711   2
   3 -11   4 0.76383 1.08637   5
   3 -11   4 0.22398 1.61372   4
  -4  11  -4 4.35200 1.78344   6
  -4  11  -4 2.62911 1.62213   2
   4 -11   4 6.19019 1.69295   5
   4 -11   4 4.23761 2.06337   4
   3  10  -4 4.56873 1.87954   2
   3  10  -4 4.35587 1.66621   5
  -3 -10   4 11.3335 2.92212   7
   2  10  -4 74.2591 4.49890   2
   2  10  -4 65.6820 4.01894   5
  -2 -10   4 68.3758 6.58898   1
  -2 -10   4 78.8465 4.64152   4
  -2 -10   4 61.2263 5.21233   7
   1  10  -4 0.95631 1.06863   5
   1  10  -4 0.09511 1.22599   2
   1  10  -4 0.55476 1.02918   6
  -1 -10   4 3.83420 1.60407   4
  -1 -10   4 1.30757 2.42569   1
   0  10  -4 4.45759 1.28709   6
   0  10  -4 5.78442 1.52556   2
   0  10  -4 6.21492 1.48760   5
   0 -10   4 7.55502 2.92631   1
   0 -10   4 4.80230 1.70081   4
  -1  10  -4 0.78966 0.97993   5
  -1  10  -4 -1.3019 1.00537   6
  -1  10  -4 -0.7114 0.92348   2
   1 -10   4 1.71387 1.44881   4
   1 -10   4 1.04148 1.02356   5
   1 -10   4 3.01022 2.17390   1
  -2  10  -4 11.7405 1.93966   6
  -2  10  -4 13.0559 2.04152   2
   2 -10   4 13.8294 2.54332   4
   2 -10   4 12.6354 1.87655   5
   2 -10   4 18.7254 3.20734   1
  -3  10  -4 0.89817 1.18978   2
  -3  10  -4 1.47853 1.26401   6
   3 -10   4 0.08771 1.54620   4
   3 -10   4 0.43389 1.01068   5
  -4  10  -4 2.14727 1.39548   2
  -4  10  -4 1.14660 1.38853   6
   4 -10   4 2.61304 1.42640   5
   4 -10   4 3.25884 1.81577   4
  -5  10  -4 3.14839 1.58825   2
  -5  10  -4 2.99318 1.84052   6
   5 -10   4 4.65133 2.01863   4
   5 -10   4 2.33309 1.59239   5
   4   9  -4 0.37718 1.74181   2
  -4  -9   4 6.88303 2.65485   7
   3   9  -4 6.39833 1.79515   2
   3   9  -4 2.54466 1.39976   5
  -3  -9   4 8.29890 2.65208   7
  -3  -9   4 11.3931 3.56823   1
   2   9  -4 2.30205 1.41131   2
   2   9  -4 1.26219 1.11146   5
  -2  -9   4 4.41825 2.78349   1
  -2  -9   4 2.89725 2.14697   7
  -2  -9   4 2.23742 1.43584   4
   1   9  -4 18.0482 2.02859   5
   1   9  -4 15.9218 2.11484   2
   1   9  -4 13.3565 1.63465   6
  -1  -9   4 16.5390 2.37552   4
  -1  -9   4 12.5161 3.49694   1
  -1  -9   4 15.7141 2.79761   7
   0   9  -4 0.47241 0.81789   5
   0   9  -4 1.28990 0.90844   6
   0   9  -4 -0.1185 0.89927   2
   0  -9   4 0.04511 0.83395   5
   0  -9   4 -0.8337 2.02175   1
   0  -9   4 0.20612 1.22505   4
  -1   9  -4 -1.9735 0.82745   6
  -1   9  -4 -0.7830 0.77532   2
  -1   9  -4 -0.2150 0.74380   5
   1  -9   4 -0.0788 1.83207   1
   1  -9   4 0.18291 0.78776   5
   1  -9   4 0.14261 1.22863   4
  -2   9  -4 8.00946 1.60268   6
  -2   9  -4 8.57010 1.67765   2
   2  -9   4 10.4041 2.56093   1
   2  -9   4 10.8878 1.65916   5
   2  -9   4 9.35033 1.98922   4
  -3   9  -4 15.6058 2.17738   6
  -3   9  -4 20.4026 2.28578   2
  -3   9  -4 22.0208 2.40948   3
   3  -9   4 21.7178 2.92558   4
   3  -9   4 19.9022 2.23739   5
  -4   9  -4 9.19569 1.79516   2
  -4   9  -4 7.37375 1.61527   3
  -4   9  -4 6.65589 1.77935   6
   4  -9   4 5.17998 1.93485   4
   4  -9   4 6.17486 1.71205   5
   4  -9   4 5.40423 1.50818   2
  -5   9  -4 2.06968 1.67050   6
  -5   9  -4 2.82700 1.54929   2
  -5   9  -4 5.33260 1.79798   3
   5  -9   4 7.47028 2.13423   4
   5  -9   4 3.10659 1.53483   2
   5  -9   4 4.23340 1.75017   5
   4   8  -4 6.88239 1.97667   2
   4   8  -4 4.77728 1.64948   5
  -4  -8   4 10.4272 3.04059   7
   3   8  -4 2.70706 1.44809   2
   3   8  -4 2.52015 1.25913   5
  -3  -8   4 5.61545 2.48067   7
  -3  -8   4 4.82300 2.63104   1
   2   8  -4 53.3226 2.83711   6
   2   8  -4 53.2395 3.29493   5
   2   8  -4 53.0996 3.39887   2
  -2  -8   4 55.6490 3.65886   4
  -2  -8   4 49.2466 5.27596   1
  -2  -8   4 48.2481 4.49162   7
   1   8  -4 34.2520 2.40370   5
   1   8  -4 35.7692 2.22376   6
   1   8  -4 35.7064 2.54100   2
  -1  -8   4 34.6640 3.32839   7
  -1  -8   4 32.4146 2.74500   4
  -1  -8   4 29.4092 4.24276   1
   0   8  -4 -0.0643 0.69377   2
   0   8  -4 -0.2897 0.62672   6
   0   8  -4 0.44651 0.71123   5
   0  -8   4 0.47349 0.99015   7
   0  -8   4 -1.1374 0.98421   4
   0  -8   4 -2.3154 1.67984   1
   0  -8   4 1.01206 0.74439   5
  -1   8  -4 12.3085 1.65845   2
  -1   8  -4 10.3346 1.42592   6
  -1   8  -4 12.3581 1.49906   5
   1  -8   4 11.2454 1.96576   4
   1  -8   4 11.1216 2.75337   1
   1  -8   4 12.6464 1.48823   5
  -2   8  -4 -1.4994 0.78609   6
  -2   8  -4 -1.0857 0.77947   2
   2  -8   4 0.04738 1.42013   1
   2  -8   4 0.00041 1.25858   4
   2  -8   4 0.43705 0.74971   5
  -3   8  -4 27.8716 2.44103   2
  -3   8  -4 22.2927 2.50227   6
  -3   8  -4 18.4701 2.22271   3
   3  -8   4 19.4230 2.24542   5
   3  -8   4 27.2823 2.89489   4
  -4   8  -4 1.88483 1.29744   6
  -4   8  -4 2.89624 1.48076   3
  -4   8  -4 2.39545 1.22305   2
   4  -8   4 1.65637 1.01920   2
   4  -8   4 0.75808 1.50989   4
   4  -8   4 1.44793 1.27748   5
  -5   8  -4 2.97830 1.48819   3
  -5   8  -4 -0.0303 1.34831   6
  -5   8  -4 0.90520 1.31804   2
   5  -8   4 1.77184 1.36880   2
   5  -8   4 0.65865 1.39472   5
   5  -8   4 3.73508 1.71613   4
   5   7  -4 5.23821 1.98423   2
   5   7  -4 3.32193 1.70837   5
  -5  -7   4 9.08468 3.07841   7
   4   7  -4 6.87511 1.91746   2
   4   7  -4 8.27176 1.84082   5
  -4  -7   4 11.9568 3.27670   7
   3   7  -4 26.3783 2.45217   4
   3   7  -4 25.3576 2.64162   2
   3   7  -4 26.7926 2.59338   5
  -3  -7   4 34.6620 4.45642   1
  -3  -7   4 29.8124 4.00689   7
  -3  -7   4 28.7135 2.65332   4
   2   7  -4 68.9341 3.05913   6
   2   7  -4 68.9757 3.59581   5
   2   7  -4 64.9083 3.56919   2
  -2  -7   4 57.7855 4.69014   7
  -2  -7   4 61.9773 5.50539   1
  -2  -7   4 70.8884 3.89053   4
   1   7  -4 -0.2772 0.54837   6
   1   7  -4 -0.2180 0.67265   2
   1   7  -4 -0.0821 0.56841   5
  -1  -7   4 -0.3099 1.77274   1
  -1  -7   4 -0.2484 1.26195   7
  -1  -7   4 0.03489 0.87868   4
   0   7  -4 75.0962 3.61099   2
   0   7  -4 83.8382 3.71301   5
   0   7  -4 81.1463 3.45125   6
   0  -7   4 80.1518 3.86100   7
   0  -7   4 75.9312 4.01700   4
   0  -7   4 82.9188 3.69699   5
   0  -7   4 73.2255 5.12691   1
  -1   7  -4 -0.0423 0.36346   3
  -1   7  -4 0.24186 0.63977   6
  -1   7  -4 0.40185 0.62523   2
   1  -7   4 0.02547 1.45031   1
   1  -7   4 -0.6968 0.87026   4
   1  -7   4 -0.4480 0.54711   5
  -2   7  -4 1.36820 0.84854   2
  -2   7  -4 2.38124 0.85347   3
  -2   7  -4 1.25478 0.79600   6
   2  -7   4 2.95831 1.53862   1
   2  -7   4 2.10685 0.84718   5
   2  -7   4 1.76943 1.28977   4
  -3   7  -4 67.8799 3.63329   2
  -3   7  -4 67.0764 3.66477   6
  -3   7  -4 63.1178 3.60783   3
   3  -7   4 70.8694 3.55167   2
   3  -7   4 64.8432 3.62056   5
   3  -7   4 63.2757 3.98877   4
  -4   7  -4 18.2881 2.40108   3
  -4   7  -4 18.1604 2.16421   2
  -4   7  -4 15.3635 2.08640   6
   4  -7   4 15.9421 2.23832   5
   4  -7   4 17.3684 2.58109   4
   4  -7   4 16.6535 2.15086   2
  -5   7  -4 0.00948 1.24677   2
  -5   7  -4 0.29717 1.27802   6
  -5   7  -4 -0.0513 1.27900   3
   5  -7   4 0.13386 1.24799   2
   5  -7   4 0.30623 1.26657   5
   5  -7   4 2.51256 1.54856   4
  -6   7  -4 30.6682 3.47999   6
  -6   7  -4 29.0461 3.38430   2
   6  -7   4 28.4940 3.37255   5
   6  -7   4 31.6197 3.55552   2
   5   6  -4 2.28748 1.64076   5
   5   6  -4 3.67728 1.74236   2
  -5  -6   4 6.97798 2.58621   7
   4   6  -4 2.27417 1.33847   5
   4   6  -4 5.63459 1.66437   2
  -4  -6   4 8.13092 2.70120   7
  -4  -6   4 8.93218 3.02848   1
   3   6  -4 0.16952 0.90761   5
   3   6  -4 -0.0135 0.99270   2
   3   6  -4 -0.4550 0.81950   4
  -3  -6   4 0.05556 1.87085   7
  -3  -6   4 0.01280 1.89456   1
  -3  -6   4 -1.5885 0.95934   4
   2   6  -4 3.83820 0.74557   6
   2   6  -4 4.75328 1.13225   2
   2   6  -4 3.65614 0.99530   5
  -2  -6   4 2.97827 1.93417   7
  -2  -6   4 2.62507 2.12021   1
  -2  -6   4 3.65054 1.24442   4
   1   6  -4 56.9880 2.94382   5
   1   6  -4 65.4049 3.06040   2
   1   6  -4 58.8680 2.57565   6
  -1  -6   4 56.5158 3.62436   7
  -1  -6   4 58.1964 3.24080   4
  -1  -6   4 57.1462 4.45749   1
   0   6  -4 242.211 8.21289   6
   0   6  -4 246.337 8.52843   2
   0   6  -4 244.378 8.55321   5
   0  -6   4 239.970 8.53273   5
   0  -6   4 247.104 8.70821   7
   0  -6   4 234.536 10.0580   1
   0  -6   4 246.398 8.96795   4
  -1   6  -4 7.54613 1.05550   6
  -1   6  -4 8.61752 1.22602   2
  -1   6  -4 7.80110 0.77508   3
   1  -6   4 11.0307 1.58278   4
   1  -6   4 10.8482 2.21879   1
   1  -6   4 9.00558 1.08585   5
  -2   6  -4 25.1967 1.87132   3
  -2   6  -4 28.8055 1.99337   2
  -2   6  -4 26.4907 1.96627   6
   2  -6   4 27.1267 1.94628   5
   2  -6   4 26.0452 2.34504   4
   2  -6   4 29.1849 2.52283   1
   2  -6   4 28.8430 1.91403   2
  -3   6  -4 207.573 7.78473   6
  -3   6  -4 208.356 7.70735   2
  -3   6  -4 204.914 7.72228   3
   3  -6   4 204.103 8.07689   4
   3  -6   4 207.713 7.70011   2
   3  -6   4 195.266 7.72808   5
  -4   6  -4 8.15820 1.54718   6
  -4   6  -4 10.3862 1.90477   3
  -4   6  -4 13.2321 1.90483   2
   4  -6   4 11.9836 1.78579   2
   4  -6   4 12.7951 2.17890   4
   4  -6   4 10.8409 1.84749   5
  -5   6  -4 6.86055 1.67950   2
  -5   6  -4 5.90366 1.78765   6
  -5   6  -4 4.03776 1.54081   3
   5  -6   4 6.45076 1.72236   4
   5  -6   4 5.56727 1.66027   5
   5  -6   4 4.77315 1.53269   2
  -6   6  -4 0.45359 1.39508   2
  -6   6  -4 1.74230 1.67165   3
  -6   6  -4 1.34108 1.51018   6
   6  -6   4 1.71206 1.53766   5
   6  -6   4 -0.0896 1.60216   2
   5   5  -4 0.46048 1.34011   2
   5   5  -4 -0.3394 1.32258   5
  -5  -5   4 4.84387 2.36459   7
   4   5  -4 1.78155 1.26233   2
   4   5  -4 0.93667 1.15621   5
  -4  -5   4 3.84341 2.22285   7
  -4  -5   4 4.02395 2.31422   1
   3   5  -4 13.4845 1.81795   5
   3   5  -4 12.5113 1.70058   2
   3   5  -4 11.7578 1.64202   4
  -3  -5   4 8.38844 2.50141   7
  -3  -5   4 9.40826 3.07558   1
  -3  -5   4 11.2938 1.83643   4
  -3  -5   4 10.1983 1.34584   3
   2   5  -4 35.3596 2.24248   5
   2   5  -4 37.8841 2.23166   2
   2   5  -4 36.2955 1.71530   6
  -2  -5   4 34.0753 2.40074   4
  -2  -5   4 35.8773 3.24806   7
  -2  -5   4 31.0728 3.40104   1
  -2  -5   4 35.2727 1.69604   3
   1   5  -4 75.4138 3.40441   5
   1   5  -4 78.0261 3.36890   2
   1   5  -4 73.5197 2.89533   6
  -1  -5   4 83.2543 4.15009   7
  -1  -5   4 73.3144 4.69246   1
  -1  -5   4 74.3774 3.64061   4
   0   5  -4 11.4680 1.10872   5
   0   5  -4 10.5007 0.96091   6
   0   5  -4 11.5312 1.26625   2
   0  -5   4 12.2103 2.31832   1
   0  -5   4 9.94377 1.13795   7
   0  -5   4 8.76974 1.04649   5
   0  -5   4 9.26479 1.31600   4
  -1   5  -4 239.442 7.94873   3
  -1   5  -4 250.883 8.47158   2
  -1   5  -4 243.011 8.34038   6
   1  -5   4 247.277 9.48834   1
   1  -5   4 260.953 8.90143   4
   1  -5   4 235.968 8.43754   5
  -2   5  -4 -0.9341 0.50829   6
  -2   5  -4 0.09008 0.57011   2
  -2   5  -4 -1.0758 0.67929   3
   2  -5   4 1.13180 0.91455   4
   2  -5   4 0.76238 0.59484   5
   2  -5   4 0.63363 0.73265   1
   2  -5   4 0.31767 0.50723   2
  -3   5  -4 9.62167 1.52508   3
  -3   5  -4 12.3215 1.55554   2
  -3   5  -4 8.93155 1.32830   6
   3  -5   4 9.65523 1.41049   5
   3  -5   4 9.77760 1.40077   2
   3  -5   4 11.8289 1.84638   4
  -4   5  -4 12.2004 1.73278   6
  -4   5  -4 11.1726 1.84237   3
   4  -5   4 13.1966 1.78868   2
   4  -5   4 14.8025 2.11956   4
   4  -5   4 13.1094 1.86993   5
  -5   5  -4 12.2509 2.09774   6
  -5   5  -4 8.61895 2.05526   3
   5  -5   4 8.51070 1.89033   5
   5  -5   4 9.80638 1.91001   2
  -6   5  -4 2.18431 1.84761   3
  -6   5  -4 3.49052 1.82888   6
   6  -5   4 0.92094 1.64853   2
   6  -5   4 2.84233 1.68122   5
   6   4  -4 10.1094 2.23959   2
   5   4  -4 5.27772 1.61247   2
   5   4  -4 4.10976 1.65998   5
  -5  -4   4 7.55992 2.58513   7
   4   4  -4 25.7415 2.34351   2
   4   4  -4 23.6718 2.39549   5
   4   4  -4 25.5568 2.63560   4
  -4  -4   4 24.4222 2.35431   3
  -4  -4   4 20.3055 3.87492   7
  -4  -4   4 28.7228 3.94886   1
   3   4  -4 3.94399 1.04482   5
   3   4  -4 5.58780 1.10126   2
   3   4  -4 4.91704 1.15717   4
  -3  -4   4 4.09374 1.22756   4
  -3  -4   4 2.11529 2.04004   1
  -3  -4   4 1.35799 1.61282   7
  -3  -4   4 3.07371 0.94108   3
   2   4  -4 51.2856 2.55214   2
   2   4  -4 53.3611 2.86433   4
   2   4  -4 51.4375 2.02701   6
   2   4  -4 54.3901 2.74477   5
  -2  -4   4 50.5962 3.89423   1
  -2  -4   4 51.4142 2.19870   3
  -2  -4   4 47.5047 2.80395   4
  -2  -4   4 49.5448 3.59184   7
   1   4  -4 34.6053 1.90229   2
   1   4  -4 35.1695 1.97965   5
   1   4  -4 38.7041 1.55417   6
  -1  -4   4 37.2329 2.56092   7
  -1  -4   4 35.0601 2.94030   1
  -1  -4   4 32.7232 2.11335   4
   0   4  -4 236.899 8.12830   2
   0   4  -4 247.923 7.87686   6
   0   4  -4 235.554 8.22435   5
   0  -4   4 238.892 8.22865   5
   0  -4   4 257.120 8.49928   7
   0  -4   4 246.686 9.42765   1
   0  -4   4 229.897 8.45711   4
  -1   4  -4 278.131 8.72647   3
  -1   4  -4 264.290 9.08683   2
  -1   4  -4 275.020 9.02898   6
   1  -4   4 276.380 9.17659   5
   1  -4   4 271.783 9.95797   1
   1  -4   4 284.107 9.46157   4
   1  -4   4 257.596 9.06217   2
  -2   4  -4 1608.24 48.5277   2
  -2   4  -4 1540.22 48.4686   6
  -2   4  -4 1598.58 48.3414   3
   2  -4   4 1598.51 48.5825   5
   2  -4   4 1534.72 48.7922   1
   2  -4   4 1623.53 48.7403   4
   2  -4   4 1547.21 48.5103   2
  -3   4  -4 94.6706 4.23643   6
  -3   4  -4 96.7773 4.37620   3
   3  -4   4 101.745 4.31401   2
   3  -4   4 102.918 4.36784   5
   3  -4   4 102.228 4.42385   4
  -4   4  -4 30.2425 2.75095   3
  -4   4  -4 30.2430 2.46321   6
   4  -4   4 31.0375 2.43567   4
   4  -4   4 34.7719 2.62287   5
   4  -4   4 34.2793 2.47987   2
  -5   4  -4 0.45483 1.20856   6
  -5   4  -4 -1.0336 1.17302   3
   5  -4   4 0.78262 1.20877   5
   5  -4   4 1.59636 1.24512   2
  -6   4  -4 0.32058 1.73616   3
  -6   4  -4 -1.9122 1.30566   6
   6  -4   4 0.87031 1.43030   5
   6  -4   4 1.96683 1.71941   2
   6   3  -4 0.35727 1.69263   5
   6   3  -4 0.66942 1.47910   2
  -6  -3   4 8.84239 2.76048   7
   5   3  -4 -0.2871 1.03102   2
   5   3  -4 0.30982 1.33624   5
  -5  -3   4 2.07711 1.45200   3
  -5  -3   4 4.42671 2.30941   7
   4   3  -4 6.12865 1.31916   4
   4   3  -4 8.49177 1.46992   2
   4   3  -4 8.80964 1.62496   5
  -4  -3   4 7.12664 1.54358   3
  -4  -3   4 9.25007 2.77022   1
  -4  -3   4 6.43199 2.35505   7
   3   3  -4 12.7597 1.48563   4
   3   3  -4 13.4763 1.42664   2
   3   3  -4 12.7155 1.44226   5
   3   3  -4 12.9076 0.87493   6
  -3  -3   4 13.7527 2.78360   1
  -3  -3   4 14.9389 3.00448   7
  -3  -3   4 14.5049 1.56309   3
   2   3  -4 1.40547 0.70473   4
   2   3  -4 1.25996 0.53576   5
   2   3  -4 1.63609 0.58721   2
   2   3  -4 1.08190 0.26185   6
  -2  -3   4 1.02912 0.70305   4
  -2  -3   4 0.91191 1.10319   1
  -2  -3   4 0.35126 0.77209   7
  -2  -3   4 1.22264 0.48292   3
   1   3  -4 204.747 7.22516   5
   1   3  -4 210.911 6.54532   6
   1   3  -4 210.771 7.04784   2
  -1  -3   4 226.024 8.02707   7
  -1  -3   4 210.313 8.49432   1
  -1  -3   4 190.968 7.40508   4
  -1  -3   4 204.277 6.55468   3
   0   3  -4 0.80798 0.40171   2
   0   3  -4 0.64676 0.35740   5
   0   3  -4 0.43854 0.25897   6
   0  -3   4 0.73994 0.41608   5
   0  -3   4 0.67203 0.46256   7
   0  -3   4 0.30330 0.66882   1
   0  -3   4 0.17030 0.44863   4
  -1   3  -4 760.741 24.3177   2
  -1   3  -4 779.471 24.2554   6
  -1   3  -4 775.544 24.0367   3
   1  -3   4 809.846 24.6530   4
   1  -3   4 764.273 24.3445   2
   1  -3   4 800.999 24.4265   5
   1  -3   4 797.460 25.1847   1
  -2   3  -4 1085.64 33.6680   6
  -2   3  -4 1101.14 33.6054   3
   2  -3   4 1073.49 33.7127   2
   2  -3   4 1108.03 33.7611   5
   2  -3   4 1039.41 33.7385   1
   2  -3   4 1123.17 33.8188   4
  -3   3  -4 45.9403 2.96422   7
  -3   3  -4 46.1697 2.55288   6
  -3   3  -4 48.0740 2.72072   3
   3  -3   4 40.8343 2.42626   2
   3  -3   4 49.8297 2.65238   5
   3  -3   4 46.9536 2.55099   4
  -4   3  -4 4.99060 1.41718   3
  -4   3  -4 7.02727 2.02491   7
  -4   3  -4 3.39530 1.03681   6
   4  -3   4 5.25104 1.37822   5
   4  -3   4 5.52793 1.27465   2
   4  -3   4 6.71931 1.30067   4
  -5   3  -4 1.27592 1.35128   3
  -5   3  -4 1.17909 1.21218   6
   5  -3   4 2.50505 1.41468   5
   5  -3   4 0.83045 1.21484   2
  -6   3  -4 3.97558 1.80085   6
  -6   3  -4 2.61232 1.95704   3
   6  -3   4 3.34304 1.83566   2
   6  -3   4 7.56720 2.12091   5
   6   2  -4 0.24332 1.35759   2
   6   2  -4 -1.2432 1.44176   5
  -6  -2   4 2.97778 1.62719   3
  -6  -2   4 9.31985 2.60294   7
   5   2  -4 15.4037 2.06358   2
   5   2  -4 13.9699 2.26181   5
  -5  -2   4 14.3349 2.20282   3
  -5  -2   4 13.2860 3.26075   7
   4   2  -4 100.001 4.27894   2
   4   2  -4 88.2726 4.34275   4
   4   2  -4 91.0161 4.48791   5
  -4  -2   4 94.1681 5.81576   1
  -4  -2   4 85.4498 4.43819   3
   3   2  -4 0.15222 0.24967   6
   3   2  -4 0.68735 0.57796   2
   3   2  -4 0.97726 0.66356   4
   3   2  -4 0.87757 0.64407   5
  -3  -2   4 -0.3829 0.89365   7
  -3  -2   4 -0.1483 1.13698   1
  -3  -2   4 0.71233 0.76835   3
  -3  -2   4 0.26162 0.27989   6
   2   2  -4 1484.71 44.9673   4
   2   2  -4 1453.74 44.6804   5
   2   2  -4 1450.18 44.3113   2
  -2  -2   4 1371.67 45.7536   7
  -2  -2   4 1483.28 46.2847   1
  -2  -2   4 1367.34 44.8536   4
  -2  -2   4 1533.77 44.3016   3
   1   2  -4 46.1889 2.35998   4
   1   2  -4 44.1099 1.93428   2
   1   2  -4 47.0615 2.16052   5
  -1  -2   4 47.0779 1.77520   3
  -1  -2   4 45.6107 2.66844   7
  -1  -2   4 44.1293 2.98620   1
  -1  -2   4 39.3382 2.28956   4
   0   2  -4 136.011 5.04422   5
   0   2  -4 146.743 4.74021   6
   0   2  -4 141.890 4.91689   2
   0  -2   4 149.521 5.10274   5
   0  -2   4 140.948 5.29859   4
   0  -2   4 145.068 4.67266   3
   0  -2   4 148.290 5.40594   7
   0  -2   4 152.814 6.06470   1
  -1   2  -4 -0.0234 0.25678   3
  -1   2  -4 0.39029 0.39908   7
  -1   2  -4 0.85725 0.38375   2
  -1   2  -4 0.95848 0.39087   6
   1  -2   4 0.47828 0.46405   4
   1  -2   4 0.69307 0.33398   3
   1  -2   4 0.65315 0.35486   2
   1  -2   4 0.46512 0.43995   7
   1  -2   4 0.06038 0.34300   5
   1  -2   4 0.06613 0.52600   1
   1  -2   4 1.01041 0.36967   6
  -2   2  -4 1.34894 0.71438   7
  -2   2  -4 0.65276 0.48504   6
  -2   2  -4 1.06614 0.55526   3
   2  -2   4 0.66254 0.44566   2
   2  -2   4 0.81967 0.43847   6
   2  -2   4 0.59385 0.56980   4
   2  -2   4 0.98509 0.52677   5
  -3   2  -4 8.99908 1.32456   3
  -3   2  -4 11.7706 1.98476   7
  -3   2  -4 7.27713 1.04543   6
   3  -2   4 10.5503 1.21998   2
   3  -2   4 8.41653 1.15008   4
   3  -2   4 9.58527 1.32121   5
   3  -2   4 8.14286 1.08501   6
  -4   2  -4 16.0858 1.91574   6
  -4   2  -4 16.7990 2.18598   3
  -4   2  -4 19.3381 3.08938   7
   4  -2   4 17.3308 1.81192   6
   4  -2   4 17.7271 1.99031   5
   4  -2   4 20.4808 1.95612   4
   4  -2   4 15.8329 1.83333   2
  -5   2  -4 34.1304 3.89846   7
  -5   2  -4 31.2546 3.19620   3
  -5   2  -4 29.0933 2.74965   6
   5  -2   4 31.9581 2.88614   5
   5  -2   4 27.4032 2.55351   6
   5  -2   4 30.4298 2.91868   2
  -6   2  -4 0.63726 1.96615   3
  -6   2  -4 1.12694 1.43731   6
   6  -2   4 0.17960 1.40767   5
   6  -2   4 1.46173 1.61024   2
   6   1  -4 -1.8998 1.41709   5
   6   1  -4 1.50423 1.74801   2
  -6  -1   4 3.15463 1.64285   3
  -6  -1   4 8.95993 2.57825   7
   5   1  -4 14.0959 1.87612   2
   5   1  -4 12.6932 2.14444   5
  -5  -1   4 12.2880 3.12410   7
  -5  -1   4 15.2187 2.33980   3
   4   1  -4 47.8996 2.70344   2
   4   1  -4 44.8567 2.95766   5
   4   1  -4 46.4101 2.89300   4
  -4  -1   4 49.4900 4.02363   1
  -4  -1   4 45.7887 3.14711   3
  -4  -1   4 36.5636 4.02282   7
   3   1  -4 2.30952 0.70591   2
   3   1  -4 2.81352 0.87735   4
   3   1  -4 2.58387 0.84711   5
  -3  -1   4 2.82144 0.42154   6
  -3  -1   4 4.81127 1.03690   3
  -3  -1   4 2.73357 1.46355   1
  -3  -1   4 1.43178 1.20570   7
   2   1  -4 107.828 3.91992   2
   2   1  -4 107.038 4.51537   4
   2   1  -4 108.586 4.29297   5
  -2  -1   4 111.504 4.11062   3
  -2  -1   4 106.082 5.17622   7
  -2  -1   4 110.213 5.36192   1
   1   1  -4 1238.14 39.2517   4
   1   1  -4 1264.48 38.5715   2
   1   1  -4 1255.90 38.9332   5
  -1  -1   4 1352.21 39.8808   7
  -1  -1   4 1247.93 40.1160   1
  -1  -1   4 1253.09 39.2456   4
  -1  -1   4 1282.93 38.6508   3
   0   1  -4 7.54573 0.63618   2
   0   1  -4 8.60596 0.57377   6
   0   1  -4 8.67407 0.70480   5
   0  -1   4 7.50797 0.96027   7
   0  -1   4 8.60135 1.23098   1
   0  -1   4 8.15180 0.90372   4
   0  -1   4 9.68310 0.58324   6
   0  -1   4 8.12031 0.61331   2
   0  -1   4 7.85441 0.64736   3
   0  -1   4 8.36703 0.74356   5
  -1   1  -4 520.278 16.3557   7
  -1   1  -4 505.620 15.9588   6
  -1   1  -4 508.369 15.9400   3
   1  -1   4 504.437 15.9629   3
   1  -1   4 501.971 16.4246   7
   1  -1   4 514.897 16.0392   2
   1  -1   4 502.724 16.6490   1
   1  -1   4 513.797 16.1430   4
   1  -1   4 519.646 15.9995   6
   1  -1   4 530.192 16.0535   5
  -2   1  -4 641.288 20.0389   3
  -2   1  -4 627.899 20.4993   7
  -2   1  -4 618.444 19.9762   6
   2  -1   4 629.576 20.0106   6
   2  -1   4 665.149 20.1396   2
   2  -1   4 630.236 19.8344   4
   2  -1   4 643.704 19.9951   5
  -3   1  -4 11.0778 1.46366   3
  -3   1  -4 13.4909 2.14476   7
  -3   1  -4 12.1437 1.27609   6
   3  -1   4 12.6513 1.24099   6
   3  -1   4 12.9760 1.40681   5
   3  -1   4 11.7903 1.27999   2
   3  -1   4 10.9545 1.01848   4
  -4   1  -4 5.59971 1.50019   3
  -4   1  -4 6.32924 1.30691   6
  -4   1  -4 5.20079 2.29262   7
   4  -1   4 7.60628 1.44172   5
   4  -1   4 4.93600 1.10477   6
   4  -1   4 5.09655 1.22659   2
  -5   1  -4 -1.4698 0.97366   6
  -5   1  -4 -0.2341 1.28059   3
  -5   1  -4 1.63710 2.04229   7
   5  -1   4 1.07736 1.32605   5
   5  -1   4 -0.2960 0.98837   6
   5  -1   4 0.03325 1.23517   2
  -6   1  -4 3.04500 2.11579   3
  -6   1  -4 5.79327 1.80991   6
  -6   1  -4 10.6907 4.05912   7
   6  -1   4 4.40630 1.87427   5
   6  -1   4 6.70236 2.05878   2
   6  -1   4 6.00114 1.73416   6
   5   0  -4 54.1756 3.14076   2
   5   0  -4 51.9018 3.67999   5
   5   0  -4 51.5023 3.46472   4
  -5   0   4 51.5436 3.85217   3
  -5   0   4 55.0195 5.09766   7
   4   0  -4 55.0588 3.26275   5
   4   0  -4 54.5304 3.24707   4
   4   0  -4 55.0894 2.80833   2
  -4   0   4 55.9811 3.42132   3
  -4   0   4 56.6830 4.13804   1
  -4   0   4 49.0543 4.34937   7
   3   0  -4 12.1987 1.41760   4
   3   0  -4 12.7201 1.41860   5
   3   0  -4 11.8266 1.12992   2
  -3   0   4 12.5317 0.85236   6
  -3   0   4 12.1835 1.97014   1
  -3   0   4 12.2851 1.50766   3
  -3   0   4 11.7522 2.03491   7
   2   0  -4 578.289 18.5789   4
   2   0  -4 570.397 18.1946   5
   2   0  -4 578.091 17.7075   2
  -2   0   4 577.606 19.4543   7
  -2   0   4 542.185 17.3863   6
  -2   0   4 573.741 19.4438   1
  -2   0   4 588.029 18.1407   3
   1   0  -4 1.17211 0.18205   6
   1   0  -4 1.22809 0.51562   4
   1   0  -4 1.18204 0.37750   5
   1   0  -4 1.61398 0.28099   2
  -1   0   4 0.33773 0.77906   1
  -1   0   4 0.19554 0.63477   7
  -1   0   4 0.80552 0.40959   3
  -1   0   4 1.19986 0.20664   6
   0   0  -4 -0.2772 0.19841   2
   0   0  -4 0.10222 0.18847   5
   0   0  -4 0.09933 0.28073   4
   0   0   4 0.06109 0.17395   2
   0   0   4 -0.1081 0.18925   5
   0   0   4 0.04084 0.16919   6
   0   0   4 -0.0235 0.44585   7
   0   0   4 0.22501 0.28796   3
   0   0   4 0.18634 0.38243   4
   0   0   4 0.03030 0.50344   1
  -1   0  -4 42.6060 2.32907   1
  -1   0  -4 40.5910 1.82442   3
  -1   0  -4 42.4678 2.21149   7
   1   0   4 38.0756 2.31028   1
   1   0   4 42.4962 2.34894   7
   1   0   4 43.2800 1.76953   5
   1   0   4 42.3239 1.85302   2
   1   0   4 39.5021 1.82948   4
   1   0   4 40.0935 1.81334   6
   1   0   4 43.5470 1.90103   3
  -2   0  -4 8.50457 1.02188   1
  -2   0  -4 10.1921 1.41024   7
  -2   0  -4 9.38964 0.97949   3
   2   0   4 8.45682 0.98062   2
   2   0   4 7.49199 0.91753   6
   2   0   4 9.16910 0.89434   5
   2   0   4 9.80259 1.04619   3
   2   0   4 8.68522 0.70370   4
  -3   0  -4 -0.3506 0.45186   6
  -3   0  -4 0.23993 0.61648   3
  -3   0  -4 1.16265 1.39512   7
   3   0   4 0.12381 0.52395   2
   3   0   4 0.13840 0.42358   6
   3   0   4 0.27120 0.61171   5
  -4   0  -4 36.6163 2.60398   6
  -4   0  -4 40.4559 4.14910   7
  -4   0  -4 32.8359 2.80143   3
   4   0   4 34.3716 2.59988   2
   4   0   4 38.2272 2.64407   5
   4   0   4 38.0968 2.54284   6
  -5   0  -4 34.5538 4.63099   7
  -5   0  -4 42.2143 3.14112   6
  -5   0  -4 32.7884 3.49309   3
   5   0   4 39.6409 3.18450   2
   5   0   4 39.1314 2.99752   6
   5   0   4 35.5420 3.15428   5
  -6   0  -4 22.2784 2.78467   6
  -6   0  -4 32.4190 4.73835   7
  -6   0  -4 18.1029 3.22755   3
   6   0   4 19.5273 2.82816   5
   6   0   4 25.9211 2.89728   6
   6   0   4 22.0393 3.04636   2
   5  -1  -4 28.0732 2.83556   4
   5  -1  -4 28.9637 2.91725   5
   5  -1  -4 32.0190 2.35939   2
  -5   1   4 36.2616 4.37605   7
  -5   1   4 30.5611 3.19664   3
   4  -1  -4 19.8386 2.08076   4
   4  -1  -4 17.4501 2.03933   5
   4  -1  -4 16.7667 1.49853   2
  -4   1   4 18.0833 2.20768   3
  -4   1   4 18.1636 3.27244   7
  -4   1   4 17.8916 2.66072   1
  -4   1   4 16.5248 1.43563   6
   3  -1  -4 1.10447 0.68154   5
   3  -1  -4 1.18155 0.48667   2
   3  -1  -4 1.27086 0.75355   4
  -3   1   4 1.19458 1.02853   7
  -3   1   4 2.31935 0.84020   3
  -3   1   4 1.05758 0.40715   6
  -3   1   4 1.62334 1.19386   1
   2  -1  -4 62.2211 2.73410   5
   2  -1  -4 63.2934 2.26979   2
   2  -1  -4 63.7561 3.07434   4
  -2   1   4 62.6811 2.81041   3
  -2   1   4 62.2661 3.58705   7
  -2   1   4 62.6201 2.26473   6
  -2   1   4 60.4853 3.67650   1
   1  -1  -4 39.9581 2.61973   1
   1  -1  -4 39.7369 1.72879   5
   1  -1  -4 39.6414 2.08447   4
  -1   1   4 37.8274 1.49336   6
  -1   1   4 37.8657 2.39433   7
  -1   1   4 38.5407 1.84664   3
  -1   1   4 37.4734 2.64273   1
   0  -1  -4 46.6838 2.10281   4
   0  -1  -4 44.4345 2.64326   1
   0  -1  -4 46.2641 1.73234   5
   0   1   4 43.5255 1.96378   3
   0   1   4 45.5015 1.67244   2
   0   1   4 44.1331 2.46903   7
   0   1   4 46.9835 1.84559   6
   0   1   4 43.3577 2.67596   1
  -1  -1  -4 402.216 13.5245   7
  -1  -1  -4 410.463 13.7178   1
  -1  -1  -4 409.839 12.8084   4
   1   1   4 411.323 12.9338   6
   1   1   4 408.976 13.6865   7
   1   1   4 403.629 12.8400   2
   1   1   4 389.261 12.7739   4
   1   1   4 418.532 12.6762   5
   1   1   4 407.645 13.0058   3
  -2  -1  -4 1.63202 0.76388   1
  -2  -1  -4 1.09010 0.48628   3
  -2  -1  -4 3.17960 1.10554   7
   2   1   4 0.95978 0.44840   6
   2   1   4 0.58046 0.46898   3
   2   1   4 1.12826 0.47006   5
   2   1   4 1.46674 0.55593   2
  -3  -1  -4 82.8332 4.85594   7
  -3  -1  -4 76.2389 3.62818   3
  -3  -1  -4 72.7966 4.01673   1
   3   1   4 79.4661 3.58757   2
   3   1   4 79.2036 3.43748   5
   3   1   4 79.7423 3.50504   6
  -4  -1  -4 18.4338 3.46672   7
  -4  -1  -4 17.6270 2.32420   3
  -4  -1  -4 17.2178 1.95664   6
   4   1   4 19.4339 2.24604   2
   4   1   4 20.2371 2.14646   6
   4   1   4 17.5192 2.07944   5
  -5  -1  -4 7.67700 3.21682   7
  -5  -1  -4 11.0549 1.79274   6
  -5  -1  -4 7.55931 2.16804   3
   5   1   4 7.14994 1.86003   2
   5   1   4 10.4774 2.07407   5
   5   1   4 8.85280 1.67442   6
  -6  -1  -4 7.17723 3.19861   7
  -6  -1  -4 8.05296 1.92829   6
  -6  -1  -4 3.08968 2.15386   3
   6   1   4 6.38823 1.67856   6
   6   1   4 4.93550 1.88431   5
   6   1   4 6.81728 2.12174   2
  -6   2   4 3.76437 1.80942   3
   5  -2  -4 -0.2073 1.30589   4
   5  -2  -4 1.58062 1.35169   5
  -5   2   4 2.15101 2.52547   7
  -5   2   4 0.73108 1.49119   3
   4  -2  -4 11.7417 1.86132   1
   4  -2  -4 7.91298 1.09525   2
   4  -2  -4 9.06343 1.57988   5
   4  -2  -4 9.63349 1.76995   4
  -4   2   4 9.83245 1.79250   3
  -4   2   4 12.6671 2.54528   1
  -4   2   4 8.87868 2.65712   7
  -4   2   4 8.36335 1.07115   6
   3  -2  -4 65.0619 2.60884   2
   3  -2  -4 64.9051 3.94350   1
   3  -2  -4 65.1233 3.45535   4
   3  -2  -4 67.0118 3.19876   5
  -3   2   4 67.7434 4.11525   1
  -3   2   4 65.5305 4.16467   7
  -3   2   4 66.5845 2.66979   6
  -3   2   4 65.9399 3.38514   3
   2  -2  -4 126.959 5.87603   1
   2  -2  -4 126.659 4.19568   2
   2  -2  -4 129.848 4.79421   5
   2  -2  -4 125.917 5.21476   4
  -2   2   4 137.299 5.05676   3
  -2   2   4 131.316 6.01658   1
  -2   2   4 136.522 5.86379   7
  -2   2   4 132.588 4.46496   6
   1  -2  -4 1421.15 43.7533   4
   1  -2  -4 1429.68 43.1365   5
   1  -2  -4 1431.91 44.6685   1
  -1   2   4 1433.97 44.2837   7
  -1   2   4 1391.81 43.0809   6
  -1   2   4 1394.32 44.7527   1
  -1   2   4 1435.56 43.4810   3
   0  -2  -4 114.478 4.23819   4
   0  -2  -4 114.533 5.03948   1
   0  -2  -4 115.292 3.69185   5
   0   2   4 115.543 4.20601   3
   0   2   4 113.057 3.76723   2
   0   2   4 110.424 4.01003   6
   0   2   4 115.311 4.85866   7
  -1  -2  -4 673.485 22.0389   1
  -1  -2  -4 661.321 21.7939   7
  -1  -2  -4 692.195 20.8225   4
   1   2   4 682.917 20.9589   2
   1   2   4 675.563 21.0824   6
   1   2   4 680.470 21.1551   3
   1   2   4 660.582 20.6048   5
  -2  -2  -4 152.545 5.72864   3
  -2  -2  -4 156.473 6.73896   7
  -2  -2  -4 156.531 6.51948   1
   2   2   4 156.202 5.75295   6
   2   2   4 162.827 5.79691   2
   2   2   4 157.989 5.41966   5
   2   2   4 164.939 5.85624   3
  -3  -2  -4 37.6076 2.38983   3
  -3  -2  -4 37.9145 3.25884   1
  -3  -2  -4 36.4340 3.65517   7
   3   2   4 37.6814 2.25537   6
   3   2   4 37.0675 2.16180   5
   3   2   4 35.6501 2.31214   2
  -4  -2  -4 19.5334 2.41176   3
  -4  -2  -4 14.0466 3.32111   7
   4   2   4 20.0090 2.22193   2
   4   2   4 16.4621 2.07152   5
   4   2   4 19.9620 2.18324   6
  -5  -2  -4 17.5194 4.01741   7
  -5  -2  -4 19.8447 2.88437   3
  -5  -2  -4 28.9326 2.74559   6
   5   2   4 28.6833 2.67000   6
   5   2   4 28.6772 2.96240   2
   5   2   4 21.5192 2.67532   5
  -6  -2  -4 2.41358 1.45875   6
  -6  -2  -4 1.97631 3.01266   7
  -6  -2  -4 1.77346 2.02211   3
   6   2   4 2.27714 1.72373   5
   6   2   4 1.85100 1.70329   2
   6   2   4 1.35838 1.33438   6
   6  -3  -4 16.3393 2.68915   5
  -6   3   4 21.3136 3.04029   3
   5  -3  -4 2.20176 1.63804   4
   5  -3  -4 3.11837 1.49152   5
  -5   3   4 4.54187 1.73863   3
  -5   3   4 6.62760 2.87661   7
   4  -3  -4 -0.6942 0.95923   5
   4  -3  -4 1.67145 1.03703   1
   4  -3  -4 -0.0717 1.14266   4
   4  -3  -4 0.23786 0.60714   2
  -4   3   4 0.41889 0.67559   6
  -4   3   4 -0.1233 1.55366   7
  -4   3   4 -0.1763 1.00543   3
   3  -3  -4 17.6666 2.11324   1
   3  -3  -4 16.6966 1.07148   2
   3  -3  -4 17.9648 1.85110   4
   3  -3  -4 17.6615 1.61722   5
  -3   3   4 19.9893 1.37331   6
  -3   3   4 18.1755 1.87494   3
  -3   3   4 20.1530 2.56991   1
  -3   3   4 18.0604 2.33499   7
   2  -3  -4 20.7944 1.71562   4
   2  -3  -4 17.5364 1.31091   5
   2  -3  -4 19.5601 2.07937   1
  -2   3   4 21.0817 1.66120   3
  -2   3   4 23.7095 2.12505   7
  -2   3   4 21.6155 1.29459   6
   1  -3  -4 102.583 4.92379   1
   1  -3  -4 105.116 4.22465   4
   1  -3  -4 103.579 3.56851   5
  -1   3   4 99.7208 3.72267   6
  -1   3   4 104.391 4.66746   7
  -1   3   4 101.734 4.03942   3
   0  -3  -4 387.295 12.4982   4
   0  -3  -4 395.289 13.1621   7
   0  -3  -4 384.953 13.6446   1
   0   3   4 388.612 12.3583   6
   0   3   4 387.588 12.5158   3
   0   3   4 381.049 12.0098   2
   0   3   4 377.438 13.2514   7
  -1  -3  -4 554.191 18.6985   1
  -1  -3  -4 559.916 17.1134   4
  -1  -3  -4 541.574 18.2857   7
   1   3   4 548.228 17.5162   3
   1   3   4 554.345 17.3090   2
   1   3   4 543.836 17.4684   6
  -2  -3  -4 0.01962 0.50146   3
  -2  -3  -4 0.44181 1.03793   7
  -2  -3  -4 0.65732 1.11935   1
   2   3   4 1.00186 0.50992   6
   2   3   4 -0.2110 0.42902   2
   2   3   4 0.56694 0.53412   3
   2   3   4 -0.0101 0.38650   5
  -3  -3  -4 93.2443 5.59396   1
  -3  -3  -4 99.7291 5.95925   7
  -3  -3  -4 92.3243 4.22664   3
   3   3   4 96.1432 4.20727   6
   3   3   4 94.6494 4.25484   2
   3   3   4 89.8444 3.85304   5
  -4  -3  -4 93.7996 6.93108   7
  -4  -3  -4 105.273 5.16653   3
   4   3   4 105.555 5.10076   2
   4   3   4 116.589 4.99109   6
   4   3   4 105.990 4.75394   5
  -5  -3  -4 3.90190 1.96888   3
  -5  -3  -4 2.18591 3.07548   7
   5   3   4 7.29428 1.82756   2
   5   3   4 2.31533 1.25217   6
   5   3   4 3.43770 1.50230   5
   6   3   4 2.24218 1.76807   2
   6  -4  -4 17.1281 2.87961   5
   6  -4  -4 8.95880 2.80774   4
  -6   4   4 21.0209 3.07982   3
   5  -4  -4 82.8957 4.66386   5
   5  -4  -4 79.3470 5.02605   4
  -5   4   4 79.1853 4.99305   3
  -5   4   4 94.4424 6.48943   7
   4  -4  -4 23.7991 2.81891   4
   4  -4  -4 26.5635 2.72064   1
   4  -4  -4 23.7097 2.43266   5
  -4   4   4 24.2986 2.62862   3
  -4   4   4 29.6300 2.05165   6
  -4   4   4 26.4795 3.31932   7
   3  -4  -4 36.1176 2.27846   5
   3  -4  -4 32.7165 2.78501   1
   3  -4  -4 33.3267 2.61282   4
   3  -4  -4 31.8163 1.57791   2
  -3   4   4 37.6780 2.02462   6
  -3   4   4 30.4712 2.43768   3
  -3   4   4 32.4400 1.54801   2
  -3   4   4 34.7490 3.00561   7
   2  -4  -4 23.5342 2.31394   1
   2  -4  -4 23.8440 1.92575   4
   2  -4  -4 25.8377 1.52368   5
  -2   4   4 21.5799 1.47027   6
  -2   4   4 27.6551 2.32465   7
  -2   4   4 19.7519 1.72131   3
  -2   4   4 21.2529 0.97657   2
   1  -4  -4 214.919 8.60471   1
   1  -4  -4 215.644 7.64967   4
   1  -4  -4 217.229 6.80924   5
  -1   4   4 211.985 7.44263   3
  -1   4   4 211.921 7.15936   6
  -1   4   4 192.995 6.60689   2
  -1   4   4 214.009 8.14209   7
   0  -4  -4 755.738 25.5290   1
   0  -4  -4 774.883 24.1505   4
   0  -4  -4 767.566 24.8531   7
   0   4   4 788.074 24.0728   6
   0   4   4 748.366 25.0238   7
   0   4   4 786.287 24.2135   3
   0   4   4 774.353 23.6965   2
  -1  -4  -4 6.34297 1.41178   7
  -1  -4  -4 7.60491 1.81594   1
  -1  -4  -4 5.91920 0.84722   4
   1   4   4 6.53983 0.90407   6
   1   4   4 8.52744 1.19512   3
   1   4   4 8.24453 1.02087   2
  -2  -4  -4 10.4332 2.39500   1
  -2  -4  -4 11.6889 2.18219   7
  -2  -4  -4 9.70326 1.28410   3
   2   4   4 9.80653 1.26216   2
   2   4   4 10.7605 1.36409   3
   2   4   4 9.38151 1.22131   6
   2   4   4 7.34914 0.84677   5
  -3  -4  -4 1.07862 1.94185   7
  -3  -4  -4 1.24976 0.79502   3
  -3  -4  -4 -0.8754 2.17950   1
   3   4   4 0.48057 0.71651   5
   3   4   4 1.62000 0.99575   3
   3   4   4 -0.6065 0.63189   6
   3   4   4 1.69117 0.96447   2
  -4  -4  -4 159.741 6.68942   3
  -4  -4  -4 132.916 8.59610   7
   4   4   4 158.598 6.41703   6
   4   4   4 160.714 6.71022   2
   4   4   4 146.890 6.04833   5
  -5  -4  -4 -2.0000 1.45505   3
  -5  -4  -4 -3.2675 2.23245   7
   5   4   4 1.02863 1.41307   2
   5   4   4 -1.2126 0.96748   6
   6  -5  -4 0.41908 1.68780   5
  -6   5   4 2.95489 2.02961   3
   5  -5  -4 11.2049 2.01971   5
   5  -5  -4 8.43744 2.46134   4
  -5   5   4 12.6712 3.17145   7
  -5   5   4 6.65492 1.97869   6
  -5   5   4 7.87142 2.20938   3
   4  -5  -4 -0.9911 1.30251   4
   4  -5  -4 0.15024 1.02023   5
   4  -5  -4 -0.7094 1.21355   1
  -4   5   4 0.18154 0.80567   6
  -4   5   4 -0.4926 1.16617   3
  -4   5   4 0.48493 1.61294   7
   3  -5  -4 84.6683 4.46928   4
   3  -5  -4 83.1281 4.82731   1
   3  -5  -4 85.0422 3.82677   5
  -3   5   4 88.8907 4.84881   7
  -3   5   4 87.1437 3.75338   2
  -3   5   4 85.4490 3.71686   6
  -3   5   4 81.0043 4.21265   3
   2  -5  -4 0.37474 0.50628   5
   2  -5  -4 -0.4647 0.82420   1
   2  -5  -4 -0.0374 0.78286   4
  -2   5   4 -0.5279 0.55990   3
  -2   5   4 -0.2810 0.52615   6
  -2   5   4 -0.8746 0.76909   7
  -2   5   4 0.21011 0.28849   2
   1  -5  -4 0.06414 0.28793   5
   1  -5  -4 0.16742 0.85576   1
   1  -5  -4 -0.4674 0.59798   4
  -1   5   4 -0.6222 0.40632   3
  -1   5   4 -0.4856 0.26148   2
  -1   5   4 -0.5791 0.36794   6
  -1   5   4 0.54264 0.87622   7
   0  -5  -4 6.12355 1.37621   7
   0  -5  -4 6.79945 1.81929   1
   0  -5  -4 6.80569 1.10444   4
   0   5   4 6.25290 0.77762   2
   0   5   4 6.43240 0.96468   6
   0   5   4 8.39260 1.68996   7
   0   5   4 6.95858 1.02744   3
  -1  -5  -4 5.55825 0.98723   4
  -1  -5  -4 5.59062 1.46109   7
  -1  -5  -4 6.06314 1.87134   1
   1   5   4 7.62370 1.02667   2
   1   5   4 6.91159 1.05286   6
   1   5   4 4.74086 0.97164   3
  -2  -5  -4 41.0277 4.22711   1
  -2  -5  -4 41.9921 2.42962   3
  -2  -5  -4 43.0009 3.74290   7
   2   5   4 42.8315 2.54495   3
   2   5   4 45.4745 2.51947   2
   2   5   4 41.5599 2.47198   6
   2   5   4 39.8549 1.82921   5
  -3  -5  -4 121.292 7.37538   7
  -3  -5  -4 125.285 7.58533   1
  -3  -5  -4 131.278 5.53434   3
   3   5   4 131.591 5.51571   6
   3   5   4 132.153 5.58735   3
   3   5   4 131.201 5.64232   2
  -4  -5  -4 20.7263 2.56178   3
  -4  -5  -4 14.2538 3.87231   7
   4   5   4 20.7030 2.31250   6
   4   5   4 19.4659 2.39503   2
  -5  -5  -4 -1.1345 1.42965   3
  -5  -5  -4 -2.1512 2.64500   7
   5   5   4 -0.0698 1.14351   6
   5   5   4 -1.4017 1.29926   2
   6  -6  -4 -0.2812 1.58019   5
  -6   6   4 1.68045 1.97999   3
   5  -6  -4 0.31642 1.32486   5
   5  -6  -4 -3.1279 1.73578   4
  -5   6   4 1.00172 1.70262   3
  -5   6   4 0.28700 1.08163   6
   4  -6  -4 5.26061 1.43914   5
   4  -6  -4 4.63065 1.99534   1
   4  -6  -4 3.93403 1.89240   4
  -4   6   4 2.72904 1.50793   3
  -4   6   4 5.08928 2.11421   7
  -4   6   4 3.85566 1.17506   6
   3  -6  -4 11.0021 1.51259   5
   3  -6  -4 9.53685 2.32185   1
   3  -6  -4 9.69540 2.01253   4
  -3   6   4 7.04061 1.54430   3
  -3   6   4 9.44407 1.37762   6
  -3   6   4 10.7097 2.22764   7
   2  -6  -4 1.01588 1.25809   1
   2  -6  -4 0.96213 0.59200   5
   2  -6  -4 1.82087 1.17952   4
  -2   6   4 0.82868 0.39216   2
  -2   6   4 0.43556 1.09054   7
  -2   6   4 0.13228 0.58653   6
  -2   6   4 0.19959 0.73888   3
   1  -6  -4 0.97824 0.85832   7
   1  -6  -4 1.97198 1.46412   1
   1  -6  -4 1.32193 1.00581   4
   1  -6  -4 1.99425 0.42915   5
  -1   6   4 1.13278 0.77247   3
  -1   6   4 1.83328 0.69112   6
  -1   6   4 1.51500 0.48446   2
  -1   6   4 1.67873 1.15681   7
   0  -6  -4 7.84718 1.37662   4
   0  -6  -4 8.23903 1.64480   7
   0  -6  -4 8.24661 2.20221   1
   0   6   4 6.38485 1.03741   6
   0   6   4 7.23432 1.17130   3
   0   6   4 7.47740 0.93137   2
  -1  -6  -4 21.8053 1.86189   4
  -1  -6  -4 21.4852 3.37489   1
  -1  -6  -4 17.2414 2.44808   7
   1   6   4 21.0565 1.81671   3
   1   6   4 19.3522 1.68072   6
   1   6   4 22.1392 1.63764   2
  -2  -6  -4 66.7581 4.91192   7
  -2  -6  -4 68.0478 5.80672   1
  -2  -6  -4 66.5370 3.36861   3
   2   6   4 70.1137 3.49427   2
   2   6   4 70.8373 3.52797   6
   2   6   4 70.6277 3.56030   3
  -3  -6  -4 42.0669 5.10176   1
  -3  -6  -4 34.5492 4.63439   7
  -3  -6  -4 40.3572 2.85709   3
   3   6   4 42.3053 2.92101   6
   3   6   4 43.6952 3.01474   3
   3   6   4 44.3563 3.06040   2
  -4  -6  -4 0.06458 1.12789   3
  -4  -6  -4 -2.2585 2.52737   7
   4   6   4 2.50213 1.36166   2
   4   6   4 -1.3158 0.90341   6
  -5  -6  -4 -2.9613 2.86089   7
  -5  -6  -4 -1.8402 1.48845   3
   5   6   4 0.10156 1.19045   6
   5   6   4 0.56197 1.51910   2
   6  -7  -4 -2.2738 2.69903   4
   6  -7  -4 4.87210 1.92041   5
   5  -7  -4 -4.2183 1.87792   4
   5  -7  -4 0.05832 1.24518   5
  -5   7   4 -0.5315 1.11739   6
  -5   7   4 0.10838 1.68222   3
   4  -7  -4 -0.2334 1.69635   4
   4  -7  -4 0.23033 1.00825   5
  -4   7   4 -0.3281 1.05495   6
  -4   7   4 -1.1362 1.29348   3
  -4   7   4 1.46983 1.91870   7
   3  -7  -4 59.8390 4.66847   1
   3  -7  -4 62.8875 3.18802   5
   3  -7  -4 64.6334 4.24698   4
  -3   7   4 58.5603 3.75902   3
  -3   7   4 63.1842 3.41345   6
  -3   7   4 61.8458 4.07824   7
   2  -7  -4 75.4114 5.16662   1
   2  -7  -4 80.3603 4.45300   4
   2  -7  -4 75.2892 3.20464   5
  -2   7   4 71.5392 3.58160   6
  -2   7   4 64.0077 3.03227   2
  -2   7   4 80.1967 4.47621   7
  -2   7   4 74.8821 3.86080   3
   1  -7  -4 145.286 7.55133   1
   1  -7  -4 148.960 6.24359   4
   1  -7  -4 144.282 6.30426   7
  -1   7   4 149.240 5.88167   3
  -1   7   4 143.070 6.62814   7
  -1   7   4 133.949 5.06611   2
  -1   7   4 137.808 5.60181   6
   0  -7  -4 21.5566 3.46289   1
   0  -7  -4 19.8579 2.26210   4
   0  -7  -4 19.0178 2.40470   7
   0   7   4 18.9869 1.58747   2
   0   7   4 19.7580 1.91208   6
   0   7   4 16.7084 1.91461   3
  -1  -7  -4 14.7903 2.66784   7
  -1  -7  -4 16.6074 1.96544   4
  -1  -7  -4 17.1304 3.77386   1
   1   7   4 14.9313 1.75977   3
   1   7   4 14.7673 1.68598   6
   1   7   4 15.1424 1.66856   2
  -2  -7  -4 21.6492 3.53392   7
  -2  -7  -4 19.5384 4.15342   1
  -2  -7  -4 22.9309 2.04637   3
   2   7   4 21.3305 2.12393   2
   2   7   4 21.5864 2.20496   3
   2   7   4 22.3322 2.10455   6
  -3  -7  -4 3.06811 3.06884   1
  -3  -7  -4 3.65247 2.69739   7
  -3  -7  -4 6.88248 1.52493   3
   3   7   4 4.04600 1.53352   3
   3   7   4 5.92713 1.57171   2
   3   7   4 6.00321 1.42305   6
  -4  -7  -4 1.31684 1.34899   3
  -4  -7  -4 -1.8630 2.59636   7
   4   7   4 2.43333 1.25177   6
   4   7   4 4.43271 1.60059   2
   5  -8  -4 -5.0201 2.05494   4
   5  -8  -4 -0.5931 1.27307   5
  -5   8   4 -1.2473 1.10712   6
  -5   8   4 0.02936 1.68703   3
   4  -8  -4 93.8939 5.95511   4
   4  -8  -4 99.0285 4.77065   5
  -4   8   4 97.5875 4.85296   6
  -4   8   4 96.8980 5.49477   3
   3  -8  -4 45.5513 4.67689   1
   3  -8  -4 45.1595 4.05320   4
   3  -8  -4 52.2470 2.92393   5
  -3   8   4 49.6389 3.16466   6
  -3   8   4 55.2145 3.65184   3
  -3   8   4 48.1221 3.86404   7
   2  -8  -4 11.8526 2.41452   4
   2  -8  -4 12.1640 2.19447   7
   2  -8  -4 12.3224 3.24631   1
  -2   8   4 15.5386 2.73270   7
  -2   8   4 13.0017 1.93112   3
  -2   8   4 11.3985 1.64291   6
   1  -8  -4 14.5066 2.49494   4
   1  -8  -4 15.5677 2.43609   7
   1  -8  -4 16.7756 3.75903   1
  -1   8   4 15.0497 1.48539   2
  -1   8   4 21.4138 2.13802   3
  -1   8   4 21.6132 3.03986   7
  -1   8   4 18.8657 1.99631   6
   0  -8  -4 -1.6051 1.39659   7
   0  -8  -4 -0.6704 2.30888   1
   0  -8  -4 0.61743 1.46417   4
   0   8   4 -1.2071 0.73051   6
   0   8   4 -0.4229 0.93766   3
   0   8   4 0.75994 0.82438   2
  -1  -8  -4 4.44046 3.11726   1
  -1  -8  -4 4.90659 2.17360   7
  -1  -8  -4 4.85155 1.42631   4
   1   8   4 3.92213 1.36003   3
   1   8   4 3.94551 1.19285   2
   1   8   4 2.87605 1.09225   6
  -2  -8  -4 0.61783 0.86168   3
  -2  -8  -4 -1.8774 2.79539   1
  -2  -8  -4 0.17908 2.27726   7
   2   8   4 0.78432 1.00347   2
   2   8   4 -0.6075 0.93429   3
   2   8   4 0.33928 0.92991   6
  -3  -8  -4 24.4291 5.16683   1
  -3  -8  -4 18.8274 4.26177   7
  -3  -8  -4 23.3658 2.39752   3
   3   8   4 22.1656 2.59806   3
   3   8   4 25.1547 2.67865   2
   3   8   4 24.4205 2.57449   6
  -4  -8  -4 0.94389 1.29590   3
  -4  -8  -4 4.48958 4.48373   1
  -4  -8  -4 -4.8143 2.51617   7
   4   8   4 -0.6474 1.18495   2
   4   8   4 -0.3615 1.15740   6
   5  -9  -4 -1.9277 2.70625   4
   5  -9  -4 1.61076 1.50204   5
  -5   9   4 1.82022 1.54630   6
  -5   9   4 3.20389 1.82215   3
   4  -9  -4 15.0364 2.11719   5
   4  -9  -4 11.1240 3.11928   4
  -4   9   4 15.9647 2.09036   6
  -4   9   4 16.7581 2.63671   3
   3  -9  -4 10.6546 2.86355   4
   3  -9  -4 14.1241 3.81222   1
  -3   9   4 13.6803 2.34110   3
  -3   9   4 14.7606 2.03024   6
   2  -9  -4 1.30009 1.28234   7
   2  -9  -4 -0.9271 2.62588   1
  -2   9   4 0.11846 1.16778   3
  -2   9   4 0.69107 1.07562   6
  -2   9   4 -0.6275 1.66791   7
   1  -9  -4 31.2408 3.23326   7
   1  -9  -4 29.5215 3.46420   4
   1  -9  -4 29.2633 5.25182   1
  -1   9   4 32.3251 2.84641   6
  -1   9   4 34.0537 2.82622   3
  -1   9   4 29.4720 2.16544   2
   0  -9  -4 7.83341 3.46910   1
   0  -9  -4 13.0047 2.26661   4
   0  -9  -4 8.95849 2.49851   7
   0   9   4 13.0424 2.02535   3
   0   9   4 14.3497 1.70219   2
   0   9   4 13.3086 1.86558   6
  -1  -9  -4 4.12262 3.63157   1
  -1  -9  -4 4.36303 2.40865   7
   1   9   4 5.55270 1.46758   3
   1   9   4 4.65671 1.32282   6
   1   9   4 5.87506 1.35643   2
  -2  -9  -4 32.4041 2.42443   3
  -2  -9  -4 21.7917 5.16522   1
  -2  -9  -4 28.1984 4.68679   7
   2   9   4 27.5908 2.61614   6
   2   9   4 29.3862 2.69093   3
   2   9   4 32.0207 2.72178   2
  -3  -9  -4 0.51555 3.23502   7
  -3  -9  -4 -1.1575 3.11604   1
  -3  -9  -4 1.15689 1.08442   3
   3   9   4 1.46421 1.22757   6
   3   9   4 -0.9512 1.10984   2
   3   9   4 -1.8316 1.18196   3
  -4  -9  -4 4.97163 5.33437   1
  -4  -9  -4 0.07107 3.29111   7
   4   9   4 -0.7639 1.46669   2
   4 -10  -4 -4.3993 2.19865   4
  -4  10   4 -0.7085 1.44266   3
  -4  10   4 -0.1955 1.27836   6
   3 -10  -4 -2.5088 2.05247   4
   3 -10  -4 -1.9287 2.94220   1
  -3  10   4 0.95235 1.40909   3
  -3  10   4 0.65993 1.27153   6
   2 -10  -4 -0.2902 3.13493   1
   2 -10  -4 2.23867 2.13471   4
  -2  10   4 5.11686 1.79458   3
  -2  10   4 4.77824 1.56967   6
   1 -10  -4 1.72092 3.37310   1
   1 -10  -4 1.92505 1.94351   4
   1 -10  -4 3.52049 1.79831   7
  -1  10   4 1.71293 1.34315   3
  -1  10   4 4.66526 1.55609   6
   0 -10  -4 2.47593 2.08826   7
   0 -10  -4 0.88084 1.64199   4
   0 -10  -4 -1.5762 3.24225   1
   0  10   4 0.75060 1.16239   3
   0  10   4 2.96986 1.16308   2
   0  10   4 1.20879 1.17606   6
  -1 -10  -4 6.16233 2.80356   7
  -1 -10  -4 3.95130 3.82784   1
   1  10   4 9.94398 1.72832   2
   1  10   4 6.76352 1.55018   6
   1  10   4 10.3061 1.86728   3
  -2 -10  -4 -0.7697 3.39379   1
  -2 -10  -4 3.47976 3.31380   7
  -2 -10  -4 7.52358 1.45471   3
   2  10   4 4.50326 1.55089   3
   2  10   4 4.45877 1.50693   2
   2  10   4 5.44828 1.52882   6
  -3 -10  -4 -4.7141 3.09020   7
  -3 -10  -4 -3.8876 3.14846   1
   3  10   4 0.24157 1.30362   2
   3  10   4 1.44236 1.37735   6
   4 -11  -4 -0.3700 2.63894   4
  -4  11   4 3.33102 1.92758   3
  -4  11   4 3.08294 1.66385   6
   3 -11  -4 2.73792 2.65508   4
   3 -11  -4 2.96850 3.98265   1
  -3  11   4 7.60658 1.90257   6
  -3  11   4 6.04159 1.84970   3
   2 -11  -4 -3.0416 3.25289   1
   2 -11  -4 -1.3958 2.01823   4
  -2  11   4 -2.0787 1.11416   6
  -2  11   4 -0.0804 1.36576   3
   1 -11  -4 -1.1416 3.64874   1
   1 -11  -4 0.04826 1.98291   4
  -1  11   4 1.98258 1.30588   3
  -1  11   4 -0.0125 1.18120   6
   0 -11  -4 7.66557 2.05288   4
   0 -11  -4 3.86390 2.49120   7
   0 -11  -4 7.50852 4.53987   1
   0  11   4 6.06839 1.64323   3
   0  11   4 8.35716 1.90527   6
   0  11   4 9.60415 1.96125   2
  -1 -11  -4 -3.4023 3.49548   1
  -1 -11  -4 -4.0944 2.20054   7
   1  11   4 0.29948 1.11923   2
   1  11   4 0.54289 1.27646   3
   1  11   4 1.29668 1.37859   6
  -2 -11  -4 16.8017 5.62835   1
  -2 -11  -4 19.0653 4.80223   7
   2  11   4 24.6573 2.84534   2
   2  11   4 29.5593 3.17602   6
   3 -12  -4 -5.1798 3.87041   1
   3 -12  -4 -4.0504 2.47652   4
  -3  12   4 0.99204 1.44617   6
  -3  12   4 1.85743 1.75192   3
   2 -12  -4 -3.3328 2.10019   4
  -2  12   4 0.64189 1.40052   6
  -2  12   4 -0.3126 1.42660   3
   1 -12  -4 -6.6754 3.67491   1
   1 -12  -4 0.35134 1.94626   4
  -1  12   4 -1.3660 1.26581   3
  -1  12   4 -0.4135 1.37649   6
   0 -12  -4 -4.7601 3.71584   1
   0  12   4 -0.9123 1.35093   6
  -1 -12  -4 16.3981 4.65195   7
  -1 -12  -4 15.1454 5.66218   1
   1  12   4 23.6899 2.76188   2
   1  12   4 28.9619 3.21472   6
  -2 -12  -4 -5.2180 3.95830   1
   2  12   4 0.38292 1.42924   2
   2 -13  -4 7.16697 2.90378   4
   2 -13  -4 -2.1650 4.67286   1
  -2  13   4 7.90934 2.02850   6
   1 -13  -4 -1.9597 1.80084   4
  -1  13   4 -2.2615 1.36171   6
   0 -13  -4 -4.7999 4.39426   1
   0  13   4 2.23859 1.62991   6
   1  13  -5 -0.8722 1.60230   2
  -1 -13   5 8.37036 3.66259   1
   0  13  -5 14.2862 2.62323   2
   0  13  -5 11.2855 2.09819   6
  -1  13  -5 18.1563 2.72978   2
  -1  13  -5 12.3660 2.17396   6
  -1  13  -5 15.5959 2.51343   5
   1 -13   5 17.3709 2.53029   5
   1 -13   5 25.2499 3.44638   4
  -2  13  -5 2.82795 1.78896   6
  -2  13  -5 0.59507 1.31466   5
  -2  13  -5 2.01648 1.57575   2
   2 -13   5 3.68073 1.84600   4
   2 -13   5 3.59977 1.59706   5
   2  12  -5 22.2328 3.11803   2
   1  12  -5 9.51560 2.03127   5
   1  12  -5 5.72412 1.95304   2
   0  12  -5 55.8511 4.07142   2
   0  12  -5 50.9176 3.78193   5
   0  12  -5 56.1511 3.77753   6
   0 -12   5 58.6521 4.41362   4
   0 -12   5 53.2597 6.01391   1
  -1  12  -5 -0.2638 1.20764   2
  -1  12  -5 -0.1267 1.04971   5
  -1  12  -5 1.15513 1.38444   6
   1 -12   5 1.01869 1.60080   4
   1 -12   5 6.27533 2.69280   1
   1 -12   5 2.04472 1.35251   5
  -2  12  -5 -0.5211 1.22178   2
  -2  12  -5 -0.4925 1.33965   6
  -2  12  -5 -0.0168 1.24616   5
   2 -12   5 1.68547 1.28952   5
   2 -12   5 6.00903 2.11845   1
   2 -12   5 2.45508 1.73444   4
  -3  12  -5 2.10623 1.60587   6
  -3  12  -5 -0.0979 1.37121   2
   3 -12   5 1.49971 1.70439   4
   3 -12   5 1.75734 1.31289   5
   3  11  -5 18.6770 3.06486   2
  -2 -11   5 8.58845 3.56087   1
  -2 -11   5 10.7268 2.26682   4
   1  11  -5 5.08974 1.64852   5
   1  11  -5 4.99978 1.78277   2
  -1 -11   5 9.13001 2.09620   4
  -1 -11   5 10.9943 3.72634   1
   0  11  -5 3.57793 1.47059   5
   0  11  -5 3.31971 1.32652   6
   0  11  -5 7.00131 1.80439   2
   0 -11   5 4.52719 1.76068   4
   0 -11   5 9.51083 3.23514   1
  -1  11  -5 -0.7017 0.93810   5
  -1  11  -5 0.19210 1.17900   2
  -1  11  -5 -0.6529 1.13262   6
   1 -11   5 1.28726 2.01904   1
   1 -11   5 -0.6557 1.04197   5
   1 -11   5 1.01603 1.42200   4
  -2  11  -5 1.73015 1.30874   2
  -2  11  -5 0.82364 1.27091   6
  -2  11  -5 1.06811 1.18635   5
   2 -11   5 1.88774 1.64751   4
   2 -11   5 1.70727 1.17571   5
   2 -11   5 4.73322 2.19760   1
  -3  11  -5 2.06079 1.50713   6
  -3  11  -5 2.94965 1.45011   2
   3 -11   5 1.85462 1.69455   4
   3 -11   5 4.19001 1.48947   5
  -4  11  -5 -0.1262 1.53496   6
  -4  11  -5 -0.4824 1.43483   2
   4 -11   5 0.41988 1.20962   5
   4 -11   5 2.21629 1.76089   4
   3  10  -5 1.03949 1.67509   2
  -3 -10   5 7.86444 2.35107   7
   2  10  -5 1.48216 1.51590   2
   2  10  -5 -0.3267 1.23239   5
  -2 -10   5 4.97881 2.17363   7
  -2 -10   5 2.97448 2.90927   1
  -2 -10   5 3.27342 1.58829   4
   1  10  -5 3.86787 1.23185   6
   1  10  -5 8.13433 1.70431   5
   1  10  -5 4.24559 1.54696   2
  -1 -10   5 4.76316 3.03713   1
  -1 -10   5 6.58264 1.96219   4
   0  10  -5 25.2973 2.50487   5
   0  10  -5 23.4129 2.37625   6
   0  10  -5 27.0157 2.65487   2
   0 -10   5 25.7214 2.96279   4
   0 -10   5 25.7229 4.16913   1
  -1  10  -5 47.2936 3.28448   6
  -1  10  -5 53.2833 3.41075   5
  -1  10  -5 48.8291 3.38082   2
   1 -10   5 50.1617 3.74026   4
   1 -10   5 48.1690 4.83877   1
   1 -10   5 57.1525 3.47337   5
  -2  10  -5 25.1172 2.69638   2
  -2  10  -5 27.0062 2.68169   6
   2 -10   5 27.5886 2.53931   5
   2 -10   5 26.4826 3.52307   1
   2 -10   5 24.2402 2.99900   4
  -3  10  -5 0.49319 1.25011   2
  -3  10  -5 1.64519 1.26526   6
   3 -10   5 0.64975 1.04549   5
   3 -10   5 0.99627 1.51158   4
  -4  10  -5 0.56475 1.24657   2
  -4  10  -5 0.19274 1.38936   6
   4 -10   5 1.95329 1.64847   4
   4 -10   5 0.15532 1.16396   5
  -5  10  -5 16.1724 2.47233   2
   5 -10   5 17.2661 2.69399   5
  -4  -9   5 6.98329 2.50330   7
   3   9  -5 1.82311 1.55294   2
   3   9  -5 3.02766 1.48443   5
  -3  -9   5 10.4009 3.42372   1
  -3  -9   5 7.43632 2.39378   7
   2   9  -5 1.22992 1.40861   2
   2   9  -5 1.03883 1.22617   5
  -2  -9   5 4.10662 2.03926   7
  -2  -9   5 3.35664 1.66375   4
  -2  -9   5 4.53527 3.02989   1
   1   9  -5 1.99280 1.11408   5
   1   9  -5 -0.0305 1.01192   2
   1   9  -5 0.06153 0.86593   6
  -1  -9   5 2.01466 1.66164   7
  -1  -9   5 1.20060 1.38452   4
  -1  -9   5 0.21590 2.28412   1
   0   9  -5 4.43522 1.11604   6
   0   9  -5 4.02836 1.22060   5
   0   9  -5 3.13589 1.19973   2
   0  -9   5 4.45496 1.25826   5
   0  -9   5 6.04034 2.66548   1
   0  -9   5 5.23387 1.72666   4
  -1   9  -5 36.7235 2.72377   5
  -1   9  -5 34.6200 2.67476   6
  -1   9  -5 34.9704 2.72310   2
   1  -9   5 33.1745 3.98002   1
   1  -9   5 38.2239 3.16585   4
   1  -9   5 44.6274 2.84933   5
  -2   9  -5 20.8814 2.34584   6
  -2   9  -5 17.6685 2.25425   2
   2  -9   5 19.5178 2.56798   4
   2  -9   5 21.5161 3.02552   1
   2  -9   5 22.5190 2.20267   5
  -3   9  -5 10.3648 1.82923   2
  -3   9  -5 7.23412 1.62152   6
   3  -9   5 9.57251 2.10223   4
   3  -9   5 9.79340 1.85520   5
  -4   9  -5 4.78660 1.52352   2
  -4   9  -5 1.33447 1.34529   6
  -4   9  -5 3.24732 1.96327   3
   4  -9   5 3.12639 1.33568   2
   4  -9   5 2.99287 1.43089   5
   4  -9   5 3.75802 1.74919   4
  -5   9  -5 16.3139 2.60372   3
  -5   9  -5 12.6700 2.31296   2
  -5   9  -5 10.5171 2.24656   6
   5  -9   5 11.0471 2.45066   4
   5  -9   5 16.8765 2.52438   5
   5  -9   5 14.3472 2.35370   2
  -4  -8   5 7.43205 2.55753   7
   3   8  -5 25.8087 2.81506   5
   3   8  -5 27.7095 2.93737   2
   3   8  -5 33.5946 3.50320   4
  -3  -8   5 35.1840 4.15073   7
  -3  -8   5 32.5165 3.26445   4
  -3  -8   5 37.0002 4.83110   1
   2   8  -5 66.2921 3.90055   5
   2   8  -5 68.5863 3.94136   2
  -2  -8   5 66.3263 4.99779   7
  -2  -8   5 59.1559 5.67418   1
  -2  -8   5 76.0861 4.45539   4
   1   8  -5 7.65692 1.16125   6
   1   8  -5 8.97260 1.50399   5
   1   8  -5 7.43283 1.53577   2
  -1  -8   5 8.66978 3.10406   1
  -1  -8   5 8.54709 2.08653   7
  -1  -8   5 10.2774 2.02898   4
   0   8  -5 14.3159 1.56030   6
   0   8  -5 13.6103 1.67454   5
   0   8  -5 12.7713 1.77578   2
   0  -8   5 14.7892 2.27339   4
   0  -8   5 14.4022 1.73729   5
   0  -8   5 14.4784 1.75816   7
   0  -8   5 14.1025 3.36503   1
  -1   8  -5 1.05302 0.75285   5
  -1   8  -5 0.07713 0.83745   6
  -1   8  -5 -0.3717 0.74750   2
   1  -8   5 1.39656 1.87985   1
   1  -8   5 0.37305 0.78657   5
   1  -8   5 -1.3183 0.96069   4
  -2   8  -5 -0.1843 0.90536   2
  -2   8  -5 -0.8338 0.92831   6
   2  -8   5 1.51923 1.34070   4
   2  -8   5 1.86654 1.55751   1
   2  -8   5 1.01580 0.99485   5
  -3   8  -5 98.1570 4.90407   6
  -3   8  -5 102.966 4.82022   2
  -3   8  -5 93.5113 4.54568   3
   3  -8   5 92.2321 5.12274   4
   3  -8   5 98.8436 4.83707   5
   3  -8   5 99.0581 4.68672   2
  -4   8  -5 3.67186 1.47293   2
  -4   8  -5 2.59563 1.40967   6
  -4   8  -5 1.91086 1.29579   3
   4  -8   5 1.60760 1.13711   2
   4  -8   5 2.42583 1.37008   5
   4  -8   5 3.62067 1.69331   4
  -5   8  -5 3.76640 1.61967   2
  -5   8  -5 2.63956 1.62960   3
  -5   8  -5 4.86365 1.69891   6
   5  -8   5 4.01877 1.62979   2
   5  -8   5 3.56130 1.58728   5
   5  -8   5 3.82879 1.63980   4
   4   7  -5 3.37249 1.53315   5
   4   7  -5 2.75984 1.63290   2
  -4  -7   5 6.95534 2.47811   7
   3   7  -5 28.5309 2.72626   5
   3   7  -5 29.1806 2.69629   4
   3   7  -5 26.3461 2.65366   2
  -3  -7   5 27.8678 3.80604   7
  -3  -7   5 32.9706 4.50864   1
  -3  -7   5 29.5405 2.86169   4
   2   7  -5 31.3901 2.49954   5
   2   7  -5 33.4517 2.58473   2
  -2  -7   5 27.3840 4.02953   1
  -2  -7   5 29.1378 3.53689   7
  -2  -7   5 31.5533 2.80527   4
   1   7  -5 99.7413 3.98447   6
   1   7  -5 104.787 4.59156   5
   1   7  -5 101.463 4.54437   2
  -1  -7   5 94.6452 5.16625   7
  -1  -7   5 91.9856 6.31795   1
  -1  -7   5 108.477 5.08954   4
   0   7  -5 16.1503 1.68512   2
   0   7  -5 19.1736 1.56080   6
   0   7  -5 17.9922 1.67310   5
   0  -7   5 14.8857 2.87649   1
   0  -7   5 19.0114 1.73707   5
   0  -7   5 15.7621 1.67048   7
   0  -7   5 16.4753 2.06142   4
  -1   7  -5 13.9663 1.63729   2
  -1   7  -5 14.9768 1.54527   5
  -1   7  -5 15.2413 1.57936   6
   1  -7   5 15.3013 1.95416   4
   1  -7   5 14.8916 1.58375   5
   1  -7   5 13.1801 2.67270   1
  -2   7  -5 75.5179 3.68994   6
  -2   7  -5 69.9475 3.61294   2
  -2   7  -5 73.0703 3.30886   3
   2  -7   5 70.9826 4.35960   1
   2  -7   5 69.3278 4.05618   4
   2  -7   5 73.3185 3.67585   5
  -3   7  -5 0.10256 0.98591   6
  -3   7  -5 -0.6513 1.01071   3
  -3   7  -5 -0.2278 0.89672   2
   3  -7   5 0.13358 1.24852   4
   3  -7   5 -0.7067 0.83203   5
   3  -7   5 1.19781 0.86588   2
  -4   7  -5 1.49483 1.22469   3
  -4   7  -5 3.76245 1.42203   2
  -4   7  -5 1.10572 1.19397   6
   4  -7   5 1.55026 1.20200   2
   4  -7   5 2.92699 1.25067   5
   4  -7   5 1.69891 1.51907   4
  -5   7  -5 2.17145 1.51392   6
  -5   7  -5 1.88954 1.48477   3
  -5   7  -5 3.70570 1.61567   2
   5  -7   5 3.19794 1.59753   5
   5  -7   5 1.51734 1.47472   2
   5  -7   5 4.29937 1.54852   4
   5   6  -5 4.19128 1.81083   2
   5   6  -5 2.18622 1.66489   5
  -5  -6   5 8.62201 2.46070   7
   4   6  -5 0.24903 1.28356   2
  -4  -6   5 3.83938 2.15797   7
  -4  -6   5 5.60230 2.70342   1
   3   6  -5 85.7813 4.48537   5
   3   6  -5 95.2063 4.51040   2
   3   6  -5 87.9045 4.63987   4
  -3  -6   5 77.1708 5.70231   7
  -3  -6   5 85.6107 6.50013   1
  -3  -6   5 88.6380 4.73685   4
   2   6  -5 27.6625 1.67948   6
   2   6  -5 22.2612 1.97035   2
   2   6  -5 20.3335 1.96925   5
  -2  -6   5 20.0709 2.86315   7
  -2  -6   5 18.9006 3.26279   1
  -2  -6   5 20.4857 2.24006   4
   1   6  -5 17.0702 1.27953   6
   1   6  -5 19.1873 1.67617   5
   1   6  -5 19.6979 1.71696   2
  -1  -6   5 14.4187 2.60495   1
  -1  -6   5 17.9409 1.97610   4
  -1  -6   5 17.9972 2.22188   7
   0   6  -5 25.5381 1.83149   2
   0   6  -5 26.9215 1.86335   5
   0   6  -5 24.6041 1.55751   6
   0  -6   5 21.0519 2.78922   1
   0  -6   5 22.2130 2.05135   4
   0  -6   5 21.6512 1.76116   5
   0  -6   5 21.1718 1.82764   7
  -1   6  -5 8.31074 1.27636   2
  -1   6  -5 6.62136 0.98442   6
  -1   6  -5 9.15946 0.83757   3
   1  -6   5 9.50767 1.19366   5
   1  -6   5 10.1422 1.64357   4
   1  -6   5 9.59888 2.09333   1
  -2   6  -5 38.9360 2.24224   3
  -2   6  -5 39.2619 2.41017   6
  -2   6  -5 37.2181 2.41342   2
   2  -6   5 37.9150 2.32336   2
   2  -6   5 37.3939 2.89144   1
   2  -6   5 41.3052 2.48241   5
   2  -6   5 38.0756 2.75544   4
  -3   6  -5 132.201 5.48292   2
  -3   6  -5 120.571 5.35037   3
   3  -6   5 127.782 5.47829   5
   3  -6   5 122.864 5.74283   4
   3  -6   5 129.216 5.42393   2
  -4   6  -5 -0.2506 1.02988   6
  -4   6  -5 -0.5532 1.06539   3
  -4   6  -5 -0.1227 0.99112   2
   4  -6   5 0.23437 1.04131   5
   4  -6   5 0.95110 1.17910   4
   4  -6   5 -0.2396 0.95762   2
  -5   6  -5 -0.6887 1.25893   6
  -5   6  -5 1.19184 1.25900   3
  -5   6  -5 -0.4518 1.12932   2
   5  -6   5 0.16573 1.22390   2
   5  -6   5 -0.8749 1.06827   5
  -6   6  -5 1.44512 1.65548   3
  -6   6  -5 5.02183 1.85042   2
  -6   6  -5 1.72277 1.79801   6
   6  -6   5 4.88746 1.82946   5
   6  -6   5 2.33350 1.72845   2
   5   5  -5 1.09602 1.34701   2
  -5  -5   5 6.67677 2.34642   7
   4   5  -5 7.30362 1.67292   2
   4   5  -5 5.06907 1.52913   5
  -4  -5   5 8.32590 2.55088   7
  -4  -5   5 12.0675 3.39851   1
   3   5  -5 3.07610 1.16913   5
   3   5  -5 4.33840 1.17324   2
   3   5  -5 3.82268 1.28618   4
  -3  -5   5 3.24403 1.35841   4
  -3  -5   5 2.45171 2.24567   1
  -3  -5   5 1.32944 1.62113   7
   2   5  -5 3.26042 0.90744   5
   2   5  -5 3.33981 0.54126   6
   2   5  -5 4.02324 0.93728   2
  -2  -5   5 1.65598 1.84789   1
  -2  -5   5 3.65005 0.72531   3
  -2  -5   5 6.09541 1.40439   4
  -2  -5   5 1.24420 1.27410   7
   1   5  -5 2.12989 0.71722   5
   1   5  -5 1.63159 0.65393   2
   1   5  -5 2.26621 0.49574   6
  -1  -5   5 2.33825 1.25324   7
  -1  -5   5 0.56931 1.22717   1
  -1  -5   5 1.72309 0.90442   4
   0   5  -5 2.61055 0.73912   5
   0   5  -5 2.29061 0.52765   6
   0   5  -5 1.67870 0.65720   2
   0  -5   5 1.44087 1.31812   1
   0  -5   5 2.03398 0.72879   5
   0  -5   5 1.81007 0.75208   7
   0  -5   5 2.33615 0.86870   4
  -1   5  -5 213.270 7.21496   3
  -1   5  -5 213.347 7.61787   6
  -1   5  -5 231.575 7.85800   2
   1  -5   5 222.876 8.93011   1
   1  -5   5 226.229 8.25944   4
   1  -5   5 223.758 7.86561   5
  -2   5  -5 184.912 6.53628   3
  -2   5  -5 184.855 6.81384   2
   2  -5   5 179.778 7.37218   1
   2  -5   5 182.699 6.78009   2
   2  -5   5 180.029 6.80236   5
   2  -5   5 183.559 7.09268   4
  -3   5  -5 6.14855 1.26416   2
  -3   5  -5 3.22281 0.98524   6
  -3   5  -5 4.22266 1.16697   3
   3  -5   5 5.22717 1.46825   4
   3  -5   5 4.17089 1.14849   5
   3  -5   5 4.04565 0.99010   2
  -4   5  -5 34.8074 2.91122   3
  -4   5  -5 30.4172 2.58498   6
   4  -5   5 28.8637 2.54321   4
   4  -5   5 31.2060 2.58335   2
   4  -5   5 31.3662 2.56997   5
  -5   5  -5 1.17832 1.34812   3
  -5   5  -5 0.78641 1.24186   6
   5  -5   5 1.24634 1.20435   5
   5  -5   5 -0.8095 1.23470   2
  -6   5  -5 1.13940 1.57521   6
  -6   5  -5 3.00811 1.91506   3
   6  -5   5 4.01110 1.74797   5
   6  -5   5 2.85892 1.79757   2
   5   4  -5 -0.2387 1.18040   2
   5   4  -5 1.23493 1.41031   5
  -5  -4   5 4.58506 2.24773   7
   4   4  -5 0.49313 1.08512   5
   4   4  -5 -0.1183 0.91937   4
   4   4  -5 0.61726 1.03606   2
  -4  -4   5 4.57024 2.54208   1
  -4  -4   5 1.14425 1.78724   7
  -4  -4   5 0.37661 1.23906   3
   3   4  -5 5.62636 1.35707   4
   3   4  -5 6.94547 1.21770   2
   3   4  -5 6.02510 1.27687   5
  -3  -4   5 4.88247 1.40621   4
  -3  -4   5 5.05785 2.45628   1
  -3  -4   5 3.22789 0.90851   3
  -3  -4   5 2.31175 1.54064   7
   2   4  -5 2.15205 0.69259   2
   2   4  -5 1.86930 0.83815   4
   2   4  -5 1.82714 0.67950   5
   2   4  -5 0.82773 0.28434   6
  -2  -4   5 0.71815 1.23018   1
  -2  -4   5 1.24737 0.87765   4
  -2  -4   5 2.29750 0.54012   3
  -2  -4   5 0.56298 1.04489   7
   1   4  -5 35.8233 1.97252   2
   1   4  -5 35.3018 1.51105   6
   1   4  -5 34.1582 2.06839   5
  -1  -4   5 37.8297 2.63342   7
  -1  -4   5 39.1872 3.22842   1
  -1  -4   5 32.5507 2.26977   4
   0   4  -5 10.8623 0.85302   6
   0   4  -5 9.54253 1.06762   5
   0   4  -5 9.63370 1.04127   2
   0  -4   5 10.1634 1.14270   5
   0  -4   5 10.6634 1.17233   7
   0  -4   5 10.7584 1.28589   4
   0  -4   5 9.73254 1.70138   1
  -1   4  -5 718.296 22.9741   3
  -1   4  -5 736.240 23.4633   2
  -1   4  -5 751.699 23.3561   6
   1  -4   5 747.197 23.5503   5
   1  -4   5 763.433 24.6894   1
   1  -4   5 777.546 23.9250   4
   1  -4   5 739.153 23.4622   2
  -2   4  -5 954.610 29.5855   2
  -2   4  -5 932.269 29.2948   3
   2  -4   5 950.395 29.6067   5
   2  -4   5 933.843 29.5910   2
   2  -4   5 923.555 30.0266   1
   2  -4   5 965.517 29.7727   4
  -3   4  -5 38.5178 2.54516   3
  -3   4  -5 43.2554 2.52503   6
   3  -4   5 40.4834 2.46904   2
   3  -4   5 39.6905 2.60326   4
   3  -4   5 41.5340 2.50559   5
  -4   4  -5 4.18079 1.39799   3
  -4   4  -5 2.40991 1.12303   6
   4  -4   5 3.96216 1.23350   4
   4  -4   5 4.77634 1.33768   5
   4  -4   5 3.54222 1.15434   2
  -5   4  -5 25.7696 3.14893   3
  -5   4  -5 33.8781 3.13640   6
   5  -4   5 33.2235 2.98314   5
   5  -4   5 34.9624 3.14758   2
  -6   4  -5 6.46035 2.24652   3
  -6   4  -5 9.25036 2.23751   6
   6  -4   5 11.7180 2.41343   2
   6  -4   5 12.7989 2.45536   5
   6   3  -5 0.40253 1.69127   5
   5   3  -5 3.39907 1.39717   2
   5   3  -5 3.56056 1.60387   5
  -5  -3   5 5.20414 1.58309   3
  -5  -3   5 5.75887 2.37738   7
   4   3  -5 7.85052 1.62354   4
   4   3  -5 7.30059 1.52610   5
   4   3  -5 7.65139 1.46074   2
  -4  -3   5 7.79187 1.52440   3
  -4  -3   5 5.42469 2.29534   7
  -4  -3   5 7.30084 2.72794   1
   3   3  -5 35.2149 2.49678   4
   3   3  -5 34.9199 2.39451   5
   3   3  -5 34.8018 2.16890   2
  -3  -3   5 33.4616 3.68931   1
  -3  -3   5 34.5178 2.13283   3
  -3  -3   5 27.2513 3.17725   7
   2   3  -5 3.78807 0.81254   2
   2   3  -5 4.58235 0.95636   5
   2   3  -5 4.05224 1.06006   4
  -2  -3   5 3.24661 1.54618   1
  -2  -3   5 3.17444 1.46934   7
  -2  -3   5 4.32786 1.12636   4
  -2  -3   5 3.29815 0.66292   3
   1   3  -5 548.118 16.9214   2
   1   3  -5 531.421 17.2211   5
   1   3  -5 521.003 16.3124   6
  -1  -3   5 563.589 18.1810   7
  -1  -3   5 532.725 18.8186   1
  -1  -3   5 544.469 17.6339   4
  -1  -3   5 508.101 16.4272   3
   0   3  -5 21.0969 1.41836   5
   0   3  -5 22.4843 1.36177   2
   0   3  -5 23.8935 1.17341   6
   0  -3   5 21.8341 1.45987   5
   0  -3   5 21.9515 0.98745   3
   0  -3   5 22.0787 1.61230   7
   0  -3   5 22.0456 2.17042   1
   0  -3   5 22.5041 1.67612   4
  -1   3  -5 735.785 23.4578   2
  -1   3  -5 759.701 23.3552   6
  -1   3  -5 749.310 23.1289   3
   1  -3   5 718.133 23.5461   7
   1  -3   5 757.516 23.5132   2
   1  -3   5 761.914 24.5567   1
   1  -3   5 768.836 23.5665   5
   1  -3   5 763.616 23.8286   4
  -2   3  -5 109.501 4.33698   6
  -2   3  -5 109.566 4.31796   7
  -2   3  -5 112.326 4.27651   3
   2  -3   5 107.918 4.46053   4
   2  -3   5 112.126 4.40955   5
   2  -3   5 109.916 4.27557   6
   2  -3   5 102.974 4.57958   1
   2  -3   5 113.665 4.41591   2
  -3   3  -5 1.63012 0.75989   6
  -3   3  -5 0.21585 1.11567   7
  -3   3  -5 3.04208 0.98349   3
   3  -3   5 0.86248 0.65645   5
   3  -3   5 -0.0777 0.51302   2
   3  -3   5 2.00028 0.70483   6
   3  -3   5 1.50824 0.80191   4
  -4   3  -5 27.7952 2.69886   3
  -4   3  -5 33.8232 3.33714   7
  -4   3  -5 30.8079 2.43360   6
   4  -3   5 31.8347 2.42243   2
   4  -3   5 29.2712 2.13189   4
   4  -3   5 32.1344 2.46788   5
   4  -3   5 30.9120 2.28115   6
  -5   3  -5 6.92011 1.55116   6
  -5   3  -5 5.91095 1.80270   3
   5  -3   5 8.99338 1.88725   5
   5  -3   5 8.05167 1.83793   2
  -6   3  -5 -3.5185 1.17345   6
  -6   3  -5 -1.6788 1.65809   3
   6  -3   5 -0.9878 1.48160   2
   6  -3   5 -0.1758 1.46952   5
   6   2  -5 -1.7086 1.45417   5
  -6  -2   5 1.76794 1.44837   3
   5   2  -5 8.60070 1.93383   5
   5   2  -5 7.68219 1.60111   2
  -5  -2   5 11.3944 2.92851   7
  -5  -2   5 7.73396 1.76932   3
   4   2  -5 1.88773 0.97326   2
   4   2  -5 2.86479 1.12692   4
   4   2  -5 4.36702 1.27817   5
  -4  -2   5 1.08085 1.59041   7
  -4  -2   5 3.66249 2.07499   1
  -4  -2   5 1.47494 1.14839   3
   3   2  -5 1.56681 0.85550   4
   3   2  -5 2.19498 0.75052   2
   3   2  -5 2.13406 0.82390   5
  -3  -2   5 1.04300 1.48183   1
  -3  -2   5 1.94650 0.78496   3
  -3  -2   5 -0.1423 0.98129   7
   2   2  -5 646.134 20.5941   4
   2   2  -5 632.792 19.7205   2
   2   2  -5 628.377 20.1858   5
  -2  -2   5 658.218 19.7319   3
  -2  -2   5 580.012 20.4347   4
  -2  -2   5 622.599 21.4158   7
  -2  -2   5 633.076 21.9038   1
   1   2  -5 530.688 17.3443   4
   1   2  -5 537.444 16.5774   2
   1   2  -5 525.743 16.9478   5
  -1  -2   5 521.274 18.4178   1
  -1  -2   5 509.327 17.2947   4
  -1  -2   5 565.087 17.9402   7
  -1  -2   5 522.054 16.4200   3
   0   2  -5 123.812 4.62663   5
   0   2  -5 125.966 4.44348   2
   0   2  -5 129.064 4.25934   6
   0  -2   5 125.681 5.66397   1
   0  -2   5 128.044 4.95661   4
   0  -2   5 124.598 4.24697   3
   0  -2   5 126.685 5.07969   7
   0  -2   5 130.601 4.67538   5
  -1   2  -5 576.073 17.8174   6
  -1   2  -5 555.826 17.8809   2
  -1   2  -5 562.333 17.6828   3
   1  -2   5 580.484 17.9450   2
   1  -2   5 577.315 17.8174   6
   1  -2   5 558.451 18.2494   7
   1  -2   5 575.109 18.1872   4
   1  -2   5 567.939 17.7149   3
   1  -2   5 586.005 17.9803   5
   1  -2   5 553.268 18.7948   1
  -2   2  -5 27.2236 1.69739   6
  -2   2  -5 28.4984 1.88335   7
  -2   2  -5 25.8137 1.62822   3
  -2   2  -5 26.1656 1.75643   1
   2  -2   5 25.1890 1.59021   6
   2  -2   5 21.7717 1.73295   1
   2  -2   5 27.2097 1.66206   2
   2  -2   5 27.2201 1.69112   4
   2  -2   5 25.9909 1.63237   5
  -3   2  -5 29.7537 2.68351   7
  -3   2  -5 27.2301 1.93711   6
  -3   2  -5 25.4546 2.03071   3
   3  -2   5 29.3180 1.91481   6
   3  -2   5 26.6616 1.93970   2
   3  -2   5 29.1541 1.95954   5
   3  -2   5 26.3853 1.75854   4
  -4   2  -5 6.68574 1.40858   6
  -4   2  -5 7.36186 2.31276   7
  -4   2  -5 5.64566 1.47168   3
   4  -2   5 7.71975 1.42934   6
   4  -2   5 10.2845 1.72322   5
   4  -2   5 6.12439 1.38400   2
  -5   2  -5 1.58711 1.25531   6
  -5   2  -5 0.17256 1.30172   3
  -5   2  -5 3.11146 2.46447   7
   5  -2   5 1.48090 1.30590   5
   5  -2   5 0.09364 1.04720   6
   5  -2   5 1.60780 1.37829   2
  -6   2  -5 1.54840 2.00677   3
  -6   2  -5 3.17249 1.65806   6
   6  -2   5 3.76374 2.01006   2
   6  -2   5 6.71035 1.96720   5
  -6  -1   5 3.75616 1.62262   3
   5   1  -5 -1.2230 1.18020   5
   5   1  -5 0.23656 0.97001   2
   5   1  -5 0.38274 1.11503   4
  -5  -1   5 4.19931 2.36717   7
  -5  -1   5 -1.1090 1.22094   3
   4   1  -5 68.3521 3.35077   2
   4   1  -5 72.6487 3.86754   4
   4   1  -5 68.6133 3.81728   5
  -4  -1   5 65.1499 3.77002   3
  -4  -1   5 73.2056 5.12373   1
  -4  -1   5 58.1385 4.94911   7
   3   1  -5 2.67250 0.99702   4
   3   1  -5 2.16068 0.84562   5
   3   1  -5 3.00225 0.77771   2
  -3  -1   5 2.99474 1.41641   7
  -3  -1   5 2.80646 1.59273   1
  -3  -1   5 3.08884 0.95176   3
   2   1  -5 245.283 8.62722   5
   2   1  -5 252.512 9.04145   4
   2   1  -5 245.914 8.12736   2
  -2  -1   5 237.947 10.0099   1
  -2  -1   5 259.310 8.40578   3
   1   1  -5 11.4377 1.19854   4
   1   1  -5 10.4462 0.96259   5
   1   1  -5 11.5590 0.76902   2
  -1  -1   5 10.3191 1.44986   7
  -1  -1   5 8.31527 1.54304   1
  -1  -1   5 10.9723 1.19865   4
  -1  -1   5 11.4696 0.88276   3
   0   1  -5 358.203 11.2322   6
   0   1  -5 356.979 11.5676   5
   0   1  -5 352.918 11.3584   2
   0   1  -5 355.397 11.9649   4
   0  -1   5 363.807 11.4002   3
   0  -1   5 361.982 12.2515   7
   0  -1   5 369.971 12.0061   4
   0  -1   5 361.447 11.5763   5
   0  -1   5 362.730 11.3654   2
   0  -1   5 355.055 12.7667   1
   0  -1   5 369.998 11.2672   6
  -1   1  -5 164.209 5.76932   6
  -1   1  -5 169.993 6.29561   7
  -1   1  -5 164.802 5.75176   3
   1  -1   5 164.812 6.66448   1
   1  -1   5 171.518 6.41221   7
   1  -1   5 177.515 5.84032   6
   1  -1   5 171.314 5.81798   3
   1  -1   5 173.612 5.88425   2
   1  -1   5 168.911 6.04111   4
   1  -1   5 175.102 5.86451   5
  -2   1  -5 118.152 4.49388   3
  -2   1  -5 110.204 4.41762   6
  -2   1  -5 118.764 4.77335   1
  -2   1  -5 120.219 4.96001   7
   2  -1   5 113.834 4.33522   4
   2  -1   5 120.062 4.44911   5
   2  -1   5 121.106 4.55471   2
   2  -1   5 114.590 4.45365   6
  -3   1  -5 62.3427 3.03771   6
  -3   1  -5 61.4228 3.13954   3
  -3   1  -5 64.4387 3.88896   7
   3  -1   5 55.9192 2.57928   4
   3  -1   5 59.6088 2.97039   5
   3  -1   5 60.6319 2.99827   6
   3  -1   5 61.9000 3.09494   2
  -4   1  -5 10.1309 1.76261   3
  -4   1  -5 10.4849 2.66130   7
  -4   1  -5 7.78864 1.50404   6
   4  -1   5 10.8566 1.78974   2
   4  -1   5 11.5622 1.63919   6
   4  -1   5 13.2824 1.84808   5
  -5   1  -5 6.10859 1.57168   6
  -5   1  -5 3.09744 2.51449   7
  -5   1  -5 3.08084 1.66352   3
   5  -1   5 7.49266 1.89977   2
   5  -1   5 5.69117 1.51196   6
   5  -1   5 6.65579 1.80979   5
  -6   1  -5 11.0626 2.68979   3
  -6   1  -5 13.9589 2.33640   6
   6  -1   5 14.2795 2.58678   5
   6  -1   5 16.5008 2.75610   2
   6  -1   5 10.9461 2.10222   6
   5   0  -5 18.1900 2.52725   5
   5   0  -5 15.6840 2.27822   4
  -5   0   5 24.0373 3.97241   7
  -5   0   5 13.2784 2.15043   3
   4   0  -5 -0.4265 0.80347   5
   4   0  -5 -0.5494 0.62744   2
   4   0  -5 0.02521 0.86328   4
  -4   0   5 0.03341 1.45816   7
  -4   0   5 0.55955 1.08953   3
  -4   0   5 -1.1567 1.52543   1
   3   0  -5 84.3281 4.11195   4
   3   0  -5 80.2358 3.78384   5
   3   0  -5 85.6451 3.31703   2
  -3   0   5 74.1242 2.82595   6
  -3   0   5 86.7059 5.02770   1
  -3   0   5 90.8990 3.90003   3
  -3   0   5 78.0866 4.96284   7
   2   0  -5 405.585 12.8704   5
   2   0  -5 382.847 13.2680   4
   2   0  -5 391.731 12.2003   2
  -2   0   5 400.449 12.7361   3
  -2   0   5 367.183 14.1413   1
   1   0  -5 184.792 5.88785   2
   1   0  -5 188.941 6.38595   5
   1   0  -5 182.600 6.81304   4
  -1   0   5 171.716 5.79066   6
  -1   0   5 196.528 7.38442   7
  -1   0   5 187.163 7.70794   1
  -1   0   5 184.650 6.30127   3
   0   0  -5 54.8767 2.55006   4
   0   0  -5 52.7167 2.17036   5
   0   0  -5 52.1920 2.02695   2
   0   0   5 50.5396 2.49074   4
   0   0   5 55.3987 2.05253   2
   0   0   5 53.1779 2.16447   5
   0   0   5 54.2455 2.87402   7
   0   0   5 53.2875 3.17028   1
   0   0   5 52.3731 2.05735   6
   0   0   5 52.4582 2.23861   3
  -1   0  -5 0.53838 0.56428   1
  -1   0  -5 0.46850 0.51697   7
  -1   0  -5 -0.1539 0.31375   4
   1   0   5 0.34378 0.35474   6
   1   0   5 0.72451 0.64610   7
   1   0   5 0.12917 0.34132   4
   1   0   5 0.19442 0.31722   2
   1   0   5 0.36890 0.41084   3
   1   0   5 0.38552 0.28224   5
   1   0   5 -0.0731 0.54893   1
  -2   0  -5 0.51208 0.54371   1
  -2   0  -5 0.77762 0.76631   7
  -2   0  -5 0.03123 0.35707   3
   2   0   5 0.56467 0.36692   4
   2   0   5 0.72766 0.41542   5
   2   0   5 0.11280 0.44919   3
   2   0   5 0.71837 0.44512   6
   2   0   5 0.17558 0.40245   2
  -3   0  -5 22.8090 1.86475   3
  -3   0  -5 19.8480 1.68087   6
  -3   0  -5 21.9845 2.65374   7
   3   0   5 19.4522 1.64039   6
   3   0   5 20.2947 1.71240   2
   3   0   5 21.2496 1.68254   5
  -4   0  -5 47.1886 4.47836   7
  -4   0  -5 47.6620 3.30543   3
  -4   0  -5 49.4227 3.08759   6
   4   0   5 47.3308 3.00243   6
   4   0   5 45.8548 3.04967   2
   4   0   5 50.0131 3.00054   5
  -5   0  -5 12.5494 2.10450   6
  -5   0  -5 10.0045 3.30784   7
  -5   0  -5 6.27547 1.97275   3
   5   0   5 14.5580 2.34459   2
   5   0   5 12.5508 2.01502   6
   5   0   5 13.2629 2.21496   5
  -6   0  -5 12.2776 3.63320   7
  -6   0  -5 11.8767 2.18102   6
  -6   0  -5 5.78132 2.35026   3
   6   0   5 11.6872 2.34119   5
   6   0   5 12.2854 2.41843   2
   6   0   5 10.5266 2.09321   6
  -6   1   5 4.01698 1.72999   3
  -6   1   5 10.4901 2.96900   7
   5  -1  -5 3.89781 1.50518   5
   5  -1  -5 5.36652 1.65865   4
  -5   1   5 9.33604 3.07410   7
  -5   1   5 5.08078 1.74831   3
   4  -1  -5 -0.6300 0.83128   5
   4  -1  -5 0.27140 0.95525   4
   4  -1  -5 0.31100 0.58942   2
  -4   1   5 0.12402 1.11388   3
  -4   1   5 0.22887 1.58572   1
  -4   1   5 -1.2703 1.43680   7
   3  -1  -5 22.9254 1.35454   2
   3  -1  -5 22.2958 2.01122   4
   3  -1  -5 24.7312 1.85062   5
  -3   1   5 23.9213 1.99348   3
  -3   1   5 24.5066 2.74779   7
  -3   1   5 25.7182 2.85348   1
  -3   1   5 23.9539 1.24347   6
   2  -1  -5 604.991 19.4606   5
   2  -1  -5 602.247 18.7601   2
   2  -1  -5 620.793 20.0597   4
  -2   1   5 617.748 21.1298   1
  -2   1   5 613.598 20.8515   7
  -2   1   5 640.145 19.6002   3
  -2   1   5 599.318 18.7852   6
   1  -1  -5 138.110 4.86119   5
   1  -1  -5 137.930 6.22936   1
   1  -1  -5 140.222 5.42125   4
  -1   1   5 137.526 6.27999   1
  -1   1   5 141.770 5.92158   7
  -1   1   5 134.907 4.55445   6
  -1   1   5 136.951 4.99967   3
   0  -1  -5 479.995 16.6328   1
   0  -1  -5 481.952 15.0863   5
   0  -1  -5 486.102 15.6367   4
   0   1   5 484.925 14.9574   2
   0   1   5 479.802 16.6840   1
   0   1   5 497.825 16.2787   7
   0   1   5 488.375 15.3966   3
   0   1   5 483.678 15.1509   6
  -1  -1  -5 58.4144 3.29867   1
  -1  -1  -5 60.5283 2.59643   4
  -1  -1  -5 62.4577 3.18720   7
   1   1   5 63.7316 3.40056   7
   1   1   5 64.0532 2.75514   3
   1   1   5 65.2390 2.64303   4
   1   1   5 64.0125 2.39471   5
   1   1   5 62.6788 2.57093   2
   1   1   5 61.6407 2.63838   6
  -2  -1  -5 0.67402 0.71730   1
  -2  -1  -5 0.80950 0.30770   4
  -2  -1  -5 1.70781 0.97066   7
  -2  -1  -5 0.30058 0.46886   3
   2   1   5 0.64427 0.39696   5
   2   1   5 0.56057 0.44795   6
   2   1   5 0.65177 0.48908   2
   2   1   5 -0.1550 0.46440   3
   2   1   5 0.53114 0.30128   4
  -3  -1  -5 37.8776 2.43669   3
  -3  -1  -5 40.6344 3.55241   7
  -3  -1  -5 37.5033 2.88100   1
   3   1   5 38.3900 2.18705   5
   3   1   5 41.0276 2.38512   6
   3   1   5 36.3271 2.33021   2
  -4  -1  -5 20.7375 2.48186   3
  -4  -1  -5 18.6100 3.46949   7
  -4  -1  -5 24.4110 2.30193   6
   4   1   5 20.9753 2.14393   5
   4   1   5 20.1748 2.18307   6
   4   1   5 20.9542 2.24672   2
  -5  -1  -5 1.88355 2.73584   7
  -5  -1  -5 8.51129 1.72742   6
  -5  -1  -5 5.19274 2.01023   3
   5   1   5 8.24522 1.93536   2
   5   1   5 6.26138 1.66534   5
   5   1   5 6.76012 1.65145   6
  -6  -1  -5 1.60121 2.82325   7
  -6  -1  -5 -1.0480 1.86635   3
  -6  -1  -5 3.20347 1.64112   6
   6   1   5 2.11972 1.66975   2
   6   1   5 0.61973 1.53778   5
   6   1   5 1.09671 1.40648   6
   6  -2  -5 8.75087 2.34263   5
  -6   2   5 11.6428 2.39687   3
   5  -2  -5 5.88082 1.72948   5
   5  -2  -5 5.00207 1.79216   4
  -5   2   5 6.91255 1.90593   3
  -5   2   5 10.8679 3.44552   7
   4  -2  -5 79.5545 4.12412   5
   4  -2  -5 79.1937 4.88554   1
   4  -2  -5 75.4297 4.31770   4
  -4   2   5 74.5495 4.26249   3
  -4   2   5 81.9969 5.32884   1
  -4   2   5 86.9899 5.78763   7
   3  -2  -5 36.8044 3.11964   1
   3  -2  -5 36.9787 2.59017   4
   3  -2  -5 34.6472 1.63172   2
   3  -2  -5 39.5319 2.34007   5
  -3   2   5 36.7437 2.49158   3
  -3   2   5 35.3876 1.75870   6
  -3   2   5 37.1646 3.41148   1
  -3   2   5 35.0056 3.21953   7
   2  -2  -5 153.328 6.32121   4
   2  -2  -5 158.715 5.78712   5
   2  -2  -5 160.463 7.22655   1
  -2   2   5 161.940 5.40880   6
  -2   2   5 163.465 7.03953   7
  -2   2   5 160.859 7.35599   1
  -2   2   5 172.876 6.10813   3
   1  -2  -5 431.716 15.5220   1
   1  -2  -5 439.385 13.8410   5
   1  -2  -5 443.932 14.5570   4
  -1   2   5 428.989 13.7502   6
  -1   2   5 433.423 15.6717   1
  -1   2   5 455.982 14.2272   3
  -1   2   5 443.726 15.1758   7
   0  -2  -5 816.122 25.7857   4
   0  -2  -5 811.775 26.9484   1
   0  -2  -5 809.838 25.0995   5
   0   2   5 840.399 25.6906   3
   0   2   5 846.310 26.6658   7
   0   2   5 812.849 25.1183   2
   0   2   5 830.482 25.4582   6
  -1  -2  -5 362.679 12.9491   1
  -1  -2  -5 366.490 12.6452   7
  -1  -2  -5 375.251 11.6633   4
   1   2   5 352.377 11.2792   5
   1   2   5 363.459 11.8954   3
   1   2   5 362.791 12.8164   7
   1   2   5 358.953 11.8021   6
   1   2   5 355.743 11.6090   2
  -2  -2  -5 356.682 11.5213   3
  -2  -2  -5 342.286 12.5449   7
  -2  -2  -5 343.449 12.4297   1
   2   2   5 334.329 11.0130   5
   2   2   5 339.839 11.5329   3
   2   2   5 352.958 11.5075   6
   2   2   5 338.021 11.4140   2
  -3  -2  -5 44.5514 2.78187   3
  -3  -2  -5 46.9525 3.71505   1
  -3  -2  -5 50.4744 4.16376   7
   3   2   5 48.5594 2.49506   5
   3   2   5 49.8598 2.71481   6
   3   2   5 48.2788 2.76231   2
  -4  -2  -5 4.04709 1.39113   3
  -4  -2  -5 0.97716 2.43448   7
   4   2   5 1.99321 1.12323   6
   4   2   5 2.21014 1.14918   5
   4   2   5 2.47461 1.27271   2
  -5  -2  -5 2.61620 1.24684   6
  -5  -2  -5 0.27288 1.56682   3
  -5  -2  -5 -0.6949 2.64032   7
   5   2   5 1.55439 1.19089   6
   5   2   5 2.87611 1.41944   2
   5   2   5 1.98186 1.29439   5
   6   2   5 3.87861 2.02960   2
   6  -3  -5 4.34921 2.29533   4
   6  -3  -5 9.38571 2.45983   5
  -6   3   5 11.7154 2.50097   3
   5  -3  -5 -1.1393 1.13882   5
   5  -3  -5 -1.6478 1.31145   4
  -5   3   5 2.40887 1.58267   3
  -5   3   5 2.52209 2.55608   7
   4  -3  -5 21.1165 2.31563   5
   4  -3  -5 28.7691 2.90769   1
   4  -3  -5 23.9544 2.71274   4
  -4   3   5 23.1086 2.59938   3
  -4   3   5 27.0280 3.62504   7
  -4   3   5 25.7001 3.58062   1
  -4   3   5 26.3945 1.97105   6
   3  -3  -5 117.042 4.11581   2
   3  -3  -5 123.528 5.51152   4
   3  -3  -5 126.015 6.22524   1
   3  -3  -5 129.026 5.03519   5
  -3   3   5 120.529 4.49084   6
  -3   3   5 122.743 6.24950   7
  -3   3   5 122.853 6.50326   1
  -3   3   5 115.586 5.20929   3
   2  -3  -5 185.097 7.14145   4
   2  -3  -5 181.505 6.43851   5
   2  -3  -5 185.818 8.02210   1
  -2   3   5 184.219 6.85299   3
  -2   3   5 185.158 7.77043   7
  -2   3   5 181.606 8.18802   1
  -2   3   5 188.604 6.29022   6
   1  -3  -5 16.5406 1.96157   1
   1  -3  -5 15.5926 0.95069   5
   1  -3  -5 14.7944 1.39482   4
  -1   3   5 17.9841 1.40740   3
  -1   3   5 14.7847 1.78500   7
  -1   3   5 16.3180 1.11939   6
   0  -3  -5 84.6612 3.51973   4
   0  -3  -5 81.6339 4.49736   1
   0  -3  -5 83.3899 4.12648   7
   0   3   5 82.0748 4.23810   7
   0   3   5 78.7002 2.92646   2
   0   3   5 82.5873 3.49350   3
   0   3   5 86.8633 3.34555   6
  -1  -3  -5 106.330 3.96753   4
  -1  -3  -5 105.511 5.27297   1
  -1  -3  -5 106.654 4.98587   7
   1   3   5 110.295 4.33849   3
   1   3   5 111.046 4.05560   2
   1   3   5 110.166 4.23647   6
  -2  -3  -5 100.804 5.27971   1
  -2  -3  -5 102.559 4.25209   3
  -2  -3  -5 103.905 5.33773   7
   2   3   5 103.762 4.26361   6
   2   3   5 103.021 4.32909   3
   2   3   5 106.363 4.23769   2
   2   3   5 98.0974 3.69359   5
  -3  -3  -5 25.5767 3.59775   7
  -3  -3  -5 26.0656 2.15608   3
  -3  -3  -5 22.1830 3.48672   1
   3   3   5 23.9451 1.75500   5
   3   3   5 26.0932 2.11180   6
   3   3   5 24.3399 2.19141   2
   3   3   5 29.3229 2.38900   3
  -4  -3  -5 43.3737 5.17980   7
  -4  -3  -5 49.8570 3.46386   3
   4   3   5 55.0998 3.58928   2
   4   3   5 49.8795 3.02887   5
   4   3   5 56.5289 3.36474   6
  -5  -3  -5 -1.1252 1.44753   3
  -5  -3  -5 -2.9574 2.68699   7
   5   3   5 1.76906 1.40700   2
   5   3   5 -1.1371 1.09043   6
   6  -4  -5 4.24967 2.56282   4
   6  -4  -5 10.0678 2.34160   5
  -6   4   5 8.92624 2.35512   3
   5  -4  -5 -0.5107 1.59167   4
   5  -4  -5 -0.9427 1.12740   5
  -5   4   5 -0.5713 1.50512   3
  -5   4   5 3.13820 2.58733   7
   4  -4  -5 1.61911 1.16485   5
   4  -4  -5 1.69498 1.45475   1
   4  -4  -5 1.25244 1.45219   4
  -4   4   5 4.17542 2.19741   7
  -4   4   5 1.78959 1.36950   3
  -4   4   5 2.45209 0.86574   6
   3  -4  -5 115.280 5.97010   1
   3  -4  -5 115.825 4.69915   5
   3  -4  -5 111.458 5.28819   4
  -3   4   5 112.962 4.37330   6
  -3   4   5 112.668 5.97958   7
  -3   4   5 106.292 5.04080   3
   2  -4  -5 11.9816 1.50532   4
   2  -4  -5 12.7548 1.94047   1
   2  -4  -5 13.1091 1.15173   5
  -2   4   5 12.2560 1.51388   3
  -2   4   5 13.4539 1.98720   7
  -2   4   5 10.5389 1.13590   6
   1  -4  -5 35.3411 2.89457   1
   1  -4  -5 35.5471 1.51195   5
   1  -4  -5 36.1329 2.24249   4
  -1   4   5 33.5652 2.09076   3
  -1   4   5 33.3248 1.84998   6
  -1   4   5 31.3626 2.55301   7
   0  -4  -5 79.6456 4.07858   7
   0  -4  -5 77.2265 3.44588   4
   0  -4  -5 79.5069 4.55584   1
   0   4   5 80.7864 4.32990   7
   0   4   5 84.1738 3.56971   3
   0   4   5 78.3441 2.95942   2
   0   4   5 85.0921 3.40417   6
  -1  -4  -5 0.84626 1.08187   1
  -1  -4  -5 0.74532 0.79151   7
  -1  -4  -5 0.54383 0.48423   4
   1   4   5 0.87539 0.63314   3
   1   4   5 0.84994 0.49140   2
   1   4   5 0.77251 0.48338   6
  -2  -4  -5 -0.4435 0.50313   3
  -2  -4  -5 1.04927 1.43613   1
  -2  -4  -5 0.21076 1.17217   7
   2   4   5 0.37034 0.67962   3
   2   4   5 -0.6446 0.43231   6
   2   4   5 -0.1408 0.53900   2
   2   4   5 -0.1102 0.33827   5
  -3  -4  -5 293.686 12.7038   7
  -3  -4  -5 309.673 10.8843   3
  -3  -4  -5 302.401 12.8073   1
   3   4   5 299.512 10.2577   5
   3   4   5 311.198 10.9275   3
   3   4   5 310.635 10.8272   6
   3   4   5 309.159 10.8948   2
  -4  -4  -5 2.16545 1.37857   3
  -4  -4  -5 1.31434 2.72312   7
   4   4   5 2.43299 1.10698   6
   4   4   5 3.70192 1.38482   2
  -5  -4  -5 -1.4322 2.78077   7
  -5  -4  -5 0.60332 1.74980   3
   5   4   5 0.84053 1.29590   2
   5   4   5 0.89466 1.29204   6
   6  -5  -5 1.34042 1.73534   5
   6  -5  -5 -3.4073 2.26573   4
  -6   5   5 5.67388 2.27116   3
   5  -5  -5 -1.4789 1.69210   4
   5  -5  -5 -0.0035 1.21474   5
  -5   5   5 1.75515 2.31558   7
  -5   5   5 -0.3061 1.52120   3
   4  -5  -5 0.03339 1.00540   5
   4  -5  -5 -2.5508 1.20175   4
   4  -5  -5 0.25363 1.44965   1
  -4   5   5 -1.0943 1.53342   7
  -4   5   5 -0.2934 1.30496   3
  -4   5   5 0.17424 0.81804   6
   3  -5  -5 18.6606 1.76508   5
   3  -5  -5 16.1388 2.23715   4
   3  -5  -5 14.6769 2.44058   1
  -3   5   5 10.6776 1.70279   3
  -3   5   5 13.7673 2.44168   7
  -3   5   5 17.4509 1.61871   6
   2  -5  -5 4.63918 1.63483   1
   2  -5  -5 4.30723 0.81939   5
   2  -5  -5 5.22337 1.31329   4
  -2   5   5 4.35843 0.82950   6
  -2   5   5 2.48471 0.90069   3
  -2   5   5 3.80982 1.55464   7
   1  -5  -5 27.4200 1.24825   5
   1  -5  -5 28.1341 2.77300   1
   1  -5  -5 29.0216 2.11157   4
  -1   5   5 23.2910 1.67913   6
  -1   5   5 22.8391 1.12337   2
  -1   5   5 26.6479 2.49027   7
  -1   5   5 20.0958 1.81583   3
   0  -5  -5 3.93252 0.91057   4
   0  -5  -5 3.34194 1.44846   1
   0  -5  -5 3.63877 1.22946   7
   0   5   5 3.64058 1.38216   7
   0   5   5 3.46462 0.77950   6
   0   5   5 4.08216 0.92502   3
   0   5   5 3.62053 0.62632   2
  -1  -5  -5 3.10977 1.36803   7
  -1  -5  -5 3.12284 0.86824   4
  -1  -5  -5 3.18807 1.61886   1
   1   5   5 2.42859 0.67037   2
   1   5   5 1.84005 0.67346   6
   1   5   5 2.34740 0.86370   3
  -2  -5  -5 7.10807 1.24955   3
  -2  -5  -5 5.50802 2.33889   1
  -2  -5  -5 6.30490 2.13138   7
   2   5   5 8.02049 1.35262   6
   2   5   5 8.01285 1.35610   2
   2   5   5 6.58885 1.32723   3
  -3  -5  -5 23.2449 2.29239   3
  -3  -5  -5 23.1721 3.84234   7
  -3  -5  -5 19.9732 4.02477   1
   3   5   5 20.6728 2.26433   2
   3   5   5 23.1366 2.24978   6
   3   5   5 21.9027 2.38689   3
  -4  -5  -5 -1.0330 2.48936   7
  -4  -5  -5 2.78784 1.40240   3
   4   5   5 2.40858 1.19570   6
   4   5   5 1.73746 1.29162   2
  -5  -5  -5 2.72260 1.81745   3
  -5  -5  -5 -1.9648 2.90823   7
   5   5   5 5.72632 1.80107   2
   5   5   5 1.16060 1.28971   6
   6  -6  -5 0.45808 1.75953   5
  -6   6   5 4.88495 2.11021   3
   5  -6  -5 -2.2101 1.13463   5
  -5   6   5 -0.6206 1.58208   3
  -5   6   5 -1.2942 2.70846   7
   4  -6  -5 11.3924 2.51823   4
   4  -6  -5 10.8426 1.77233   5
   4  -6  -5 10.6658 2.62700   1
  -4   6   5 10.1990 1.55735   6
  -4   6   5 12.3062 2.23972   3
  -4   6   5 12.9674 2.82011   7
   3  -6  -5 0.92303 1.31106   4
   3  -6  -5 0.62114 0.83034   5
   3  -6  -5 1.33894 1.51329   1
  -3   6   5 -0.2086 0.96129   3
  -3   6   5 0.55187 0.76736   6
  -3   6   5 0.98173 1.54209   7
   2  -6  -5 17.0350 1.40106   5
   2  -6  -5 18.2544 2.72064   1
   2  -6  -5 18.1093 2.21057   4
  -2   6   5 15.5544 1.85097   3
  -2   6   5 17.7967 2.38403   7
  -2   6   5 16.3158 1.60913   6
   1  -6  -5 30.0043 3.22214   1
   1  -6  -5 26.5828 2.45935   7
   1  -6  -5 30.2860 2.43956   4
  -1   6   5 28.2449 1.99395   6
  -1   6   5 29.2737 1.45040   2
  -1   6   5 31.5594 2.88029   7
  -1   6   5 30.9747 2.26444   3
   0  -6  -5 209.687 7.68889   4
   0  -6  -5 203.914 8.40100   7
   0  -6  -5 203.805 9.39504   1
   0   6   5 201.492 7.49592   6
   0   6   5 204.898 8.70681   7
   0   6   5 211.125 7.07943   2
   0   6   5 206.961 7.64928   3
  -1  -6  -5 45.0933 4.35492   1
  -1  -6  -5 43.9429 3.50951   7
  -1  -6  -5 47.9994 2.68523   4
   1   6   5 43.1306 2.43118   2
   1   6   5 44.7155 2.75111   3
   1   6   5 43.7095 2.63412   6
  -2  -6  -5 28.8511 2.27174   3
  -2  -6  -5 34.1428 4.58460   1
  -2  -6  -5 32.6827 3.73080   7
   2   6   5 30.3595 2.35738   6
   2   6   5 29.3576 2.40329   3
   2   6   5 30.0170 2.32388   2
  -3  -6  -5 6.16893 3.35424   1
  -3  -6  -5 9.60692 3.36355   7
  -3  -6  -5 8.44753 1.66046   3
   3   6   5 10.4457 1.88884   3
   3   6   5 10.3890 1.71058   6
   3   6   5 10.4595 1.77311   2
  -4  -6  -5 -1.2617 0.98606   3
  -4  -6  -5 -2.0950 2.79944   7
   4   6   5 -0.5332 0.99313   6
   4   6   5 -1.0871 1.06895   2
  -5  -6  -5 -2.6305 1.37504   3
  -5  -6  -5 -3.2990 3.30126   7
   5   6   5 -1.8277 1.39063   2
   5   6   5 1.10933 1.43399   6
   5  -7  -5 1.96486 1.44437   5
   5  -7  -5 -2.3607 2.00336   4
  -5   7   5 4.13226 2.04605   3
   4  -7  -5 4.10937 1.34603   5
   4  -7  -5 1.81182 2.01122   4
   4  -7  -5 4.50248 2.33857   1
  -4   7   5 1.81205 1.15960   6
  -4   7   5 3.89980 2.16484   7
  -4   7   5 3.94444 1.72529   3
   3  -7  -5 27.7172 3.35468   4
   3  -7  -5 29.4304 3.75766   1
   3  -7  -5 30.7692 2.24720   5
  -3   7   5 23.8396 2.72384   3
  -3   7   5 29.7302 2.46010   6
  -3   7   5 34.3795 3.38513   7
   2  -7  -5 3.26681 2.06090   1
   2  -7  -5 2.36290 0.84559   5
   2  -7  -5 3.77010 1.70740   4
  -2   7   5 5.18197 1.88495   7
  -2   7   5 5.81478 1.45715   3
  -2   7   5 4.55717 1.08782   6
   1  -7  -5 125.912 5.71490   4
   1  -7  -5 125.010 5.95270   7
   1  -7  -5 116.318 7.01141   1
  -1   7   5 116.415 4.43695   2
  -1   7   5 129.684 5.41642   3
  -1   7   5 127.144 6.33118   7
  -1   7   5 122.757 5.14947   6
   0  -7  -5 0.41472 1.76874   1
   0  -7  -5 -0.6240 1.07003   4
   0  -7  -5 -0.6794 1.10246   7
   0   7   5 -0.4419 0.60784   2
   0   7   5 -0.3998 0.72008   6
   0   7   5 -0.7029 0.83319   3
  -1  -7  -5 15.9853 2.98197   7
  -1  -7  -5 13.8890 3.46504   1
  -1  -7  -5 14.5575 1.85384   4
   1   7   5 9.18758 1.44389   6
   1   7   5 12.6598 1.54468   2
   1   7   5 13.4134 1.89566   3
  -2  -7  -5 1.09478 0.98158   3
  -2  -7  -5 0.19715 1.86494   7
  -2  -7  -5 -0.2543 2.62365   1
   2   7   5 1.43151 1.07629   3
   2   7   5 2.05175 1.10550   2
   2   7   5 -0.1614 0.81180   6
  -3  -7  -5 0.51662 1.06139   3
  -3  -7  -5 -1.6764 2.13450   7
  -3  -7  -5 -1.7020 2.87757   1
   3   7   5 0.36896 1.08317   2
   3   7   5 -0.9143 1.07190   3
   3   7   5 0.62478 1.05584   6
  -4  -7  -5 -0.2855 1.16379   3
  -4  -7  -5 -2.3086 2.84586   7
   4   7   5 2.28622 1.45533   2
   4   7   5 0.96107 1.21356   6
   5  -8  -5 3.31704 1.56979   5
   5  -8  -5 -2.2724 2.43314   4
  -5   8   5 1.43048 1.74102   3
   4  -8  -5 -3.8108 1.70233   4
   4  -8  -5 -0.5341 1.03561   5
  -4   8   5 1.36769 1.56308   3
  -4   8   5 -0.5849 1.06591   6
   3  -8  -5 33.5269 4.35117   1
   3  -8  -5 25.6206 3.47903   4
  -3   8   5 31.6371 2.74558   6
  -3   8   5 31.3265 3.17037   3
  -3   8   5 35.2897 3.64996   7
   2  -8  -5 11.6314 3.38879   1
   2  -8  -5 15.7351 2.41196   7
   2  -8  -5 10.8349 2.41991   4
  -2   8   5 11.8596 2.70446   7
  -2   8   5 10.2503 1.89141   3
  -2   8   5 10.6019 1.68772   6
   1  -8  -5 590.535 22.8083   1
   1  -8  -5 621.965 20.8341   4
   1  -8  -5 624.721 21.2002   7
  -1   8   5 634.360 20.4123   3
  -1   8   5 611.390 20.2188   6
  -1   8   5 612.648 21.5319   7
   0  -8  -5 72.5581 4.84315   7
   0  -8  -5 67.2506 6.03072   1
   0  -8  -5 76.5344 4.29022   4
   0   8   5 71.6095 3.97652   3
   0   8   5 71.8568 3.36414   2
   0   8   5 71.0783 3.90858   6
  -1  -8  -5 0.20944 1.64737   7
  -1  -8  -5 -1.0900 2.42803   1
   1   8   5 -0.6026 1.00772   3
   1   8   5 -0.7709 0.73602   2
   1   8   5 -0.5693 0.85299   6
  -2  -8  -5 3.36191 1.13657   3
  -2  -8  -5 0.16622 3.09307   1
  -2  -8  -5 1.62067 2.29802   7
   2   8   5 2.35202 1.19004   6
   2   8   5 3.24386 1.41459   3
   2   8   5 1.64093 1.06188   2
  -3  -8  -5 -1.7528 0.82463   3
  -3  -8  -5 -1.5658 2.38967   7
  -3  -8  -5 -3.4638 2.89841   1
   3   8   5 -0.2610 0.99804   6
   3   8   5 -0.9717 1.21691   3
   3   8   5 0.22610 1.13458   2
  -4  -8  -5 -3.5887 2.82724   7
  -4  -8  -5 0.55856 1.33851   3
   4   8   5 1.02333 1.34774   6
   4   8   5 0.62772 1.40480   2
  -5   9   5 1.06970 1.41143   6
  -5   9   5 1.09470 2.02565   3
   4  -9  -5 -2.4870 2.21948   4
  -4   9   5 3.59602 1.80228   3
  -4   9   5 5.43825 1.54161   6
   3  -9  -5 -1.9017 2.41985   1
   3  -9  -5 -2.6867 1.84828   4
  -3   9   5 0.29073 1.29317   6
  -3   9   5 0.16658 1.32933   3
   2  -9  -5 33.9019 3.08788   7
   2  -9  -5 28.0394 3.70444   4
   2  -9  -5 26.8992 4.73822   1
  -2   9   5 31.1468 2.77037   6
  -2   9   5 30.5121 3.07503   3
  -2   9   5 22.7098 3.52517   7
   1  -9  -5 55.8168 4.19675   7
   1  -9  -5 54.9504 5.91575   1
   1  -9  -5 55.3322 4.21927   4
  -1   9   5 54.7307 3.57687   6
  -1   9   5 57.8098 3.66444   3
   0  -9  -5 31.4028 3.17354   4
   0  -9  -5 33.0875 3.54527   7
   0  -9  -5 29.6392 5.01109   1
   0   9   5 35.0300 2.78549   3
   0   9   5 31.3834 2.79491   6
   0   9   5 30.5849 2.26021   2
  -1  -9  -5 3.34897 3.39725   1
  -1  -9  -5 5.59365 2.50753   7
   1   9   5 6.97656 1.59430   3
   1   9   5 5.77733 1.33323   2
   1   9   5 7.50427 1.63547   6
  -2  -9  -5 0.77365 0.87645   3
  -2  -9  -5 -1.8971 2.16044   7
  -2  -9  -5 -5.2108 2.89488   1
   2   9   5 0.58975 1.22137   3
   2   9   5 0.25341 1.00447   6
   2   9   5 -1.5467 0.88816   2
  -3  -9  -5 -2.0821 2.65442   7
  -3  -9  -5 -2.9559 3.48708   1
  -3  -9  -5 1.06123 1.12821   3
   3   9   5 0.79267 1.30064   2
   3   9   5 -1.7738 1.19273   3
   3   9   5 -0.5406 1.22771   6
  -4  10   5 -2.3455 1.56385   3
  -4  10   5 -0.1504 1.31609   6
   3 -10  -5 -4.0606 2.62822   1
  -3  10   5 0.63113 1.31469   3
  -3  10   5 0.27918 1.17751   6
   2 -10  -5 -0.8286 2.98658   1
   2 -10  -5 -1.9704 1.84799   4
  -2  10   5 1.88310 1.48906   3
  -2  10   5 1.52130 1.24784   6
   1 -10  -5 -3.3215 2.70346   1
   1 -10  -5 -2.9534 1.64016   4
   1 -10  -5 -0.9913 1.28716   7
  -1  10   5 -1.5975 1.03592   6
  -1  10   5 -0.4169 1.16044   3
   0 -10  -5 -0.5151 1.69747   7
   0 -10  -5 -3.3534 2.97000   1
   0 -10  -5 1.74019 1.77416   4
   0  10   5 1.74892 1.22370   6
   0  10   5 3.24535 1.37774   3
  -1 -10  -5 -1.0294 3.43276   1
  -1 -10  -5 0.87069 2.17385   7
   1  10   5 1.15618 1.24467   3
   1  10   5 0.47210 1.30257   6
   1  10   5 0.79717 1.02946   2
  -2 -10  -5 1.45190 0.91803   3
  -2 -10  -5 -4.7899 3.28835   1
  -2 -10  -5 -1.4800 2.63627   7
   2  10   5 0.05960 1.19990   2
   2  10   5 0.15292 1.20447   6
   2  10   5 -1.2900 1.22360   3
  -3 -10  -5 2.28116 1.39936   3
  -3 -10  -5 -3.8081 3.57845   1
  -3 -10  -5 -4.6774 2.71993   7
   3  10   5 -1.5650 1.25822   2
   3  10   5 -1.5576 1.42483   3
   3  10   5 0.20624 1.39881   6
   4 -11  -5 -2.3881 2.78736   4
  -4  11   5 7.78079 2.30019   3
  -4  11   5 3.62279 1.60226   6
   3 -11  -5 -4.4275 3.31899   1
  -3  11   5 1.07938 1.53381   3
  -3  11   5 2.61471 1.44786   6
   2 -11  -5 -2.4811 1.99411   4
   2 -11  -5 -3.3743 3.40193   1
  -2  11   5 -0.2367 1.33518   3
  -2  11   5 1.17275 1.34582   6
   1 -11  -5 -5.4282 3.23018   1
   1 -11  -5 -4.2844 1.70419   4
  -1  11   5 -0.8019 1.13160   6
  -1  11   5 -0.4416 1.28771   3
   0 -11  -5 -5.0918 3.30513   1
   0 -11  -5 -2.6771 1.91373   7
   0  11   5 -1.1408 1.11187   3
   0  11   5 0.16161 1.21253   6
  -1 -11  -5 8.17126 3.38543   7
  -1 -11  -5 4.86136 4.62954   1
   1  11   5 13.4343 2.12959   2
   1  11   5 12.1896 2.16233   3
   1  11   5 10.9789 2.02152   6
  -2 -11  -5 -3.2119 3.76070   1
  -2 -11  -5 -4.9508 2.80080   7
   2  11   5 1.32790 2.41830   3
   2  11   5 2.84010 1.61140   6
   2  11   5 -0.5028 1.35190   2
   3 -12  -5 1.74438 2.98493   4
   3 -12  -5 -4.1508 3.98446   1
  -3  12   5 2.28355 1.85831   3
  -3  12   5 5.30914 1.81151   6
   2 -12  -5 -5.3425 3.87219   1
   2 -12  -5 -1.7533 2.45070   4
  -2  12   5 1.15470 1.52823   3
  -2  12   5 3.20474 1.57688   6
   1 -12  -5 -2.0506 1.98150   4
   1 -12  -5 -6.1629 3.90171   1
  -1  12   5 -0.0129 1.35674   6
  -1  12   5 -0.4924 1.45122   3
   0 -12  -5 15.2803 6.08066   1
   0  12   5 25.7575 3.03515   6
   0  12   5 26.2459 3.02381   3
  -1 -12  -5 -1.2816 3.16667   7
  -1 -12  -5 -3.3280 4.40483   1
   1  12   5 2.75488 1.65793   6
   2 -13  -5 -5.1822 4.57096   1
   1 -13  -5 -1.4840 2.02653   4
  -1  13   5 -0.5820 1.51185   6
   0  13  -6 1.11057 1.49811   5
   0  13  -6 1.51723 1.71404   2
   0 -13   6 8.26322 3.00698   1
  -1  13  -6 1.74887 1.67672   2
  -1  13  -6 -0.5090 1.41597   6
  -1  13  -6 0.94386 1.37861   5
   1 -13   6 2.42734 1.46970   5
   1 -13   6 4.50414 1.95083   4
  -2  13  -6 -0.5579 1.49828   2
  -2  13  -6 0.71082 1.35629   5
  -2  13  -6 -1.8806 1.53207   6
   2 -13   6 -0.2302 1.42495   5
   2 -13   6 1.17552 1.66817   4
  -2 -12   6 9.06277 4.20728   1
   1  12  -6 -0.6463 1.50005   2
   1  12  -6 0.94153 1.36070   5
  -1 -12   6 9.80457 2.01064   4
  -1 -12   6 7.73863 3.36283   1
   0  12  -6 -0.1374 1.36872   2
   0  12  -6 0.49843 1.41206   6
   0  12  -6 1.40600 1.35688   5
   0 -12   6 5.95992 3.10147   1
  -1  12  -6 9.65097 2.10985   5
  -1  12  -6 8.98433 2.10078   2
  -1  12  -6 8.47149 1.77815   6
   1 -12   6 10.1341 2.36571   4
   1 -12   6 12.4837 2.16312   5
  -2  12  -6 1.21865 1.51544   6
  -2  12  -6 -0.1622 1.27828   5
  -2  12  -6 0.39434 1.40659   2
   2 -12   6 1.97691 1.31030   5
   2 -12   6 4.61268 1.93683   4
   2 -12   6 7.35959 2.47912   1
  -3  12  -6 1.85095 1.61678   2
  -3  12  -6 2.81134 1.70636   6
   3 -12   6 2.58334 1.43759   5
   3 -12   6 6.10640 2.11077   4
  -2 -11   6 27.0864 3.35687   4
  -2 -11   6 22.7739 4.54932   1
   1  11  -6 5.00711 1.69282   5
   1  11  -6 3.29553 1.78603   2
  -1 -11   6 7.30251 3.17232   1
  -1 -11   6 7.73019 2.12252   4
   0  11  -6 27.5039 2.74378   6
   0  11  -6 26.5332 2.87221   5
   0  11  -6 31.7474 3.14603   2
   0 -11   6 35.4016 3.47541   4
   0 -11   6 31.8211 4.80841   1
  -1  11  -6 1.06868 1.19967   5
  -1  11  -6 -0.1823 1.17572   2
  -1  11  -6 -0.3546 1.18769   6
   1 -11   6 2.97970 2.33023   1
   1 -11   6 2.25904 1.61801   4
   1 -11   6 2.09394 1.36241   5
  -2  11  -6 4.24774 1.65637   2
  -2  11  -6 3.00455 1.48941   5
  -2  11  -6 2.29654 1.36119   6
   2 -11   6 2.30484 1.30656   5
   2 -11   6 3.65414 1.74772   4
  -3  11  -6 7.78311 1.98207   2
  -3  11  -6 9.66413 2.06301   6
   3 -11   6 11.8028 2.07381   5
   3 -11   6 10.5706 2.37414   4
  -4  11  -6 2.59468 1.67730   2
  -4  11  -6 0.31780 1.59462   6
   4 -11   6 2.79983 1.55743   5
   4 -11   6 6.13904 2.05096   4
   3  10  -6 3.68001 1.96889   2
  -3 -10   6 8.74318 3.61239   1
   2  10  -6 0.81350 1.34245   5
   2  10  -6 0.33951 1.58624   2
  -2 -10   6 4.32407 2.10304   7
  -2 -10   6 4.78905 2.80506   1
  -2 -10   6 4.44654 1.82451   4
   1  10  -6 34.5707 3.19412   2
   1  10  -6 36.7854 3.09209   5
  -1 -10   6 35.6111 3.58362   4
  -1 -10   6 36.6747 5.08332   1
   0  10  -6 0.21508 1.05773   5
   0  10  -6 0.21680 0.97311   6
   0  10  -6 0.48334 1.18123   2
   0 -10   6 0.56705 1.29937   4
   0 -10   6 3.81056 2.51943   1
  -1  10  -6 3.47613 1.47608   2
  -1  10  -6 3.73741 1.35425   6
  -1  10  -6 4.32829 1.45545   5
   1 -10   6 5.01573 1.51549   5
   1 -10   6 6.08792 2.56215   1
   1 -10   6 4.57775 1.75191   4
  -2  10  -6 8.59631 1.80804   2
  -2  10  -6 7.72163 1.67020   6
   2 -10   6 7.98635 2.08846   4
   2 -10   6 13.7427 2.70105   1
   2 -10   6 8.13588 1.62810   5
  -3  10  -6 2.71692 1.47210   6
  -3  10  -6 2.42587 1.44155   2
   3 -10   6 2.37480 1.32190   5
   3 -10   6 4.28767 1.77286   4
  -4  10  -6 0.97767 1.41924   2
  -4  10  -6 2.82936 1.75657   6
   4 -10   6 3.83476 1.55233   5
   4 -10   6 5.36785 1.82283   4
   3   9  -6 2.41127 1.48332   5
   3   9  -6 1.15680 1.64005   2
  -3  -9   6 9.33191 3.49886   1
  -3  -9   6 8.60207 2.52466   7
   2   9  -6 4.52739 1.64344   5
   2   9  -6 5.69925 1.64051   2
  -2  -9   6 7.00903 2.12420   4
  -2  -9   6 6.09744 2.21781   7
  -2  -9   6 6.47355 3.11211   1
   1   9  -6 41.0391 3.17974   2
   1   9  -6 40.2535 3.08877   5
  -1  -9   6 37.1099 4.81445   1
  -1  -9   6 46.4544 3.71167   4
  -1  -9   6 42.7342 3.96651   7
   0   9  -6 1.80471 1.13424   2
   0   9  -6 2.74754 1.17225   5
   0   9  -6 1.59816 0.98805   6
   0  -9   6 4.27296 1.57340   4
   0  -9   6 1.36127 1.06951   5
   0  -9   6 1.86136 1.98037   1
  -1   9  -6 9.22579 1.73215   5
  -1   9  -6 6.51278 1.60330   2
  -1   9  -6 6.72995 1.41495   6
   1  -9   6 8.01377 2.53646   1
   1  -9   6 7.46677 1.55286   5
   1  -9   6 7.60888 1.84461   4
  -2   9  -6 15.7734 2.00127   6
  -2   9  -6 20.5204 2.51147   2
   2  -9   6 19.6014 2.22527   5
   2  -9   6 19.1210 2.83943   1
   2  -9   6 20.6201 2.55643   4
  -3   9  -6 -0.3102 1.08206   2
  -3   9  -6 -1.4737 1.07473   6
   3  -9   6 0.24529 0.97393   5
   3  -9   6 1.12851 1.43029   4
  -4   9  -6 -1.2720 1.10398   2
  -4   9  -6 0.31253 1.46962   6
   4  -9   6 0.54574 1.21959   5
   4  -9   6 -0.0312 1.07993   2
   4  -9   6 1.28907 1.36228   4
  -5   9  -6 -0.5307 1.51307   6
  -5   9  -6 3.12315 1.76357   2
   5  -9   6 2.98768 1.56744   5
   5  -9   6 3.73129 1.59133   4
   5  -9   6 1.37276 1.47616   2
   4   8  -6 2.55840 1.81061   2
  -4  -8   6 8.92130 2.62769   7
   3   8  -6 1.36949 1.42893   2
   3   8  -6 0.69846 1.20293   4
   3   8  -6 0.62673 1.27895   5
  -3  -8   6 4.14126 2.07448   7
  -3  -8   6 0.70359 1.50760   4
  -3  -8   6 5.41931 3.02725   1
   2   8  -6 0.27153 1.07872   2
   2   8  -6 -0.1047 1.04299   5
  -2  -8   6 1.64263 2.31621   1
  -2  -8   6 0.59108 1.67436   7
  -2  -8   6 0.44761 1.44474   4
   1   8  -6 8.93309 1.62032   2
   1   8  -6 8.45926 1.53407   5
   1   8  -6 9.41497 1.19138   6
  -1  -8   6 6.45496 2.78783   1
  -1  -8   6 12.6730 2.21161   4
  -1  -8   6 11.0611 2.12969   7
   0   8  -6 52.9944 3.15507   5
   0   8  -6 52.4438 2.77612   6
   0   8  -6 49.3672 3.06300   2
   0  -8   6 46.4619 3.00558   5
   0  -8   6 49.0795 3.45665   4
   0  -8   6 43.6691 4.41807   1
  -1   8  -6 -0.1525 0.80339   6
  -1   8  -6 -0.9886 0.64068   5
  -1   8  -6 -1.1277 0.76428   2
   1  -8   6 0.11349 1.06829   4
   1  -8   6 -0.6905 0.78328   5
   1  -8   6 0.48854 1.56095   1
  -2   8  -6 38.1205 2.91568   2
  -2   8  -6 38.5420 2.84640   6
   2  -8   6 39.8700 3.56271   1
   2  -8   6 40.2457 3.16844   4
   2  -8   6 39.4995 2.82545   5
  -3   8  -6 59.0138 3.83020   6
  -3   8  -6 62.6560 3.72473   2
   3  -8   6 59.2056 3.68181   5
   3  -8   6 57.3975 3.97584   4
   3  -8   6 67.5737 3.71256   2
  -4   8  -6 0.58690 1.18275   3
  -4   8  -6 -0.1428 1.12076   2
  -4   8  -6 0.47944 1.19331   6
   4  -8   6 -0.9850 0.91475   2
   4  -8   6 1.37391 1.32206   4
   4  -8   6 0.04076 1.09537   5
  -5   8  -6 12.6732 2.30496   2
  -5   8  -6 9.85987 2.19330   3
  -5   8  -6 8.22902 2.07749   6
   5  -8   6 14.2740 2.40299   5
   5  -8   6 12.7405 2.33350   4
   5  -8   6 12.2155 2.30231   2
   4   7  -6 1.83135 1.55025   2
  -4  -7   6 6.12535 2.46084   7
   3   7  -6 8.79173 1.81777   2
   3   7  -6 7.70646 1.85474   4
   3   7  -6 8.44734 1.82247   5
  -3  -7   6 9.98926 2.18086   4
  -3  -7   6 8.61739 2.50895   7
  -3  -7   6 13.1636 3.69789   1
   2   7  -6 -0.9988 0.83402   2
   2   7  -6 -0.6568 0.80955   5
  -2  -7   6 -0.9601 1.88596   1
  -2  -7   6 -1.2527 1.14166   4
  -2  -7   6 -1.1399 1.43629   7
   1   7  -6 168.269 6.50122   2
   1   7  -6 161.452 5.72804   6
   1   7  -6 168.585 6.61662   5
  -1  -7   6 156.440 6.94958   4
  -1  -7   6 135.957 8.14064   1
  -1  -7   6 162.971 7.28200   7
   0   7  -6 0.41763 0.62445   6
   0   7  -6 0.49064 0.77659   2
   0   7  -6 0.76679 0.74174   5
   0  -7   6 -0.9601 1.34027   1
   0  -7   6 -0.2681 0.70663   5
   0  -7   6 0.65937 0.73229   7
   0  -7   6 0.84444 1.03966   4
  -1   7  -6 2.80555 0.89109   5
  -1   7  -6 1.71054 0.80171   6
  -1   7  -6 0.09943 0.79022   2
   1  -7   6 1.08274 0.89002   5
   1  -7   6 1.63508 1.15218   4
   1  -7   6 2.51296 1.65127   1
  -2   7  -6 295.227 10.1285   3
  -2   7  -6 309.008 10.7392   2
  -2   7  -6 312.286 10.6870   6
   2  -7   6 304.078 11.1885   4
   2  -7   6 298.074 10.7147   5
   2  -7   6 276.776 11.6356   1
  -3   7  -6 0.68298 1.14653   6
  -3   7  -6 -0.6258 1.11898   3
  -3   7  -6 1.61405 1.21860   2
   3  -7   6 3.38690 1.26349   5
   3  -7   6 1.93295 1.03889   2
   3  -7   6 2.39815 1.42880   4
  -4   7  -6 0.64048 1.16352   3
  -4   7  -6 3.99194 1.40449   6
  -4   7  -6 4.08817 1.53128   2
   4  -7   6 3.39739 1.38379   2
   4  -7   6 4.19991 1.44099   5
   4  -7   6 2.36807 1.42640   4
  -5   7  -6 1.82084 1.51019   2
  -5   7  -6 0.36059 1.18620   3
  -5   7  -6 -0.6546 1.38067   6
   5  -7   6 1.67294 1.38618   5
   5  -7   6 -0.6088 1.39016   2
  -5  -6   6 29.7441 4.22576   7
   4   6  -6 42.2459 3.42035   2
   4   6  -6 40.0231 3.37160   5
  -4  -6   6 55.8983 5.72229   1
  -4  -6   6 41.3575 4.61881   7
   3   6  -6 1.43012 1.20472   4
   3   6  -6 3.08797 1.27135   5
   3   6  -6 1.03513 1.07790   2
  -3  -6   6 0.62318 1.45035   4
  -3  -6   6 3.56854 2.61377   1
  -3  -6   6 2.61446 1.81273   7
   2   6  -6 6.73703 1.40937   5
   2   6  -6 6.70310 1.30188   2
  -2  -6   6 7.79902 1.77407   4
  -2  -6   6 4.73631 1.93420   7
  -2  -6   6 6.98195 2.75891   1
   1   6  -6 12.2388 1.51109   5
   1   6  -6 10.7108 1.48555   2
   1   6  -6 12.0116 1.12235   6
  -1  -6   6 11.3647 2.93898   1
  -1  -6   6 11.2909 1.92402   7
  -1  -6   6 13.7754 1.95104   4
   0   6  -6 109.683 4.12305   6
   0   6  -6 106.936 4.63916   5
   0   6  -6 114.555 4.57242   2
   0  -6   6 104.007 4.69213   7
   0  -6   6 103.397 4.94925   4
   0  -6   6 109.362 4.64499   5
   0  -6   6 94.4125 5.83285   1
  -1   6  -6 26.6195 1.94092   5
  -1   6  -6 23.5577 1.92092   2
  -1   6  -6 26.8909 1.83154   6
   1  -6   6 22.2148 2.14654   4
   1  -6   6 24.2232 2.74119   1
   1  -6   6 23.0811 1.88681   5
  -2   6  -6 0.42245 0.78863   3
  -2   6  -6 -0.4133 0.72053   6
  -2   6  -6 1.28803 0.84052   2
   2  -6   6 -0.7195 1.00522   4
   2  -6   6 0.63313 0.62542   2
   2  -6   6 1.64656 1.19543   1
   2  -6   6 0.63526 0.70406   5
  -3   6  -6 121.629 5.32257   3
  -3   6  -6 126.488 5.52913   2
   3  -6   6 129.983 5.55074   5
   3  -6   6 120.733 5.68934   4
  -4   6  -6 29.3332 2.76905   3
  -4   6  -6 27.6364 2.73053   2
  -4   6  -6 23.7558 2.58167   6
   4  -6   6 27.2788 2.62532   4
   4  -6   6 27.2977 2.56084   5
   4  -6   6 25.2259 2.57466   2
  -5   6  -6 25.4427 3.05197   6
  -5   6  -6 24.9620 2.87530   2
   5  -6   6 27.4853 2.90918   5
   5  -6   6 27.9622 3.03878   2
   6  -6   6 -0.6062 1.61323   2
  -5  -5   6 7.53623 2.29809   7
   4   5  -6 1.39405 1.30620   5
   4   5  -6 -0.1330 1.06343   4
   4   5  -6 0.13265 1.15302   2
  -4  -5   6 3.61491 2.20121   7
  -4  -5   6 6.10660 3.05872   1
   3   5  -6 5.57513 1.27070   2
   3   5  -6 5.16632 1.51881   4
   3   5  -6 4.31655 1.31755   5
  -3  -5   6 6.13084 1.74801   4
  -3  -5   6 4.35972 2.69706   1
  -3  -5   6 5.31545 2.27987   7
   2   5  -6 0.48425 0.70384   2
   2   5  -6 0.64328 0.70340   5
   2   5  -6 0.29184 0.77372   4
  -2  -5   6 0.48305 1.03841   4
  -2  -5   6 0.08242 1.52469   1
  -2  -5   6 -0.4592 1.12084   7
   1   5  -6 9.62840 1.26248   2
   1   5  -6 8.61061 0.85093   6
   1   5  -6 7.50859 1.21797   5
  -1  -5   6 9.19573 1.65390   4
  -1  -5   6 6.78488 2.01389   1
  -1  -5   6 8.17619 1.80316   7
   0   5  -6 -0.1153 0.43176   5
   0   5  -6 -0.1822 0.48700   2
   0   5  -6 0.12339 0.41323   6
   0  -5   6 0.27101 0.71942   4
   0  -5   6 -1.0524 0.88536   1
   0  -5   6 -0.3204 0.53579   7
   0  -5   6 -0.8286 0.48884   5
  -1   5  -6 0.18041 0.59983   2
  -1   5  -6 -0.0705 0.44693   6
  -1   5  -6 -0.1517 0.40499   3
   1  -5   6 0.18106 0.59301   5
   1  -5   6 -0.2839 0.71349   4
   1  -5   6 1.60815 1.18585   1
  -2   5  -6 132.936 5.02973   3
  -2   5  -6 137.586 5.32300   6
  -2   5  -6 134.283 5.37732   2
   2  -5   6 125.256 5.94579   1
   2  -5   6 137.934 5.72389   4
   2  -5   6 129.772 5.36871   5
   2  -5   6 124.864 5.25593   2
  -3   5  -6 87.8932 4.15581   3
  -3   5  -6 90.5356 4.28736   2
  -3   5  -6 87.4505 4.21263   6
   3  -5   6 81.9182 4.12960   5
   3  -5   6 89.4075 4.38833   4
  -4   5  -6 24.8861 2.66338   3
  -4   5  -6 27.4330 2.56283   6
  -4   5  -6 27.3615 2.59442   2
   4  -5   6 27.6392 2.50821   2
   4  -5   6 29.2407 2.47092   4
   4  -5   6 30.0961 2.53776   5
  -5   5  -6 -0.7890 1.24247   3
  -5   5  -6 1.82024 1.40369   6
   5  -5   6 2.57013 1.38422   5
   5  -5   6 2.87786 1.55250   2
  -6   5  -6 4.13423 1.87210   6
   6  -5   6 3.17933 1.86934   2
   6  -5   6 4.76204 1.82480   5
   5   4  -6 -1.3360 1.21712   5
   5   4  -6 -0.2829 1.19147   2
  -5  -4   6 6.02223 2.42913   7
  -5  -4   6 8.85188 2.83772   1
   4   4  -6 7.38733 1.70083   4
   4   4  -6 8.47602 1.79793   5
   4   4  -6 7.65787 1.60115   2
  -4  -4   6 8.35805 2.51865   7
  -4  -4   6 14.5133 3.79428   1
   3   4  -6 0.01127 0.78163   4
   3   4  -6 -0.2014 0.72724   2
   3   4  -6 -0.2087 0.72684   5
  -3  -4   6 -1.4244 1.28188   7
  -3  -4   6 -0.5234 1.03285   4
  -3  -4   6 -0.7809 0.75883   3
  -3  -4   6 -0.0918 2.02443   1
   2   4  -6 10.5073 1.73013   4
   2   4  -6 8.43995 1.31867   5
   2   4  -6 8.69211 1.20791   2
  -2  -4   6 6.97592 1.87485   7
  -2  -4   6 9.66381 0.92199   3
  -2  -4   6 6.43856 2.16616   1
  -2  -4   6 11.0812 1.80880   4
   1   4  -6 255.955 8.53278   2
   1   4  -6 250.652 8.85205   5
   1   4  -6 231.328 7.81919   6
  -1  -4   6 243.476 10.5178   1
  -1  -4   6 259.023 9.33575   4
  -1  -4   6 248.894 9.65969   7
   0   4  -6 108.168 4.54562   5
   0   4  -6 109.682 4.03930   6
   0   4  -6 116.243 4.44814   2
   0  -4   6 119.120 4.99462   4
   0  -4   6 114.044 4.63230   5
   0  -4   6 112.347 4.83332   7
   0  -4   6 112.256 5.85618   1
  -1   4  -6 85.6260 3.46058   6
  -1   4  -6 86.9930 3.61650   2
  -1   4  -6 82.9739 3.12542   3
   1  -4   6 83.8750 3.55255   2
   1  -4   6 86.3701 4.62959   1
   1  -4   6 76.8668 3.53163   7
   1  -4   6 81.8065 3.92217   4
   1  -4   6 87.2582 3.69725   5
  -2   4  -6 27.7602 1.84138   3
  -2   4  -6 29.3796 2.04674   2
  -2   4  -6 27.4245 1.88092   6
   2  -4   6 28.9635 1.94129   2
   2  -4   6 30.1883 2.00007   5
   2  -4   6 27.1811 2.29586   1
   2  -4   6 28.0786 2.19594   4
  -3   4  -6 -0.0427 0.70075   6
  -3   4  -6 0.15969 0.79487   3
   3  -4   6 0.21407 0.78862   4
   3  -4   6 -0.1524 0.55699   2
   3  -4   6 -0.4957 0.63008   5
  -4   4  -6 3.55305 1.17608   6
  -4   4  -6 4.55281 1.41173   3
   4  -4   6 5.44080 1.23187   4
   4  -4   6 6.25598 1.46904   2
   4  -4   6 5.58200 1.41605   5
  -5   4  -6 -0.6691 1.15359   3
  -5   4  -6 0.25624 1.30310   6
   5  -4   6 0.49270 1.13577   5
   5  -4   6 -0.2061 1.20779   2
  -6   4  -6 0.86638 1.93603   3
  -6   4  -6 1.18265 1.53343   6
   6  -4   6 -0.7798 1.59878   2
   6  -4   6 2.68703 1.55084   5
   5   3  -6 3.78566 1.41135   2
   5   3  -6 1.04332 1.39912   5
  -5  -3   6 9.35576 3.08019   1
  -5  -3   6 7.22498 2.43536   7
   4   3  -6 16.5735 2.25699   4
   4   3  -6 18.1595 2.02132   2
   4   3  -6 16.0079 2.26177   5
  -4  -3   6 19.3507 2.13227   3
  -4  -3   6 24.8084 4.06414   1
  -4  -3   6 13.1145 3.07213   7
   3   3  -6 3.02765 1.03798   5
   3   3  -6 3.14749 1.15193   4
   3   3  -6 3.10433 0.93230   2
  -3  -3   6 3.60260 0.99213   3
  -3  -3   6 1.38187 1.45991   7
  -3  -3   6 1.52050 2.07973   1
   2   3  -6 31.5240 2.13806   5
   2   3  -6 31.4774 1.89166   2
   2   3  -6 30.3866 2.39703   4
  -2  -3   6 30.0271 3.37540   1
  -2  -3   6 32.7413 1.72523   3
  -2  -3   6 30.5514 2.41506   4
  -2  -3   6 29.4794 2.91482   7
   1   3  -6 55.1267 3.05649   4
   1   3  -6 53.0632 2.41216   2
   1   3  -6 50.6952 2.67331   5
   1   3  -6 49.4054 1.84954   6
  -1  -3   6 56.2022 3.36429   7
  -1  -3   6 50.9792 2.07623   3
  -1  -3   6 57.3019 3.97376   1
  -1  -3   6 53.9324 3.06111   4
   0   3  -6 3.04643 0.47690   6
   0   3  -6 4.25940 0.75475   2
   0   3  -6 4.48927 0.83290   5
   0  -3   6 2.31211 0.71487   5
   0  -3   6 5.26610 1.09037   7
   0  -3   6 3.41167 0.93566   4
   0  -3   6 4.26234 0.54114   3
   0  -3   6 5.38247 1.52607   1
  -1   3  -6 41.3615 1.84078   3
  -1   3  -6 39.1865 1.98818   6
  -1   3  -6 40.0676 2.10215   2
   1  -3   6 38.7767 2.11851   5
   1  -3   6 37.7257 2.35263   4
   1  -3   6 41.6732 1.85548   3
   1  -3   6 40.9830 2.32304   7
   1  -3   6 39.7703 2.89203   1
   1  -3   6 40.7732 2.09646   2
  -2   3  -6 173.393 6.29547   6
  -2   3  -6 173.876 6.14892   3
  -2   3  -6 167.866 6.32477   7
   2  -3   6 174.332 6.35313   5
   2  -3   6 174.386 6.22397   6
   2  -3   6 172.428 6.45829   4
   2  -3   6 164.405 6.30089   2
   2  -3   6 161.313 6.76309   1
  -3   3  -6 -0.7717 0.63432   6
  -3   3  -6 0.60759 0.77175   3
  -3   3  -6 0.47919 1.15056   7
   3  -3   6 1.70223 0.80324   4
   3  -3   6 -0.1489 0.52054   2
   3  -3   6 0.74934 0.68278   5
   3  -3   6 -0.1762 0.52810   6
  -4   3  -6 -0.0302 1.07611   3
  -4   3  -6 0.55324 0.84925   6
   4  -3   6 1.42522 0.98376   5
   4  -3   6 0.06975 0.68592   6
   4  -3   6 0.30171 0.79322   2
  -5   3  -6 3.58578 1.63583   3
  -5   3  -6 8.17981 1.79505   6
   5  -3   6 6.23147 1.68579   5
   5  -3   6 7.21582 1.78910   2
  -6   3  -6 -0.2884 1.45417   6
  -6   3  -6 -1.1135 1.71511   3
   6  -3   6 1.28130 1.49243   5
   6  -3   6 -0.6225 1.55788   2
   6   2  -6 -1.5150 1.56291   5
  -6  -2   6 11.0707 2.99859   7
   5   2  -6 -0.2798 1.16082   2
   5   2  -6 -0.2039 1.29906   5
  -5  -2   6 2.89236 2.16328   7
  -5  -2   6 1.92462 1.25258   3
   4   2  -6 13.1644 1.97849   5
   4   2  -6 14.8793 1.79828   2
   4   2  -6 12.4864 2.09817   4
  -4  -2   6 12.0147 2.90755   7
  -4  -2   6 18.1477 3.47934   1
  -4  -2   6 14.0547 1.88654   3
   3   2  -6 50.6926 3.24129   4
   3   2  -6 52.0788 2.57127   2
   3   2  -6 49.2990 2.96221   5
  -3  -2   6 49.3633 2.72323   3
  -3  -2   6 39.4588 3.80898   7
  -3  -2   6 51.4800 4.42254   1
   2   2  -6 739.083 23.5293   2
   2   2  -6 779.538 24.6648   4
   2   2  -6 737.248 24.0977   5
  -2  -2   6 764.544 24.6347   4
  -2  -2   6 759.672 26.0590   1
  -2  -2   6 716.884 25.4448   7
  -2  -2   6 789.401 23.6123   3
   1   2  -6 26.3659 1.97838   4
   1   2  -6 27.2074 1.43513   2
   1   2  -6 25.0523 1.65964   5
  -1  -2   6 25.4159 1.38900   3
  -1  -2   6 21.3849 2.45394   1
  -1  -2   6 26.5739 2.30418   7
  -1  -2   6 27.9068 2.05067   4
   0   2  -6 8.85519 0.72234   6
   0   2  -6 9.46350 0.87611   2
   0   2  -6 8.92799 0.92914   5
   0  -2   6 9.41108 0.96662   5
   0  -2   6 11.1019 1.32855   7
   0  -2   6 9.94848 1.62791   1
   0  -2   6 10.0662 0.80461   3
   0  -2   6 11.1773 1.29172   4
   0  -2   6 10.6924 0.72944   6
  -1   2  -6 356.886 11.7493   6
  -1   2  -6 360.655 11.8687   2
  -1   2  -6 359.882 11.6544   3
   1  -2   6 372.619 12.2754   4
   1  -2   6 373.081 11.7798   6
   1  -2   6 364.671 11.6962   3
   1  -2   6 356.012 12.9798   1
   1  -2   6 374.160 11.9226   2
   1  -2   6 364.412 12.4313   7
   1  -2   6 366.674 11.9342   5
  -2   2  -6 8.56571 1.20308   1
  -2   2  -6 6.28959 0.96313   6
  -2   2  -6 9.84369 1.22562   3
  -2   2  -6 9.53045 1.27496   7
   2  -2   6 7.84082 1.47280   1
   2  -2   6 8.09503 1.07320   2
   2  -2   6 8.55130 1.02165   5
   2  -2   6 8.50901 1.04476   6
   2  -2   6 7.53100 1.06664   4
  -3   2  -6 2.89730 0.97645   3
  -3   2  -6 2.49415 1.37795   7
  -3   2  -6 2.39197 0.88174   6
   3  -2   6 3.02196 0.89122   2
   3  -2   6 2.47176 0.83918   5
   3  -2   6 2.11522 0.71030   4
   3  -2   6 1.62663 0.75767   6
  -4   2  -6 2.81748 1.32617   3
  -4   2  -6 5.46723 2.21661   7
  -4   2  -6 5.59230 1.35860   6
   4  -2   6 6.02259 1.47355   2
   4  -2   6 7.61086 1.48771   5
   4  -2   6 6.90691 1.41286   6
  -5   2  -6 1.82207 1.53958   3
  -5   2  -6 2.65063 1.37632   6
   5  -2   6 3.18323 1.43093   5
   5  -2   6 2.42696 1.56850   2
   5  -2   6 2.45509 1.29619   6
  -6   2  -6 11.1103 2.24883   6
  -6   2  -6 4.43489 2.24590   3
   6  -2   6 13.0496 2.61765   2
   6  -2   6 13.1830 2.39389   5
  -6  -1   6 4.67521 1.66185   3
  -6  -1   6 9.77840 3.08450   7
   5   1  -6 4.56779 1.57704   4
   5   1  -6 3.64854 1.59880   5
  -5  -1   6 6.42444 2.85250   7
  -5  -1   6 6.24193 1.61086   3
   4   1  -6 59.4066 3.03877   2
   4   1  -6 54.5744 3.50477   5
   4   1  -6 56.4710 3.65820   4
  -4  -1   6 62.4983 5.07594   1
  -4  -1   6 50.9420 4.74341   7
  -4  -1   6 57.3746 3.51082   3
   3   1  -6 288.323 10.6759   4
   3   1  -6 297.633 10.2751   5
   3   1  -6 285.936 9.54420   2
  -3  -1   6 298.171 10.0066   3
  -3  -1   6 253.921 11.6201   7
  -3  -1   6 290.466 12.0368   1
   2   1  -6 89.5498 4.27487   4
   2   1  -6 85.2019 3.81059   5
   2   1  -6 89.4887 3.33161   2
  -2  -1   6 84.2225 5.17105   1
  -2  -1   6 91.7318 3.65321   3
  -2  -1   6 84.4597 4.86102   7
   1   1  -6 215.110 6.66106   6
   1   1  -6 217.056 7.00295   2
   1   1  -6 218.591 8.00738   4
   1   1  -6 217.642 7.49971   5
   1   1  -6 199.682 6.62914   6
  -1  -1   6 222.583 8.50858   7
  -1  -1   6 209.082 7.92707   4
  -1  -1   6 222.790 7.22811   3
  -1  -1   6 212.260 8.98746   1
  -1  -1   6 212.826 6.64720   6
   0   1  -6 2.25177 0.69229   4
   0   1  -6 2.14764 0.54382   5
   0   1  -6 2.25874 0.49216   2
   0  -1   6 3.48746 1.06025   7
   0  -1   6 3.17221 0.59582   3
   0  -1   6 2.85921 1.17416   1
   0  -1   6 2.89584 0.47422   6
   0  -1   6 1.88143 0.43230   2
   0  -1   6 2.03992 0.52855   5
   0  -1   6 2.19234 0.75169   4
  -1   1  -6 -0.6058 0.33845   6
  -1   1  -6 -0.2001 0.36276   3
  -1   1  -6 0.55951 0.58631   7
   1  -1   6 0.45556 0.66473   7
   1  -1   6 0.13687 0.48872   4
   1  -1   6 0.45520 0.43785   3
   1  -1   6 0.12533 0.72800   1
   1  -1   6 0.43661 0.36494   5
   1  -1   6 0.47281 0.38699   6
   1  -1   6 0.35814 0.33931   2
  -2   1  -6 88.7275 4.16104   7
  -2   1  -6 86.9790 3.63426   3
  -2   1  -6 84.3043 4.08333   1
  -2   1  -6 86.8279 3.65110   6
   2  -1   6 88.4332 3.61861   4
   2  -1   6 88.0543 3.65438   6
   2  -1   6 90.2720 3.61622   5
   2  -1   6 82.7271 4.15785   1
   2  -1   6 89.7830 3.72459   2
   2  -1   6 88.1649 3.66693   3
  -3   1  -6 50.0783 2.75841   6
  -3   1  -6 51.0129 3.54744   7
  -3   1  -6 50.0583 2.86112   3
   3  -1   6 46.9138 2.71035   6
   3  -1   6 51.8812 2.68696   5
   3  -1   6 48.4181 2.75110   2
   3  -1   6 45.5803 2.32904   4
  -4   1  -6 29.0294 3.62136   7
  -4   1  -6 30.6376 2.77471   3
  -4   1  -6 30.2922 2.60517   6
   4  -1   6 28.3406 2.42241   6
   4  -1   6 28.9058 2.50602   2
   4  -1   6 32.2193 2.40873   5
  -5   1  -6 -0.6481 1.10538   6
  -5   1  -6 -2.6835 2.15371   7
  -5   1  -6 -0.6589 1.34503   3
   5  -1   6 -0.4699 1.03759   6
   5  -1   6 -0.4674 1.09089   5
   5  -1   6 -1.7933 1.09840   2
  -6   1  -6 5.91715 1.91177   6
  -6   1  -6 7.15754 2.52416   3
   6  -1   6 7.55230 2.04351   6
   6  -1   6 10.6792 2.40708   2
   6  -1   6 7.53538 2.02856   5
   6   0  -6 1.76280 1.79310   5
  -6   0   6 3.59325 1.68413   3
   5   0  -6 3.89229 1.50398   4
   5   0  -6 4.06551 1.69362   5
  -5   0   6 2.74882 2.40031   7
  -5   0   6 2.37890 1.42644   3
   4   0  -6 8.31810 1.18017   2
   4   0  -6 11.8132 2.04832   4
   4   0  -6 8.27134 1.60040   5
  -4   0   6 11.8575 3.16401   1
  -4   0   6 6.93923 2.69044   7
  -4   0   6 8.80464 1.75404   3
   3   0  -6 80.7536 3.19045   2
   3   0  -6 80.9158 3.85583   5
   3   0  -6 77.9286 4.17451   4
  -3   0   6 82.9361 3.82395   3
  -3   0   6 81.6930 5.30548   1
  -3   0   6 74.4017 4.97235   7
   2   0  -6 46.3411 1.90919   2
   2   0  -6 46.0464 2.45015   5
   2   0  -6 47.6517 2.85242   4
  -2   0   6 46.6458 2.43434   3
  -2   0   6 45.8907 3.68503   1
  -2   0   6 47.9206 3.46215   7
   1   0  -6 179.015 5.78623   2
   1   0  -6 181.525 6.88505   4
   1   0  -6 175.254 6.31799   5
  -1   0   6 172.533 5.71342   6
  -1   0   6 179.796 6.27117   3
  -1   0   6 182.562 7.91866   1
  -1   0   6 187.671 7.47403   7
   0   0  -6 168.462 5.83598   5
   0   0  -6 171.994 6.35742   4
   0   0  -6 164.371 5.60139   2
   0   0   6 170.537 5.67368   6
   0   0   6 166.988 5.80382   5
   0   0   6 175.925 5.65780   2
   0   0   6 172.586 6.81830   7
   0   0   6 168.226 5.88926   3
   0   0   6 166.149 6.30936   4
   0   0   6 167.231 7.26342   1
  -1   0  -6 12.7303 1.13093   4
  -1   0  -6 13.0996 1.41408   7
  -1   0  -6 13.6041 1.59981   1
   1   0   6 14.5661 1.73007   1
   1   0   6 13.7328 1.06082   2
   1   0   6 13.8535 1.18214   4
   1   0   6 14.5502 1.67586   7
   1   0   6 14.8036 1.01223   5
   1   0   6 13.7167 1.05259   6
   1   0   6 12.8217 1.15076   3
  -2   0  -6 -0.1821 0.36502   3
  -2   0  -6 0.35523 0.71073   7
  -2   0  -6 0.24836 0.56878   1
   2   0   6 0.08976 0.36153   4
   2   0   6 0.18935 0.39764   5
   2   0   6 0.33100 0.52497   3
   2   0   6 0.41112 0.44981   6
   2   0   6 -0.2363 0.35239   2
  -3   0  -6 81.2719 4.79454   7
  -3   0  -6 77.1549 3.89291   1
  -3   0  -6 76.6659 3.80672   3
  -3   0  -6 81.1778 3.72934   6
   3   0   6 81.5525 3.75494   6
   3   0   6 82.1768 3.79101   2
   3   0   6 77.4581 3.51805   5
  -4   0  -6 -1.1395 0.89953   6
  -4   0  -6 -1.6901 1.70881   7
  -4   0  -6 -0.1182 0.99946   3
   4   0   6 -1.6630 0.70870   5
   4   0   6 -1.9793 0.67655   6
   4   0   6 -1.6034 0.78411   2
  -5   0  -6 0.94800 2.67556   7
  -5   0  -6 2.40734 1.36960   6
  -5   0  -6 1.78718 1.68919   3
   5   0   6 4.59680 1.54869   5
   5   0   6 2.61036 1.25069   6
   5   0   6 5.28307 1.71019   2
  -6   0  -6 1.06777 1.93424   3
  -6   0  -6 0.34656 1.50893   6
   6   0   6 2.29313 1.59129   5
   6   0   6 1.39013 1.66901   2
   6   0   6 1.55379 1.50007   6
   6  -1  -6 3.10275 1.88854   5
  -6   1   6 12.6445 3.55053   7
  -6   1   6 5.59589 1.85185   3
   5  -1  -6 2.60310 1.48200   4
   5  -1  -6 2.02052 1.42550   5
  -5   1   6 3.90467 2.69667   7
  -5   1   6 2.05395 1.45718   3
   4  -1  -6 0.77090 1.01357   5
   4  -1  -6 -0.5966 1.06338   4
  -4   1   6 0.58535 1.82843   1
  -4   1   6 1.00603 1.17676   3
  -4   1   6 -0.7964 1.53293   7
   3  -1  -6 0.22573 0.75296   4
   3  -1  -6 -0.0518 0.40087   2
   3  -1  -6 0.30770 0.65043   5
  -3   1   6 1.07520 0.85680   3
  -3   1   6 -0.1416 1.50346   1
  -3   1   6 0.27019 1.17785   7
   2  -1  -6 0.18059 0.54020   4
   2  -1  -6 0.72303 0.47876   5
  -2   1   6 0.38057 0.97921   7
  -2   1   6 0.38040 0.27001   6
  -2   1   6 0.50465 0.59105   3
  -2   1   6 -1.6830 0.96276   1
   1  -1  -6 151.875 6.01210   4
   1  -1  -6 147.039 6.93205   1
   1  -1  -6 144.698 5.35153   5
  -1   1   6 160.009 6.62564   7
  -1   1   6 152.973 5.06371   6
  -1   1   6 153.875 7.08655   1
  -1   1   6 151.669 5.54659   3
   0  -1  -6 6.74355 1.07703   4
   0  -1  -6 5.76748 0.60345   5
   0  -1  -6 5.63288 1.60698   1
   0   1   6 5.22943 1.43630   1
   0   1   6 5.22021 0.61540   2
   0   1   6 4.80622 1.20211   7
   0   1   6 5.45200 0.68983   6
   0   1   6 5.50770 0.88110   3
  -1  -1  -6 156.019 6.72027   1
  -1  -1  -6 157.847 5.69746   4
  -1  -1  -6 154.211 6.37172   7
   1   1   6 153.810 5.67064   4
   1   1   6 150.251 5.29325   5
   1   1   6 157.262 5.60068   6
   1   1   6 162.853 5.52338   2
   1   1   6 156.465 5.72000   3
   1   1   6 161.076 6.63860   7
  -2  -1  -6 10.0240 1.63667   7
  -2  -1  -6 10.0732 1.47856   1
  -2  -1  -6 8.49759 0.79073   4
  -2  -1  -6 10.9730 1.35895   3
   2   1   6 10.1594 1.23256   6
   2   1   6 8.25530 0.89117   5
   2   1   6 9.39101 1.20178   2
   2   1   6 9.63655 1.31096   3
   2   1   6 7.68704 0.80577   4
  -3  -1  -6 2.70209 1.74237   7
  -3  -1  -6 3.25308 1.05215   3
  -3  -1  -6 2.89898 1.38218   1
   3   1   6 3.12790 1.01955   2
   3   1   6 3.33941 1.02903   6
   3   1   6 4.55916 0.93087   5
  -4  -1  -6 35.2185 2.76516   6
  -4  -1  -6 35.8901 2.86790   3
  -4  -1  -6 28.2170 4.12461   7
   4   1   6 27.9000 2.71644   2
   4   1   6 35.8834 2.73023   6
   4   1   6 32.3763 2.49811   5
  -5  -1  -6 2.97356 2.89080   7
  -5  -1  -6 5.87107 2.10192   3
  -5  -1  -6 5.37659 1.56948   6
   5   1   6 4.54307 1.47894   5
   5   1   6 7.58859 1.71318   2
   5   1   6 3.42743 1.43630   6
   6   1   6 -0.2130 1.64115   2
   6  -2  -6 13.2899 3.21844   4
   6  -2  -6 19.5461 3.04962   5
  -6   2   6 17.1988 2.75148   3
   5  -2  -6 2.09135 1.60735   4
   5  -2  -6 1.76837 1.39723   5
  -5   2   6 3.61207 2.80291   7
  -5   2   6 4.05369 1.69939   3
   4  -2  -6 182.344 8.62903   1
   4  -2  -6 168.482 7.57094   4
   4  -2  -6 173.460 7.16819   5
  -4   2   6 175.685 7.37997   3
  -4   2   6 186.634 9.18314   7
  -4   2   6 180.185 8.94927   1
   3  -2  -6 16.2786 2.37225   1
   3  -2  -6 16.0919 1.63542   5
   3  -2  -6 14.6163 1.88345   4
  -3   2   6 14.8372 2.78060   7
  -3   2   6 15.6550 1.88863   3
  -3   2   6 13.3831 1.08437   6
  -3   2   6 15.3881 2.94826   1
   2  -2  -6 50.6871 3.68802   1
   2  -2  -6 50.6988 2.96346   4
   2  -2  -6 50.4529 2.46309   5
  -2   2   6 51.0599 3.55402   7
  -2   2   6 47.5893 3.82997   1
  -2   2   6 51.0984 2.10662   6
  -2   2   6 52.0863 2.73457   3
   1  -2  -6 5.37350 0.65269   5
   1  -2  -6 5.91854 1.07588   4
   1  -2  -6 6.38887 1.64448   1
  -1   2   6 3.46194 1.19540   7
  -1   2   6 4.57750 1.50250   1
  -1   2   6 4.27079 0.90829   3
  -1   2   6 3.91751 0.59591   6
   0  -2  -6 905.274 28.1187   5
   0  -2  -6 921.091 28.9129   4
   0  -2  -6 896.908 30.2341   1
   0   2   6 911.345 30.4066   1
   0   2   6 919.979 28.0836   2
   0   2   6 928.292 28.7248   3
   0   2   6 943.952 29.8851   7
   0   2   6 935.277 28.4530   6
  -1  -2  -6 208.763 8.68809   1
  -1  -2  -6 211.544 8.33212   7
  -1  -2  -6 220.370 7.44012   4
   1   2   6 221.195 8.64978   7
   1   2   6 216.534 7.47740   6
   1   2   6 219.000 7.59914   3
   1   2   6 204.291 6.92242   5
   1   2   6 217.804 7.26319   2
  -2  -2  -6 1.01394 0.97243   1
  -2  -2  -6 0.63096 0.30754   4
  -2  -2  -6 0.63308 0.93760   7
  -2  -2  -6 0.13917 0.53511   3
   2   2   6 0.91228 0.58814   2
   2   2   6 1.39929 0.48772   5
   2   2   6 1.03366 0.69132   3
   2   2   6 0.03898 0.43792   6
  -3  -2  -6 407.200 13.9863   3
  -3  -2  -6 428.396 15.7251   7
  -3  -2  -6 402.110 14.9627   1
   3   2   6 399.608 13.4148   5
   3   2   6 408.678 14.0075   3
   3   2   6 408.283 13.9164   2
   3   2   6 421.551 13.9280   6
  -4  -2  -6 14.7975 3.43513   7
  -4  -2  -6 22.2190 2.48816   3
   4   2   6 17.1712 2.03368   5
   4   2   6 20.1419 2.30924   6
   4   2   6 22.7162 2.61855   2
  -5  -2  -6 39.6160 5.61879   7
  -5  -2  -6 54.1337 4.30150   3
  -5  -2  -6 59.2606 3.72334   6
   5   2   6 57.5243 4.05705   2
   5   2   6 53.7875 3.67042   6
   6  -3  -6 1.12897 1.86333   5
  -6   3   6 4.18476 1.94850   3
  -6   3   6 10.9652 3.47621   7
   5  -3  -6 -1.9418 1.37707   4
   5  -3  -6 -0.2966 1.21617   5
  -5   3   6 1.77561 2.56407   7
  -5   3   6 2.27551 1.61045   3
   4  -3  -6 32.0265 3.36384   1
   4  -3  -6 28.6468 2.92031   4
   4  -3  -6 22.2128 2.35275   5
  -4   3   6 28.9515 3.94573   7
  -4   3   6 24.7122 2.76722   3
  -4   3   6 25.7428 3.99340   1
   3  -3  -6 24.1102 2.34052   4
   3  -3  -6 25.1044 2.90273   1
   3  -3  -6 24.6790 1.98819   5
  -3   3   6 24.3621 2.32175   3
  -3   3   6 25.9140 3.52430   1
  -3   3   6 24.8102 1.58791   6
  -3   3   6 26.5393 3.09354   7
   2  -3  -6 10.8922 1.45930   4
   2  -3  -6 9.70723 1.09926   5
   2  -3  -6 10.2367 1.92539   1
  -2   3   6 12.1067 1.93506   7
  -2   3   6 11.3587 2.28191   1
  -2   3   6 10.4934 1.41713   3
  -2   3   6 12.4542 1.07787   6
   1  -3  -6 154.857 5.26725   5
   1  -3  -6 157.763 6.15943   4
   1  -3  -6 154.508 7.19360   1
  -1   3   6 155.106 5.45599   6
  -1   3   6 151.900 5.87260   3
  -1   3   6 151.399 6.74740   7
   0  -3  -6 43.8147 2.95829   7
   0  -3  -6 45.1068 3.32016   1
   0  -3  -6 46.6444 2.43436   4
   0   3   6 43.1164 1.81142   2
   0   3   6 46.1134 2.21688   6
   0   3   6 46.5465 3.16990   7
   0   3   6 45.6026 2.41854   3
  -1  -3  -6 5.81020 1.53855   1
  -1  -3  -6 3.63799 1.28702   7
  -1  -3  -6 5.30950 0.81531   4
   1   3   6 5.59900 0.92828   6
   1   3   6 6.04944 0.87063   2
   1   3   6 6.04215 1.64753   7
   1   3   6 5.80720 1.09109   3
  -2  -3  -6 95.1516 4.13573   3
  -2  -3  -6 98.8526 5.25358   7
  -2  -3  -6 97.6064 5.32568   1
   2   3   6 90.6596 3.49296   5
   2   3   6 99.2980 4.17592   6
   2   3   6 92.2517 4.03170   2
   2   3   6 97.5013 4.25237   3
  -3  -3  -6 8.67174 2.62624   1
  -3  -3  -6 7.57900 1.42953   3
  -3  -3  -6 8.57596 2.51908   7
   3   3   6 7.11874 1.16698   5
   3   3   6 6.43057 1.37507   6
   3   3   6 7.94871 1.51870   3
   3   3   6 5.45916 1.36138   2
  -4  -3  -6 29.0632 4.68976   7
  -4  -3  -6 34.3919 3.00474   3
   4   3   6 34.2434 2.84216   2
   4   3   6 35.2855 2.74163   6
  -5  -3  -6 20.2543 4.82208   7
  -5  -3  -6 28.4607 3.49338   3
   5   3   6 26.6773 3.04875   6
   5   3   6 34.7193 3.28828   2
   6  -4  -6 0.06402 1.66532   5
  -6   4   6 6.96946 3.26835   7
  -6   4   6 4.80335 2.05458   3
   5  -4  -6 -0.7360 1.19850   5
  -5   4   6 0.76488 1.53136   3
  -5   4   6 0.15219 2.29890   7
   4  -4  -6 50.9190 3.20066   5
   4  -4  -6 52.2991 3.88623   4
   4  -4  -6 51.7128 4.23510   1
  -4   4   6 47.8882 4.69490   7
  -4   4   6 43.5369 3.59062   3
   3  -4  -6 0.65919 0.80103   5
   3  -4  -6 0.09302 1.12369   1
   3  -4  -6 0.25878 0.91118   4
  -3   4   6 0.34714 1.49893   7
  -3   4   6 -0.4283 0.56484   6
  -3   4   6 -0.6062 0.82896   3
   2  -4  -6 3.31389 1.08599   4
   2  -4  -6 2.58785 1.34596   1
   2  -4  -6 2.22855 0.63921   5
  -2   4   6 2.66715 0.96391   3
  -2   4   6 3.26410 0.73361   6
  -2   4   6 2.60096 1.41625   7
   1  -4  -6 2.33939 1.25084   1
   1  -4  -6 2.28245 0.88471   4
   1  -4  -6 2.18593 0.46199   5
  -1   4   6 2.41421 0.88305   3
  -1   4   6 1.73336 0.61848   6
  -1   4   6 2.66897 1.26640   7
   0  -4  -6 0.61146 0.98827   1
   0  -4  -6 0.55178 0.78924   7
   0  -4  -6 0.60908 0.51318   4
   0   4   6 0.62742 0.59260   3
   0   4   6 0.11857 0.44713   6
   0   4   6 0.16416 0.89254   7
   0   4   6 0.78663 0.35048   2
  -1  -4  -6 123.486 6.25211   1
  -1  -4  -6 113.674 5.63113   7
  -1  -4  -6 114.581 4.47801   4
   1   4   6 123.187 4.91575   3
   1   4   6 115.869 4.73590   6
   1   4   6 116.029 4.44463   2
  -2  -4  -6 0.46784 1.45221   1
  -2  -4  -6 1.16594 1.32911   7
  -2  -4  -6 -0.2032 0.62386   3
   2   4   6 -0.0764 0.74301   3
   2   4   6 0.24957 0.64201   2
   2   4   6 0.28131 0.68652   6
  -3  -4  -6 26.0807 4.06290   1
  -3  -4  -6 27.4225 3.81505   7
  -3  -4  -6 28.1247 2.40804   3
   3   4   6 24.5495 2.29751   2
   3   4   6 28.1781 2.32054   6
   3   4   6 28.7970 2.51748   3
  -4  -4  -6 26.7611 4.61223   7
  -4  -4  -6 34.6679 3.04066   3
   4   4   6 30.4409 2.75440   6
   4   4   6 33.6084 2.93403   2
  -5  -4  -6 -1.0503 1.45783   3
  -5  -4  -6 -3.7078 3.14157   7
   5   4   6 -1.5144 1.14506   6
   5   4   6 -0.3818 1.29831   2
   6  -5  -6 -1.4877 1.54893   5
   5  -5  -6 -0.2501 1.27377   5
   5  -5  -6 -0.6964 1.75909   4
  -5   5   6 3.22586 1.84997   3
  -5   5   6 3.55702 2.54527   7
   4  -5  -6 1.55038 1.70524   1
   4  -5  -6 1.95515 1.57605   4
   4  -5  -6 2.41263 1.14706   5
  -4   5   6 1.23073 1.39974   3
  -4   5   6 1.75503 1.43853   6
  -4   5   6 2.60595 2.21352   7
   3  -5  -6 -1.2242 1.13039   1
   3  -5  -6 0.81543 0.81539   5
   3  -5  -6 -0.3905 1.02039   4
  -3   5   6 -1.5283 1.39759   7
  -3   5   6 -0.3458 0.65852   6
  -3   5   6 -1.4632 0.86456   3
   2  -5  -6 6.96072 2.01981   1
   2  -5  -6 6.33565 1.43054   4
   2  -5  -6 6.21774 0.95828   5
  -2   5   6 6.82881 2.01342   7
  -2   5   6 4.53877 1.18500   3
  -2   5   6 6.76811 1.05852   6
   1  -5  -6 54.5038 3.16181   4
   1  -5  -6 56.0178 4.15016   1
   1  -5  -6 53.8997 2.12562   5
  -1   5   6 56.7769 3.84974   7
  -1   5   6 57.4969 3.06936   3
  -1   5   6 53.0706 2.69903   6
   0  -5  -6 30.9740 2.69336   7
   0  -5  -6 31.3333 3.18335   1
   0  -5  -6 32.7435 2.17696   4
   0   5   6 29.5435 2.00455   6
   0   5   6 31.0485 1.59948   2
   0   5   6 32.6230 3.04498   7
   0   5   6 32.3779 2.20390   3
  -1  -5  -6 30.9625 2.00749   4
  -1  -5  -6 32.2144 3.45434   1
  -1  -5  -6 31.0562 2.89965   7
   1   5   6 29.4508 1.86510   2
   1   5   6 32.9896 2.30927   3
   1   5   6 28.3308 2.08975   6
  -2  -5  -6 5.10878 1.99150   7
  -2  -5  -6 7.64294 1.43402   3
  -2  -5  -6 5.91030 2.38862   1
   2   5   6 7.40726 1.28014   6
   2   5   6 8.35548 1.36911   2
   2   5   6 8.29711 1.52164   3
  -3  -5  -6 4.58754 1.34121   3
  -3  -5  -6 3.23082 2.30413   7
  -3  -5  -6 3.97471 2.79758   1
   3   5   6 4.38007 1.45820   3
   3   5   6 4.83446 1.37738   2
   3   5   6 4.99864 1.29081   6
  -4  -5  -6 7.42781 3.29745   7
  -4  -5  -6 8.62716 1.96386   3
   4   5   6 8.54591 1.61834   6
   4   5   6 10.4325 1.94356   2
  -5  -5  -6 -3.6404 2.83055   7
  -5  -5  -6 -1.2950 1.54028   3
   5   5   6 0.83096 1.42161   2
   5   5   6 -0.5655 1.27395   6
   5  -6  -6 -0.3209 1.25281   5
  -5   6   6 1.82303 1.74258   3
  -5   6   6 5.58715 2.50974   7
   4  -6  -6 5.13503 2.10019   4
   4  -6  -6 5.06984 1.39492   5
   4  -6  -6 6.50295 2.31288   1
  -4   6   6 4.51540 1.77722   3
  -4   6   6 4.76619 2.43855   7
  -4   6   6 3.99856 1.18324   6
   3  -6  -6 11.2550 2.76472   1
   3  -6  -6 8.82325 1.42037   5
   3  -6  -6 8.40978 2.00839   4
  -3   6   6 13.5286 2.85896   7
  -3   6   6 10.9958 1.45696   6
  -3   6   6 8.68754 1.76132   3
   2  -6  -6 37.3835 3.05924   4
   2  -6  -6 32.9397 2.05397   5
   2  -6  -6 35.6312 3.78193   1
  -2   6   6 35.3596 2.70069   3
  -2   6   6 39.0452 2.43869   6
  -2   6   6 41.6852 3.58131   7
   1  -6  -6 41.2171 3.86504   1
   1  -6  -6 40.2430 2.85115   4
   1  -6  -6 36.6867 3.06342   7
  -1   6   6 37.2205 2.36241   6
  -1   6   6 36.8991 3.36585   7
  -1   6   6 37.3851 2.64339   3
   0  -6  -6 84.9213 5.62585   1
   0  -6  -6 85.9187 4.05653   4
   0  -6  -6 77.8474 4.64459   7
   0   6   6 79.3391 3.29311   2
   0   6   6 80.9530 3.83973   6
   0   6   6 90.2666 5.24035   7
   0   6   6 80.8865 3.99561   3
  -1  -6  -6 6.93090 1.99124   7
  -1  -6  -6 9.02856 1.49792   4
  -1  -6  -6 10.7442 2.80871   1
   1   6   6 9.42008 1.66471   3
   1   6   6 7.11895 1.24739   6
   1   6   6 7.62622 1.17500   2
  -2  -6  -6 14.0790 1.97303   3
  -2  -6  -6 14.5767 3.22592   7
  -2  -6  -6 13.1538 3.39901   1
   2   6   6 16.6441 1.93642   2
   2   6   6 11.7422 1.65758   6
   2   6   6 15.7807 2.15141   3
  -3  -6  -6 5.35558 2.70773   7
  -3  -6  -6 5.04284 3.46802   1
  -3  -6  -6 5.78451 1.50581   3
   3   6   6 7.05034 1.52303   2
   3   6   6 8.19561 1.79917   3
   3   6   6 9.27082 1.69297   6
  -4  -6  -6 0.04862 1.11543   3
  -4  -6  -6 -0.4462 2.64295   7
   4   6   6 -0.8802 1.04521   6
   4   6   6 1.08431 1.27216   2
   5  -7  -6 9.10454 3.12737   4
   5  -7  -6 11.0496 2.15944   5
  -5   7   6 12.3574 2.64532   3
   4  -7  -6 1.79133 2.07387   1
   4  -7  -6 0.58459 1.98288   4
   4  -7  -6 1.91451 1.24159   5
  -4   7   6 4.18495 2.36169   7
  -4   7   6 1.06412 1.12398   6
  -4   7   6 0.39869 1.50157   3
   3  -7  -6 8.78454 2.79627   1
   3  -7  -6 5.48156 1.26464   5
   3  -7  -6 6.76777 2.10328   4
  -3   7   6 4.36404 1.67029   3
  -3   7   6 8.65839 2.42136   7
  -3   7   6 6.14996 1.34504   6
   2  -7  -6 139.499 6.61169   4
   2  -7  -6 133.488 7.78845   1
  -2   7   6 134.066 6.12026   3
  -2   7   6 141.708 5.75755   6
  -2   7   6 139.662 7.16813   7
   1  -7  -6 66.5300 5.62399   1
   1  -7  -6 66.7156 4.21012   4
   1  -7  -6 67.5876 4.48734   7
  -1   7   6 71.1579 5.02992   7
  -1   7   6 74.3426 3.94876   3
  -1   7   6 74.5205 3.72961   6
   0  -7  -6 35.9224 4.28778   1
   0  -7  -6 37.9508 2.94851   4
   0  -7  -6 37.0882 3.47403   7
   0   7   6 35.4229 2.09163   2
   0   7   6 35.7333 2.67102   6
   0   7   6 29.8819 2.65416   3
  -1  -7  -6 -0.3257 1.45512   7
  -1  -7  -6 -0.9175 1.35432   4
  -1  -7  -6 -0.2186 2.12104   1
   1   7   6 -0.5836 1.04198   3
   1   7   6 0.85797 0.82548   2
   1   7   6 -1.1484 0.73330   6
  -2  -7  -6 25.9494 4.94656   1
  -2  -7  -6 30.1261 2.50608   3
  -2  -7  -6 23.8173 3.73660   7
   2   7   6 28.2966 2.53584   6
   2   7   6 32.7488 2.45237   2
   2   7   6 28.1008 2.58566   3
  -3  -7  -6 -0.5846 2.43868   7
  -3  -7  -6 1.64713 1.15709   3
  -3  -7  -6 -3.5060 2.96757   1
   3   7   6 0.63691 1.26017   3
   3   7   6 2.96009 1.22433   6
   3   7   6 0.98808 1.10668   2
  -4  -7  -6 4.15052 1.64280   3
  -4  -7  -6 0.66247 2.97944   7
   4   7   6 4.89129 1.65206   6
   4   7   6 5.91592 1.78983   2
   5  -8  -6 0.75503 1.82193   5
  -5   8   6 1.79890 1.93353   3
   4  -8  -6 22.0070 4.21690   1
   4  -8  -6 17.9920 3.31874   4
  -4   8   6 23.6932 2.62242   6
  -4   8   6 26.1133 3.42560   3
   3  -8  -6 -1.4865 1.98850   1
   3  -8  -6 0.32251 1.88001   4
  -3   8   6 -0.0906 0.99120   6
  -3   8   6 -1.5833 1.68857   7
  -3   8   6 -0.4179 1.35299   3
   2  -8  -6 205.958 9.00682   4
   2  -8  -6 214.157 10.7859   1
   2  -8  -6 213.940 9.16177   7
  -2   8   6 203.916 8.60488   3
  -2   8   6 225.279 9.80156   7
  -2   8   6 218.576 8.25429   6
   1  -8  -6 8.26950 2.08051   4
   1  -8  -6 6.98076 2.85453   1
   1  -8  -6 10.1122 2.53152   7
  -1   8   6 4.57265 1.63090   3
  -1   8   6 5.03332 2.64242   7
  -1   8   6 6.24703 1.46657   6
   0  -8  -6 11.0954 3.34418   1
   0  -8  -6 15.2176 2.88216   7
   0  -8  -6 10.2325 2.09971   4
   0   8   6 12.8551 1.93541   6
   0   8   6 10.7359 1.98084   3
   0   8   6 11.5110 1.73264   2
  -1  -8  -6 14.3432 4.12999   1
  -1  -8  -6 14.1893 2.96363   7
   1   8   6 16.9940 2.24640   3
   1   8   6 12.9552 1.81814   6
   1   8   6 15.5806 1.80273   2
  -2  -8  -6 9.02827 1.67425   3
  -2  -8  -6 5.87549 3.58062   1
  -2  -8  -6 6.52090 3.05770   7
   2   8   6 7.70469 1.65544   6
   2   8   6 7.98246 1.53273   2
   2   8   6 7.40591 1.71387   3
  -3  -8  -6 1.32286 1.14290   3
  -3  -8  -6 -0.0160 2.60446   7
  -3  -8  -6 -4.4249 3.10202   1
   3   8   6 1.41173 1.25843   2
   3   8   6 0.46097 1.21166   6
   3   8   6 3.52762 1.56481   3
  -4  -8  -6 -3.0530 3.36187   7
  -4  -8  -6 -0.4801 1.24915   3
   4   8   6 -0.2801 1.33011   6
   4   8   6 0.57854 1.37540   2
   4  -9  -6 -4.7762 2.03593   4
  -4   9   6 -0.6112 1.18080   6
  -4   9   6 0.89823 1.79862   3
   3  -9  -6 -2.6111 2.16781   1
  -3   9   6 -0.6524 1.38360   3
  -3   9   6 -1.5509 2.23534   7
  -3   9   6 -0.6443 1.01709   6
   2  -9  -6 9.70356 3.68262   1
   2  -9  -6 6.92306 2.42148   4
  -2   9   6 7.42544 1.61607   6
  -2   9   6 6.41890 2.69310   7
  -2   9   6 7.89150 1.94424   3
   1  -9  -6 2.39215 2.82730   1
   1  -9  -6 0.54131 1.45921   7
   1  -9  -6 -0.5705 1.67123   4
  -1   9   6 1.00512 1.23048   6
  -1   9   6 1.52613 1.34575   3
   0  -9  -6 2.48765 3.07364   1
   0  -9  -6 -0.6815 1.53496   4
   0  -9  -6 1.87080 1.75817   7
   0   9   6 2.44296 1.30373   3
   0   9   6 2.75523 1.30355   6
  -1  -9  -6 -2.1161 2.84046   1
  -1  -9  -6 -0.1475 1.97148   7
   1   9   6 0.22659 0.93532   2
   1   9   6 -0.2273 1.00606   6
   1   9   6 0.63369 1.14506   3
  -2  -9  -6 6.58594 1.54113   3
  -2  -9  -6 1.08580 3.72318   1
  -2  -9  -6 0.96004 2.38513   7
   2   9   6 7.04660 1.87842   3
   2   9   6 6.43917 1.59963   2
   2   9   6 4.20667 1.56157   6
  -3  -9  -6 -3.9018 3.36287   1
  -3  -9  -6 4.85371 1.58760   3
  -3  -9  -6 -2.1902 2.81954   7
   3   9   6 3.61316 1.48310   2
   3   9   6 2.47307 1.68321   3
   3   9   6 1.72989 1.55119   6
  -4  10   6 0.39970 1.64145   3
  -4  10   6 0.67481 1.27154   6
   3 -10  -6 -4.4690 2.57754   1
   3 -10  -6 -5.2793 2.15184   4
  -3  10   6 -0.1470 1.51577   3
  -3  10   6 2.84976 1.36371   6
   2 -10  -6 1.25086 3.24805   1
   2 -10  -6 -1.4217 2.10277   4
   2 -10  -6 6.23206 2.11065   7
  -2  10   6 3.92951 1.48271   6
  -2  10   6 5.17279 1.79312   3
  -2  10   6 3.52140 2.73964   7
   1 -10  -6 3.30642 2.25993   4
   1 -10  -6 3.97463 3.63602   1
   1 -10  -6 9.86994 2.46900   7
  -1  10   6 6.01338 1.69708   3
  -1  10   6 9.19896 1.85478   6
   0 -10  -6 -4.5775 2.78296   1
   0 -10  -6 -3.4912 1.53523   4
   0 -10  -6 -0.0964 1.78290   7
   0  10   6 -0.3262 1.05957   3
   0  10   6 -0.7604 1.08920   6
  -1 -10  -6 8.01650 3.06001   7
  -1 -10  -6 9.08774 4.59657   1
   1  10   6 11.0415 2.11172   6
   1  10   6 9.98466 1.96051   3
  -2 -10  -6 0.28346 4.20534   1
  -2 -10  -6 4.53903 3.20752   7
  -2 -10  -6 9.76419 1.65887   3
   2  10   6 7.35486 1.96887   6
   2  10   6 7.07058 1.93130   3
   2  10   6 4.14935 1.54599   2
  -3 -10  -6 -4.8151 3.54747   1
   3  10   6 0.84248 1.41504   2
   3 -11  -6 -4.3554 3.33857   1
  -3  11   6 1.68608 1.44141   6
  -3  11   6 1.22353 1.74459   3
   2 -11  -6 -4.6084 3.27724   1
  -2  11   6 0.20994 1.41255   3
  -2  11   6 -0.9473 1.17949   6
   1 -11  -6 2.90892 2.43266   4
   1 -11  -6 6.47472 2.34849   7
   1 -11  -6 0.66816 3.99758   1
  -1  11   6 6.99312 1.77505   6
  -1  11   6 2.30827 1.45606   3
   0 -11  -6 1.33842 4.50579   1
   0 -11  -6 2.74471 2.56873   7
   0  11   6 2.35787 1.45485   6
   0  11   6 3.65519 1.55446   3
  -1 -11  -6 1.21258 2.83128   7
  -1 -11  -6 -4.4191 4.15510   1
   1  11   6 0.01360 1.51942   6
   1  11   6 1.38528 1.56747   3
  -2 -11  -6 3.00704 1.13004   3
  -2 -11  -6 -2.9998 3.04238   7
  -2 -11  -6 -6.8079 3.94742   1
   2  11   6 -1.0612 1.47961   3
   2  11   6 1.80582 1.60269   6
   2  11   6 2.25008 2.18011   2
  -2  12   6 -1.4320 1.43244   3
  -2  12   6 0.84196 1.47868   6
   1 -12  -6 -3.7859 4.26636   1
  -1  12   6 -0.2978 1.44589   6
  -1  12   6 0.36379 1.53113   3
   0 -12  -6 -6.7900 4.30864   1
   0 -12  -6 -1.8317 2.51961   7
   0  12   6 2.27048 1.59915   3
   0  12   6 2.67131 1.56993   6
  -1 -12  -6 -4.3921 4.69721   1
   0 -13   7 7.48559 2.77644   1
  -1  13  -7 5.36798 1.89856   5
  -1  13  -7 0.94952 1.70486   2
   1 -13   7 4.79029 1.78202   5
   1  12  -7 2.64834 1.89171   2
   1  12  -7 3.00210 1.63097   5
  -1 -12   7 8.48059 2.34200   4
  -1 -12   7 13.4540 3.77908   1
   0  12  -7 4.45545 1.81133   2
   0  12  -7 4.38746 1.76323   5
   0 -12   7 10.5408 3.37010   1
   0 -12   7 11.5524 2.51660   4
  -1  12  -7 4.31384 1.73145   5
  -1  12  -7 4.22139 1.60269   6
  -1  12  -7 3.20708 1.65504   2
   1 -12   7 5.31062 1.79035   5
   1 -12   7 8.31353 2.16930   4
   1 -12   7 8.61413 2.66400   1
  -2  12  -7 3.74321 1.63619   6
  -2  12  -7 4.96713 1.81864   5
  -2  12  -7 2.94837 1.62554   2
   2 -12   7 7.68465 2.12821   4
   2 -12   7 4.46236 1.73039   5
  -3  12  -7 7.25881 2.07945   2
  -3  12  -7 10.0761 2.36166   5
  -3  12  -7 7.85734 2.10785   6
   3 -12   7 9.01109 2.10300   5
   3 -12   7 10.7911 2.44266   4
   2  11  -7 0.54285 1.71145   2
   2  11  -7 2.43642 1.68304   5
  -2 -11   7 8.30588 2.23790   4
  -2 -11   7 8.82376 3.59030   1
   1  11  -7 4.92800 1.73135   5
   1  11  -7 1.41196 1.59857   2
  -1 -11   7 6.84090 2.16101   4
  -1 -11   7 10.7836 3.53416   1
   0  11  -7 2.48525 1.51006   2
   0  11  -7 3.46358 1.49191   5
   0 -11   7 6.60881 1.92727   4
   0 -11   7 5.48557 2.82977   1
  -1  11  -7 -1.1614 1.12861   2
  -1  11  -7 -0.7044 1.17057   6
  -1  11  -7 -0.2921 1.10570   5
   1 -11   7 2.14096 1.54292   4
   1 -11   7 0.24826 1.23950   5
   1 -11   7 3.17452 1.85696   1
  -2  11  -7 11.9745 2.04558   6
  -2  11  -7 10.1661 2.04278   2
  -2  11  -7 14.0954 2.46884   5
   2 -11   7 16.5422 4.40160   1
   2 -11   7 12.4092 2.22260   5
   2 -11   7 11.1526 2.39332   4
  -3  11  -7 0.45491 1.59005   6
  -3  11  -7 1.13652 1.41057   2
   3 -11   7 2.30806 1.39450   5
   3 -11   7 3.46952 1.61012   4
  -4  11  -7 2.07477 1.73187   2
   4 -11   7 3.35824 1.54978   5
  -3 -10   7 14.9571 4.39274   1
   2  10  -7 7.94578 2.10499   2
   2  10  -7 13.9078 2.48532   5
  -2 -10   7 14.1336 2.71505   4
  -2 -10   7 15.6239 4.24030   1
   1  10  -7 16.3262 2.47103   2
   1  10  -7 19.2987 2.71608   5
  -1 -10   7 25.9162 4.49861   1
  -1 -10   7 24.6946 3.25049   4
   0  10  -7 7.57603 1.81000   2
   0  10  -7 6.60987 1.45663   6
   0  10  -7 10.6023 1.95832   5
   0 -10   7 11.2788 3.27786   1
   0 -10   7 7.33435 2.00982   4
  -1  10  -7 0.99279 1.17903   6
  -1  10  -7 0.57323 1.23020   2
  -1  10  -7 1.51226 1.26322   5
   1 -10   7 3.13111 1.96290   1
   1 -10   7 2.34772 1.42680   5
   1 -10   7 2.53769 1.53506   4
  -2  10  -7 15.0259 2.35810   2
  -2  10  -7 13.3196 2.11684   6
  -2  10  -7 17.2217 2.53706   5
   2 -10   7 15.0416 2.64123   4
   2 -10   7 17.3326 2.92821   1
   2 -10   7 13.1675 2.13525   5
  -3  10  -7 0.75355 1.39482   6
  -3  10  -7 1.21072 1.44521   2
   3 -10   7 6.68370 1.85103   4
   3 -10   7 3.90482 1.48506   5
  -4  10  -7 0.58197 1.70432   6
  -4  10  -7 1.32355 1.40041   2
   4 -10   7 4.95627 1.57520   4
   4 -10   7 1.55867 1.32339   5
   3   9  -7 -1.5693 1.17159   5
   3   9  -7 -0.0300 1.38234   4
   3   9  -7 0.23143 1.60793   2
  -3  -9   7 -0.3229 1.54342   4
  -3  -9   7 5.90110 3.26932   1
   2   9  -7 21.4352 2.81491   5
   2   9  -7 20.9524 2.67481   2
  -2  -9   7 24.5782 4.73395   1
  -2  -9   7 27.7399 3.57029   7
  -2  -9   7 26.6989 3.30239   4
   1   9  -7 12.5407 2.10050   5
   1   9  -7 9.59227 1.91982   2
  -1  -9   7 10.5932 3.50306   1
  -1  -9   7 11.9049 2.45745   4
   0   9  -7 -0.2171 0.90179   5
   0   9  -7 -1.0565 0.94171   2
   0   9  -7 -0.8009 0.82774   6
   0  -9   7 0.34009 1.81718   1
   0  -9   7 -0.8813 0.99870   5
   0  -9   7 -0.3905 1.18844   4
  -1   9  -7 2.67987 1.29250   2
  -1   9  -7 5.24860 1.37786   6
  -1   9  -7 4.87412 1.35311   5
   1  -9   7 5.32787 1.64062   4
   1  -9   7 8.00124 2.65041   1
   1  -9   7 3.47628 1.36138   5
  -2   9  -7 70.8067 3.97251   6
  -2   9  -7 70.5992 4.16133   2
   2  -9   7 70.8123 4.57224   4
   2  -9   7 62.2574 4.90267   1
   2  -9   7 72.2460 4.14397   5
  -3   9  -7 0.39905 1.21402   2
  -3   9  -7 0.20093 1.26467   6
   3  -9   7 4.88536 1.48332   5
   3  -9   7 4.13113 1.52830   4
  -4   9  -7 1.78324 1.40775   2
  -4   9  -7 0.54795 1.50061   6
   4  -9   7 2.13989 1.25549   5
   4  -9   7 5.18944 1.60068   4
   4  -9   7 1.44996 1.38055   2
   5  -9   7 1.90864 1.62912   2
  -4  -8   7 35.9501 5.04153   1
  -4  -8   7 23.8464 3.61796   7
   3   8  -7 5.43929 1.77848   2
   3   8  -7 5.86068 1.93685   4
   3   8  -7 6.78707 1.86008   5
  -3  -8   7 13.6252 3.84723   1
  -3  -8   7 5.61809 2.07749   4
   2   8  -7 2.68530 1.31027   2
   2   8  -7 3.46998 1.46517   5
  -2  -8   7 3.69650 2.76845   1
  -2  -8   7 4.08033 1.87169   4
  -2  -8   7 2.82867 1.73437   7
   1   8  -7 1.10513 1.03566   5
   1   8  -7 -0.3721 0.95469   2
  -1  -8   7 -1.6816 1.83654   1
  -1  -8   7 1.13209 1.29202   4
  -1  -8   7 -0.1795 1.33533   7
   0   8  -7 27.0039 2.40678   5
   0   8  -7 20.9890 2.28870   2
   0   8  -7 23.7757 1.99690   6
   0  -8   7 23.5844 2.31673   5
   0  -8   7 25.1634 3.62753   1
   0  -8   7 25.8596 2.79141   4
  -1   8  -7 16.7210 2.04690   5
  -1   8  -7 15.2611 2.12026   2
  -1   8  -7 14.7160 1.71024   6
   1  -8   7 12.3329 1.92808   5
   1  -8   7 12.9136 2.20985   4
   1  -8   7 17.1979 2.98014   1
  -2   8  -7 11.2581 1.75495   6
  -2   8  -7 10.3859 1.88085   2
   2  -8   7 7.99510 1.61453   5
   2  -8   7 13.9682 2.56747   1
   2  -8   7 10.1783 2.03447   4
  -3   8  -7 23.4343 2.58319   2
  -3   8  -7 23.5683 2.60284   6
   3  -8   7 26.4654 2.56452   5
   3  -8   7 25.5256 2.48020   2
   3  -8   7 28.1209 2.83746   4
  -4   8  -7 2.83885 1.51420   2
  -4   8  -7 2.48823 1.40711   6
   4  -8   7 6.44755 1.66250   4
   4  -8   7 2.97857 1.35299   2
   4  -8   7 4.15959 1.45609   5
  -5   8  -7 3.34754 1.67091   2
  -5   8  -7 2.57093 1.74180   6
  -5   8  -7 4.17261 2.23935   3
   5  -8   7 3.56248 1.70261   5
   5  -8   7 3.69012 1.70731   2
   4   7  -7 -0.0007 1.44354   2
  -4  -7   7 6.28412 2.16919   7
   3   7  -7 0.86249 1.27063   2
   3   7  -7 2.34606 1.38756   5
   3   7  -7 2.51203 1.52078   4
  -3  -7   7 6.63798 2.41920   7
  -3  -7   7 4.56768 1.87706   4
  -3  -7   7 7.41992 3.23929   1
   2   7  -7 -1.3582 0.83937   5
   2   7  -7 -0.7537 0.90277   2
  -2  -7   7 -0.3808 1.33609   4
  -2  -7   7 0.99452 1.59106   7
  -2  -7   7 0.57459 2.20404   1
   1   7  -7 1.74298 1.01243   2
   1   7  -7 1.67356 0.93486   5
  -1  -7   7 1.39021 1.97587   1
  -1  -7   7 3.89249 1.56443   4
  -1  -7   7 1.90111 1.42518   7
   0   7  -7 3.44938 0.84971   6
   0   7  -7 5.00155 1.22344   5
   0   7  -7 3.84934 1.12593   2
   0  -7   7 2.65672 1.09746   5
   0  -7   7 2.82413 1.35891   4
   0  -7   7 4.03325 1.26117   7
   0  -7   7 1.40378 1.91512   1
  -1   7  -7 29.2081 2.43010   2
  -1   7  -7 32.3519 2.39744   5
  -1   7  -7 31.8256 2.20203   6
   1  -7   7 25.2112 3.24135   1
   1  -7   7 28.2044 2.46552   5
   1  -7   7 31.8085 2.81523   4
  -2   7  -7 273.506 9.41272   6
  -2   7  -7 252.999 9.43141   2
   2  -7   7 242.070 9.38634   5
   2  -7   7 243.924 10.5777   1
   2  -7   7 254.374 9.92249   4
  -3   7  -7 1.43846 1.20719   6
  -3   7  -7 2.77587 1.22658   3
  -3   7  -7 3.87479 1.33213   2
   3  -7   7 2.83097 1.12740   2
   3  -7   7 3.96689 1.48297   4
   3  -7   7 3.02799 1.19725   5
  -4   7  -7 0.26399 1.19320   6
  -4   7  -7 0.71764 1.32141   2
  -4   7  -7 2.24552 1.33990   3
   4  -7   7 3.09406 1.27950   4
   4  -7   7 1.48328 1.28409   2
   4  -7   7 1.76741 1.21465   5
  -5   7  -7 6.40337 1.92549   6
  -5   7  -7 6.18665 1.84318   3
  -5   7  -7 9.55811 2.13073   2
   5  -7   7 9.96166 2.15031   5
   5  -7   7 9.33004 2.25163   2
   4   6  -7 -0.7586 1.21009   5
   4   6  -7 -0.1278 1.41142   4
   4   6  -7 -1.8256 1.17156   2
  -4  -6   7 4.90949 2.04079   7
  -4  -6   7 9.80943 3.15069   1
   3   6  -7 0.84192 1.25103   4
   3   6  -7 1.13186 1.18444   2
   3   6  -7 -0.0699 1.07342   5
  -3  -6   7 2.57124 2.06501   7
  -3  -6   7 -0.0634 1.52400   4
  -3  -6   7 2.62861 2.60354   1
   2   6  -7 1.67486 1.20491   4
   2   6  -7 3.08770 1.09876   2
   2   6  -7 2.26077 1.10685   5
  -2  -6   7 0.75690 2.05957   1
  -2  -6   7 2.78434 1.57811   4
  -2  -6   7 2.10320 1.76906   7
   1   6  -7 9.46851 1.16461   6
   1   6  -7 10.6410 1.57393   2
   1   6  -7 7.38179 1.36840   5
  -1  -6   7 7.67630 2.55228   1
  -1  -6   7 6.65540 1.90119   7
  -1  -6   7 10.5299 1.99451   4
   0   6  -7 1.58425 0.79648   5
   0   6  -7 0.82029 0.58913   6
   0   6  -7 1.14868 0.75693   2
   0  -6   7 -0.1442 0.76644   5
   0  -6   7 0.14076 1.39336   1
   0  -6   7 0.54171 0.75479   7
   0  -6   7 0.13407 0.89961   4
  -1   6  -7 0.27794 0.59903   6
  -1   6  -7 0.96358 0.71313   5
  -1   6  -7 0.84723 0.81990   2
   1  -6   7 0.33024 0.73542   5
   1  -6   7 -0.3811 0.83003   4
   1  -6   7 0.09077 1.16888   1
  -2   6  -7 129.013 5.31331   6
  -2   6  -7 126.943 5.38291   2
  -2   6  -7 126.677 4.87524   3
   2  -6   7 124.345 5.75216   4
   2  -6   7 124.823 5.37872   5
   2  -6   7 114.313 6.16219   1
   2  -6   7 120.007 5.24797   2
  -3   6  -7 359.748 12.6765   6
  -3   6  -7 354.150 12.3875   3
  -3   6  -7 368.880 12.7570   2
   3  -6   7 346.196 12.6272   2
   3  -6   7 362.786 12.7000   5
   3  -6   7 353.036 12.9112   4
  -4   6  -7 0.38440 1.12730   6
  -4   6  -7 -0.6761 1.05681   2
  -4   6  -7 -0.7665 1.05129   3
   4  -6   7 -0.4853 0.94054   2
   4  -6   7 -0.0021 0.95244   5
   4  -6   7 2.18179 1.10276   4
  -5   6  -7 -0.0213 1.33627   3
  -5   6  -7 -0.5028 1.38472   6
  -5   6  -7 1.22515 1.33124   2
   5  -6   7 1.91526 1.32201   5
   5  -6   7 -0.1522 1.37595   2
  -5  -5   7 25.4594 3.92239   7
   4   5  -7 1.06794 1.28384   4
   4   5  -7 0.82678 1.19089   2
   4   5  -7 1.36489 1.35447   5
  -4  -5   7 6.89480 3.35075   1
  -4  -5   7 4.71747 2.16278   7
   3   5  -7 23.3241 2.27138   2
   3   5  -7 23.1044 2.59663   4
   3   5  -7 24.0533 2.46730   5
  -3  -5   7 16.5977 3.20602   7
  -3  -5   7 23.9694 2.91516   4
  -3  -5   7 26.2857 4.42945   1
   2   5  -7 21.6877 2.38738   4
   2   5  -7 24.6576 1.99541   2
   2   5  -7 21.5515 2.05061   5
  -2  -5   7 21.3659 2.52791   4
  -2  -5   7 18.0592 3.37271   1
  -2  -5   7 19.2007 2.89691   7
   1   5  -7 0.40959 0.64909   2
   1   5  -7 0.05871 0.56084   5
   1   5  -7 1.47439 0.44475   6
  -1  -5   7 -0.7456 0.78587   4
  -1  -5   7 0.07743 0.95570   7
  -1  -5   7 -0.9256 1.14536   1
   0   5  -7 64.6587 2.73555   6
   0   5  -7 65.5266 3.14696   2
   0   5  -7 65.1415 3.31177   5
   0  -5   7 62.9727 3.62655   4
   0  -5   7 67.3741 3.34102   5
   0  -5   7 59.5606 4.49321   1
   0  -5   7 62.2415 3.44978   7
  -1   5  -7 -0.0845 0.59277   2
  -1   5  -7 1.41502 0.63986   6
  -1   5  -7 0.68846 0.60427   5
  -1   5  -7 1.27479 0.53004   3
   1  -5   7 -0.4928 0.71835   4
   1  -5   7 0.76779 0.65985   7
   1  -5   7 -0.0317 0.60886   5
   1  -5   7 0.60514 1.13653   1
  -2   5  -7 261.745 9.26277   6
  -2   5  -7 251.983 8.87548   3
  -2   5  -7 271.516 9.41788   2
   2  -5   7 261.847 9.40649   5
   2  -5   7 257.720 9.67414   4
   2  -5   7 253.550 10.2326   1
  -3   5  -7 130.314 5.58828   3
  -3   5  -7 135.107 5.84183   2
   3  -5   7 132.297 5.88250   4
   3  -5   7 139.319 5.80806   5
   3  -5   7 134.780 5.80345   2
  -4   5  -7 0.02896 1.07986   3
  -4   5  -7 1.13731 1.23569   2
  -4   5  -7 0.20644 1.01385   6
   4  -5   7 2.26658 1.19690   5
   4  -5   7 -0.7583 0.94180   2
   4  -5   7 2.80319 1.13436   4
  -5   5  -7 8.15196 2.04171   6
  -5   5  -7 5.17909 1.76750   3
   5  -5   7 12.0353 2.23315   5
   5  -5   7 8.41338 2.02035   2
  -5  -4   7 6.81033 2.62431   7
   4   4  -7 2.71873 1.40865   4
   4   4  -7 2.85454 1.28879   2
   4   4  -7 2.31748 1.38298   5
  -4  -4   7 5.31890 2.99543   1
  -4  -4   7 3.43942 2.08615   7
   3   4  -7 40.1104 2.62921   2
   3   4  -7 40.0570 2.89228   5
   3   4  -7 40.1511 3.23151   4
  -3  -4   7 33.5348 3.99361   7
  -3  -4   7 42.7218 3.50796   4
  -3  -4   7 39.1195 4.99541   1
   2   4  -7 54.4705 3.53346   4
   2   4  -7 57.1463 3.21922   5
   2   4  -7 56.8217 2.88952   2
  -2  -4   7 60.4461 3.69431   4
  -2  -4   7 51.4719 4.65133   1
  -2  -4   7 52.0337 4.09843   7
   1   4  -7 18.5403 1.54003   2
   1   4  -7 19.9204 1.72119   5
   1   4  -7 16.6823 0.95336   6
  -1  -4   7 17.6038 2.77478   1
  -1  -4   7 20.5486 2.14488   4
  -1  -4   7 17.2866 2.10131   7
   0   4  -7 0.85308 0.55595   2
   0   4  -7 0.81944 0.28774   3
   0   4  -7 0.58724 0.57863   5
   0   4  -7 -0.1591 0.39445   6
   0  -4   7 0.10897 0.32983   3
   0  -4   7 -0.0153 0.53886   5
   0  -4   7 1.40608 0.83573   4
   0  -4   7 -0.4444 0.97144   1
   0  -4   7 0.13483 0.62924   7
  -1   4  -7 1.24643 0.48880   3
  -1   4  -7 0.59318 0.65454   5
  -1   4  -7 1.11006 0.61817   2
  -1   4  -7 1.00685 0.54911   6
   1  -4   7 1.21703 0.54119   2
   1  -4   7 0.89871 0.64680   5
   1  -4   7 1.11264 1.03069   1
   1  -4   7 1.13491 0.73145   7
   1  -4   7 0.47665 0.85102   4
  -2   4  -7 4.01415 0.89874   3
  -2   4  -7 5.42131 1.14475   2
  -2   4  -7 4.61400 0.94119   6
   2  -4   7 4.95786 1.26267   4
   2  -4   7 4.30610 0.94680   2
   2  -4   7 5.46858 1.14260   5
   2  -4   7 4.93850 1.42762   1
  -3   4  -7 7.95458 1.40221   6
  -3   4  -7 7.31192 1.42540   3
  -3   4  -7 7.38380 1.41742   2
   3  -4   7 8.28109 1.53380   4
   3  -4   7 9.73324 1.52592   5
   3  -4   7 7.52014 1.43212   2
  -4   4  -7 0.15040 1.04432   3
  -4   4  -7 1.55868 1.06775   6
   4  -4   7 0.61152 0.98726   5
   4  -4   7 1.49876 1.14536   2
  -5   4  -7 -0.0841 1.32109   6
  -5   4  -7 -0.3477 1.28336   3
   5  -4   7 1.43544 1.25621   5
   5  -4   7 -0.9468 1.17999   2
   6  -4   7 -1.4467 1.92145   2
   5   3  -7 7.18542 1.97382   5
  -5  -3   7 9.21217 2.96237   7
   4   3  -7 29.2695 2.93549   4
   4   3  -7 27.4937 2.36586   2
   4   3  -7 31.1034 2.91681   5
  -4  -3   7 29.1777 4.15257   7
  -4  -3   7 35.3937 4.62523   1
   3   3  -7 330.166 12.1472   5
   3   3  -7 349.564 11.5789   2
   3   3  -7 344.401 12.6865   4
  -3  -3   7 352.405 11.5197   3
  -3  -3   7 368.464 14.8386   1
  -3  -3   7 291.608 13.5586   7
   2   3  -7 150.647 5.48985   2
   2   3  -7 143.206 6.39991   4
   2   3  -7 140.500 5.93570   5
  -2  -3   7 147.767 7.79249   1
  -2  -3   7 148.430 5.27150   3
  -2  -3   7 138.708 7.07079   7
  -2  -3   7 155.075 6.54511   4
   1   3  -7 5.71590 0.50779   6
   1   3  -7 9.19505 1.36404   5
   1   3  -7 8.50552 1.49267   4
   1   3  -7 6.66427 0.94254   2
  -1  -3   7 6.87963 0.77016   3
  -1  -3   7 6.90571 1.60320   7
  -1  -3   7 6.35622 1.87103   1
  -1  -3   7 6.09609 1.31831   4
   0   3  -7 27.9759 1.69962   2
   0   3  -7 26.8636 1.43294   6
   0   3  -7 27.1933 1.82893   5
   0  -3   7 26.6685 2.75159   1
   0  -3   7 26.4071 1.38795   3
   0  -3   7 27.1984 1.85124   5
   0  -3   7 27.2689 2.18672   7
   0  -3   7 29.9851 2.25104   4
  -1   3  -7 23.6872 1.64080   2
  -1   3  -7 20.9981 1.49328   6
  -1   3  -7 23.2896 1.37407   3
   1  -3   7 21.3307 2.33544   1
   1  -3   7 22.9337 1.56912   2
   1  -3   7 18.4796 1.85218   4
   1  -3   7 22.8850 1.63078   5
   1  -3   7 24.2831 1.43378   3
   1  -3   7 22.4653 1.44735   6
   1  -3   7 22.9653 1.90688   7
  -2   3  -7 4.61809 0.99914   2
  -2   3  -7 5.41242 0.97758   3
  -2   3  -7 4.84016 0.94733   6
  -2   3  -7 4.61710 1.07942   7
   2  -3   7 4.19421 1.27144   1
   2  -3   7 5.37572 1.07636   2
   2  -3   7 6.57762 1.29596   4
   2  -3   7 5.07311 0.89990   6
   2  -3   7 4.90229 0.99182   5
  -3   3  -7 6.35787 1.29115   3
  -3   3  -7 5.00129 1.21024   6
  -3   3  -7 6.90065 1.66206   7
   3  -3   7 5.70845 1.12568   6
   3  -3   7 6.09237 1.23932   4
   3  -3   7 5.32836 1.20150   2
   3  -3   7 6.20249 1.20873   5
  -4   3  -7 44.1441 3.15555   6
  -4   3  -7 43.4501 3.18197   3
   4  -3   7 43.4200 2.98063   6
   4  -3   7 44.9918 3.13270   2
   4  -3   7 47.9339 3.07521   5
  -5   3  -7 -1.2724 1.22931   3
  -5   3  -7 0.80223 1.27656   6
   5  -3   7 -0.5130 1.18797   2
   5  -3   7 0.44376 1.09872   5
   6  -3   7 0.85931 1.84033   2
   6  -3   7 -0.2771 1.28467   5
   5   2  -7 6.84346 1.81049   4
   5   2  -7 6.68044 1.94362   5
  -5  -2   7 9.39217 3.17916   7
  -5  -2   7 8.20437 2.19025   3
   4   2  -7 74.3565 3.61093   2
   4   2  -7 73.2803 4.43909   4
   4   2  -7 71.2249 4.19232   5
  -4  -2   7 76.3843 3.98355   3
  -4  -2   7 60.7391 5.52528   7
  -4  -2   7 81.1693 6.31275   1
   3   2  -7 0.42151 0.80805   5
   3   2  -7 1.29004 0.71547   2
   3   2  -7 0.66437 1.07368   4
  -3  -2   7 0.17754 1.25692   7
  -3  -2   7 -0.2227 1.80086   1
  -3  -2   7 1.13743 0.92501   3
   2   2  -7 117.196 5.38291   4
   2   2  -7 109.541 4.83333   5
   2   2  -7 113.798 4.31735   2
  -2  -2   7 112.354 6.51864   1
  -2  -2   7 119.474 5.44591   4
  -2  -2   7 110.439 5.97919   7
  -2  -2   7 115.336 4.42129   3
   1   2  -7 15.5607 1.65397   4
   1   2  -7 16.8084 1.40973   5
   1   2  -7 12.8708 0.68080   6
   1   2  -7 16.0124 1.13735   2
  -1  -2   7 14.9655 1.93350   7
  -1  -2   7 14.5696 2.30854   1
  -1  -2   7 12.8977 1.10533   3
  -1  -2   7 15.2134 1.70233   4
   0   2  -7 30.3642 1.85713   5
   0   2  -7 32.2416 1.52897   6
   0   2  -7 31.1392 1.68414   2
   0  -2   7 31.2734 1.62797   3
   0  -2   7 31.7493 1.90023   5
   0  -2   7 30.6764 2.83563   1
   0  -2   7 32.1181 1.51218   6
   0  -2   7 32.1564 2.39032   7
   0  -2   7 34.2441 2.31881   4
  -1   2  -7 253.949 8.49884   6
  -1   2  -7 247.908 8.59766   2
  -1   2  -7 246.126 8.39312   3
   1  -2   7 247.969 9.31710   7
   1  -2   7 251.388 10.0008   1
   1  -2   7 262.020 9.12513   4
   1  -2   7 252.631 8.45876   3
   1  -2   7 251.836 8.67797   5
   1  -2   7 260.957 8.67459   2
   1  -2   7 253.153 8.48940   6
  -2   2  -7 0.01866 0.50673   3
  -2   2  -7 -0.7759 0.45928   6
  -2   2  -7 0.02450 0.64975   7
  -2   2  -7 -0.0477 0.61786   1
   2  -2   7 0.29925 0.47416   5
   2  -2   7 0.32181 0.72488   1
   2  -2   7 -0.2731 0.37031   2
   2  -2   7 0.05201 0.54190   4
   2  -2   7 -0.0334 0.41900   6
  -3   2  -7 0.55856 0.84156   3
  -3   2  -7 0.86884 1.27989   7
  -3   2  -7 0.62728 0.79530   6
   3  -2   7 1.27137 0.81295   5
   3  -2   7 0.67605 0.67947   6
   3  -2   7 0.69787 0.73150   2
   3  -2   7 1.61702 0.74384   4
  -4   2  -7 18.0558 2.16089   6
  -4   2  -7 15.1272 2.82986   7
  -4   2  -7 17.2498 2.32795   3
   4  -2   7 14.8807 1.92283   6
   4  -2   7 19.2087 2.05231   5
   4  -2   7 20.5845 2.40434   2
  -5   2  -7 -0.5928 1.16855   6
  -5   2  -7 -1.5134 1.35298   3
   5  -2   7 2.13882 1.25746   5
   5  -2   7 -1.2170 1.20681   2
   5  -2   7 0.30788 1.17098   6
   6  -2   7 11.4224 2.74873   2
   6  -2   7 5.43258 1.79791   5
   5   1  -7 4.20215 1.73399   5
   5   1  -7 3.41307 1.57581   4
  -5  -1   7 4.16130 1.55992   3
  -5  -1   7 9.87252 3.94238   1
  -5  -1   7 6.37045 2.77621   7
   4   1  -7 15.7664 2.35419   4
   4   1  -7 19.5568 2.27283   5
  -4  -1   7 20.7416 3.91972   1
  -4  -1   7 20.1515 2.29162   3
  -4  -1   7 18.2160 3.88107   7
   3   1  -7 83.7940 3.44797   2
   3   1  -7 83.0134 4.10565   5
   3   1  -7 83.8851 4.56573   4
  -3  -1   7 90.6049 5.99724   1
  -3  -1   7 70.5997 5.17727   7
  -3  -1   7 84.4378 3.95785   3
   2   1  -7 -0.0408 0.40144   2
   2   1  -7 0.23848 0.52466   5
   2   1  -7 -0.3528 0.65905   4
  -2  -1   7 -1.7621 1.10065   1
  -2  -1   7 -0.2464 1.01337   7
  -2  -1   7 -0.6304 0.50041   3
   1   1  -7 92.8543 3.90632   5
   1   1  -7 87.7496 3.08501   6
   1   1  -7 95.9905 3.44436   2
   1   1  -7 94.6247 4.42025   4
  -1  -1   7 96.6614 3.70602   3
  -1  -1   7 88.1288 3.09058   6
  -1  -1   7 99.0643 4.96110   7
  -1  -1   7 89.7904 5.27274   1
  -1  -1   7 98.9215 4.49544   4
   0   1  -7 173.406 6.30239   5
   0   1  -7 174.085 6.02059   2
   0   1  -7 176.763 6.84735   4
   0  -1   7 172.558 7.18553   7
   0  -1   7 179.742 6.03538   2
   0  -1   7 174.331 7.84777   1
   0  -1   7 182.084 6.85224   4
   0  -1   7 178.447 6.14767   3
   0  -1   7 179.457 5.93631   6
   0  -1   7 176.227 6.28721   5
  -1   1  -7 125.583 6.03278   1
  -1   1  -7 130.864 5.49963   7
  -1   1  -7 127.758 4.72515   3
  -1   1  -7 123.904 4.69438   6
   1  -1   7 128.409 5.19434   4
   1  -1   7 125.399 6.04273   1
   1  -1   7 129.521 4.74510   6
   1  -1   7 128.553 4.79133   5
   1  -1   7 131.411 5.67547   7
   1  -1   7 127.163 4.77871   3
   1  -1   7 131.334 4.80378   2
  -2   1  -7 22.8263 2.05277   1
  -2   1  -7 23.0598 1.64743   3
  -2   1  -7 21.4656 1.67401   6
  -2   1  -7 23.4425 2.08257   7
   2  -1   7 24.1718 1.59682   5
   2  -1   7 25.0312 1.78457   3
   2  -1   7 26.0743 1.70704   2
   2  -1   7 21.5446 2.13153   1
   2  -1   7 22.1039 1.64678   4
   2  -1   7 21.4396 1.59704   6
  -3   1  -7 38.7283 3.21349   7
  -3   1  -7 35.5890 2.45763   6
  -3   1  -7 36.7911 2.51954   3
   3  -1   7 33.7694 2.24408   5
   3  -1   7 36.3515 2.41501   6
   3  -1   7 36.2135 2.09315   4
   3  -1   7 36.3409 2.45773   2
  -4   1  -7 12.9162 2.94655   7
  -4   1  -7 13.7507 1.99900   6
  -4   1  -7 9.98076 1.80581   3
   4  -1   7 11.6201 1.87013   2
   4  -1   7 12.3715 1.76561   5
   4  -1   7 13.5784 1.92053   6
  -5   1  -7 -0.2235 1.45119   3
  -5   1  -7 -0.2343 1.23268   6
  -5   1  -7 -0.4965 2.40157   7
   5  -1   7 -0.7571 1.02104   6
   5  -1   7 -0.7372 1.06171   5
   5  -1   7 1.86697 1.36931   2
   6  -1   7 8.64985 3.31066   2
   6   0  -7 -2.4186 1.55565   5
  -6   0   7 9.48635 3.56827   7
  -6   0   7 2.73065 1.62346   3
   5   0  -7 -0.2721 1.28527   5
   5   0  -7 0.62370 1.26800   4
  -5   0   7 1.39019 1.33332   3
  -5   0   7 3.70629 2.57851   7
   4   0  -7 5.89759 1.68718   4
   4   0  -7 4.44426 1.33652   5
  -4   0   7 5.71060 2.41860   7
  -4   0   7 8.74851 3.09720   1
  -4   0   7 6.30399 1.58996   3
   3   0  -7 20.2502 2.27167   4
   3   0  -7 24.3580 2.08763   5
   3   0  -7 20.9306 1.41692   2
  -3   0   7 24.3675 3.69262   1
  -3   0   7 22.9570 2.19125   3
  -3   0   7 19.4539 2.98458   7
   2   0  -7 24.9537 1.80662   5
   2   0  -7 28.2556 2.26741   4
   2   0  -7 26.1942 1.29435   2
  -2   0   7 26.0559 2.74984   7
  -2   0   7 22.9460 3.02060   1
  -2   0   7 25.1523 1.82418   3
   1   0  -7 68.9248 2.57545   2
   1   0  -7 67.1091 3.07254   5
   1   0  -7 69.8612 3.59731   4
  -1   0   7 75.6227 4.22093   7
  -1   0   7 67.4884 2.52172   6
  -1   0   7 72.9838 4.60226   1
  -1   0   7 72.1579 3.10975   3
   0   0  -7 183.835 6.49197   5
   0   0  -7 184.128 6.20841   2
   0   0  -7 184.946 7.06470   4
   0   0  -7 176.200 8.06210   1
   0   0   7 190.596 6.28955   6
   0   0   7 191.731 6.25157   2
   0   0   7 181.960 7.55427   7
   0   0   7 191.936 6.56995   3
   0   0   7 185.388 7.08114   4
   0   0   7 191.366 8.26302   1
  -1   0  -7 33.9512 2.74381   1
  -1   0  -7 35.1348 2.10047   4
  -1   0  -7 33.9704 2.42647   7
   1   0   7 37.2235 1.83031   5
   1   0   7 38.3611 1.92547   6
   1   0   7 35.9637 2.88514   1
   1   0   7 34.9423 2.00609   3
   1   0   7 35.5532 2.70214   7
   1   0   7 34.9231 2.10693   4
   1   0   7 36.1627 1.85871   2
  -2   0  -7 16.8438 1.31735   4
  -2   0  -7 15.5377 1.42173   3
  -2   0  -7 16.7206 1.84041   1
  -2   0  -7 16.3626 1.94808   7
   2   0   7 19.3538 1.63284   3
   2   0   7 16.5133 1.29532   5
   2   0   7 17.3594 1.35458   4
   2   0   7 17.1564 1.44988   6
   2   0   7 16.3294 1.43866   2
  -3   0  -7 4.19418 1.75691   7
  -3   0  -7 3.98302 1.21625   3
  -3   0  -7 3.33334 1.09909   6
  -3   0  -7 3.89832 1.36047   1
   3   0   7 3.07896 0.91210   5
   3   0   7 0.59997 0.92933   2
   3   0   7 2.24493 0.94802   6
  -4   0  -7 1.93530 2.20437   7
  -4   0  -7 1.80460 1.21226   3
  -4   0  -7 1.14473 1.11116   6
   4   0   7 2.67405 1.16757   6
   4   0   7 1.50379 1.18586   2
   4   0   7 2.90658 1.06555   5
  -5   0  -7 -0.2961 1.51900   3
  -5   0  -7 -2.3536 2.40940   7
  -5   0  -7 0.91009 1.30020   6
   5   0   7 0.88651 1.30711   2
   5   0   7 0.23062 1.08070   5
   5   0   7 0.02816 1.15231   6
   6  -1  -7 4.13685 2.15209   5
  -6   1   7 15.9619 4.36303   7
  -6   1   7 10.6087 2.37307   3
   5  -1  -7 1.08284 1.32451   4
   5  -1  -7 1.50641 1.39660   5
  -5   1   7 3.85874 2.95252   7
  -5   1   7 2.44303 1.51510   3
   4  -1  -7 -0.9664 1.09876   4
   4  -1  -7 2.25205 1.50850   1
   4  -1  -7 -0.4708 0.93526   5
  -4   1   7 0.78431 1.17236   3
  -4   1   7 0.95525 1.86601   7
  -4   1   7 0.93352 2.11725   1
   3  -1  -7 107.241 5.31947   4
   3  -1  -7 107.492 4.76873   5
  -3   1   7 106.287 6.28285   7
  -3   1   7 112.575 6.75523   1
  -3   1   7 110.709 4.92888   3
   2  -1  -7 26.6930 2.21784   4
   2  -1  -7 26.2385 2.86124   1
   2  -1  -7 23.0032 1.70770   5
  -2   1   7 21.8259 3.01871   1
  -2   1   7 23.3391 1.14231   6
  -2   1   7 26.7980 2.78112   7
  -2   1   7 25.0365 1.90818   3
   1  -1  -7 5.76587 0.49559   2
   1  -1  -7 5.69242 1.16864   4
   1  -1  -7 5.87313 0.86996   5
   1  -1  -7 6.72986 1.76119   1
  -1   1   7 4.62925 0.61271   6
  -1   1   7 6.60791 1.94678   1
  -1   1   7 7.70133 1.89647   7
  -1   1   7 6.62037 1.07936   3
   0  -1  -7 221.923 9.46008   1
   0  -1  -7 230.234 7.62238   5
   0  -1  -7 226.908 8.29362   4
   0   1   7 232.122 7.62655   6
   0   1   7 229.567 9.02806   7
   0   1   7 220.157 9.52038   1
   0   1   7 229.965 7.92635   3
   0   1   7 229.052 7.41466   2
  -1  -1  -7 15.5772 1.76183   7
  -1  -1  -7 15.1577 1.91844   1
  -1  -1  -7 17.0718 1.36540   4
   1   1   7 17.5223 1.33488   6
   1   1   7 19.6024 1.28753   2
   1   1   7 18.5288 2.15271   7
   1   1   7 19.4287 1.53345   3
   1   1   7 17.8845 1.14271   5
  -2  -1  -7 9.10258 0.93946   4
  -2  -1  -7 12.5591 2.23307   7
  -2  -1  -7 9.46353 1.63820   1
  -2  -1  -7 9.85953 1.30692   3
   2   1   7 9.34003 0.97760   5
   2   1   7 9.53059 1.32838   3
   2   1   7 10.5031 1.33016   2
   2   1   7 9.21358 1.21154   6
  -3  -1  -7 61.5758 3.91072   1
  -3  -1  -7 58.4847 4.48698   7
  -3  -1  -7 62.7382 3.40610   3
   3   1   7 62.3476 3.46503   3
   3   1   7 54.6096 3.25717   2
   3   1   7 61.4329 3.35089   6
   3   1   7 56.6380 2.91548   5
  -4  -1  -7 63.6895 3.70362   6
  -4  -1  -7 58.4474 3.74224   3
  -4  -1  -7 59.8605 5.34062   7
   4   1   7 55.4904 3.18828   5
   4   1   7 60.8244 3.63343   6
   4   1   7 61.6418 3.69975   2
  -5  -1  -7 -3.5526 2.60832   7
  -5  -1  -7 2.65673 1.39787   6
  -5  -1  -7 -0.3476 1.54768   3
   5   1   7 2.57650 1.45373   6
   5   1   7 1.52173 1.38486   2
   5   1   7 0.44125 1.05986   5
   6  -2  -7 5.29365 2.17588   5
   6  -2  -7 0.04371 2.04681   4
  -6   2   7 15.1109 4.40180   7
  -6   2   7 8.17006 2.07368   3
   5  -2  -7 -1.8623 1.08029   5
   5  -2  -7 -1.8322 1.12683   4
  -5   2   7 1.79661 1.36652   3
  -5   2   7 1.85882 2.49903   7
   4  -2  -7 -2.0262 0.82740   5
   4  -2  -7 0.22663 1.16421   4
   4  -2  -7 2.49220 1.54315   1
  -4   2   7 3.97209 2.37436   7
  -4   2   7 -0.4695 1.12949   3
  -4   2   7 2.35712 2.39226   1
   3  -2  -7 17.2579 1.71089   5
   3  -2  -7 16.3122 3.16358   1
   3  -2  -7 14.0811 2.19653   4
  -3   2   7 13.9738 2.92583   7
  -3   2   7 16.4878 3.52567   1
  -3   2   7 14.7754 1.93684   3
   2  -2  -7 1.44965 0.61736   5
   2  -2  -7 1.94137 0.89324   4
   2  -2  -7 1.81708 1.33077   1
  -2   2   7 0.12107 1.00334   7
  -2   2   7 0.77710 1.51950   1
  -2   2   7 1.07878 0.74662   3
  -2   2   7 1.97540 0.48058   6
   1  -2  -7 9.04807 0.90580   5
   1  -2  -7 8.68178 1.28615   4
   1  -2  -7 10.4406 1.89672   1
  -1   2   7 8.53862 1.91124   7
  -1   2   7 9.05833 0.90169   6
  -1   2   7 8.97958 1.25303   3
  -1   2   7 10.6113 2.28835   1
   0  -2  -7 10.8801 0.80410   5
   0  -2  -7 10.0547 1.78515   1
   0  -2  -7 10.5167 1.20364   4
   0   2   7 9.69679 1.91207   7
   0   2   7 9.71716 0.98825   6
   0   2   7 11.8752 2.44054   1
   0   2   7 10.0148 1.29622   3
   0   2   7 9.69558 0.74191   2
  -1  -2  -7 0.58786 0.43208   4
  -1  -2  -7 0.27279 0.73618   1
  -1  -2  -7 0.41783 0.83482   7
  -1  -2  -7 0.58920 0.29638   5
   1   2   7 0.14625 0.35604   2
   1   2   7 0.78873 0.33369   5
   1   2   7 0.62902 0.46208   6
   1   2   7 1.07185 0.65686   3
   1   2   7 0.45467 1.17414   7
  -2  -2  -7 63.0707 4.04642   1
  -2  -2  -7 60.2860 3.98071   7
  -2  -2  -7 61.5237 3.09782   3
  -2  -2  -7 60.0980 2.61248   4
   2   2   7 61.7555 3.19226   3
   2   2   7 61.8062 3.00281   2
   2   2   7 62.7544 3.11108   6
   2   2   7 56.7976 2.56721   5
  -3  -2  -7 207.477 9.34101   7
  -3  -2  -7 196.196 8.66616   1
  -3  -2  -7 196.802 7.68402   3
   3   2   7 185.891 7.02605   5
   3   2   7 204.947 7.65102   6
   3   2   7 199.485 7.73834   3
   3   2   7 199.768 7.63701   2
  -4  -2  -7 75.3071 4.38639   3
  -4  -2  -7 70.6616 6.04398   7
   4   2   7 80.7057 4.34412   2
   4   2   7 83.7652 4.36775   6
  -5  -2  -7 -3.8500 2.91678   7
  -5  -2  -7 1.90767 1.27727   6
  -5  -2  -7 -0.8692 1.49149   3
   5   2   7 2.53774 1.35531   6
   5   2   7 0.24506 1.20282   2
   6  -3  -7 4.54309 2.50502   4
   6  -3  -7 9.83662 2.50898   5
  -6   3   7 11.7397 2.50163   3
   5  -3  -7 -0.3814 1.53548   4
   5  -3  -7 0.08481 1.28721   5
  -5   3   7 4.32915 2.75291   7
  -5   3   7 4.24911 1.79122   3
   4  -3  -7 24.1069 3.26576   1
   4  -3  -7 23.3396 2.81806   4
   4  -3  -7 23.0272 2.38675   5
  -4   3   7 23.8142 2.86089   3
  -4   3   7 27.4605 4.83770   1
  -4   3   7 24.9470 3.87944   7
   3  -3  -7 -0.2882 1.33425   1
   3  -3  -7 0.89970 1.00438   4
   3  -3  -7 -0.3303 0.61995   5
  -3   3   7 -0.7120 0.86758   3
  -3   3   7 -1.9632 1.28992   7
  -3   3   7 -0.0414 0.70128   6
  -3   3   7 -2.4150 1.92065   1
   2  -3  -7 2.52287 1.48542   1
   2  -3  -7 1.22321 0.89673   4
   2  -3  -7 1.65486 0.62018   5
  -2   3   7 0.67247 0.77048   3
  -2   3   7 2.11370 1.31885   7
  -2   3   7 1.49527 1.66999   1
  -2   3   7 1.84876 0.59305   6
   1  -3  -7 2.32567 0.85796   4
   1  -3  -7 2.78036 1.41634   1
   1  -3  -7 1.54040 0.45041   5
  -1   3   7 2.99668 0.65128   6
  -1   3   7 2.16022 1.26046   7
  -1   3   7 2.85914 0.93063   3
  -1   3   7 2.02075 1.62331   1
   0  -3  -7 43.7853 1.75064   5
   0  -3  -7 44.0957 2.48759   4
   0  -3  -7 43.6041 3.07546   7
   0  -3  -7 41.5167 3.38808   1
   0   3   7 40.1720 2.18242   6
   0   3   7 42.1462 3.24509   7
   0   3   7 41.2007 2.41370   3
   0   3   7 43.5170 1.81315   2
  -1  -3  -7 -0.0039 0.19286   5
  -1  -3  -7 0.09584 0.89726   1
  -1  -3  -7 0.17754 0.38306   4
  -1  -3  -7 -0.4723 0.79114   7
   1   3   7 -0.5355 1.03649   7
   1   3   7 0.16213 0.48814   6
   1   3   7 0.05853 0.22090   5
   1   3   7 0.00436 0.39630   2
   1   3   7 -0.6028 0.50541   3
  -2  -3  -7 72.7003 4.76374   1
  -2  -3  -7 78.3353 4.73932   7
  -2  -3  -7 70.1067 3.55471   3
   2   3   7 75.5961 3.04038   5
   2   3   7 73.5369 3.70096   3
   2   3   7 71.8531 3.53994   6
   2   3   7 76.3752 3.46398   2
  -3  -3  -7 -1.0026 1.60325   7
  -3  -3  -7 -0.1302 0.80073   3
  -3  -3  -7 -0.5328 1.70012   1
   3   3   7 0.02100 0.82352   2
   3   3   7 0.19831 0.97504   3
   3   3   7 -0.1630 0.78063   6
  -4  -3  -7 62.1003 3.89705   3
  -4  -3  -7 48.9737 5.53499   7
   4   3   7 54.6170 3.55989   6
   4   3   7 59.7245 3.76094   2
  -5  -3  -7 1.33995 1.71742   3
  -5  -3  -7 -2.7838 2.91708   7
   5   3   7 2.81389 1.43421   2
   5   3   7 1.49979 1.47603   6
   6  -4  -7 0.59953 1.82142   5
   5  -4  -7 2.49202 1.54601   5
   5  -4  -7 -0.0060 1.74904   4
  -5   4   7 2.88084 1.76961   3
  -5   4   7 5.41821 2.95856   7
   4  -4  -7 0.86053 1.04945   5
   4  -4  -7 1.54693 1.52148   4
   4  -4  -7 0.91509 1.51692   1
  -4   4   7 1.68402 2.35210   7
  -4   4   7 0.51491 1.32768   3
   3  -4  -7 14.6293 2.35021   4
   3  -4  -7 14.7516 1.66749   5
   3  -4  -7 14.3957 2.99026   1
  -3   4   7 9.68399 1.83593   3
  -3   4   7 13.2777 1.33467   6
  -3   4   7 11.9464 2.89035   7
   2  -4  -7 59.1413 3.50747   4
   2  -4  -7 56.6602 2.67620   5
   2  -4  -7 55.5691 4.31123   1
  -2   4   7 57.5489 2.69343   6
  -2   4   7 60.7797 4.25610   7
  -2   4   7 50.7673 3.12888   3
   1  -4  -7 34.5892 1.62008   5
   1  -4  -7 33.9901 2.43717   4
   1  -4  -7 33.6610 3.29557   1
  -1   4   7 35.1321 2.36451   3
  -1   4   7 34.8533 2.02231   6
  -1   4   7 32.2903 2.97407   7
   0  -4  -7 0.29591 0.80212   7
   0  -4  -7 0.96252 0.60298   4
   0  -4  -7 0.26091 1.01537   1
   0   4   7 1.02564 1.17219   7
   0   4   7 0.62883 0.35391   2
   0   4   7 0.47552 0.54214   6
   0   4   7 1.02794 0.73005   3
  -1  -4  -7 132.822 5.03792   4
  -1  -4  -7 130.684 6.80731   1
  -1  -4  -7 132.212 6.31576   7
   1   4   7 121.515 4.80932   2
   1   4   7 132.834 6.62771   7
   1   4   7 126.456 5.18012   6
   1   4   7 126.754 5.33812   3
  -2  -4  -7 11.2168 1.64197   3
  -2  -4  -7 10.5382 2.66364   1
  -2  -4  -7 10.1490 2.46684   7
   2   4   7 11.6193 1.56546   2
   2   4   7 11.1634 1.61093   6
   2   4   7 7.64338 1.45940   3
  -3  -4  -7 67.4298 5.58834   1
  -3  -4  -7 75.7766 3.99822   3
  -3  -4  -7 73.1279 5.57312   7
   3   4   7 79.3904 4.01036   2
   3   4   7 75.8463 4.17652   3
   3   4   7 76.7189 4.02792   6
  -4  -4  -7 0.94318 1.24293   3
  -4  -4  -7 -2.5360 2.23565   7
   4   4   7 -0.0723 1.11116   6
   4   4   7 1.50292 1.17496   2
  -5  -4  -7 -2.7836 1.36234   3
  -5  -4  -7 -5.7445 2.97007   7
   5   4   7 1.66325 1.41948   2
   5   4   7 -0.2539 1.30504   6
   5  -5  -7 -1.9527 1.11745   5
  -5   5   7 4.63309 2.62846   7
  -5   5   7 -0.7433 1.49483   3
   4  -5  -7 -1.7204 1.18999   1
   4  -5  -7 -0.7660 0.91968   5
   4  -5  -7 -2.4367 1.26404   4
  -4   5   7 -1.2607 1.83321   7
  -4   5   7 -1.4212 1.26049   3
   3  -5  -7 31.7035 2.97892   4
   3  -5  -7 30.6400 2.21214   5
   3  -5  -7 30.1720 3.57740   1
  -3   5   7 25.6411 2.66487   3
  -3   5   7 27.9465 2.00736   6
  -3   5   7 30.6660 3.73241   7
   2  -5  -7 111.736 5.38664   4
   2  -5  -7 108.956 4.26157   5
   2  -5  -7 108.368 6.49915   1
  -2   5   7 108.133 4.50991   6
  -2   5   7 115.893 6.22018   7
  -2   5   7 106.344 5.03096   3
   1  -5  -7 56.6472 3.30707   4
   1  -5  -7 52.1075 4.30802   1
  -1   5   7 54.6714 2.81605   6
  -1   5   7 56.0280 3.17054   3
  -1   5   7 48.8064 3.89389   7
   0  -5  -7 24.3873 2.59931   7
   0  -5  -7 25.8825 3.09811   1
   0  -5  -7 26.9843 2.09931   4
   0   5   7 24.3515 2.10710   3
   0   5   7 26.8021 3.04191   7
   0   5   7 24.9418 1.41826   2
   0   5   7 26.0503 1.92281   6
  -1  -5  -7 48.4292 4.27416   1
  -1  -5  -7 43.2936 3.57177   7
  -1  -5  -7 46.4386 2.58909   4
   1   5   7 48.1318 2.97805   3
   1   5   7 48.2246 2.44493   2
   1   5   7 47.0153 2.77297   6
  -2  -5  -7 3.09789 1.09546   3
  -2  -5  -7 2.95047 1.86376   7
  -2  -5  -7 2.64992 2.14196   1
   2   5   7 2.27110 0.98583   6
   2   5   7 3.63569 1.30818   3
   2   5   7 4.09689 1.07499   2
  -3  -5  -7 12.6575 3.31315   7
  -3  -5  -7 10.8278 3.56563   1
  -3  -5  -7 15.8067 2.15253   3
   3   5   7 15.2395 2.31404   3
   3   5   7 14.6359 2.03117   6
   3   5   7 13.2970 1.89450   2
  -4  -5  -7 0.59012 1.20329   3
  -4  -5  -7 -2.5013 2.64293   7
   4   5   7 -0.9797 1.07433   6
   4   5   7 0.56178 1.04042   2
   5   5   7 -0.6872 1.27336   2
   5  -6  -7 -2.9415 1.79839   4
   5  -6  -7 -1.8156 1.22642   5
  -5   6   7 -1.7607 1.53644   3
  -5   6   7 5.55250 2.74883   7
   4  -6  -7 -0.7618 1.61789   1
   4  -6  -7 -1.6795 1.49989   4
   4  -6  -7 -1.0932 1.02642   5
  -4   6   7 -1.6482 1.86654   7
  -4   6   7 -0.2203 1.41307   3
   3  -6  -7 27.1103 2.17523   5
   3  -6  -7 33.4448 3.98534   1
   3  -6  -7 24.3803 3.04875   4
  -3   6   7 25.9154 2.87530   3
  -3   6   7 27.9494 2.19444   6
  -3   6   7 29.7324 3.86564   7
   2  -6  -7 314.139 11.8972   4
   2  -6  -7 320.745 13.5726   1
  -2   6   7 324.290 10.9799   6
  -2   6   7 336.198 12.9801   7
  -2   6   7 285.859 11.3937   3
   1  -6  -7 103.340 6.52094   1
   1  -6  -7 101.581 5.65669   7
   1  -6  -7 103.727 5.13065   4
  -1   6   7 107.675 4.99180   3
  -1   6   7 108.011 6.13305   7
  -1   6   7 111.991 4.69950   6
   0  -6  -7 184.647 9.31438   1
   0  -6  -7 189.265 8.38710   7
   0  -6  -7 187.853 7.34498   4
   0   6   7 191.506 7.42551   3
   0   6   7 189.952 8.82217   7
   0   6   7 189.629 7.17127   6
   0   6   7 177.646 6.52869   2
  -1  -6  -7 12.2344 1.76382   4
  -1  -6  -7 13.8705 2.65125   7
  -1  -6  -7 13.0578 3.09584   1
   1   6   7 12.2778 1.40393   2
   1   6   7 10.2619 1.75201   3
   1   6   7 8.55389 1.49367   6
  -2  -6  -7 1.96778 2.39862   1
  -2  -6  -7 0.80767 1.86815   7
  -2  -6  -7 3.82361 1.29947   3
   2   6   7 2.07017 1.29890   3
   2   6   7 3.82768 1.08458   2
   2   6   7 2.19470 1.12609   6
  -3  -6  -7 0.48784 1.03940   3
  -3  -6  -7 -3.1531 2.52610   1
  -3  -6  -7 -1.4209 2.02714   7
   3   6   7 -0.9260 0.87934   2
   3   6   7 1.51040 1.06587   6
   3   6   7 -1.8823 1.03624   3
  -4  -6  -7 4.46856 1.62526   3
  -4  -6  -7 -0.2318 2.85013   7
   4   6   7 5.45745 1.68376   6
   4   6   7 5.66647 1.54708   2
   5  -7  -7 3.82061 2.73260   4
   5  -7  -7 6.38381 1.98622   5
  -5   7   7 10.1955 2.50221   3
   4  -7  -7 0.59324 2.09048   4
   4  -7  -7 2.47246 2.27523   1
  -4   7   7 2.53867 1.74780   3
  -4   7   7 2.35686 2.39655   7
   3  -7  -7 80.5751 6.08368   1
   3  -7  -7 77.3125 5.17233   4
  -3   7   7 85.5169 5.86623   7
  -3   7   7 90.0931 4.17917   6
  -3   7   7 80.3997 4.85645   3
   2  -7  -7 38.5467 3.52081   4
   2  -7  -7 40.3006 4.67076   1
  -2   7   7 41.1413 4.24795   7
  -2   7   7 42.5563 2.91428   6
  -2   7   7 38.1175 3.26880   3
   1  -7  -7 59.7533 4.27862   7
   1  -7  -7 53.1202 3.78322   4
   1  -7  -7 51.8452 5.00640   1
  -1   7   7 55.5573 3.40505   6
  -1   7   7 60.3603 4.91454   7
  -1   7   7 56.0915 3.63583   3
   0  -7  -7 35.1560 2.94002   4
   0  -7  -7 36.4047 3.51230   7
   0  -7  -7 33.5031 4.33489   1
   0   7   7 37.3803 4.10322   7
   0   7   7 36.0644 2.79916   6
   0   7   7 38.2686 2.95689   3
  -1  -7  -7 17.9189 3.36465   7
  -1  -7  -7 15.8955 3.92265   1
   1   7   7 14.6911 1.70083   2
   1   7   7 16.7491 2.08246   6
   1   7   7 17.4027 2.32832   3
  -2  -7  -7 3.68497 1.34040   3
  -2  -7  -7 2.22257 2.19680   7
  -2  -7  -7 0.75241 2.79435   1
   2   7   7 1.89926 1.34986   3
   2   7   7 3.46217 1.34058   6
   2   7   7 3.81333 1.15739   2
  -3  -7  -7 11.3112 3.47339   7
  -3  -7  -7 16.4947 2.32972   3
  -3  -7  -7 12.1653 4.49849   1
   3   7   7 14.0209 2.05470   2
   3   7   7 15.7162 2.24930   6
   3   7   7 13.4629 2.35474   3
  -4  -7  -7 1.10786 1.32723   3
  -4  -7  -7 -4.4038 2.56860   7
   4   7   7 1.68793 1.54438   6
   4   7   7 0.23901 1.35118   2
  -5   8   7 1.94254 1.97449   3
   4  -8  -7 -2.7119 2.05412   1
  -4   8   7 -1.3322 1.49585   3
  -4   8   7 1.06893 3.06401   7
  -4   8   7 0.07480 1.56940   6
   3  -8  -7 0.20805 2.25493   1
   3  -8  -7 -3.9011 1.64226   4
  -3   8   7 -0.0552 1.05219   6
  -3   8   7 0.00705 2.12698   7
  -3   8   7 -0.0567 1.43622   3
   2  -8  -7 28.8625 4.61372   1
   2  -8  -7 24.6709 3.54132   4
  -2   8   7 32.0213 2.72958   6
  -2   8   7 28.5234 3.91022   7
  -2   8   7 32.9413 3.14130   3
   1  -8  -7 11.2116 2.28358   4
   1  -8  -7 15.7544 3.11719   7
   1  -8  -7 13.8285 3.65958   1
  -1   8   7 11.8666 1.94777   6
  -1   8   7 12.8952 2.22487   3
  -1   8   7 11.2857 3.18318   7
   0  -8  -7 23.9152 4.61789   1
   0  -8  -7 20.7748 2.73825   4
   0  -8  -7 25.1503 3.22277   7
   0   8   7 19.0303 2.20515   6
   0   8   7 17.5894 2.31946   3
  -1  -8  -7 31.7115 5.13465   1
  -1  -8  -7 29.1067 3.81246   7
   1   8   7 31.9020 2.83072   3
   1   8   7 31.1750 2.36264   2
   1   8   7 33.4751 2.85550   6
  -2  -8  -7 4.05932 1.24441   3
  -2  -8  -7 0.88352 2.20985   7
  -2  -8  -7 -2.8060 2.96444   1
   2   8   7 1.07270 1.05274   2
   2   8   7 1.93443 1.26515   6
   2   8   7 2.17868 1.42684   3
  -3  -8  -7 3.78302 1.43857   3
  -3  -8  -7 -4.5730 3.30247   1
  -3  -8  -7 1.43145 2.79630   7
   3   8   7 0.00143 1.45148   3
   3   8   7 2.36796 1.53301   6
   3   8   7 3.60423 1.44757   2
   4  -9  -7 -1.6269 2.67793   1
  -4   9   7 2.02593 1.89578   3
  -4   9   7 3.20649 1.38154   6
  -3   9   7 -1.9328 2.07220   7
  -3   9   7 -0.4449 1.00162   6
  -3   9   7 -0.0226 1.45894   3
   2  -9  -7 -2.9101 2.40248   1
  -2   9   7 -0.7572 1.27699   3
  -2   9   7 -0.3962 1.13473   6
  -2   9   7 -2.4621 2.01258   7
   1  -9  -7 2.22251 2.86259   1
   1  -9  -7 1.12378 1.67616   7
   1  -9  -7 -0.9627 1.74972   4
  -1   9   7 -1.0188 2.44499   7
  -1   9   7 1.30519 1.23864   6
  -1   9   7 1.17344 1.26662   3
   0  -9  -7 -3.0563 1.47097   4
   0  -9  -7 -0.5653 1.56426   7
   0  -9  -7 -1.0629 2.58398   1
   0   9   7 -1.1015 0.99383   3
   0   9   7 -0.3233 0.99945   6
  -1  -9  -7 -1.8669 2.83589   1
  -1  -9  -7 -0.3915 1.88739   7
   1   9   7 -0.4345 1.14386   3
   1   9   7 0.56303 1.15451   6
  -2  -9  -7 3.06483 2.76444   7
  -2  -9  -7 -2.5977 3.35746   1
  -2  -9  -7 6.72328 1.50161   3
   2   9   7 0.68062 1.33215   6
   2   9   7 2.13002 1.58921   3
   2   9   7 0.48011 1.12701   2
  -3  -9  -7 -0.4865 2.95382   7
  -3  -9  -7 -3.3133 3.80122   1
  -3  -9  -7 2.85785 1.54176   3
   3   9   7 1.30542 1.39771   2
   3   9   7 3.57408 1.85360   3
   3   9   7 4.22150 1.78734   6
  -4  10   7 4.14789 1.98718   3
  -4  10   7 3.31436 1.39763   6
   3 -10  -7 -4.7175 2.14188   4
   3 -10  -7 -4.3723 2.76946   1
  -3  10   7 0.65108 1.71584   3
  -3  10   7 -1.0946 1.09099   6
   2 -10  -7 4.23249 2.56043   4
   2 -10  -7 12.1252 4.39925   1
  -2  10   7 12.7214 2.05193   6
  -2  10   7 14.2938 2.51273   3
  -2  10   7 6.79289 3.13867   7
   1 -10  -7 4.30958 1.95614   7
   1 -10  -7 -1.2040 2.97733   1
   1 -10  -7 -1.4804 1.98782   4
  -1  10   7 2.52892 1.36291   6
  -1  10   7 0.49892 1.33546   3
   0 -10  -7 0.64431 1.82865   7
   0 -10  -7 -2.5286 3.08178   1
   0  10   7 1.03180 1.18940   6
   0  10   7 0.87168 1.23860   3
  -1 -10  -7 -0.8248 2.13439   7
   1  10   7 0.29157 1.23968   6
   1  10   7 -0.1357 1.21731   3
  -2 -10  -7 -5.8626 3.96909   1
  -2 -10  -7 4.26571 1.30220   3
  -2 -10  -7 -1.0046 2.82650   7
   2  10   7 1.46151 1.53765   6
   2  10   7 -1.0604 1.50548   3
  -3  11   7 0.96801 1.32134   6
  -3  11   7 0.00473 1.71440   3
   2 -11  -7 -4.7589 2.28543   4
   2 -11  -7 -0.5627 3.78631   1
  -2  11   7 5.61603 1.70852   6
  -2  11   7 3.36661 1.82403   3
   1 -11  -7 1.35570 2.45614   4
   1 -11  -7 0.50901 4.01315   1
   1 -11  -7 5.52092 2.63224   7
  -1  11   7 2.84414 1.67644   3
  -1  11   7 6.77748 1.74813   6
   0 -11  -7 7.22414 2.94498   7
   0 -11  -7 1.13090 4.52435   1
   0  11   7 4.96798 1.68061   3
   0  11   7 11.0871 2.05692   6
  -1 -11  -7 -0.5978 2.49191   7
  -1 -11  -7 -7.3348 3.93286   1
   1  11   7 0.69569 1.61726   3
   1  11   7 3.63483 1.70594   6
  -2  12   7 -1.6937 1.30858   6
   1 -12  -7 -4.7913 2.56042   4
  -1  12   7 1.05943 1.48916   6
  -1  12   7 1.42115 1.66152   3
   0 -12  -7 0.80760 2.82967   7
   0 -12  -7 -6.7288 4.40731   1
   0  12   7 4.92785 1.86713   3
   0  12   7 4.78449 1.79979   6
   1  12  -8 1.27521 1.64870   5
   1  12  -8 3.03201 2.09899   2
   0  12  -8 0.90059 1.59483   5
   0  12  -8 1.68041 1.70671   2
   0 -12   8 6.69181 2.26088   4
  -1  12  -8 0.50333 1.48240   5
  -1  12  -8 0.77331 1.43370   2
   1 -12   8 2.85538 1.61140   5
   1 -12   8 5.17425 1.76626   4
  -2  12  -8 1.04481 1.48873   6
  -2  12  -8 2.26065 1.64462   2
  -2  12  -8 0.29162 1.40999   5
   2 -12   8 5.17094 1.88235   4
   2 -12   8 2.10501 1.58791   5
   2  11  -8 -0.4702 1.54330   5
   2  11  -8 2.01192 1.94257   2
  -2 -11   8 9.12395 2.41427   4
  -2 -11   8 10.5162 3.65308   1
   1  11  -8 2.13209 1.72732   2
   1  11  -8 2.27404 1.62884   5
  -1 -11   8 8.13464 3.35841   1
  -1 -11   8 5.94132 2.03683   4
   0  11  -8 21.3663 2.99892   2
   0  11  -8 27.1023 3.14305   5
   0 -11   8 32.6986 3.73088   4
   0 -11   8 32.8089 4.79329   1
  -1  11  -8 0.92522 1.33423   5
  -1  11  -8 0.32807 1.44377   2
  -1  11  -8 1.04362 1.34246   6
   1 -11   8 4.38458 1.77757   4
   1 -11   8 7.00056 2.28398   1
   1 -11   8 3.17367 1.51749   5
  -2  11  -8 1.04038 1.51749   5
  -2  11  -8 1.13806 1.49293   2
  -2  11  -8 2.25802 1.46516   6
   2 -11   8 4.26582 1.80688   4
   2 -11   8 2.54995 1.46585   5
  -3  11  -8 -0.8820 1.36282   2
  -3  11  -8 0.59056 1.60815   6
   3 -11   8 3.28289 1.62648   5
   3 -11   8 3.07981 1.73229   4
  -3 -10   8 6.24847 3.77694   1
   2  10  -8 5.10110 1.95569   5
   2  10  -8 2.53107 1.72514   2
  -2 -10   8 8.59898 2.24620   4
  -2 -10   8 9.69342 3.61800   1
   1  10  -8 2.43479 1.55904   2
   1  10  -8 3.95501 1.66662   5
  -1 -10   8 6.10164 2.95353   1
  -1 -10   8 5.60724 2.14298   4
   0  10  -8 -0.9501 1.23715   2
   0  10  -8 0.63712 1.22616   5
   0 -10   8 3.08690 2.53345   1
   0 -10   8 2.74764 1.68497   4
  -1  10  -8 -0.8251 1.21188   2
  -1  10  -8 0.91931 1.19419   6
  -1  10  -8 0.11665 1.13137   5
   1 -10   8 3.69628 2.05182   1
   1 -10   8 1.19562 1.28392   5
  -2  10  -8 0.90345 1.31301   5
  -2  10  -8 1.28880 1.42907   2
  -2  10  -8 1.16583 1.28033   6
   2 -10   8 2.59456 1.52285   4
   2 -10   8 0.04018 1.20380   5
  -3  10  -8 -0.2907 1.43607   6
  -3  10  -8 -1.1961 1.30898   2
   3 -10   8 -0.0900 1.15511   5
   3 -10   8 1.85935 1.46319   4
  -4  10  -8 0.87518 1.74138   6
  -4  10  -8 2.43781 1.62111   2
   4 -10   8 2.17915 1.46079   5
   4 -10   8 7.19411 1.93328   4
   3   9  -8 0.18390 1.41192   4
   3   9  -8 0.05769 1.41486   5
   3   9  -8 0.13371 1.69413   2
  -3  -9   8 3.18093 2.00314   4
  -3  -9   8 12.9612 4.16263   1
   2   9  -8 11.5872 2.18992   2
   2   9  -8 15.5100 2.53392   5
  -2  -9   8 14.8875 4.19880   1
  -2  -9   8 16.1788 2.96500   4
   1   9  -8 7.26359 1.75727   2
   1   9  -8 7.57113 1.87530   5
  -1  -9   8 11.2609 2.44312   4
  -1  -9   8 12.2662 3.73837   1
   0   9  -8 1.79088 1.32879   5
   0   9  -8 0.22889 1.11584   2
   0  -9   8 2.53930 2.30589   1
   0  -9   8 3.08055 1.74213   4
  -1   9  -8 -0.1648 1.04302   5
  -1   9  -8 0.17666 1.11969   2
  -1   9  -8 0.29950 1.01036   6
   1  -9   8 -0.2972 1.09622   5
   1  -9   8 1.99994 1.51146   4
   1  -9   8 2.01713 1.93655   1
  -2   9  -8 38.4194 3.27258   5
  -2   9  -8 38.9350 3.31621   2
  -2   9  -8 39.6759 3.16767   6
   2  -9   8 39.5089 3.51439   4
   2  -9   8 40.4737 4.06122   1
   2  -9   8 41.9595 3.26779   5
  -3   9  -8 1.96455 1.33995   2
  -3   9  -8 -0.3664 1.31732   6
   3  -9   8 2.12746 1.28071   5
   3  -9   8 4.60558 1.64249   4
  -4   9  -8 1.01413 1.39080   2
  -4   9  -8 -0.3944 1.58707   6
   4  -9   8 1.14110 1.44170   2
   4  -9   8 2.97778 1.45368   5
   4  -9   8 5.12296 1.65038   4
   3   8  -8 5.44430 1.88783   4
   3   8  -8 5.12638 1.77688   2
   3   8  -8 6.93367 1.93647   5
  -3  -8   8 11.9046 3.75937   1
  -3  -8   8 6.33626 2.14058   4
   2   8  -8 45.0120 3.37414   2
   2   8  -8 42.6237 3.46222   5
  -2  -8   8 42.6806 4.05298   4
  -2  -8   8 47.7404 4.53318   7
  -2  -8   8 43.5270 5.61692   1
   1   8  -8 12.5107 2.06186   2
   1   8  -8 11.4610 2.04514   5
  -1  -8   8 12.1591 2.37558   7
  -1  -8   8 16.2312 2.73422   4
  -1  -8   8 12.4725 3.62629   1
   0   8  -8 4.97467 1.43852   2
   0   8  -8 5.69415 1.58441   5
   0   8  -8 4.48851 1.07943   6
   0  -8   8 6.64192 2.53659   1
   0  -8   8 8.35756 2.01856   4
   0  -8   8 2.16811 1.40720   5
  -1   8  -8 126.599 5.85688   5
  -1   8  -8 126.712 5.30893   6
  -1   8  -8 120.758 5.68117   2
   1  -8   8 120.981 6.12806   4
   1  -8   8 120.134 7.35234   1
   1  -8   8 130.363 5.92444   5
  -2   8  -8 2.30792 1.22759   6
  -2   8  -8 2.18187 1.27686   2
   2  -8   8 3.68158 1.52801   4
   2  -8   8 6.25927 1.54076   5
   2  -8   8 3.20115 1.70852   1
  -3   8  -8 3.57072 1.42670   2
  -3   8  -8 1.74011 1.27817   6
   3  -8   8 3.85665 1.41217   5
   3  -8   8 2.63966 1.37854   4
  -4   8  -8 5.20195 1.71704   2
  -4   8  -8 3.66550 1.64889   6
   4  -8   8 2.21045 1.36720   2
   4  -8   8 4.35526 1.45380   4
   4  -8   8 4.51417 1.51497   5
  -5   8  -8 1.17476 1.54810   2
   5  -8   8 2.66659 1.64170   5
   5  -8   8 2.58661 1.72124   2
  -4  -7   8 21.7456 3.42387   7
   3   7  -8 13.8324 2.41798   5
   3   7  -8 11.2433 2.42689   4
   3   7  -8 13.9065 2.25281   2
  -3  -7   8 23.7721 4.63746   1
  -3  -7   8 15.3028 2.93693   4
  -3  -7   8 21.6042 3.47409   7
   2   7  -8 -0.7654 0.96732   4
   2   7  -8 -1.3364 1.00424   5
   2   7  -8 0.09081 1.00306   2
  -2  -7   8 0.32754 1.52349   4
  -2  -7   8 1.71649 1.80763   7
  -2  -7   8 0.96824 2.32749   1
   1   7  -8 4.07591 1.23581   2
   1   7  -8 3.69627 1.24050   5
  -1  -7   8 5.60654 1.69767   4
  -1  -7   8 6.07832 1.83971   7
  -1  -7   8 2.64082 2.17863   1
   0   7  -8 0.80901 0.70866   6
   0   7  -8 1.60369 1.01397   5
   0   7  -8 0.97218 0.89767   2
   0  -7   8 2.03483 1.90211   7
   0  -7   8 1.87139 1.99276   1
   0  -7   8 -0.8346 0.92835   5
   0  -7   8 1.92649 1.28885   4
  -1   7  -8 38.9592 2.47353   6
  -1   7  -8 34.6603 2.68926   2
  -1   7  -8 35.2793 2.75386   5
   1  -7   8 35.4422 2.85279   5
   1  -7   8 37.0470 3.09159   4
   1  -7   8 37.4734 3.91267   1
  -2   7  -8 7.89974 1.57275   2
  -2   7  -8 9.04936 1.53578   6
   2  -7   8 11.3149 1.86403   5
   2  -7   8 12.8458 2.49338   1
   2  -7   8 11.3370 2.06651   4
  -3   7  -8 5.70437 1.50072   6
  -3   7  -8 7.40239 1.71519   2
   3  -7   8 6.24381 1.50321   2
   3  -7   8 8.06683 1.79033   4
   3  -7   8 5.98133 1.54949   5
  -4   7  -8 0.21299 1.30909   6
  -4   7  -8 0.75928 1.28050   3
  -4   7  -8 0.17414 1.18167   2
   4  -7   8 1.32135 1.23000   2
   4  -7   8 1.02852 1.15647   5
   4  -7   8 1.45598 1.10046   4
  -5   7  -8 4.00972 1.92848   6
  -5   7  -8 6.91580 1.92148   3
  -5   7  -8 4.91265 1.83699   2
   5  -7   8 6.91252 1.89486   5
   5  -7   8 7.01186 2.20755   2
  -4  -6   8 6.06466 2.37541   7
   3   6  -8 14.6346 2.36758   5
   3   6  -8 14.7424 2.59650   4
   3   6  -8 13.0142 2.02179   2
  -3  -6   8 15.7036 2.89086   4
  -3  -6   8 14.6515 3.23064   7
  -3  -6   8 25.0748 4.58292   1
   2   6  -8 2.48760 1.11656   2
   2   6  -8 1.13768 1.03793   5
   2   6  -8 1.98495 1.37496   4
  -2  -6   8 2.58775 1.57628   4
  -2  -6   8 1.27856 2.20809   1
  -2  -6   8 2.79708 1.90574   7
   1   6  -8 0.39590 0.83010   2
   1   6  -8 -0.3618 0.65600   5
  -1  -6   8 0.63359 1.25923   7
  -1  -6   8 -0.6573 1.12313   4
  -1  -6   8 -1.0268 1.67263   1
   0   6  -8 96.4492 4.54994   5
   0   6  -8 91.7094 3.75706   6
   0   6  -8 101.525 4.37553   2
   0  -6   8 93.8998 4.48578   5
   0  -6   8 82.4983 5.94019   1
   0  -6   8 92.0548 4.89606   4
   0  -6   8 89.6775 4.59620   7
  -1   6  -8 36.4016 2.51567   2
  -1   6  -8 31.8577 2.46436   5
  -1   6  -8 34.3933 2.22289   6
   1  -6   8 32.9551 2.49207   5
   1  -6   8 32.7181 2.83726   4
   1  -6   8 33.6072 3.53012   1
  -2   6  -8 111.492 4.82709   3
  -2   6  -8 110.302 4.82847   6
  -2   6  -8 105.171 4.89365   2
   2  -6   8 100.812 5.81098   1
   2  -6   8 106.967 4.90979   5
   2  -6   8 100.509 4.76155   2
   2  -6   8 101.090 5.18184   4
  -3   6  -8 2.10197 1.05065   6
  -3   6  -8 2.64356 1.17741   2
  -3   6  -8 0.40633 0.99284   3
   3  -6   8 1.81551 1.05513   2
   3  -6   8 2.63137 1.21702   4
   3  -6   8 1.03100 0.99475   5
  -4   6  -8 1.89355 1.29392   3
  -4   6  -8 2.05209 1.30082   6
  -4   6  -8 2.85427 1.47708   2
   4  -6   8 5.14493 1.36719   4
   4  -6   8 4.90527 1.50670   5
   4  -6   8 2.38533 1.36812   2
  -5   6  -8 0.60566 1.49912   6
  -5   6  -8 -0.8358 1.33020   2
  -5   6  -8 -1.0611 1.28507   3
   5  -6   8 0.16651 1.18461   5
   5  -6   8 -1.0309 1.40284   2
   5   5  -8 1.22057 1.63669   5
  -5  -5   8 7.74157 2.52133   7
   4   5  -8 1.84763 1.52094   4
   4   5  -8 2.08535 1.31708   2
  -4  -5   8 6.77102 2.60736   7
   3   5  -8 22.3038 2.37467   2
   3   5  -8 23.4643 2.78277   4
   3   5  -8 23.3860 2.61711   5
  -3  -5   8 23.3039 3.78737   7
  -3  -5   8 26.2378 3.20221   4
  -3  -5   8 28.3044 4.78979   1
   2   5  -8 0.35841 0.77082   2
   2   5  -8 0.17273 0.89237   5
   2   5  -8 -1.3571 0.93940   4
  -2  -5   8 -0.3119 1.22101   4
  -2  -5   8 -0.5504 1.33265   7
  -2  -5   8 -1.0616 1.85240   1
   1   5  -8 11.4834 1.67974   5
   1   5  -8 13.3242 1.52513   2
  -1  -5   8 7.51470 2.53075   1
  -1  -5   8 10.4228 2.20351   7
  -1  -5   8 11.4891 2.07533   4
   0   5  -8 52.5062 2.45820   6
   0   5  -8 54.3904 3.09275   5
   0   5  -8 56.5716 2.96391   2
   0  -5   8 51.0842 4.34957   1
   0  -5   8 55.3951 3.12761   5
   0  -5   8 51.6400 3.32004   7
   0  -5   8 56.4318 3.50807   4
  -1   5  -8 -0.1155 0.47644   3
  -1   5  -8 -0.1043 0.57640   5
  -1   5  -8 -0.1854 0.56603   6
  -1   5  -8 0.46660 0.64130   2
   1  -5   8 -0.9406 0.97925   1
   1  -5   8 -1.1064 0.74923   4
   1  -5   8 -0.2138 0.67967   7
   1  -5   8 -1.2537 0.57053   5
  -2   5  -8 49.8936 2.59845   3
  -2   5  -8 50.5955 2.91541   6
  -2   5  -8 47.5639 2.93445   2
   2  -5   8 43.9855 2.83879   5
   2  -5   8 42.8154 3.57914   1
   2  -5   8 47.8102 3.25170   4
   2  -5   8 50.3988 2.87889   2
  -3   5  -8 40.3981 3.08824   2
  -3   5  -8 42.6772 2.85986   3
   3  -5   8 45.2205 3.09884   4
   3  -5   8 44.2490 2.95788   5
   3  -5   8 45.9261 3.04187   2
  -4   5  -8 9.19406 1.74511   6
  -4   5  -8 9.54852 1.97693   2
  -4   5  -8 7.27008 1.69494   3
   4  -5   8 10.4098 1.92865   5
   4  -5   8 11.9089 2.12406   4
   4  -5   8 10.4171 1.93934   2
  -5   5  -8 1.30881 1.57287   6
  -5   5  -8 -0.7630 1.24156   3
  -5   5  -8 -0.3936 1.32692   2
   5  -5   8 1.78620 1.54997   2
   5  -5   8 2.00470 1.31864   5
   4   4  -8 -1.1234 0.98098   2
   4   4  -8 0.43147 1.25318   4
   4   4  -8 0.61078 1.16886   5
  -4  -4   8 4.51384 2.73721   1
  -4  -4   8 3.77824 2.64301   7
   3   4  -8 2.96142 1.29737   5
   3   4  -8 2.93150 1.51893   4
   3   4  -8 4.19904 1.17892   2
  -3  -4   8 4.25241 2.22351   7
  -3  -4   8 7.08670 3.08625   1
  -3  -4   8 5.31949 1.91234   4
   2   4  -8 91.9983 4.52118   5
   2   4  -8 94.1073 4.06530   2
   2   4  -8 89.5629 4.99429   4
  -2  -4   8 86.7709 5.51752   7
  -2  -4   8 83.8545 6.16701   1
  -2  -4   8 100.975 5.19846   4
   1   4  -8 3.94565 1.03198   5
   1   4  -8 4.08438 0.90643   2
   1   4  -8 4.08268 1.24441   4
  -1  -4   8 3.07083 1.36839   7
  -1  -4   8 2.66762 1.24977   4
  -1  -4   8 2.46622 1.73627   1
   0   4  -8 3.53668 0.51516   3
   0   4  -8 2.41859 0.65306   6
   0   4  -8 3.63284 0.90182   2
   0   4  -8 4.91897 1.06935   5
   0  -4   8 2.44949 1.67190   1
   0  -4   8 3.13797 0.89558   5
   0  -4   8 4.39926 1.31408   7
   0  -4   8 3.80189 0.59208   3
   0  -4   8 2.87244 1.15177   4
  -1   4  -8 80.4684 3.65746   2
  -1   4  -8 83.9628 3.86476   5
  -1   4  -8 79.4809 3.20031   3
  -1   4  -8 83.8934 3.50230   6
   1  -4   8 75.9691 3.94091   7
   1  -4   8 80.6799 3.79313   5
   1  -4   8 78.2025 3.59574   2
   1  -4   8 80.2181 4.18873   4
   1  -4   8 81.0552 4.97988   1
  -2   4  -8 0.65446 0.70808   7
  -2   4  -8 -0.5249 0.60445   3
  -2   4  -8 0.44911 0.81689   2
  -2   4  -8 0.05750 0.68990   6
   2  -4   8 -0.1904 0.86949   4
   2  -4   8 0.89622 0.67539   2
   2  -4   8 -1.2860 0.81684   1
   2  -4   8 0.49213 0.70230   5
  -3   4  -8 5.84059 1.32696   3
  -3   4  -8 9.50348 1.59195   6
  -3   4  -8 8.14420 1.57914   2
   3  -4   8 7.36668 1.44334   5
   3  -4   8 5.30953 1.21454   2
   3  -4   8 8.89838 1.53929   4
  -4   4  -8 3.22668 1.23425   6
  -4   4  -8 0.80873 1.19911   3
   4  -4   8 2.88137 1.22828   5
   4  -4   8 3.06346 1.30053   2
  -5   4  -8 2.47040 1.58136   6
  -5   4  -8 1.00872 1.46412   3
   5  -4   8 2.54617 1.61144   2
   5  -4   8 5.20159 1.61556   5
  -5  -3   8 3.51355 2.61469   7
   4   3  -8 1.54132 1.40641   4
   4   3  -8 3.82248 1.56949   5
  -4  -3   8 2.05094 2.33836   7
  -4  -3   8 4.20805 2.58465   1
   3   3  -8 249.594 10.2294   4
   3   3  -8 254.579 9.74095   5
   3   3  -8 252.243 8.98138   2
  -3  -3   8 233.318 11.2909   7
  -3  -3   8 276.777 12.4918   1
   2   3  -8 14.0580 1.67263   5
   2   3  -8 12.5448 2.02958   4
   2   3  -8 13.7354 1.43904   2
  -2  -3   8 10.5941 2.35365   7
  -2  -3   8 11.7318 2.85509   1
  -2  -3   8 12.4334 2.09258   4
  -2  -3   8 13.3718 1.28746   3
   1   3  -8 5.12406 1.05733   5
   1   3  -8 4.86665 0.89309   2
   1   3  -8 6.67364 1.44227   4
  -1  -3   8 4.44770 1.30118   4
  -1  -3   8 3.02064 1.85102   1
  -1  -3   8 5.44284 1.64560   7
  -1  -3   8 4.32455 0.71656   3
   0   3  -8 381.390 12.5005   2
   0   3  -8 384.276 12.8683   5
   0   3  -8 380.600 12.1065   6
   0  -3   8 360.279 14.6063   1
   0  -3   8 372.774 13.5220   7
   0  -3   8 377.782 12.7940   5
   0  -3   8 394.078 13.5206   4
   0  -3   8 380.544 12.1103   3
  -1   3  -8 0.76951 0.63517   2
  -1   3  -8 0.45241 0.49413   3
  -1   3  -8 0.26394 0.51902   6
  -1   3  -8 1.40368 0.65060   5
   1  -3   8 0.25598 0.98955   1
   1  -3   8 0.12514 0.80100   7
   1  -3   8 0.70203 0.59463   5
   1  -3   8 0.50410 0.49674   2
   1  -3   8 1.85964 0.60121   6
   1  -3   8 0.12421 0.51346   3
   1  -3   8 1.22750 0.92977   4
  -2   3  -8 12.0595 1.47320   6
  -2   3  -8 13.1207 1.58677   7
  -2   3  -8 14.0691 1.67947   2
  -2   3  -8 14.7505 1.42909   3
   2  -3   8 14.0646 1.46642   2
   2  -3   8 12.6141 1.62259   4
   2  -3   8 11.6072 1.81293   1
   2  -3   8 14.5942 1.47125   5
   2  -3   8 12.7216 1.36299   6
  -3   3  -8 11.4702 1.70392   3
  -3   3  -8 8.64115 1.89218   7
  -3   3  -8 7.76212 1.47668   6
   3  -3   8 7.20994 1.26846   6
   3  -3   8 10.5539 1.59330   2
   3  -3   8 10.5960 1.56705   5
   3  -3   8 10.5959 1.46959   4
  -4   3  -8 11.9753 1.94603   6
  -4   3  -8 6.52796 1.61160   3
   4  -3   8 11.7505 1.96577   2
   4  -3   8 12.7025 1.79145   6
   4  -3   8 13.2970 2.00001   5
  -5   3  -8 14.2186 2.36199   6
  -5   3  -8 8.65451 2.14698   3
   5  -3   8 18.8150 2.82806   2
   5  -3   8 12.2310 2.17423   5
  -5  -2   8 2.48509 2.74910   7
   4   2  -8 0.33021 1.22674   4
   4   2  -8 -0.0265 1.10490   5
  -4  -2   8 5.74177 3.10948   1
  -4  -2   8 1.98886 1.22018   3
  -4  -2   8 2.44020 2.00932   7
   3   2  -8 10.7324 2.09587   4
   3   2  -8 9.70288 1.64954   5
   3   2  -8 8.03975 1.18041   2
  -3  -2   8 8.09903 1.46314   3
  -3  -2   8 8.87676 3.33163   1
  -3  -2   8 6.23200 2.34052   7
   2   2  -8 138.100 6.29696   4
   2   2  -8 136.563 5.04097   2
   2   2  -8 135.195 5.70212   5
  -2  -2   8 140.196 5.20655   3
  -2  -2   8 142.576 6.35912   4
  -2  -2   8 124.938 6.82716   7
  -2  -2   8 137.589 7.62930   1
   1   2  -8 27.5025 1.22207   6
   1   2  -8 30.1104 2.39861   4
   1   2  -8 32.1145 1.74011   2
   1   2  -8 30.1309 2.07404   5
  -1  -2   8 28.3228 1.69411   3
  -1  -2   8 29.2109 2.76191   7
  -1  -2   8 30.5579 2.51485   4
  -1  -2   8 30.7367 3.32024   1
   0   2  -8 5.63370 0.73199   6
   0   2  -8 6.49443 0.94211   2
   0   2  -8 6.77629 1.09862   5
   0   2  -8 5.17234 1.18730   4
   0  -2   8 5.35369 0.84998   3
   0  -2   8 4.70995 0.93835   5
   0  -2   8 7.30630 1.67871   7
   0  -2   8 5.78699 0.73207   6
   0  -2   8 6.52309 1.38268   4
   0  -2   8 5.28276 1.79867   1
  -1   2  -8 115.185 4.54395   5
  -1   2  -8 113.912 4.29568   6
  -1   2  -8 107.780 4.17316   3
  -1   2  -8 107.947 4.35812   2
   1  -2   8 105.179 5.13337   7
   1  -2   8 109.270 4.45261   5
   1  -2   8 107.846 4.23058   6
   1  -2   8 108.082 5.72116   1
   1  -2   8 109.329 4.90834   4
   1  -2   8 107.210 4.23346   3
   1  -2   8 106.643 4.34910   2
  -2   2  -8 9.43002 1.88918   1
  -2   2  -8 10.7423 1.37029   6
  -2   2  -8 10.7010 1.36973   3
  -2   2  -8 9.51998 1.53709   7
   2  -2   8 10.3722 1.34458   4
   2  -2   8 9.06181 1.21860   6
   2  -2   8 9.10641 1.33699   2
   2  -2   8 8.33993 1.28924   3
   2  -2   8 8.87781 1.26599   5
   2  -2   8 8.91063 1.63728   1
  -3   2  -8 -1.4144 0.67790   3
  -3   2  -8 -0.8496 1.07624   7
  -3   2  -8 -1.1609 0.72915   6
   3  -2   8 -0.9254 0.61013   6
   3  -2   8 -1.4182 0.51209   2
   3  -2   8 -0.2362 0.62441   5
   3  -2   8 0.40400 0.58291   4
  -4   2  -8 1.01209 1.06766   6
  -4   2  -8 -0.0345 1.96633   7
  -4   2  -8 1.80731 1.25673   3
   4  -2   8 2.07933 1.11858   5
   4  -2   8 2.65898 1.10942   6
   4  -2   8 0.81217 1.03208   2
  -5   2  -8 7.29437 2.03306   3
  -5   2  -8 8.53295 1.93494   6
   5  -2   8 8.33955 1.89035   6
   5  -2   8 8.17579 1.77764   5
   5  -2   8 5.77552 1.80653   2
   5   1  -8 4.09253 1.70311   4
   5   1  -8 1.99489 1.64684   5
  -5  -1   8 4.80226 2.72479   7
  -5  -1   8 5.60065 1.60503   3
   4   1  -8 1.45974 1.16805   5
   4   1  -8 2.75696 1.45095   4
  -4  -1   8 1.54444 1.96597   7
  -4  -1   8 6.41595 3.09464   1
  -4  -1   8 1.38510 1.24258   3
   3   1  -8 12.3980 2.22556   4
   3   1  -8 9.53769 1.65540   5
  -3  -1   8 12.6134 1.73009   3
  -3  -1   8 12.8384 3.59592   1
  -3  -1   8 8.17128 2.60317   7
   2   1  -8 5.18284 1.08267   5
   2   1  -8 5.46728 0.78714   2
   2   1  -8 6.43730 1.50931   4
  -2  -1   8 5.44622 1.89285   7
  -2  -1   8 3.59887 1.96481   1
  -2  -1   8 5.04231 1.04925   3
   1   1  -8 187.175 7.52136   4
   1   1  -8 178.065 5.90962   6
   1   1  -8 190.353 6.27609   2
   1   1  -8 176.671 6.80101   5
  -1  -1   8 181.724 5.92746   6
  -1  -1   8 183.925 6.53817   3
  -1  -1   8 194.950 7.63199   4
  -1  -1   8 181.258 8.73413   1
  -1  -1   8 186.552 8.09754   7
   0   1  -8 71.9740 3.27303   5
   0   1  -8 70.5307 2.96519   2
   0   1  -8 77.0466 3.83327   4
   0   1  -8 72.8879 2.87934   6
   0  -1   8 73.3297 2.98074   2
   0  -1   8 71.6449 3.24687   5
   0  -1   8 73.9736 4.77344   1
   0  -1   8 72.9670 4.14945   7
   0  -1   8 76.2430 2.92874   6
   0  -1   8 73.3725 3.15090   3
   0  -1   8 74.9475 3.83634   4
  -1   1  -8 71.6017 4.45530   1
  -1   1  -8 70.6452 3.88006   7
  -1   1  -8 69.3255 3.09922   3
  -1   1  -8 67.5270 3.52007   4
  -1   1  -8 76.2408 3.16138   6
  -1   1  -8 72.2623 3.15642   2
  -1   1  -8 70.3947 3.20799   5
   1  -1   8 77.1305 3.21421   2
   1  -1   8 70.7242 4.46667   1
   1  -1   8 77.2833 3.25519   5
   1  -1   8 72.3289 3.12683   6
   1  -1   8 71.2014 4.09367   7
   1  -1   8 72.1644 3.61365   4
   1  -1   8 73.7882 3.23992   3
  -2   1  -8 14.3465 1.92879   1
  -2   1  -8 15.7559 1.92193   7
  -2   1  -8 15.4244 1.46067   3
  -2   1  -8 15.7589 1.67093   6
   2  -1   8 12.9890 1.93788   1
   2  -1   8 12.5999 1.28180   5
   2  -1   8 12.3538 1.35456   6
   2  -1   8 13.8735 1.46514   4
   2  -1   8 12.9264 1.48016   3
   2  -1   8 12.5588 1.38949   2
  -3   1  -8 9.84687 2.18197   7
  -3   1  -8 7.27228 1.43390   6
  -3   1  -8 8.39255 1.52229   3
   3  -1   8 6.05365 1.37859   2
   3  -1   8 9.12024 1.42954   5
   3  -1   8 6.10190 1.25870   6
  -4   1  -8 2.06050 1.21756   3
  -4   1  -8 0.12066 1.94391   7
  -4   1  -8 1.93855 1.14793   6
   4  -1   8 2.05304 1.01401   5
   4  -1   8 3.25529 1.39721   2
   4  -1   8 0.91643 1.01429   6
  -5   1  -8 0.69715 1.59966   3
  -5   1  -8 0.65099 1.30795   6
   5  -1   8 0.50474 1.25991   6
   5  -1   8 1.86756 1.50735   2
   5  -1   8 3.03199 1.36198   5
   5   0  -8 -0.5973 1.24654   4
   5   0  -8 -0.8254 1.21238   5
  -5   0   8 2.37524 2.51727   7
  -5   0   8 2.69294 1.42360   3
  -5   0   8 7.14319 3.27904   1
   4   0  -8 18.7950 2.52284   4
   4   0  -8 15.1552 2.19746   5
  -4   0   8 19.3081 2.39683   3
  -4   0   8 23.2405 4.55749   1
  -4   0   8 14.4183 3.32436   7
   3   0  -8 198.277 7.63142   5
   3   0  -8 189.378 8.21322   4
  -3   0   8 200.578 7.54700   3
  -3   0   8 176.045 9.16544   7
  -3   0   8 205.298 10.1442   1
   2   0  -8 7.39685 1.54731   4
   2   0  -8 8.02289 1.23536   5
   2   0  -8 8.75544 0.79554   2
  -2   0   8 9.19308 1.35587   3
  -2   0   8 6.53027 1.89198   7
  -2   0   8 7.50614 2.49302   1
   1   0  -8 187.880 6.33631   2
   1   0  -8 202.222 7.80169   4
   1   0  -8 185.763 6.97866   5
  -1   0   8 197.972 6.94197   3
  -1   0   8 193.834 8.36255   7
  -1   0   8 188.276 6.28901   6
  -1   0   8 196.725 9.10514   1
   0   0  -8 17.3984 2.30148   1
   0   0  -8 18.4872 1.19028   2
   0   0  -8 17.5555 1.67110   4
   0   0  -8 18.8223 1.36801   5
   0   0   8 19.3488 1.18620   2
   0   0   8 16.5068 1.45254   3
   0   0   8 17.4345 2.46279   1
   0   0   8 20.0983 1.24112   6
   0   0   8 17.6990 2.17661   7
   0   0   8 17.3350 1.79443   4
  -1   0  -8 30.8342 2.10576   4
  -1   0  -8 31.4066 2.83827   1
  -1   0  -8 33.6490 1.83500   5
  -1   0  -8 32.2959 2.55769   7
   1   0   8 30.7546 1.77509   5
   1   0   8 29.9393 2.93215   1
   1   0   8 31.1580 2.13198   4
   1   0   8 34.1309 1.89422   6
   1   0   8 31.0030 2.03111   3
   1   0   8 31.9380 2.81932   7
   1   0   8 33.6817 1.85432   2
  -2   0  -8 152.909 6.89163   1
  -2   0  -8 153.548 5.82686   3
  -2   0  -8 149.927 5.81763   4
  -2   0  -8 152.551 6.73576   7
   2   0   8 147.951 5.87122   3
   2   0   8 151.572 5.59616   5
   2   0   8 147.368 5.80361   6
   2   0   8 149.437 5.80253   2
   2   0   8 144.113 5.73814   4
  -3   0  -8 143.904 7.12589   7
  -3   0  -8 143.013 6.09711   3
  -3   0  -8 152.023 6.09067   6
   3   0   8 144.456 6.03614   2
   3   0   8 143.286 6.01597   6
   3   0   8 149.036 5.73389   5
  -4   0  -8 16.1395 3.31923   7
  -4   0  -8 12.5159 1.99830   3
  -4   0  -8 15.8139 2.13063   6
   4   0   8 14.4580 1.91133   5
   4   0   8 13.7077 1.96941   6
   4   0   8 14.6522 2.14999   2
  -5   0  -8 1.54320 1.37730   6
  -5   0  -8 -2.0856 1.37660   3
  -5   0  -8 -4.4669 2.36069   7
   5   0   8 -0.2955 1.21753   2
   5   0   8 2.48907 1.24258   5
   5   0   8 1.07525 1.28528   6
   5  -1  -8 0.04860 1.30669   5
   5  -1  -8 -0.1656 1.28042   4
  -5   1   8 0.13474 1.35991   3
  -5   1   8 3.71048 2.62489   7
   4  -1  -8 14.9877 2.96347   1
   4  -1  -8 9.24330 1.79240   5
   4  -1  -8 10.3688 2.21876   4
  -4   1   8 9.21479 2.89040   7
  -4   1   8 12.9971 2.10718   3
  -4   1   8 15.8664 4.07256   1
   3  -1  -8 34.4716 3.98086   1
   3  -1  -8 34.9401 2.97404   4
   3  -1  -8 32.3092 2.46370   5
  -3   1   8 34.4603 2.75675   3
  -3   1   8 34.5171 3.82045   7
  -3   1   8 36.3978 4.81099   1
   2  -1  -8 -0.4793 0.44301   5
   2  -1  -8 0.04231 0.76652   4
   2  -1  -8 -1.4702 0.99912   1
  -2   1   8 0.28905 0.73208   3
  -2   1   8 -0.7172 1.46424   1
  -2   1   8 -0.7665 0.97897   7
   1  -1  -8 281.176 12.1413   1
   1  -1  -8 298.461 9.99132   5
   1  -1  -8 285.785 9.23302   2
   1  -1  -8 297.618 10.8737   4
  -1   1   8 297.448 11.6413   7
  -1   1   8 292.799 9.53145   6
  -1   1   8 303.786 10.1709   3
  -1   1   8 306.661 12.4273   1
   0  -1  -8 5.68506 0.84777   5
   0  -1  -8 3.64207 0.64890   2
   0  -1  -8 5.11089 1.11111   4
   0  -1  -8 6.11046 1.86012   1
   0   1   8 5.07702 0.76297   6
   0   1   8 5.13209 1.00436   3
   0   1   8 5.81347 0.66718   2
   0   1   8 3.11224 1.30500   7
   0   1   8 6.17250 1.98377   1
  -1  -1  -8 0.66483 0.42533   5
  -1  -1  -8 0.38948 0.83088   7
  -1  -1  -8 1.22428 1.02895   1
  -1  -1  -8 1.35057 0.64729   4
   1   1   8 0.79364 0.47959   6
   1   1   8 1.17537 1.18173   7
   1   1   8 0.79387 0.44631   2
   1   1   8 0.45551 0.36284   5
   1   1   8 0.71548 1.17736   1
   1   1   8 0.53749 0.60984   3
  -2  -1  -8 317.714 11.0566   4
  -2  -1  -8 340.758 11.3495   3
  -2  -1  -8 338.836 12.7020   1
  -2  -1  -8 324.862 12.4332   7
   2   1   8 324.439 11.3749   3
   2   1   8 328.687 11.2717   6
   2   1   8 332.612 11.2097   2
   2   1   8 320.202 10.8460   5
  -3  -1  -8 4.13860 1.21376   3
  -3  -1  -8 2.06447 1.75358   7
  -3  -1  -8 4.47792 2.07856   1
   3   1   8 3.28122 1.14520   2
   3   1   8 4.43486 1.00683   5
   3   1   8 4.44708 1.19550   6
   3   1   8 4.38205 1.34735   3
  -4  -1  -8 0.47718 1.11594   3
  -4  -1  -8 -0.8335 2.11227   7
  -4  -1  -8 0.12571 0.98479   6
   4   1   8 -0.6964 0.70359   5
   4   1   8 -0.2227 0.89459   6
   4   1   8 0.40532 1.02212   2
  -5  -1  -8 1.97293 1.34636   6
  -5  -1  -8 4.48532 2.00037   3
  -5  -1  -8 -2.3449 2.80627   7
   5   1   8 4.16310 1.59541   6
   5   1   8 2.78317 1.46917   2
   5  -2  -8 1.07222 1.45971   5
   5  -2  -8 0.59753 1.47446   4
  -5   2   8 1.68481 1.58663   3
  -5   2   8 3.56945 2.86233   7
   4  -2  -8 9.08010 2.75041   1
   4  -2  -8 7.60608 1.65414   5
   4  -2  -8 10.3541 2.23846   4
  -4   2   8 12.6913 4.02436   1
  -4   2   8 9.03544 2.87354   7
  -4   2   8 10.1753 1.98879   3
   3  -2  -8 3.77965 1.34641   4
   3  -2  -8 2.03087 2.02653   1
   3  -2  -8 3.56914 1.03438   5
  -3   2   8 -0.1624 1.58031   7
  -3   2   8 1.18018 1.18924   3
  -3   2   8 -0.6907 2.60521   1
   2  -2  -8 94.0627 3.93705   5
   2  -2  -8 86.4631 5.74875   1
   2  -2  -8 94.7361 4.74629   4
  -2   2   8 86.3389 3.34983   6
  -2   2   8 84.4007 5.29810   7
  -2   2   8 90.9734 4.20122   3
  -2   2   8 91.0806 6.06089   1
   1  -2  -8 175.492 8.45872   1
   1  -2  -8 176.569 6.22561   5
   1  -2  -8 175.647 7.12729   4
  -1   2   8 170.867 6.59479   3
  -1   2   8 172.305 6.05370   6
  -1   2   8 173.433 7.89952   7
  -1   2   8 177.443 8.65877   1
   0  -2  -8 0.45112 0.32720   5
   0  -2  -8 0.87252 0.60732   4
   0  -2  -8 0.30492 0.92018   1
   0   2   8 0.92126 0.50390   6
   0   2   8 0.17424 1.12718   1
   0   2   8 0.40909 0.66290   3
   0   2   8 -0.0148 1.01835   7
   0   2   8 1.13244 0.35841   2
  -1  -2  -8 5.81969 0.67014   5
  -1  -2  -8 5.72156 1.72721   1
  -1  -2  -8 5.44727 1.58032   7
  -1  -2  -8 5.73424 1.06110   4
   1   2   8 4.94899 0.71896   5
   1   2   8 6.82346 1.22323   3
   1   2   8 5.35722 0.89272   2
   1   2   8 6.95016 1.06080   6
   1   2   8 6.98109 1.94668   7
  -2  -2  -8 19.9022 1.89218   3
  -2  -2  -8 18.5320 2.62912   7
  -2  -2  -8 17.6550 2.55835   1
  -2  -2  -8 20.3614 2.21089   4
   2   2   8 21.8426 2.07805   3
   2   2   8 17.1033 1.79781   6
   2   2   8 18.2638 1.68431   2
   2   2   8 15.9921 1.26941   5
  -3  -2  -8 6.99520 2.16094   1
  -3  -2  -8 5.25900 2.32627   7
  -3  -2  -8 11.6326 1.84228   3
   3   2   8 7.96006 1.68649   3
   3   2   8 7.65356 1.46404   2
   3   2   8 7.85361 1.37928   6
  -4  -2  -8 3.97950 1.52798   3
  -4  -2  -8 2.68844 2.62850   7
   4   2   8 5.82092 1.58609   6
   4   2   8 5.38469 1.49971   2
  -5  -2  -8 0.56719 1.63726   3
  -5  -2  -8 1.19407 1.30905   6
  -5  -2  -8 -3.9188 2.67850   7
   5   2   8 1.37382 1.25343   2
   5   2   8 1.95158 1.41664   6
   5  -3  -8 2.38167 1.95701   4
   5  -3  -8 2.10424 1.47989   5
  -5   3   8 9.26151 3.33118   7
  -5   3   8 3.08438 1.69019   3
   4  -3  -8 15.1962 2.98065   1
   4  -3  -8 15.1623 2.60898   4
   4  -3  -8 11.1649 1.84427   5
  -4   3   8 15.6446 2.42558   3
  -4   3   8 14.2679 4.37017   1
  -4   3   8 21.8340 4.18543   7
   3  -3  -8 9.30074 2.85441   1
   3  -3  -8 9.30707 1.43426   5
   3  -3  -8 10.5737 2.04069   4
  -3   3   8 10.7595 3.83371   1
  -3   3   8 9.09780 1.72645   3
  -3   3   8 10.1558 2.68356   7
   2  -3  -8 2.30391 1.07452   4
   2  -3  -8 1.99307 1.57083   1
   2  -3  -8 2.34331 0.73595   5
  -2   3   8 2.25277 0.60890   6
  -2   3   8 2.48900 2.02639   1
  -2   3   8 1.19477 0.92045   3
  -2   3   8 2.13965 1.86619   7
   1  -3  -8 9.48779 0.94361   5
   1  -3  -8 10.8455 1.75078   4
   1  -3  -8 10.2269 2.46579   1
  -1   3   8 10.4939 2.62448   1
  -1   3   8 9.69167 2.22772   7
  -1   3   8 10.8597 1.16576   6
  -1   3   8 12.8545 1.67750   3
   0  -3  -8 -0.0769 0.44788   4
   0  -3  -8 -0.0773 0.97061   1
   0  -3  -8 -0.0437 0.23801   5
   0  -3  -8 -0.3966 0.78651   7
   0   3   8 -0.4779 0.52278   3
   0   3   8 -0.4833 0.41206   6
   0   3   8 -0.9747 1.03700   7
   0   3   8 -0.0410 0.28532   2
  -1  -3  -8 0.45332 1.10673   1
  -1  -3  -8 -0.3893 0.40616   4
  -1  -3  -8 -0.3046 1.02940   7
   1   3   8 -0.3982 0.39052   2
   1   3   8 -0.6285 1.23850   7
   1   3   8 -0.5365 0.64502   3
   1   3   8 0.30375 0.57454   6
  -2  -3  -8 94.5336 4.38898   3
  -2  -3  -8 101.273 5.88088   1
  -2  -3  -8 98.1111 5.68926   7
   2   3   8 92.0929 4.49983   3
   2   3   8 94.9237 4.37507   6
   2   3   8 94.1316 4.16921   2
  -3  -3  -8 5.62456 2.35080   7
  -3  -3  -8 6.01351 2.33212   1
  -3  -3  -8 7.05525 1.46949   3
   3   3   8 8.54316 1.76139   3
   3   3   8 7.48814 1.47694   2
   3   3   8 5.72872 1.28478   6
  -4  -3  -8 -0.5848 1.09014   3
  -4  -3  -8 -3.9871 1.97853   7
   4   3   8 0.23489 1.06753   6
   4   3   8 0.05871 0.96216   2
  -5  -3  -8 3.34584 2.02696   3
  -5  -3  -8 1.92201 1.57613   6
  -5  -3  -8 0.22880 3.33523   7
   5   3   8 2.37326 1.65669   6
   5   3   8 6.13986 1.80330   2
   5  -4  -8 -1.7820 1.22090   5
   5  -4  -8 -4.0308 1.59082   4
  -5   4   8 1.80054 1.73225   3
  -5   4   8 3.85140 2.45756   7
   4  -4  -8 -0.4950 1.00745   5
   4  -4  -8 0.46893 1.36658   4
   4  -4  -8 1.16074 1.72747   1
  -4   4   8 0.26362 1.29767   3
  -4   4   8 1.43235 2.38318   7
   3  -4  -8 0.75607 0.86202   5
   3  -4  -8 0.93836 1.73906   1
   3  -4  -8 0.99231 1.14205   4
  -3   4   8 0.18058 1.16238   3
  -3   4   8 1.62240 2.12968   7
   2  -4  -8 2.93881 1.82739   1
   2  -4  -8 4.15790 1.32575   4
   2  -4  -8 3.69902 0.86409   5
  -2   4   8 4.10356 1.94415   7
  -2   4   8 4.59407 0.90782   6
  -2   4   8 3.17973 1.16628   3
   1  -4  -8 32.2102 1.65536   5
   1  -4  -8 34.2577 2.61145   4
   1  -4  -8 30.3766 3.43637   1
  -1   4   8 33.9734 2.45353   3
  -1   4   8 33.2285 2.09668   6
  -1   4   8 33.1775 3.28371   7
   0  -4  -8 1.97144 1.32207   7
   0  -4  -8 2.33253 1.47670   1
   0  -4  -8 1.83969 0.82045   4
   0   4   8 2.44553 0.96183   3
   0   4   8 2.93415 0.55221   2
   0   4   8 3.18633 1.70427   7
   0   4   8 2.34040 0.79754   6
  -1  -4  -8 58.9992 4.53082   1
  -1  -4  -8 53.9954 3.95155   7
  -1  -4  -8 55.4144 2.89687   4
   1   4   8 56.9095 4.42812   7
   1   4   8 55.1687 2.63933   2
   1   4   8 61.8219 3.34134   3
   1   4   8 54.1330 3.03422   6
  -2  -4  -8 1.22598 0.83265   3
  -2  -4  -8 -1.7891 1.36243   1
  -2  -4  -8 -0.7735 1.39447   7
   2   4   8 -0.5120 0.58094   2
   2   4   8 -1.0315 0.80717   3
   2   4   8 -0.1535 0.71283   6
  -3  -4  -8 -0.7988 1.69672   7
  -3  -4  -8 0.60930 2.13076   1
  -3  -4  -8 1.70956 1.09843   3
   3   4   8 1.42215 1.31159   3
   3   4   8 0.63528 0.95648   2
   3   4   8 1.44587 1.11858   6
  -4  -4  -8 7.22318 1.79645   3
  -4  -4  -8 3.47643 3.16968   7
   4   4   8 5.69964 1.61490   6
   4   4   8 9.24879 1.82254   2
   5   4   8 3.80177 1.73291   2
   5  -5  -8 -0.8688 1.35132   5
   5  -5  -8 -1.0832 1.96123   4
  -5   5   8 1.83818 1.83658   3
  -5   5   8 6.19559 2.91663   7
   4  -5  -8 0.19771 1.13782   5
   4  -5  -8 -1.8110 1.43121   4
   4  -5  -8 0.57549 1.76561   1
  -4   5   8 0.62777 1.40815   3
  -4   5   8 1.48358 2.33453   7
   3  -5  -8 -0.0328 1.57990   1
   3  -5  -8 0.11077 0.83217   5
   3  -5  -8 0.49530 1.23088   4
  -3   5   8 1.47623 2.04304   7
  -3   5   8 1.03705 1.30158   3
   2  -5  -8 22.3850 3.53905   1
   2  -5  -8 20.8188 2.50584   4
   2  -5  -8 21.1867 1.92599   5
  -2   5   8 18.8845 2.35683   3
  -2   5   8 20.4224 1.89634   6
  -2   5   8 23.4172 3.36583   7
   1  -5  -8 128.631 7.48828   1
   1  -5  -8 130.991 5.95720   4
  -1   5   8 131.042 5.31839   6
  -1   5   8 137.686 7.12523   7
  -1   5   8 125.898 5.70759   3
   0  -5  -8 -0.0365 1.05867   7
   0  -5  -8 1.84515 1.71286   1
   0  -5  -8 1.38438 0.88447   4
   0   5   8 0.19054 0.78316   6
   0   5   8 0.73900 0.98812   3
   0   5   8 0.83037 1.68242   7
  -1  -5  -8 15.4809 2.58591   7
  -1  -5  -8 15.3250 1.70889   4
  -1  -5  -8 17.2707 3.16896   1
   1   5   8 18.7769 2.28976   3
   1   5   8 14.5590 1.42682   2
   1   5   8 17.1174 1.97348   6
  -2  -5  -8 3.24542 2.00787   7
  -2  -5  -8 6.92985 1.49222   3
  -2  -5  -8 4.74228 2.38412   1
   2   5   8 4.54926 1.32350   6
   2   5   8 6.09898 1.24532   2
   2   5   8 2.91699 1.36875   3
  -3  -5  -8 1.71465 2.85017   1
  -3  -5  -8 4.90519 1.49283   3
  -3  -5  -8 4.87207 2.66916   7
   3   5   8 3.34474 1.20570   2
   3   5   8 3.14306 1.63276   3
   3   5   8 6.43905 1.58317   6
  -4  -5  -8 7.66038 3.87477   7
  -4  -5  -8 11.1798 2.23341   3
   4   5   8 12.2275 2.04621   6
   4   5   8 9.34071 1.90415   2
   5  -6  -8 -2.2888 2.03608   4
   5  -6  -8 -0.1638 1.44117   5
  -5   6   8 5.22308 3.14206   7
  -5   6   8 4.77846 2.01671   3
   4  -6  -8 -3.4822 1.37398   4
   4  -6  -8 -1.1984 1.04192   5
   4  -6  -8 -0.8079 1.70463   1
  -4   6   8 -0.0127 2.25320   7
  -4   6   8 -1.0426 1.37999   3
   3  -6  -8 12.2050 2.42531   4
   3  -6  -8 14.3573 3.38555   1
  -3   6   8 14.8456 2.43711   3
  -3   6   8 17.0272 3.72114   7
  -3   6   8 14.5775 1.74654   6
   2  -6  -8 63.0464 4.27163   4
   2  -6  -8 68.4558 5.57357   1
  -2   6   8 70.5135 3.55371   6
  -2   6   8 65.8494 4.12437   3
  -2   6   8 72.6398 5.29911   7
   1  -6  -8 18.0751 3.63343   1
   1  -6  -8 20.5481 2.70750   7
   1  -6  -8 16.2960 2.34497   4
  -1   6   8 22.2948 3.38010   7
  -1   6   8 16.4137 2.20112   3
  -1   6   8 20.7203 2.18694   6
   0  -6  -8 43.3323 4.52060   1
   0  -6  -8 44.2490 3.04127   4
   0  -6  -8 44.8389 3.83125   7
   0   6   8 40.1570 3.08485   3
   0   6   8 48.3857 4.47752   7
   0   6   8 38.6746 2.80526   6
  -1  -6  -8 86.4637 5.54912   7
  -1  -6  -8 85.8654 6.32611   1
   1   6   8 85.7223 3.78659   2
   1   6   8 82.8717 4.24968   6
   1   6   8 84.1136 4.46994   3
  -2  -6  -8 -1.0065 1.59136   7
  -2  -6  -8 -0.2372 0.92922   3
  -2  -6  -8 -1.3823 2.10487   1
   2   6   8 -0.1103 1.12348   3
   2   6   8 0.40065 0.98547   6
   2   6   8 -0.7921 0.71718   2
  -3  -6  -8 -0.5747 3.02998   1
  -3  -6  -8 1.57812 1.19293   3
  -3  -6  -8 -1.4218 2.05388   7
   3   6   8 0.98704 1.39612   3
   3   6   8 2.11902 1.15056   2
   3   6   8 2.22291 1.24870   6
  -4  -6  -8 0.09893 1.32761   3
  -4  -6  -8 -3.4727 2.65733   7
   4   6   8 -0.3040 1.22590   6
   4   6   8 -0.2359 1.10822   2
   5  -7  -8 -1.9191 2.44090   4
  -5   7   8 7.76144 2.40411   3
   4  -7  -8 -0.5393 2.01728   1
   4  -7  -8 -2.3573 1.87463   4
  -4   7   8 1.40622 1.77873   3
  -4   7   8 0.53678 2.35513   7
   3  -7  -8 7.67220 2.36508   4
   3  -7  -8 13.9893 3.56864   1
  -3   7   8 12.2609 2.28556   3
  -3   7   8 20.3641 3.88924   7
  -3   7   8 11.8526 1.75251   6
   2  -7  -8 114.275 7.50209   1
   2  -7  -8 113.051 6.01162   4
  -2   7   8 97.2188 5.50955   3
  -2   7   8 113.559 6.91362   7
  -2   7   8 120.294 5.17237   6
   1  -7  -8 2.64936 1.53448   4
   1  -7  -8 5.49962 1.90247   7
   1  -7  -8 3.86318 2.43932   1
  -1   7   8 2.01388 2.40858   7
  -1   7   8 4.53136 1.37480   6
  -1   7   8 2.96434 1.53598   3
   0  -7  -8 49.4242 5.16338   1
   0  -7  -8 46.3484 3.41227   4
   0  -7  -8 53.3625 4.34035   7
   0   7   8 55.4224 3.38095   6
   0   7   8 46.3752 3.36120   3
   0   7   8 52.3182 4.83072   7
  -1  -7  -8 -0.1697 1.37018   7
  -1  -7  -8 -0.1678 2.10561   1
   1   7   8 0.74647 1.05771   6
   1   7   8 0.38246 1.15354   3
  -2  -7  -8 3.26801 2.24710   7
  -2  -7  -8 3.55156 3.17975   1
  -2  -7  -8 4.85569 1.54883   3
   2   7   8 5.03291 1.31913   2
   2   7   8 4.45382 1.55856   3
   2   7   8 6.36532 1.58267   6
  -3  -7  -8 1.43661 1.21386   3
  -3  -7  -8 -5.2781 2.83824   1
  -3  -7  -8 -1.0694 2.13828   7
   3   7   8 0.08212 1.48028   3
   3   7   8 1.70414 1.32883   6
   3   7   8 0.02773 1.05791   2
   4   7   8 1.19469 1.31619   2
   4  -8  -8 -1.8838 2.38563   1
  -4   8   8 1.20683 1.76546   3
  -4   8   8 1.01343 2.61434   7
   3  -8  -8 2.75341 2.42441   4
   3  -8  -8 4.30515 3.12026   1
  -3   8   8 4.69770 1.35525   6
  -3   8   8 3.06280 2.58820   7
  -3   8   8 6.75102 2.09353   3
   2  -8  -8 -1.5488 2.19027   1
   2  -8  -8 -1.8646 1.57957   4
  -2   8   8 0.46898 1.47543   3
  -2   8   8 0.77655 1.08247   6
  -2   8   8 -0.3889 2.24619   7
   1  -8  -8 22.8400 3.12316   4
   1  -8  -8 24.7481 3.32746   7
   1  -8  -8 24.9689 4.57539   1
  -1   8   8 26.2056 2.54014   6
  -1   8   8 24.9079 2.74364   3
  -1   8   8 28.4726 4.59646   7
   0  -8  -8 1.70928 2.68367   1
   0  -8  -8 2.19462 1.82269   7
   0   8   8 2.16366 1.34381   3
   0   8   8 3.75152 1.35307   6
  -1  -8  -8 -0.4543 1.61687   7
  -1  -8  -8 -3.8728 2.19939   1
   1   8   8 -0.1933 0.95733   6
   1   8   8 0.67885 1.15294   3
  -2  -8  -8 2.04354 1.09962   3
  -2  -8  -8 -1.0906 2.16567   7
   2   8   8 -0.5258 1.27286   3
   2   8   8 -0.0420 1.16975   6
   2   8   8 -0.0526 0.92746   2
  -3  -8  -8 0.02914 4.26757   1
  -3  -8  -8 5.09659 3.34308   7
  -3  -8  -8 10.3158 1.98239   3
   3   8   8 9.40212 1.99757   6
   3   8   8 7.65573 2.27486   3
   3   8   8 8.65024 1.94777   2
   4  -9  -8 -2.6318 2.72353   1
  -4   9   8 0.02558 1.67018   3
   3  -9  -8 -2.9829 2.62174   1
  -3   9   8 -0.5476 1.69637   3
  -3   9   8 -0.0407 1.15300   6
  -3   9   8 -2.0098 2.25585   7
   2  -9  -8 2.81711 3.17406   1
   2  -9  -8 1.29054 2.27300   4
  -2   9   8 6.26618 3.08614   7
  -2   9   8 5.68883 1.48519   6
  -2   9   8 4.44410 1.74197   3
   1  -9  -8 1.97784 1.70679   7
   1  -9  -8 -1.7059 1.83786   4
   1  -9  -8 -1.7551 2.48806   1
  -1   9   8 0.23574 1.08180   6
  -1   9   8 -3.7112 2.20876   7
  -1   9   8 1.70642 1.44003   3
   0  -9  -8 12.1770 4.09830   1
   0  -9  -8 16.4991 3.43389   7
   0   9   8 10.0441 1.88124   6
   0   9   8 8.45818 1.85375   3
  -1  -9  -8 -3.2034 2.78476   1
  -1  -9  -8 -1.5027 1.88373   7
   1   9   8 -1.0838 1.16379   3
   1   9   8 -1.2919 1.00862   6
  -2  -9  -8 -5.0087 3.31790   1
  -2  -9  -8 2.40653 1.19668   3
  -2  -9  -8 -1.4775 2.17390   7
   2   9   8 0.53203 1.63693   3
   2   9   8 0.01495 1.23860   6
   3 -10  -8 -1.4245 3.23162   1
   3 -10  -8 -2.0863 2.58320   4
  -3  10   8 6.13239 2.24306   3
  -3  10   8 2.79832 1.42608   6
   2 -10  -8 4.32690 1.80790   7
   2 -10  -8 -2.0695 3.08252   1
  -2  10   8 3.06308 1.41887   6
  -2  10   8 -2.0303 2.58477   7
  -2  10   8 1.74793 1.65815   3
   1 -10  -8 -2.1873 3.06126   1
   1 -10  -8 4.45326 1.91696   7
   1 -10  -8 -2.1828 2.14394   4
  -1  10   8 0.46773 1.52599   3
  -1  10   8 1.53053 1.31782   6
   0 -10  -8 -1.9682 3.25834   1
   0 -10  -8 2.89195 2.27385   7
   0  10   8 2.71467 1.54282   3
   0  10   8 2.15837 1.33902   6
  -1 -10  -8 0.88879 4.19441   1
  -1 -10  -8 8.86849 3.30350   7
   1  10   8 6.73899 2.00711   3
   1  10   8 7.30105 1.88332   6
  -2 -10  -8 2.18963 1.15291   3
  -2 -10  -8 -1.7191 2.57367   7
  -2 -10  -8 -7.1054 3.94947   1
   2  10   8 2.95415 1.69526   6
   2  10   8 0.02980 1.61948   3
   2 -11  -8 -3.0193 3.50129   1
   2 -11  -8 -4.8179 2.38900   4
  -2  11   8 3.97414 1.96014   3
  -2  11   8 1.97589 1.52101   6
   1 -11  -8 2.60410 4.32099   1
   1 -11  -8 1.37488 2.68735   4
   1 -11  -8 8.72806 2.96277   7
  -1  11   8 7.16447 2.12619   3
  -1  11   8 9.91888 2.04420   6
   0 -11  -8 4.31326 5.03216   1
   0 -11  -8 12.2207 3.45042   7
   0  11   8 18.0610 2.67199   6
   0  11   8 11.3419 2.30546   3
  -1 -11  -8 -7.2981 4.07591   1
  -1 -11  -8 -2.4346 2.71063   7
  -1  12  -9 2.56763 1.65411   5
  -1  12  -9 1.39007 1.66393   2
   1 -12   9 5.25422 1.99215   4
   1 -12   9 3.18968 1.88158   5
   1  11  -9 20.7509 3.05826   2
  -1 -11   9 30.6926 3.91777   4
  -1 -11   9 33.5872 5.19008   1
   0  11  -9 8.85002 2.15848   5
   0  11  -9 11.0642 2.25049   2
   0 -11   9 15.1594 2.92375   4
  -1  11  -9 7.06535 2.04956   5
  -1  11  -9 5.29728 1.88316   2
   1 -11   9 8.74008 1.97717   5
   1 -11   9 9.64942 2.31725   4
  -2  11  -9 2.61239 1.54320   6
  -2  11  -9 1.19011 1.59251   2
  -2  11  -9 4.82808 1.84530   5
   2 -11   9 5.21851 1.69428   4
   2 -11   9 4.48114 1.76856   5
  -3  11  -9 0.57335 1.62307   2
   3 -11   9 1.29399 1.43571   5
   2  10  -9 0.18036 1.49320   5
   2  10  -9 0.15808 1.59041   2
  -2 -10   9 5.92714 2.27123   4
  -2 -10   9 6.06987 3.32592   1
   1  10  -9 4.47349 1.74545   2
   1  10  -9 3.58394 1.77290   5
  -1 -10   9 9.81380 3.61287   1
  -1 -10   9 4.03996 2.09635   4
   0  10  -9 1.65752 1.50372   2
   0  10  -9 5.25478 1.81038   5
   0 -10   9 7.04405 2.96553   1
   0 -10   9 7.77972 2.31069   4
  -1  10  -9 32.7402 3.29672   2
  -1  10  -9 34.0586 3.33236   5
  -1  10  -9 35.6161 3.50056   6
   1 -10   9 42.9061 4.77567   1
   1 -10   9 41.6666 3.87609   4
   1 -10   9 38.4842 3.47597   5
  -2  10  -9 -0.1218 1.36258   5
  -2  10  -9 0.23824 1.42436   2
  -2  10  -9 1.48261 1.37086   6
   2 -10   9 3.21373 1.47160   4
   2 -10   9 1.80416 1.41357   5
  -3  10  -9 -2.5811 1.27550   6
  -3  10  -9 -0.6506 1.38415   2
   3 -10   9 0.62251 1.26866   5
   3 -10   9 3.57891 1.51373   4
  -3  -9   9 5.75905 3.58861   1
  -3  -9   9 2.14324 2.06280   4
   2   9  -9 4.29227 1.75180   5
   2   9  -9 3.91087 1.82782   4
   2   9  -9 5.87439 1.96472   2
  -2  -9   9 11.5268 4.00145   1
  -2  -9   9 6.51068 2.36008   4
   1   9  -9 -0.1450 1.23641   5
   1   9  -9 -1.0562 1.22410   2
  -1  -9   9 0.21249 1.68128   4
  -1  -9   9 2.90058 2.63236   1
   0   9  -9 15.2794 2.24741   2
   0   9  -9 13.7466 2.35379   5
   0  -9   9 24.7330 3.13070   4
   0  -9   9 20.1333 4.02938   1
  -1   9  -9 10.5783 2.01012   2
  -1   9  -9 14.0189 2.38657   5
  -1   9  -9 10.2214 1.68471   6
   1  -9   9 15.3711 2.66919   4
   1  -9   9 11.4318 2.10894   5
  -2   9  -9 18.9376 2.72685   2
  -2   9  -9 17.6661 2.64266   5
  -2   9  -9 16.2163 2.22561   6
   2  -9   9 22.3359 2.71329   5
   2  -9   9 23.1618 2.84672   4
  -3   9  -9 -1.4046 1.26632   6
  -3   9  -9 1.25266 1.47366   2
   3  -9   9 2.01018 1.25064   5
   3  -9   9 4.16671 1.53786   4
  -4   9  -9 2.25331 1.52138   2
  -4   9  -9 -0.4210 1.64413   6
   4  -9   9 3.47509 1.61416   5
   4  -9   9 5.96985 1.63011   4
   3   8  -9 1.31533 1.64604   4
   3   8  -9 -1.8920 1.44203   2
   3   8  -9 0.06384 1.36549   5
  -3  -8   9 6.87467 3.52811   1
  -3  -8   9 1.15299 1.80482   4
   2   8  -9 5.53412 1.85878   5
   2   8  -9 1.23114 1.42739   2
  -2  -8   9 7.66957 3.60835   1
  -2  -8   9 8.60839 2.40226   7
  -2  -8   9 2.35342 1.91498   4
   1   8  -9 17.6723 2.31130   2
   1   8  -9 20.3378 2.72086   5
  -1  -8   9 21.9182 4.64106   1
  -1  -8   9 21.7851 3.12339   4
   0   8  -9 9.60351 1.79144   2
   0   8  -9 15.8507 2.45764   5
   0  -8   9 17.2048 3.89428   1
   0  -8   9 14.9877 2.62151   4
  -1   8  -9 67.7036 4.15053   5
  -1   8  -9 66.5275 3.97488   2
  -1   8  -9 64.2569 3.58492   6
   1  -8   9 60.3400 5.35904   1
   1  -8   9 69.1538 4.62662   4
   1  -8   9 66.9924 4.15706   5
  -2   8  -9 15.3117 2.38294   5
  -2   8  -9 13.3796 2.10827   2
  -2   8  -9 9.26130 1.73707   6
   2  -8   9 20.5070 2.62071   4
   2  -8   9 15.5371 2.23966   5
   2  -8   9 15.2961 3.04316   1
  -3   8  -9 13.8052 2.09026   6
  -3   8  -9 17.2416 2.43804   2
   3  -8   9 20.7241 2.54579   5
   3  -8   9 22.0960 2.58811   4
  -4   8  -9 66.8134 4.55733   6
   4  -8   9 69.4470 4.37354   5
   4  -8   9 64.4537 4.35070   2
   4  -8   9 57.9321 4.09982   4
  -4  -7   9 7.80131 2.57865   7
   3   7  -9 1.77514 1.49210   5
   3   7  -9 -1.1278 1.27397   2
   3   7  -9 0.15890 1.43555   4
  -3  -7   9 4.20160 2.29587   7
  -3  -7   9 5.07101 3.12159   1
  -3  -7   9 -0.7584 1.65874   4
   2   7  -9 31.9803 3.29409   4
   2   7  -9 29.4431 2.81164   2
   2   7  -9 25.8183 2.93993   5
  -2  -7   9 31.9133 3.47243   4
  -2  -7   9 30.5194 5.00704   1
  -2  -7   9 26.1763 3.66875   7
   1   7  -9 0.39650 1.00274   2
   1   7  -9 -0.5008 0.99189   5
  -1  -7   9 0.24199 1.38128   4
  -1  -7   9 -0.0921 2.08107   1
  -1  -7   9 0.67365 1.35935   7
   0   7  -9 -0.5241 0.81472   2
   0   7  -9 -0.9744 0.88845   5
   0  -7   9 0.38027 1.23990   4
   0  -7   9 -1.6950 0.95360   5
   0  -7   9 -0.0615 1.69615   1
  -1   7  -9 9.73315 1.43106   6
  -1   7  -9 12.9376 2.07045   5
  -1   7  -9 13.5925 1.98653   2
   1  -7   9 12.0084 2.99129   1
   1  -7   9 13.9850 2.46110   4
   1  -7   9 11.0355 1.95660   5
  -2   7  -9 5.75334 1.50267   2
  -2   7  -9 7.75461 1.75352   5
  -2   7  -9 4.10794 1.27041   6
   2  -7   9 6.67807 2.06717   1
   2  -7   9 4.10419 1.40289   5
   2  -7   9 6.93427 1.71631   4
  -3   7  -9 35.3757 2.97959   6
  -3   7  -9 35.1208 3.09775   2
   3  -7   9 35.2059 3.05840   4
   3  -7   9 35.8631 3.01707   5
   3  -7   9 37.7233 3.04584   2
  -4   7  -9 79.4781 4.75327   2
  -4   7  -9 69.1663 4.62111   6
   4  -7   9 69.4220 4.36618   4
   4  -7   9 79.1265 4.57140   5
   4  -7   9 73.5983 4.59476   2
   5  -7   9 -1.0174 2.15961   2
   4   6  -9 -0.0177 1.35358   2
   4   6  -9 0.07464 1.44134   5
  -4  -6   9 5.51607 2.45929   7
  -4  -6   9 12.8878 3.88281   1
   3   6  -9 0.53187 1.38566   4
   3   6  -9 -0.5936 1.13016   5
   3   6  -9 0.50602 1.21280   2
  -3  -6   9 4.25034 2.12375   4
  -3  -6   9 2.74507 2.26326   7
  -3  -6   9 5.31283 3.42890   1
   2   6  -9 21.5114 2.74030   4
   2   6  -9 21.6943 2.31321   2
   2   6  -9 19.7300 2.46284   5
  -2  -6   9 20.1836 4.65886   1
  -2  -6   9 20.2670 2.98499   4
  -2  -6   9 18.8225 3.13138   7
   1   6  -9 5.61862 1.25513   2
   1   6  -9 4.96077 1.45344   5
  -1  -6   9 5.18403 1.69194   4
  -1  -6   9 5.77666 1.81551   7
  -1  -6   9 7.10195 2.76973   1
   0   6  -9 5.20485 0.94280   6
   0   6  -9 4.50181 1.28694   5
   0   6  -9 5.28390 1.26322   2
   0  -6   9 5.11058 1.42528   5
   0  -6   9 5.48315 1.52766   7
   0  -6   9 6.27608 2.58014   1
   0  -6   9 5.56733 1.64099   4
  -1   6  -9 1.53571 0.79378   6
  -1   6  -9 3.03152 1.10712   5
  -1   6  -9 2.32816 1.02173   2
   1  -6   9 1.31094 1.11897   5
   1  -6   9 0.62329 1.26071   4
   1  -6   9 1.69627 1.57444   1
  -2   6  -9 1.04383 0.96088   2
  -2   6  -9 -0.5521 0.86975   6
   2  -6   9 1.36939 1.05165   5
   2  -6   9 -0.0309 0.76463   2
   2  -6   9 0.79999 1.32408   1
   2  -6   9 -0.6114 1.02863   4
  -3   6  -9 0.36693 1.08150   3
  -3   6  -9 2.74032 1.16256   6
  -3   6  -9 2.80712 1.34984   2
   3  -6   9 3.92398 1.30344   5
   3  -6   9 4.22481 1.28867   4
   3  -6   9 2.62544 1.18583   2
  -4   6  -9 1.53442 1.34309   6
  -4   6  -9 -0.0755 1.24118   3
  -4   6  -9 0.11083 1.23487   2
   4  -6   9 2.38426 1.23400   5
   4  -6   9 3.87492 1.31963   4
   4  -6   9 0.64095 1.20724   2
  -5   6  -9 3.38457 1.83336   6
  -5   6  -9 4.13990 1.88032   2
  -5   6  -9 0.47794 1.62283   3
   5  -6   9 4.28273 1.84956   2
   5  -6   9 3.21774 1.58401   5
   4   5  -9 -0.5649 1.25415   4
   4   5  -9 -0.3059 1.35504   5
  -4  -5   9 2.70333 2.38664   7
   3   5  -9 33.8126 3.41061   4
   3   5  -9 36.0149 3.15683   5
   3   5  -9 35.2456 2.81613   2
  -3  -5   9 39.0445 5.29817   1
  -3  -5   9 31.5225 4.24844   7
  -3  -5   9 34.5178 3.72290   4
   2   5  -9 40.8155 3.11072   5
   2   5  -9 41.4721 3.53053   4
   2   5  -9 42.5544 2.79643   2
  -2  -5   9 37.8977 3.92811   7
  -2  -5   9 47.6724 3.83921   4
  -2  -5   9 41.2033 4.92627   1
   1   5  -9 0.74278 0.87791   5
   1   5  -9 0.98209 1.06372   4
   1   5  -9 0.65929 0.76163   2
  -1  -5   9 0.07194 1.84244   1
  -1  -5   9 0.46235 1.18523   7
  -1  -5   9 1.01920 1.24964   4
   0   5  -9 3.97412 1.03582   2
   0   5  -9 5.14534 1.24477   5
   0   5  -9 3.41523 0.73345   6
   0  -5   9 4.38912 1.47666   4
   0  -5   9 3.78967 2.14061   1
   0  -5   9 4.75752 1.49901   7
   0  -5   9 4.66257 1.26256   5
  -1   5  -9 0.28025 0.69805   2
  -1   5  -9 -0.7908 0.54933   5
  -1   5  -9 -0.5746 0.57235   6
   1  -5   9 -2.0637 0.94393   4
   1  -5   9 -0.3069 0.72329   5
   1  -5   9 -1.1335 1.21745   1
   1  -5   9 -0.2670 0.88823   7
  -2   5  -9 1.29385 0.79769   3
  -2   5  -9 1.56651 0.91765   6
  -2   5  -9 1.46957 0.99254   2
   2  -5   9 1.79777 1.45928   1
   2  -5   9 -0.6819 1.03662   4
   2  -5   9 1.80087 1.00739   5
   2  -5   9 2.66387 1.00687   2
  -3   5  -9 1.21544 1.20967   2
  -3   5  -9 0.70981 0.96492   3
  -3   5  -9 2.18966 1.11285   6
   3  -5   9 3.40954 1.24171   4
   3  -5   9 2.23756 1.08938   2
   3  -5   9 2.24085 1.11703   5
  -4   5  -9 1.10827 1.17222   6
  -4   5  -9 -0.2400 1.15745   3
  -4   5  -9 1.93064 1.47425   2
   4  -5   9 -0.9748 1.00966   2
   4  -5   9 2.62789 1.24029   5
  -5   5  -9 1.04855 1.61378   3
  -5   5  -9 2.23919 1.64750   6
  -5   5  -9 2.88645 1.70703   2
   5  -5   9 5.87630 1.70767   5
   5  -5   9 2.57088 1.69123   2
   4   4  -9 11.3511 2.45244   4
   4   4  -9 10.8501 2.15429   5
  -4  -4   9 12.7739 3.36361   7
   3   4  -9 11.9217 2.03729   5
   3   4  -9 9.75923 1.52330   2
   3   4  -9 12.4280 2.45122   4
  -3  -4   9 11.3484 3.01337   7
  -3  -4   9 13.7478 2.62056   4
  -3  -4   9 16.3340 4.23760   1
   2   4  -9 23.6054 2.74763   4
   2   4  -9 24.3344 2.02580   2
   2   4  -9 26.2578 2.40540   5
  -2  -4   9 28.0340 2.96962   4
  -2  -4   9 23.5038 3.81465   1
  -2  -4   9 23.0678 3.25457   7
   1   4  -9 2.55114 1.21051   4
   1   4  -9 3.22575 0.89623   2
   1   4  -9 1.45833 0.86184   5
  -1  -4   9 2.30253 1.37586   7
  -1  -4   9 1.14601 1.93256   1
  -1  -4   9 3.64995 1.49642   4
   0   4  -9 -0.4666 0.54648   2
   0   4  -9 0.39886 0.40066   3
   0   4  -9 0.63812 0.70959   5
   0   4  -9 -0.2960 0.46332   6
   0  -4   9 -1.6954 1.26275   1
   0  -4   9 -0.1500 0.69434   5
   0  -4   9 0.23303 0.96860   7
   0  -4   9 -0.6975 0.88380   4
  -1   4  -9 30.4762 2.28776   5
  -1   4  -9 33.6257 2.05135   6
  -1   4  -9 33.7514 2.21645   2
  -1   4  -9 29.8721 1.79087   3
   1  -4   9 32.0811 3.36901   1
   1  -4   9 32.4293 2.14264   2
   1  -4   9 35.4380 2.37228   5
   1  -4   9 31.3579 2.60650   7
   1  -4   9 29.7801 2.67142   4
  -2   4  -9 0.65118 0.72367   7
  -2   4  -9 -0.1499 0.69955   2
  -2   4  -9 0.72836 0.68450   3
  -2   4  -9 -0.9056 0.64118   6
   2  -4   9 -1.7116 0.71556   4
   2  -4   9 -1.2953 0.84335   1
   2  -4   9 0.46633 1.36796   7
   2  -4   9 -0.6669 0.56345   2
   2  -4   9 1.07602 0.77911   5
  -3   4  -9 19.5162 2.21390   6
  -3   4  -9 18.8239 2.32335   2
  -3   4  -9 20.7409 2.14135   3
   3  -4   9 20.9062 2.09920   5
   3  -4   9 19.6616 2.11478   2
   3  -4   9 22.0195 2.16687   4
  -4   4  -9 -0.3521 1.03747   3
  -4   4  -9 -0.5665 1.19679   2
  -4   4  -9 2.56360 1.25187   6
   4  -4   9 1.63486 1.12237   5
   4  -4   9 0.85529 1.19345   2
  -5   4  -9 1.16869 1.63476   3
  -5   4  -9 -0.5738 1.38531   6
   5  -4   9 1.70785 1.34332   5
   5  -4   9 -0.0091 1.44070   2
   4   3  -9 4.26349 1.65312   5
   4   3  -9 3.18135 1.68459   4
  -4  -3   9 12.0278 3.89394   1
  -4  -3   9 5.80439 2.53902   7
   3   3  -9 1.66172 1.14380   5
   3   3  -9 0.30979 0.83078   2
   3   3  -9 0.30529 1.14751   4
  -3  -3   9 3.43064 2.15942   7
  -3  -3   9 2.03119 2.41335   1
   2   3  -9 16.4116 1.56718   2
   2   3  -9 15.3879 2.37683   4
   2   3  -9 15.9082 1.91408   5
  -2  -3   9 14.0828 3.35512   1
  -2  -3   9 13.9091 2.78171   7
  -2  -3   9 13.7173 2.36305   4
   1   3  -9 5.81609 1.21636   5
   1   3  -9 5.58522 1.46059   4
   1   3  -9 6.09493 0.99776   2
  -1  -3   9 4.55904 1.75926   7
  -1  -3   9 5.54732 2.24261   1
  -1  -3   9 4.55187 0.83005   3
  -1  -3   9 5.16058 1.47046   4
   0   3  -9 200.436 8.26237   4
   0   3  -9 203.097 6.86295   6
   0   3  -9 199.064 7.62992   5
   0   3  -9 205.868 7.28217   2
   0  -3   9 204.552 8.29793   4
   0  -3   9 202.211 7.59273   5
   0  -3   9 202.577 8.43005   7
   0  -3   9 197.980 9.50837   1
   0  -3   9 198.691 6.91767   3
  -1   3  -9 0.07872 0.56808   6
  -1   3  -9 0.64823 0.64212   5
  -1   3  -9 0.56818 0.52835   3
  -1   3  -9 0.11654 0.61330   2
   1  -3   9 0.22334 1.22191   1
   1  -3   9 -0.2704 0.53016   3
   1  -3   9 0.72029 0.49583   6
   1  -3   9 -0.9971 0.80802   4
   1  -3   9 0.91887 0.58840   2
   1  -3   9 -0.1348 0.91098   7
   1  -3   9 0.70005 0.63998   5
  -2   3  -9 15.4155 1.77111   6
  -2   3  -9 20.5838 2.01007   7
  -2   3  -9 20.0360 1.69906   3
  -2   3  -9 18.5804 1.90119   2
   2  -3   9 18.2517 1.70023   6
   2  -3   9 18.6202 2.35933   7
   2  -3   9 17.7241 1.95409   4
   2  -3   9 17.0408 1.73937   2
   2  -3   9 16.3950 2.33132   1
   2  -3   9 19.9489 1.78442   5
  -3   3  -9 21.1825 2.95387   7
  -3   3  -9 18.1590 2.04392   3
  -3   3  -9 20.2163 2.24428   6
   3  -3   9 23.3983 2.04585   4
   3  -3   9 23.7909 2.12850   6
   3  -3   9 19.1579 2.05072   2
   3  -3   9 21.0509 2.01603   5
  -4   3  -9 -0.2982 1.06949   6
  -4   3  -9 -1.1023 0.97860   3
   4  -3   9 -0.6538 0.87769   2
   4  -3   9 -0.3011 0.88127   6
   4  -3   9 -0.8426 0.83676   5
  -5   3  -9 2.40170 1.68608   6
  -5   3  -9 -0.3171 1.47146   3
   5  -3   9 2.04992 1.40094   6
   5  -3   9 4.75623 1.59796   5
   5  -3   9 4.45659 1.77781   2
   5   2  -9 1.25541 1.46388   4
   5   2  -9 0.17941 1.46575   5
  -5  -2   9 5.94787 3.05796   7
   4   2  -9 13.6875 2.31899   5
   4   2  -9 13.3434 2.49553   4
  -4  -2   9 12.8227 3.39435   7
   3   2  -9 84.3426 4.99633   4
   3   2  -9 85.7263 4.49299   5
  -3  -2   9 82.7496 4.01447   3
  -3  -2   9 84.9938 6.72441   1
  -3  -2   9 72.5147 5.76712   7
   2   2  -9 3.96042 1.14189   5
   2   2  -9 2.75926 0.77611   2
   2   2  -9 3.06772 1.25441   4
  -2  -2   9 4.20793 1.56891   4
  -2  -2   9 2.35083 0.89919   3
  -2  -2   9 3.92881 2.01101   7
  -2  -2   9 1.88954 1.91778   1
   1   2  -9 0.76309 0.64210   5
   1   2  -9 0.20501 0.50204   2
   1   2  -9 0.27847 0.74302   4
  -1  -2   9 -0.0538 1.32938   1
  -1  -2   9 0.22980 1.19258   7
  -1  -2   9 0.16066 0.55796   3
  -1  -2   9 0.92068 1.02445   4
   0   2  -9 33.0247 1.73884   6
   0   2  -9 31.0719 2.55441   4
   0   2  -9 31.8235 1.89839   2
   0   2  -9 31.8947 2.14673   5
   0  -2   9 30.0558 1.85102   3
   0  -2   9 31.6298 3.52911   1
   0  -2   9 34.2287 2.91695   7
   0  -2   9 32.5813 1.69285   6
   0  -2   9 32.8571 2.62079   4
  -1   2  -9 41.5981 2.43980   5
  -1   2  -9 39.9090 2.32637   2
  -1   2  -9 41.3795 2.20162   3
  -1   2  -9 41.6912 2.81882   4
  -1   2  -9 45.4592 2.32013   6
   1  -2   9 42.6673 2.44284   5
   1  -2   9 43.9073 3.21497   7
   1  -2   9 41.0157 2.83044   4
   1  -2   9 40.1373 3.51991   1
   1  -2   9 42.4788 2.23250   6
   1  -2   9 39.3639 2.26313   3
   1  -2   9 41.8068 2.33483   2
  -2   2  -9 91.8166 4.06979   3
  -2   2  -9 96.8263 4.22110   2
  -2   2  -9 95.1618 4.74740   7
  -2   2  -9 96.6298 4.23051   6
  -2   2  -9 88.0869 5.21371   1
   2  -2   9 93.0252 4.20785   2
   2  -2   9 93.9694 4.13902   5
   2  -2   9 91.0085 4.09410   3
   2  -2   9 94.8193 4.49151   4
   2  -2   9 87.8226 5.16004   1
   2  -2   9 93.4114 4.13340   6
   2  -2   9 90.2663 4.97491   7
  -3   2  -9 5.96906 1.37763   6
  -3   2  -9 6.70382 1.37660   3
  -3   2  -9 7.70595 1.92230   7
   3  -2   9 8.22370 1.43353   5
   3  -2   9 7.20280 1.40874   2
   3  -2   9 6.95730 1.29160   6
  -4   2  -9 6.13429 1.60062   6
  -4   2  -9 2.53890 1.40789   3
   4  -2   9 5.91969 1.46513   6
   4  -2   9 4.89919 1.48001   2
   4  -2   9 7.06212 1.51874   5
  -5   2  -9 -0.1987 1.37831   6
  -5   2  -9 -0.4860 1.51458   3
   5  -2   9 0.88605 1.37146   2
   5  -2   9 0.17237 0.96390   5
   5  -2   9 -1.5883 1.08144   6
   5   1  -9 -0.0609 1.46479   5
   5   1  -9 1.28522 1.51094   4
  -5  -1   9 4.64457 2.99768   7
   4   1  -9 -0.2676 1.10882   4
   4   1  -9 -0.3688 0.99491   5
  -4  -1   9 -2.0559 0.90496   3
  -4  -1   9 0.15630 2.01464   7
  -4  -1   9 6.58134 3.16901   1
   3   1  -9 1.02457 1.25548   4
   3   1  -9 0.63785 0.93900   5
  -3  -1   9 1.68402 1.85281   7
  -3  -1   9 0.39484 2.48093   1
  -3  -1   9 3.49458 1.17591   3
   2   1  -9 139.456 6.54794   4
   2   1  -9 142.150 5.90303   5
   2   1  -9 152.142 5.49522   2
  -2  -1   9 141.808 8.14563   1
  -2  -1   9 125.892 7.15269   7
  -2  -1   9 140.543 5.55549   3
   1   1  -9 0.46336 0.80558   4
   1   1  -9 0.18586 0.50649   5
   1   1  -9 0.20753 0.41381   2
   1   1  -9 0.01224 0.35296   6
  -1  -1   9 0.68307 0.99779   4
  -1  -1   9 0.16496 1.30804   1
  -1  -1   9 -0.0377 0.55659   3
  -1  -1   9 0.46891 1.09349   7
   0   1  -9 66.5111 2.87627   2
   0   1  -9 69.8949 2.83144   6
   0   1  -9 67.6880 3.24013   5
   0   1  -9 65.7851 3.73471   4
   0  -1   9 65.7497 4.87553   1
   0  -1   9 67.2960 3.74470   4
   0  -1   9 67.9913 4.19970   7
   0  -1   9 67.4518 3.09151   3
   0  -1   9 68.7334 2.81890   6
  -1   1  -9 10.4691 1.67528   4
  -1   1  -9 10.2132 1.31939   2
  -1   1  -9 8.59691 2.07662   1
  -1   1  -9 9.39090 1.23836   3
  -1   1  -9 9.72535 1.15629   5
  -1   1  -9 9.08034 1.82728   7
  -1   1  -9 8.60361 1.15054   6
   1  -1   9 8.94963 1.14252   6
   1  -1   9 8.92288 1.27576   3
   1  -1   9 9.80075 1.63025   4
   1  -1   9 8.19235 1.15933   2
   1  -1   9 7.93555 1.14393   5
   1  -1   9 9.13008 2.03511   7
   1  -1   9 11.2795 2.48136   1
  -2   1  -9 22.6661 2.40544   7
  -2   1  -9 19.5198 1.80241   4
  -2   1  -9 20.6040 2.52486   1
  -2   1  -9 21.9826 2.13159   6
  -2   1  -9 24.2129 1.84570   3
   2  -1   9 20.3686 1.83388   2
   2  -1   9 21.0920 2.63039   1
   2  -1   9 20.2814 1.89166   3
   2  -1   9 24.9885 2.00338   4
   2  -1   9 21.2140 1.80355   6
   2  -1   9 22.0465 1.72455   5
  -3   1  -9 6.61072 1.99666   7
  -3   1  -9 3.35696 1.26356   6
  -3   1  -9 4.39421 1.22060   3
   3  -1   9 3.25543 1.04796   6
   3  -1   9 4.04386 1.13131   2
   3  -1   9 4.85872 1.11660   5
  -4   1  -9 3.02117 1.32563   6
  -4   1  -9 3.27447 1.41602   3
  -4   1  -9 0.22079 2.07259   7
   4  -1   9 1.64284 0.97639   5
   4  -1   9 2.72611 1.16345   6
   4  -1   9 2.19374 1.26596   2
  -5   1  -9 -0.7523 1.52176   3
  -5   1  -9 -0.3362 1.43244   6
   5  -1   9 3.28988 1.26146   5
   5  -1   9 1.21557 1.35934   6
   5  -1   9 1.93709 1.41057   2
   5   0  -9 11.1695 2.51240   4
   5   0  -9 12.1626 2.37659   5
  -5   0   9 13.0988 4.02020   7
  -5   0   9 12.5700 2.07502   3
   4   0  -9 0.45336 1.14452   4
   4   0  -9 1.12958 1.06153   5
  -4   0   9 2.41505 2.25187   7
  -4   0   9 -0.8936 1.07674   3
  -4   0   9 3.17469 2.82904   1
   3   0  -9 17.9212 2.44053   4
   3   0  -9 14.0965 1.99306   5
  -3   0   9 14.0591 1.96934   3
  -3   0   9 22.4674 4.72225   1
  -3   0   9 15.2567 3.29990   7
   2   0  -9 0.16437 0.61316   5
   2   0  -9 0.19623 0.87367   4
  -2   0   9 -1.1650 1.75173   1
  -2   0   9 -0.7875 1.35546   7
  -2   0   9 -0.1920 0.79410   3
   1   0  -9 65.1228 3.75117   4
   1   0  -9 64.2774 3.11088   5
   1   0  -9 61.2332 2.46299   2
  -1   0   9 62.5868 4.87863   1
  -1   0   9 60.9148 3.06743   3
  -1   0   9 60.5333 4.26686   7
  -1   0   9 56.6940 2.38529   6
   0   0  -9 7.15297 1.39729   4
   0   0  -9 6.72663 1.03832   5
   0   0  -9 8.40866 2.23494   1
   0   0  -9 6.70659 0.86935   2
   0   0   9 7.06848 1.16909   3
   0   0   9 5.29625 0.80846   6
   0   0   9 5.77253 1.45824   4
   0   0   9 5.44152 2.09721   1
   0   0   9 4.84819 0.72559   2
   0   0   9 9.63764 2.24765   7
  -1   0  -9 83.4439 5.16221   1
  -1   0  -9 83.8723 4.07943   4
  -1   0  -9 86.4542 3.61588   5
  -1   0  -9 81.7959 4.57992   7
   1   0   9 84.5797 3.81561   3
   1   0   9 87.0197 4.95250   7
   1   0   9 80.6364 3.56600   6
   1   0   9 84.2751 3.60067   5
   1   0   9 83.1279 5.26869   1
   1   0   9 78.9933 4.03075   4
   1   0   9 86.1887 3.57845   2
  -2   0  -9 2.36300 1.45000   1
  -2   0  -9 2.65812 1.30023   7
  -2   0  -9 4.00901 1.03531   3
  -2   0  -9 1.95728 0.82527   4
   2   0   9 2.21543 0.91666   6
   2   0   9 3.82914 1.05638   4
   2   0   9 2.20463 0.72777   5
   2   0   9 3.74620 1.12510   3
   2   0   9 2.74790 0.96265   2
  -3   0  -9 5.55810 1.46057   6
  -3   0  -9 11.5177 1.80714   3
  -3   0  -9 10.1272 2.51878   7
   3   0   9 8.14275 1.47203   2
   3   0   9 8.16283 1.46042   6
   3   0   9 12.2271 1.99856   3
   3   0   9 8.27542 1.30395   5
  -4   0  -9 1.63433 2.32302   7
  -4   0  -9 4.43777 1.39606   6
  -4   0  -9 1.07376 1.17148   3
   4   0   9 3.46100 1.29640   2
   4   0   9 3.81609 1.10731   5
   4   0   9 5.68314 1.55279   6
  -5   0  -9 8.94514 2.27221   3
  -5   0  -9 10.5976 2.10652   6
  -5   0  -9 8.30725 5.19986   7
   5   0   9 12.1828 2.21718   6
   5   0   9 12.5050 2.24239   2
   5  -1  -9 16.6175 2.97222   4
   5  -1  -9 14.5643 2.54846   5
  -5   1   9 27.1132 3.07629   3
  -5   1   9 24.5395 4.94075   7
   4  -1  -9 9.55916 1.82877   5
   4  -1  -9 9.72843 2.18976   4
  -4   1   9 8.44866 2.91992   7
  -4   1   9 8.45242 1.85811   3
  -4   1   9 16.0158 4.39544   1
   3  -1  -9 24.3693 4.55897   1
   3  -1  -9 24.3662 2.68101   4
   3  -1  -9 21.7559 2.19176   5
  -3   1   9 29.1546 5.37287   1
  -3   1   9 22.1328 2.38018   3
  -3   1   9 20.6511 3.78914   7
   2  -1  -9 5.67559 2.59466   1
   2  -1  -9 8.32101 1.74056   4
   2  -1  -9 8.19427 1.29619   5
  -2   1   9 6.48760 1.37336   3
  -2   1   9 4.40851 2.49491   1
  -2   1   9 4.66050 1.97936   7
   1  -1  -9 24.6324 3.19358   1
   1  -1  -9 25.6443 2.35101   4
   1  -1  -9 26.7745 1.78124   5
  -1   1   9 23.8653 3.33057   1
  -1   1   9 27.6366 2.09485   3
  -1   1   9 26.3636 2.96503   7
  -1   1   9 25.5105 1.43228   6
   0  -1  -9 34.0918 1.71968   2
   0  -1  -9 33.9480 3.46493   1
   0  -1  -9 37.8310 1.97115   5
   0  -1  -9 33.9256 2.46056   4
   0   1   9 35.7670 3.68238   1
   0   1   9 34.4865 1.91826   6
   0   1   9 34.0358 1.72034   2
   0   1   9 34.3011 2.26824   3
   0   1   9 33.5256 3.13215   7
  -1  -1  -9 71.1686 3.57861   4
  -1  -1  -9 70.3140 4.74383   1
  -1  -1  -9 64.6009 2.97997   5
  -1  -1  -9 68.4650 4.25108   7
   1   1   9 70.8135 3.06990   5
   1   1   9 72.8685 3.27646   6
   1   1   9 69.7789 4.56206   7
   1   1   9 69.7483 3.08949   2
   1   1   9 68.6129 3.45525   3
   1   1   9 71.9970 4.95065   1
  -2  -1  -9 223.517 9.30205   7
  -2  -1  -9 214.162 7.89351   4
  -2  -1  -9 220.189 8.05840   3
  -2  -1  -9 219.947 9.53052   1
   2   1   9 207.110 7.51939   5
   2   1   9 214.369 8.15292   3
   2   1   9 213.482 7.87109   2
   2   1   9 210.612 7.97014   6
  -3  -1  -9 7.11886 2.28775   7
  -3  -1  -9 8.94020 1.64540   3
   3   1   9 6.39309 1.17382   5
   3   1   9 8.12280 1.49813   2
   3   1   9 6.01544 1.32273   6
   3   1   9 6.19739 1.59748   3
  -4  -1  -9 0.16259 1.00941   6
  -4  -1  -9 -3.1981 1.85629   7
  -4  -1  -9 0.57932 1.15326   3
   4   1   9 -0.8450 0.87048   2
   4   1   9 0.05011 1.02955   6
  -5  -1  -9 54.7431 4.04369   6
  -5  -1  -9 44.7613 4.21408   3
  -5  -1  -9 34.7858 5.90083   7
   5   1   9 54.0958 3.99780   2
   5   1   9 52.9258 4.06842   6
   5  -2  -9 1.05226 1.72648   4
   5  -2  -9 -0.9646 1.27338   5
  -5   2   9 4.82499 2.85057   7
  -5   2   9 2.27329 1.65418   3
   4  -2  -9 6.78750 1.97313   4
   4  -2  -9 11.3938 2.96300   1
   4  -2  -9 6.88444 1.63693   5
  -4   2   9 6.77887 1.83099   3
  -4   2   9 11.9944 3.36047   7
  -4   2   9 11.6672 4.21735   1
   3  -2  -9 4.29900 1.61754   4
   3  -2  -9 5.12722 1.22732   5
   3  -2  -9 1.18345 2.22514   1
  -3   2   9 2.49498 2.23227   7
  -3   2   9 4.76310 1.51136   3
  -3   2   9 1.84326 3.29905   1
   2  -2  -9 -1.4776 1.66647   1
   2  -2  -9 1.86925 1.08821   4
   2  -2  -9 2.12607 0.74607   5
  -2   2   9 0.94542 2.31903   1
  -2   2   9 1.28460 1.03552   3
  -2   2   9 1.34041 1.70007   7
   1  -2  -9 137.522 6.03880   4
   1  -2  -9 129.669 7.29188   1
   1  -2  -9 135.128 5.04866   5
  -1   2   9 135.457 7.63769   1
  -1   2   9 132.458 5.48493   3
  -1   2   9 125.405 4.79623   6
  -1   2   9 124.096 6.69052   7
   0  -2  -9 15.1781 2.59147   1
   0  -2  -9 15.1985 1.15177   5
   0  -2  -9 15.2362 1.70720   4
   0   2   9 12.7523 1.58542   3
   0   2   9 14.0360 1.30917   6
   0   2   9 16.0104 2.51315   7
   0   2   9 13.0048 1.01001   2
   0   2   9 15.2820 2.77342   1
  -1  -2  -9 45.7525 2.71440   4
  -1  -2  -9 43.9405 2.13441   5
  -1  -2  -9 43.6535 3.81905   1
  -1  -2  -9 43.7609 3.52285   7
   1   2   9 45.1491 2.15851   5
   1   2   9 49.2536 2.62269   6
   1   2   9 44.4909 2.29496   2
   1   2   9 47.6885 3.91051   7
   1   2   9 44.1336 2.76963   3
  -2  -2  -9 78.9402 5.05980   7
  -2  -2  -9 82.3557 3.96890   3
  -2  -2  -9 83.1314 5.31805   1
   2   2   9 79.8406 4.10605   3
   2   2   9 77.2993 3.89558   6
   2   2   9 76.1449 3.70671   2
  -3  -2  -9 0.56619 1.70154   7
  -3  -2  -9 2.29406 1.13171   3
   3   2   9 1.84798 1.27973   3
   3   2   9 1.63438 0.96719   2
   3   2   9 2.18410 1.10313   6
  -4  -2  -9 14.1841 2.35052   3
  -4  -2  -9 13.5300 3.64455   7
   4   2   9 14.2695 2.25971   6
   4   2   9 17.3080 2.44557   2
  -5  -2  -9 4.52675 2.06315   3
  -5  -2  -9 9.59635 2.06474   6
  -5  -2  -9 2.51728 3.50533   7
   5   2   9 10.3365 2.19207   2
   5   2   9 8.88658 2.13541   6
   5  -3  -9 9.55695 2.71580   4
   5  -3  -9 12.0139 2.25774   5
  -5   3   9 10.7703 2.34473   3
   4  -3  -9 1.79040 1.57804   1
   4  -3  -9 0.33879 1.40192   4
   4  -3  -9 -1.2449 0.92642   5
  -4   3   9 1.87717 1.39328   3
  -4   3   9 -1.9091 3.25723   1
  -4   3   9 -0.2059 1.90926   7
   3  -3  -9 2.49032 0.97910   5
   3  -3  -9 1.96729 1.31644   4
   3  -3  -9 1.75421 2.09503   1
  -3   3   9 2.22578 1.33273   3
  -3   3   9 0.85636 2.04771   7
  -3   3   9 1.98575 3.13038   1
   2  -3  -9 38.1021 3.04731   4
   2  -3  -9 33.7557 4.01361   1
   2  -3  -9 41.1077 2.33654   5
  -2   3   9 33.5921 2.74703   3
  -2   3   9 44.5641 2.69364   6
  -2   3   9 35.5825 3.78710   7
  -2   3   9 37.4485 4.64348   1
   1  -3  -9 86.4701 4.51902   4
   1  -3  -9 81.5534 5.75368   1
   1  -3  -9 82.2909 3.48888   5
  -1   3   9 85.9891 4.20973   3
  -1   3   9 88.5342 3.66969   6
  -1   3   9 86.0388 6.09339   1
  -1   3   9 90.2286 5.50348   7
   0  -3  -9 122.487 5.42652   4
   0  -3  -9 118.579 6.22990   7
   0  -3  -9 130.825 7.08270   1
   0   3   9 119.021 4.88290   6
   0   3   9 124.750 6.61056   7
   0   3   9 119.610 5.23448   3
  -1  -3  -9 5.77267 1.94111   7
  -1  -3  -9 6.74228 1.23491   4
  -1  -3  -9 8.26621 2.32009   1
   1   3   9 5.25614 1.35632   3
   1   3   9 4.67102 1.09783   6
   1   3   9 5.46156 0.96370   2
   1   3   9 9.64348 2.42224   7
  -2  -3  -9 14.3195 1.80080   3
  -2  -3  -9 13.7130 2.74193   7
  -2  -3  -9 15.4374 3.09971   1
   2   3   9 15.1675 2.14736   3
   2   3   9 14.3146 1.87441   6
   2   3   9 16.1191 1.60174   2
  -3  -3  -9 0.91999 1.88277   7
  -3  -3  -9 1.37704 0.97833   3
  -3  -3  -9 -0.1159 1.77501   1
   3   3   9 1.77759 0.96926   2
   3   3   9 0.63681 0.93861   6
   3   3   9 1.70514 1.30934   3
  -4  -3  -9 23.3945 2.79850   3
  -4  -3  -9 21.0303 4.29419   7
   4   3   9 23.8034 2.63493   2
   4   3   9 22.7913 2.66015   6
   5  -4  -9 -1.0429 1.90119   4
   5  -4  -9 -0.8428 1.41329   5
  -5   4   9 4.25137 2.98182   7
  -5   4   9 0.84412 1.64401   3
   4  -4  -9 -0.1090 1.46277   4
   4  -4  -9 2.71537 1.93226   1
   4  -4  -9 1.15547 1.21382   5
  -4   4   9 3.54826 1.55501   3
  -4   4   9 2.12070 2.55861   7
   3  -4  -9 1.83324 1.41913   4
   3  -4  -9 1.23035 0.92168   5
   3  -4  -9 2.60049 1.98873   1
  -3   4   9 2.77597 1.37336   3
  -3   4   9 3.96081 2.36781   7
   2  -4  -9 82.9012 3.68998   5
   2  -4  -9 78.8293 5.93443   1
   2  -4  -9 86.1450 4.82994   4
  -2   4   9 84.9624 4.53883   3
  -2   4   9 87.1215 5.78310   7
  -2   4   9 90.6704 3.76718   6
   1  -4  -9 192.030 7.84640   4
   1  -4  -9 178.245 9.27525   1
  -1   4   9 189.373 7.50914   3
  -1   4   9 187.832 6.93270   6
  -1   4   9 186.902 8.91444   7
   0  -4  -9 0.81493 1.47969   1
   0  -4  -9 1.02744 0.85190   4
   0  -4  -9 0.17911 1.12912   7
   0   4   9 0.28129 1.61832   7
   0   4   9 -1.1003 0.90617   3
   0   4   9 0.59583 0.77397   6
  -1  -4  -9 75.1910 4.95351   7
  -1  -4  -9 83.8392 5.71215   1
  -1  -4  -9 82.4030 3.84822   4
   1   4   9 78.9248 3.41966   2
   1   4   9 77.2616 4.11603   3
   1   4   9 79.3921 5.49735   7
   1   4   9 72.8102 3.84370   6
  -2  -4  -9 9.96701 1.64494   3
  -2  -4  -9 8.03035 2.32177   7
  -2  -4  -9 7.43359 2.62793   1
   2   4   9 7.57691 1.33643   2
   2   4   9 8.88871 1.83462   3
   2   4   9 6.33299 1.35964   6
  -3  -4  -9 -1.2484 1.93085   1
  -3  -4  -9 -2.1966 1.78611   7
  -3  -4  -9 -0.5240 0.92972   3
   3   4   9 1.27864 1.01275   6
   3   4   9 -1.5559 1.13832   3
   3   4   9 1.14990 0.94709   2
  -4  -4  -9 -0.7457 1.12054   3
  -4  -4  -9 -3.9656 2.09027   7
   4   4   9 1.48775 1.18363   2
   4   4   9 -2.3825 1.04075   6
   5  -5  -9 -2.6942 1.28125   5
   5  -5  -9 -1.6168 1.95723   4
  -5   5   9 -0.5201 1.51621   3
  -5   5   9 2.88644 2.95018   7
   4  -5  -9 -2.0927 1.38231   4
   4  -5  -9 -1.0814 1.04424   5
   4  -5  -9 0.68622 1.88707   1
  -4   5   9 1.28084 2.54435   7
  -4   5   9 -0.8217 1.34580   3
   3  -5  -9 17.9425 2.84537   4
   3  -5  -9 17.8378 3.53143   1
  -3   5   9 18.5046 3.72360   7
  -3   5   9 17.8417 2.43362   3
   2  -5  -9 6.95658 2.52444   1
   2  -5  -9 8.87373 2.06417   4
  -2   5   9 8.39182 2.61216   7
  -2   5   9 9.99519 1.91089   3
  -2   5   9 8.05623 1.29022   6
   1  -5  -9 5.17476 1.52114   4
   1  -5  -9 5.76668 2.40617   1
  -1   5   9 3.48248 2.03558   7
  -1   5   9 5.03330 1.22528   6
  -1   5   9 5.06121 1.54716   3
   0  -5  -9 28.2630 3.87709   1
   0  -5  -9 35.1144 3.37488   7
   0  -5  -9 31.3563 2.61524   4
   0   5   9 35.9199 2.56591   6
   0   5   9 35.7233 2.83524   3
   0   5   9 34.5000 3.93182   7
  -1  -5  -9 53.4053 5.03282   1
  -1  -5  -9 50.7538 4.23566   7
   1   5   9 58.0251 3.39405   6
   1   5   9 52.5524 3.45562   3
   1   5   9 59.9960 3.68073   2
  -2  -5  -9 24.3032 4.05846   7
  -2  -5  -9 18.2703 3.88445   1
  -2  -5  -9 25.8692 2.38221   3
   2   5   9 18.0596 1.85409   2
   2   5   9 23.1220 2.33790   6
   2   5   9 20.3620 2.47889   3
  -3  -5  -9 1.31418 2.15042   7
  -3  -5  -9 0.00614 2.74189   1
  -3  -5  -9 3.32611 1.34079   3
   3   5   9 2.83499 1.58284   3
   3   5   9 4.14140 1.47402   6
   3   5   9 3.59224 1.21389   2
  -4  -5  -9 1.41820 1.30314   3
  -4  -5  -9 -2.9368 2.51290   7
   4   5   9 -1.0566 1.25515   6
   4   5   9 -0.0508 1.01806   2
  -5   6   9 4.60203 3.44429   7
  -5   6   9 2.42852 2.01687   3
   4  -6  -9 0.77203 2.04503   1
   4  -6  -9 -2.6185 1.65575   4
  -4   6   9 -0.4891 1.53105   3
  -4   6   9 0.42159 2.44525   7
   3  -6  -9 30.1049 4.45103   1
   3  -6  -9 25.3019 3.37082   4
  -3   6   9 28.5087 4.36064   7
  -3   6   9 28.3393 3.11303   3
   2  -6  -9 3.93936 1.64779   4
   2  -6  -9 5.10429 2.58811   1
  -2   6   9 5.38773 1.25367   6
  -2   6   9 5.75249 2.49652   7
  -2   6   9 6.43071 1.81718   3
   1  -6  -9 1.31152 1.73047   1
   1  -6  -9 2.27267 1.51879   7
   1  -6  -9 0.51155 1.19745   4
  -1   6   9 0.68160 1.18730   3
  -1   6   9 1.38944 0.97421   6
  -1   6   9 1.23932 2.01694   7
   0  -6  -9 10.1947 2.43509   7
   0  -6  -9 8.28301 2.87765   1
   0  -6  -9 5.26983 1.54347   4
   0   6   9 10.6156 2.99669   7
   0   6   9 8.24829 1.78848   3
   0   6   9 8.18851 1.60151   6
  -1  -6  -9 -0.1038 1.99024   1
  -1  -6  -9 2.18753 1.80527   7
   1   6   9 2.97884 1.44281   3
   1   6   9 3.21325 1.17690   6
  -2  -6  -9 0.03292 0.95389   3
  -2  -6  -9 -1.0693 1.52535   7
   2   6   9 1.22957 1.08819   6
   2   6   9 0.83544 1.27685   3
   2   6   9 0.69583 0.81912   2
  -3  -6  -9 1.78282 1.27235   3
  -3  -6  -9 -0.5904 2.12312   7
  -3  -6  -9 -4.2650 2.67957   1
   3   6   9 -3.1828 1.18573   3
   3   6   9 -0.6377 0.89919   2
   3   6   9 0.49115 1.20565   6
   4   6   9 16.8830 2.48605   2
   4  -7  -9 -1.1019 2.22034   1
  -4   7   9 1.39925 2.48953   7
  -4   7   9 1.48054 1.73198   3
   3  -7  -9 16.9031 3.15125   4
   3  -7  -9 21.8813 4.35835   1
  -3   7   9 26.4538 4.35045   7
  -3   7   9 27.0904 3.30555   3
   2  -7  -9 20.2575 4.27105   1
   2  -7  -9 15.4524 2.74581   4
  -2   7   9 18.0797 2.12735   6
  -2   7   9 16.6414 2.57583   3
  -2   7   9 17.2788 3.82162   7
   1  -7  -9 -1.0181 1.93202   1
   1  -7  -9 1.26625 1.32649   7
   1  -7  -9 -2.2273 1.07409   4
  -1   7   9 -0.1960 1.17077   3
  -1   7   9 0.31306 0.97291   6
  -1   7   9 -1.4481 2.09647   7
   0  -7  -9 4.90321 2.75395   1
   0  -7  -9 1.39561 1.42587   4
   0  -7  -9 3.53483 2.03184   7
   0   7   9 3.88523 2.67187   7
   0   7   9 4.30821 1.33280   6
   0   7   9 4.78535 1.61299   3
  -1  -7  -9 1.68704 2.49540   1
  -1  -7  -9 1.29066 1.72283   7
   1   7   9 3.58443 1.35286   6
   1   7   9 0.92456 1.29330   3
  -2  -7  -9 1.24695 1.11511   3
  -2  -7  -9 -1.0242 1.92975   7
   2   7   9 -0.0788 1.12080   6
   2   7   9 -0.8063 1.33747   3
  -3  -7  -9 8.83900 3.61308   7
  -3  -7  -9 13.5700 2.27207   3
  -3  -7  -9 5.34091 4.41176   1
   3   7   9 10.2734 1.87488   2
   3   7   9 9.77777 1.99704   6
   3   7   9 8.97061 2.36491   3
   4  -8  -9 -3.3934 2.32671   1
  -4   8   9 -0.1671 2.72064   7
  -4   8   9 2.56409 1.78824   3
   3  -8  -9 7.08753 2.68255   4
   3  -8  -9 12.9723 4.15280   1
  -3   8   9 13.9229 2.83423   6
  -3   8   9 14.3572 2.77556   3
  -3   8   9 10.7722 3.43920   7
   2  -8  -9 -3.6926 1.46522   4
   2  -8  -9 -2.4050 2.16316   1
  -2   8   9 -2.1507 2.26273   7
  -2   8   9 0.32425 1.38901   3
  -2   8   9 0.02807 1.01862   6
   1  -8  -9 8.52941 2.53639   7
   1  -8  -9 1.14619 1.79410   4
   1  -8  -9 5.29935 3.01518   1
  -1   8   9 4.46607 1.31581   6
  -1   8   9 3.33433 1.55963   3
  -1   8   9 3.85543 2.88034   7
   0  -8  -9 -0.5108 2.36834   1
   0  -8  -9 1.83652 1.65575   7
   0  -8  -9 -3.5172 1.53888   4
   0   8   9 0.49598 1.26753   3
   0   8   9 -0.1051 1.00907   6
  -1  -8  -9 6.37036 2.51469   7
  -1  -8  -9 1.42416 2.87905   1
   1   8   9 2.54417 1.30265   6
   1   8   9 5.97275 1.85320   3
  -2  -8  -9 6.99538 4.16008   1
  -2  -8  -9 9.35275 3.17388   7
  -2  -8  -9 16.0081 2.26393   3
   2   8   9 16.1037 2.64922   3
   2   8   9 10.7262 2.17204   6
  -3  -8  -9 1.12959 2.87186   7
  -3  -8  -9 4.28700 1.68003   3
   3   8   9 4.64215 1.75462   6
   4  -9  -9 -4.1818 2.64945   1
  -3   9   9 0.21475 1.22539   6
  -3   9   9 0.85749 1.77169   3
  -3   9   9 -2.9031 2.43232   7
   2  -9  -9 -4.2956 1.88565   4
   2  -9  -9 -1.0712 2.76148   1
  -2   9   9 1.86951 1.21350   6
  -2   9   9 1.85092 1.75032   3
  -2   9   9 0.39381 2.65575   7
   1  -9  -9 -1.5982 1.99764   4
   1  -9  -9 1.66300 3.08821   1
   1  -9  -9 5.38540 2.31297   7
  -1   9   9 -1.4824 2.60942   7
  -1   9   9 1.76259 1.26101   6
  -1   9   9 0.86267 1.58534   3
   0  -9  -9 -0.8723 1.59907   7
   0  -9  -9 -1.9778 2.70162   1
   0   9   9 1.50067 1.45406   3
   0   9   9 -1.2596 1.04239   6
  -1  -9  -9 0.93230 2.11457   7
  -1  -9  -9 -3.4425 2.97260   1
   1   9   9 -0.4431 1.18357   6
   1   9   9 -0.0470 1.43663   3
  -2  -9  -9 -2.9231 3.75480   1
  -2  -9  -9 4.13206 1.33129   3
  -2  -9  -9 0.35227 2.51207   7
   2   9   9 0.24150 1.63937   3
   2   9   9 1.26768 1.55057   6
   3 -10  -9 -4.1515 3.10467   1
  -3  10   9 1.41267 1.96700   3
  -3  10   9 0.55159 1.35122   6
   2 -10  -9 9.15414 2.52582   7
   2 -10  -9 0.23150 3.59770   1
  -2  10   9 4.33061 2.05089   3
  -2  10   9 6.30376 1.68829   6
  -2  10   9 -0.9409 3.12345   7
   1 -10  -9 6.06980 2.59505   7
   1 -10  -9 -1.8875 3.36870   1
  -1  10   9 0.32632 1.64046   3
  -1  10   9 2.35209 1.44057   6
   0 -10  -9 0.38874 2.10817   7
   0 -10  -9 -5.1652 3.19795   1
   0  10   9 0.08605 1.47255   3
   0  10   9 0.06980 1.34809   6
  -1 -10  -9 -1.8989 2.08560   7
  -1 -10  -9 -6.1949 3.50156   1
   1  10   9 -0.4994 1.36509   6
   1  10   9 0.03504 1.61591   3
   2 -11  -9 -4.6987 3.61155   1
   1 -11  -9 2.46493 2.15777   7
   1 -11  -9 -0.6357 4.19257   1
  -1  11   9 2.55645 1.55367   6
  -1  11   9 0.40220 1.75039   3
   0 -11  -9 6.73008 5.32899   1
  -1 -11  10 27.6524 4.77693   1
   0  11 -10 0.45257 1.63782   2
   0  11 -10 1.53116 1.67116   5
   0 -11  10 6.13846 2.28675   4
  -1  11 -10 5.36495 1.94912   2
  -1  11 -10 6.14718 2.06929   5
   1 -11  10 12.1548 2.66389   4
   1 -11  10 7.53796 2.10580   5
  -2  11 -10 0.00029 1.63381   6
  -2  11 -10 0.49557 1.43678   5
  -2  11 -10 -1.1942 1.48568   2
   2 -11  10 -0.2289 1.50035   5
   2 -11  10 5.31322 1.77641   4
   2  10 -10 3.61891 2.04151   2
  -2 -10  10 19.0601 5.20589   1
   1  10 -10 1.69850 1.64376   2
   1  10 -10 1.77637 1.68911   5
  -1 -10  10 8.20998 3.22299   1
  -1 -10  10 4.65397 2.31258   4
   0  10 -10 -0.7020 1.31876   2
   0  10 -10 0.36986 1.38044   5
   0 -10  10 1.58351 1.70295   4
   0 -10  10 6.75591 2.95163   1
  -1  10 -10 12.9673 2.36710   2
  -1  10 -10 15.4705 2.63003   5
   1 -10  10 25.4421 3.41200   4
   1 -10  10 17.7417 2.74105   5
  -2  10 -10 1.17603 1.51352   5
  -2  10 -10 -0.5236 1.34176   2
  -2  10 -10 0.57676 1.35504   6
   2 -10  10 4.43819 1.63112   4
   2 -10  10 1.41784 1.47596   5
  -3  10 -10 -0.5804 1.48360   6
  -3  10 -10 1.06323 1.54483   5
  -3  10 -10 0.17631 1.50846   2
   3 -10  10 5.62754 1.58182   4
   3 -10  10 1.79715 1.50236   5
   2   9 -10 0.71922 1.59185   4
   2   9 -10 -2.8171 1.31931   2
   2   9 -10 -0.2018 1.44362   5
  -2  -9  10 1.70692 2.06980   4
  -2  -9  10 7.70773 3.39202   1
   1   9 -10 4.42708 1.84086   5
   1   9 -10 2.72756 1.61461   2
  -1  -9  10 8.89918 3.49363   1
  -1  -9  10 6.11031 2.29983   4
   0   9 -10 9.26735 1.94271   2
   0   9 -10 11.4580 2.30509   5
   0  -9  10 14.0962 3.82868   1
   0  -9  10 15.7238 2.89242   4
  -1   9 -10 0.68487 1.33208   2
  -1   9 -10 2.70556 1.53188   5
   1  -9  10 2.64942 1.59788   5
   1  -9  10 2.72487 1.68514   4
   1  -9  10 7.19973 2.63460   1
  -2   9 -10 -1.8987 1.08750   6
  -2   9 -10 -0.6384 1.32561   2
  -2   9 -10 -1.0687 1.20003   5
   2  -9  10 2.46358 1.44530   5
   2  -9  10 3.80367 1.51800   4
  -3   9 -10 2.21400 1.62339   2
  -3   9 -10 3.74107 1.74936   6
   3  -9  10 4.23520 1.67317   5
   3  -9  10 9.17477 1.89175   4
   3   8 -10 -1.7430 1.53063   2
   3   8 -10 0.65855 1.70243   4
   3   8 -10 0.98525 1.56197   5
  -3  -8  10 6.33433 2.18862   7
  -3  -8  10 0.20284 1.92204   4
  -3  -8  10 9.60107 3.99702   1
   2   8 -10 2.86050 1.68245   5
   2   8 -10 5.93127 2.18319   4
   2   8 -10 3.07588 1.52591   2
  -2  -8  10 9.16119 2.48486   7
  -2  -8  10 8.97847 3.78807   1
  -2  -8  10 6.29291 2.41828   4
   1   8 -10 -0.0204 1.24131   5
   1   8 -10 -0.3546 1.21817   2
  -1  -8  10 2.59963 2.61144   1
  -1  -8  10 2.35836 1.93344   4
   0   8 -10 3.13115 1.65236   5
   0   8 -10 1.07882 1.18844   2
   0  -8  10 5.31616 1.99790   4
   0  -8  10 4.19521 2.57481   1
  -1   8 -10 123.026 6.01952   5
  -1   8 -10 111.331 5.64012   2
  -1   8 -10 116.481 5.69447   6
   1  -8  10 125.489 6.05666   5
   1  -8  10 112.620 6.39530   4
   1  -8  10 111.667 7.59602   1
  -2   8 -10 2.28175 1.36184   6
  -2   8 -10 3.52426 1.59902   5
  -2   8 -10 3.00867 1.47482   2
   2  -8  10 5.07700 1.63385   4
   2  -8  10 4.02268 1.56722   5
  -3   8 -10 54.5200 3.88003   6
  -3   8 -10 54.6263 3.99329   2
   3  -8  10 53.1333 3.91450   4
   3  -8  10 60.0642 4.05603   5
  -4   8 -10 2.79413 1.60381   2
  -4   8 -10 1.14738 1.56214   6
   4  -8  10 4.22508 1.53167   5
   4  -8  10 0.97969 1.45911   2
   3   7 -10 8.62646 2.15949   5
   3   7 -10 3.32520 1.66247   2
   3   7 -10 5.71199 2.18868   4
  -3  -7  10 9.70438 3.94596   1
  -3  -7  10 8.10411 2.65030   4
  -3  -7  10 10.7488 2.92683   7
   2   7 -10 8.66831 1.83167   2
   2   7 -10 9.24663 2.40003   4
   2   7 -10 7.17169 2.02732   5
  -2  -7  10 8.79700 2.71150   7
  -2  -7  10 10.8132 3.95512   1
  -2  -7  10 8.49134 2.50788   4
   1   7 -10 11.4026 2.18897   5
   1   7 -10 11.5129 1.89863   2
  -1  -7  10 11.3154 2.55460   4
  -1  -7  10 14.8085 4.13636   1
  -1  -7  10 10.9425 2.39086   7
   0   7 -10 28.5524 2.64216   2
   0   7 -10 29.7572 2.83291   5
   0  -7  10 28.9218 4.40220   1
   0  -7  10 33.0479 3.44669   4
  -1   7 -10 1.29920 1.00436   6
  -1   7 -10 2.69459 1.29395   2
  -1   7 -10 3.13309 1.28456   5
   1  -7  10 5.32433 2.40070   1
   1  -7  10 1.38590 1.47367   4
   1  -7  10 3.83176 1.46536   5
  -2   7 -10 2.01202 1.20105   6
  -2   7 -10 5.89490 1.62570   5
  -2   7 -10 1.88356 1.25412   2
   2  -7  10 6.88932 1.92397   4
   2  -7  10 5.26838 1.52253   5
   2  -7  10 4.74642 2.47332   1
  -3   7 -10 77.1394 4.53272   2
  -3   7 -10 66.2348 4.27711   6
   3  -7  10 74.8737 4.39709   5
   3  -7  10 75.2306 4.40254   2
   3  -7  10 71.5394 4.52333   4
  -4   7 -10 17.5508 2.69808   2
  -4   7 -10 17.6105 2.49114   6
   4  -7  10 17.3080 2.57733   2
   4  -7  10 27.1684 3.43762   4
   4  -7  10 27.1155 2.87389   5
   4   6 -10 0.84783 1.53399   4
   4   6 -10 -0.2576 1.58007   5
  -4  -6  10 4.40575 2.55623   7
   3   6 -10 2.99101 1.84035   4
   3   6 -10 0.72419 1.36484   2
   3   6 -10 1.63722 1.46619   5
  -3  -6  10 7.65142 3.47118   1
  -3  -6  10 4.46936 2.49326   7
  -3  -6  10 2.34765 2.10291   4
   2   6 -10 3.40692 1.66156   5
   2   6 -10 2.57986 1.25777   2
   2   6 -10 3.85958 1.73701   4
  -2  -6  10 6.12192 2.38925   7
  -2  -6  10 4.59211 2.06423   4
  -2  -6  10 5.40021 3.12772   1
   1   6 -10 8.32011 1.81186   5
   1   6 -10 8.31268 1.56052   2
   1   6 -10 6.95413 1.91514   4
  -1  -6  10 6.74757 2.03250   7
  -1  -6  10 9.02755 3.38118   1
  -1  -6  10 6.83951 2.13543   4
   0   6 -10 -1.1110 0.76463   5
   0   6 -10 1.44382 0.97321   2
   0  -6  10 0.27881 1.28344   4
   0  -6  10 1.45110 2.03448   1
   0  -6  10 0.26653 1.18951   7
  -1   6 -10 0.41835 0.76376   6
  -1   6 -10 1.74997 1.01571   5
  -1   6 -10 0.70166 0.90686   2
   1  -6  10 0.47111 1.12381   5
   1  -6  10 1.00240 1.31224   4
   1  -6  10 0.99895 1.92033   1
  -2   6 -10 14.2167 2.09198   5
  -2   6 -10 10.9308 1.78527   2
  -2   6 -10 9.66753 1.57204   6
   2  -6  10 11.1191 2.14952   4
   2  -6  10 13.1964 2.01124   5
   2  -6  10 13.2505 2.66886   1
  -3   6 -10 5.53867 1.59860   2
  -3   6 -10 3.88438 1.32600   6
   3  -6  10 4.08293 1.42704   2
   3  -6  10 6.82403 1.65261   5
   3  -6  10 6.37128 1.58525   4
  -4   6 -10 -0.9829 1.24768   6
  -4   6 -10 -0.4241 1.33039   2
   4  -6  10 1.44125 1.18834   5
   4  -6  10 -0.7571 1.18615   2
   4   5 -10 0.28736 1.50334   4
   4   5 -10 -1.5364 1.30747   5
  -4  -5  10 3.64188 2.51745   7
  -4  -5  10 8.28429 3.46340   1
   3   5 -10 1.33993 1.32860   5
   3   5 -10 0.73875 1.47959   4
   3   5 -10 -0.4686 1.06778   2
  -3  -5  10 5.25927 2.37095   7
  -3  -5  10 1.85634 1.89055   4
  -3  -5  10 2.95885 2.92723   1
   2   5 -10 -0.5172 0.84641   2
   2   5 -10 0.62028 1.00999   5
   2   5 -10 0.60733 1.28962   4
  -2  -5  10 0.59687 1.74328   7
  -2  -5  10 1.33145 2.38346   1
  -2  -5  10 0.63775 1.66592   4
   1   5 -10 10.7564 2.21065   4
   1   5 -10 10.4902 1.57937   2
   1   5 -10 6.82981 1.52456   5
  -1  -5  10 9.08928 2.27381   7
  -1  -5  10 9.29967 2.13338   4
  -1  -5  10 10.2846 3.32433   1
   0   5 -10 28.6834 2.45788   5
   0   5 -10 29.2005 2.24866   2
   0  -5  10 26.5157 2.76727   7
   0  -5  10 27.6276 3.95590   1
   0  -5  10 24.8023 2.86792   4
  -1   5 -10 26.0221 2.02940   6
  -1   5 -10 28.5945 2.29140   2
  -1   5 -10 27.0052 2.38374   5
   1  -5  10 27.5605 2.46119   5
   1  -5  10 25.9999 4.02807   7
   1  -5  10 25.0173 2.74647   4
   1  -5  10 27.4398 3.69084   1
  -2   5 -10 12.1675 1.89976   5
  -2   5 -10 8.75622 1.46816   6
  -2   5 -10 9.53842 1.74584   2
   2  -5  10 9.63551 2.39143   1
   2  -5  10 9.64389 1.70875   5
   2  -5  10 10.2924 2.05767   4
   2  -5  10 10.4738 1.63242   2
  -3   5 -10 7.55941 1.77089   2
  -3   5 -10 4.40163 1.29809   3
  -3   5 -10 4.16062 1.25055   6
   3  -5  10 5.80796 1.49551   2
   3  -5  10 7.97174 1.69827   5
   3  -5  10 8.87366 1.80808   4
  -4   5 -10 -1.9717 1.15761   2
  -4   5 -10 -0.8524 1.18314   3
  -4   5 -10 -0.7469 1.07366   6
   4  -5  10 1.13602 1.07273   5
   4  -5  10 1.11448 1.23779   2
  -5   5 -10 -0.0702 1.95150   2
   5  -5  10 2.00640 1.33397   5
   5  -5  10 -2.2961 1.39693   2
   4   4 -10 8.44494 2.32216   4
   4   4 -10 11.7379 2.37334   5
  -4  -4  10 13.0418 3.53476   7
   3   4 -10 74.0360 4.99102   4
   3   4 -10 67.9730 4.41115   5
  -3  -4  10 84.7969 7.12673   1
  -3  -4  10 56.5533 5.52051   7
   2   4 -10 7.80658 1.68504   5
   2   4 -10 8.69571 1.42247   2
   2   4 -10 10.8828 2.25806   4
  -2  -4  10 8.36454 2.26026   4
  -2  -4  10 10.1004 2.63921   7
  -2  -4  10 7.74542 3.16599   1
   1   4 -10 95.9394 4.04798   2
   1   4 -10 86.7143 4.46796   5
   1   4 -10 84.0381 5.00815   4
  -1  -4  10 86.8689 5.05014   4
  -1  -4  10 86.9977 6.47399   1
  -1  -4  10 81.8322 5.27822   7
   0   4 -10 11.1739 1.76719   5
   0   4 -10 9.22018 1.93018   4
   0   4 -10 10.8027 1.48044   2
   0  -4  10 11.2584 2.18443   4
   0  -4  10 10.8772 2.15919   7
   0  -4  10 12.6649 3.40704   1
  -1   4 -10 1.20451 0.66459   3
  -1   4 -10 0.91372 0.77220   2
  -1   4 -10 0.95496 0.71650   6
  -1   4 -10 0.93336 0.83543   5
   1  -4  10 -1.1523 0.93451   4
   1  -4  10 -0.0411 1.14417   7
   1  -4  10 1.88726 1.69016   1
   1  -4  10 1.32841 0.84821   5
   1  -4  10 0.21418 0.62511   3
  -2   4 -10 -0.2829 0.71073   6
  -2   4 -10 0.05129 0.69560   3
  -2   4 -10 -0.0358 0.78814   2
   2  -4  10 -0.7807 0.90865   4
   2  -4  10 -0.1687 0.63307   2
   2  -4  10 0.24559 1.07089   1
   2  -4  10 -0.0624 0.75348   5
  -3   4 -10 12.3461 1.80300   6
  -3   4 -10 17.4034 2.24818   2
  -3   4 -10 13.5823 1.88346   3
   3  -4  10 14.0830 1.99908   2
   3  -4  10 17.9615 2.07857   5
   3  -4  10 19.8408 2.10675   4
  -4   4 -10 -1.8375 0.99013   3
  -4   4 -10 0.31354 1.38447   2
  -4   4 -10 0.49845 1.19804   6
   4  -4  10 1.60618 1.30852   2
   4  -4  10 1.57502 1.06390   5
  -5   4 -10 -1.7527 1.37674   3
  -5   4 -10 -0.2309 1.42162   2
  -5   4 -10 -0.9069 1.45447   6
   5  -4  10 -1.3638 1.47103   2
   5  -4  10 0.57702 1.25771   5
  -5  -3  10 52.8446 5.32485   1
   4   3 -10 24.6535 3.30421   4
   4   3 -10 24.6810 3.04171   5
  -4  -3  10 28.4838 4.47684   7
   3   3 -10 2.52706 1.31768   5
   3   3 -10 3.18802 1.59197   4
  -3  -3  10 8.03627 3.44049   1
  -3  -3  10 6.65737 2.57580   7
   2   3 -10 0.25778 0.69376   2
   2   3 -10 1.36478 1.16338   4
   2   3 -10 0.17529 0.91129   5
  -2  -3  10 0.84799 2.24444   1
  -2  -3  10 0.02713 1.56689   7
  -2  -3  10 -0.7998 1.39097   4
   1   3 -10 65.4170 3.57860   5
   1   3 -10 63.4455 4.09287   4
   1   3 -10 61.3248 2.97967   2
  -1  -3  10 54.9422 5.20623   1
  -1  -3  10 60.8859 4.06638   4
  -1  -3  10 57.9533 4.39189   7
   0   3 -10 1.01642 0.73980   5
   0   3 -10 0.35147 0.51658   6
   0   3 -10 0.28787 0.56212   2
   0   3 -10 0.08700 0.84019   4
   0  -3  10 -0.3143 0.56897   3
   0  -3  10 0.25389 1.68403   1
   0  -3  10 0.93368 1.25788   7
   0  -3  10 0.98726 1.09417   4
  -1   3 -10 6.15856 1.00273   3
  -1   3 -10 5.00688 1.17761   5
  -1   3 -10 4.98991 1.02103   6
  -1   3 -10 5.61950 1.15244   2
   1  -3  10 5.74790 0.99607   6
   1  -3  10 5.10742 1.14857   5
   1  -3  10 6.08836 2.08224   1
   1  -3  10 5.84579 1.09285   3
   1  -3  10 4.46794 1.65605   7
   1  -3  10 5.64238 1.11483   2
   1  -3  10 6.00509 1.62399   4
  -2   3 -10 20.6340 2.60108   1
  -2   3 -10 18.0591 1.98783   6
  -2   3 -10 21.2051 1.83904   3
  -2   3 -10 20.0393 2.13075   7
  -2   3 -10 19.6254 2.02798   2
   2  -3  10 19.1381 2.65560   1
   2  -3  10 20.8885 1.93746   2
   2  -3  10 20.4783 1.84745   6
   2  -3  10 18.4942 1.88012   5
   2  -3  10 19.1552 2.59157   7
   2  -3  10 20.1745 2.20264   4
  -3   3 -10 5.82471 1.37486   6
  -3   3 -10 5.25124 1.35704   3
  -3   3 -10 5.47732 1.46720   2
   3  -3  10 4.69478 1.37018   2
   3  -3  10 5.71876 1.27234   6
   3  -3  10 7.69099 1.97614   4
   3  -3  10 7.15095 1.41762   5
  -4   3 -10 6.01487 1.71554   3
  -4   3 -10 9.33531 1.97839   6
   4  -3  10 8.34683 1.71489   6
   4  -3  10 6.65716 1.67800   2
   4  -3  10 8.48308 1.63522   5
  -5   3 -10 0.91937 1.70277   3
  -5   3 -10 2.41806 1.65861   6
   5  -3  10 0.99042 1.48229   2
   5  -3  10 3.02166 1.41123   5
   4   2 -10 12.5724 2.23945   5
   4   2 -10 13.5538 2.68758   4
  -4  -2  10 15.7593 3.87806   7
   3   2 -10 0.84659 1.13280   5
   3   2 -10 1.64768 1.42134   4
  -3  -2  10 1.58530 2.03180   7
  -3  -2  10 3.35287 2.70291   1
   2   2 -10 48.6853 3.71026   4
   2   2 -10 46.9425 3.08962   5
  -2  -2  10 41.1266 4.21852   7
  -2  -2  10 46.7442 5.00975   1
  -2  -2  10 43.8663 2.65074   3
   1   2 -10 20.9098 2.38955   4
   1   2 -10 24.5155 1.62839   2
   1   2 -10 23.7624 2.05777   5
  -1  -2  10 20.4832 1.73020   3
  -1  -2  10 24.6116 2.60679   4
  -1  -2  10 20.1252 2.84030   7
  -1  -2  10 19.4384 3.57141   1
   0   2 -10 83.1975 3.98843   5
   0   2 -10 86.6487 4.66159   4
   0   2 -10 86.0749 3.37662   6
   0   2 -10 85.0634 3.60595   2
   0  -2  10 82.3451 4.92007   7
   0  -2  10 78.6236 4.51375   4
   0  -2  10 85.0062 5.88170   1
   0  -2  10 78.3803 3.29134   6
   0  -2  10 80.0765 3.55752   3
  -1   2 -10 3.52980 0.96163   2
  -1   2 -10 5.74434 1.01812   3
  -1   2 -10 6.09097 1.56867   4
  -1   2 -10 5.86314 1.12135   5
  -1   2 -10 6.26674 1.07292   6
   1  -2  10 7.33707 2.34589   1
   1  -2  10 4.08208 0.95615   2
   1  -2  10 6.16406 1.14410   3
   1  -2  10 5.94931 1.85169   7
   1  -2  10 3.65491 0.95879   5
   1  -2  10 4.74577 0.93697   6
   1  -2  10 5.34240 1.48296   4
  -2   2 -10 18.9632 2.06073   4
  -2   2 -10 18.7631 1.79916   3
  -2   2 -10 21.3604 2.64761   1
  -2   2 -10 22.3473 1.98661   2
  -2   2 -10 20.6723 2.29037   7
  -2   2 -10 17.2922 1.94777   6
   2  -2  10 18.5815 2.71276   7
   2  -2  10 17.4103 1.87321   3
   2  -2  10 19.5651 1.83969   2
   2  -2  10 19.9065 1.82324   5
   2  -2  10 17.3702 1.79218   6
   2  -2  10 20.2212 2.10383   4
   2  -2  10 17.6876 2.60475   1
  -3   2 -10 20.9106 2.19208   3
  -3   2 -10 18.0573 2.61530   7
  -3   2 -10 20.1438 2.34196   6
   3  -2  10 18.9242 2.03769   6
   3  -2  10 19.9030 1.93926   5
   3  -2  10 22.8668 2.22585   2
  -4   2 -10 15.1538 2.14231   6
  -4   2 -10 10.3855 1.97866   3
   4  -2  10 12.0402 1.85428   6
   4  -2  10 17.2835 2.45863   2
   4  -2  10 17.4042 2.04259   5
  -5   2 -10 3.12958 1.84594   6
  -5   2 -10 1.36260 1.75376   3
   5  -2  10 1.49680 1.49555   2
   5  -2  10 3.19668 1.50774   6
   5  -2  10 4.90595 1.52451   5
   4   1 -10 -0.2121 1.12980   5
   4   1 -10 -0.8221 1.16952   4
  -4  -1  10 1.74017 2.27475   7
  -4  -1  10 8.56377 3.25929   1
  -4  -1  10 -0.0188 1.83088   3
   3   1 -10 13.9527 2.15624   5
   3   1 -10 18.0070 2.91661   4
  -3  -1  10 13.6732 3.22007   7
  -3  -1  10 17.2998 2.09364   3
  -3  -1  10 22.9141 4.54239   1
   2   1 -10 31.8901 3.00634   4
   2   1 -10 31.1873 2.48621   5
  -2  -1  10 30.9098 2.37973   3
  -2  -1  10 35.8617 4.69073   1
  -2  -1  10 25.9777 3.61906   7
   1   1 -10 0.35253 0.57701   5
   1   1 -10 -0.2006 0.42864   2
   1   1 -10 -0.1975 0.75349   4
  -1  -1  10 -1.6072 0.83722   4
  -1  -1  10 -1.5681 0.59667   3
  -1  -1  10 -1.7903 1.45227   1
  -1  -1  10 -0.3955 1.28297   7
   0   1 -10 26.9731 2.50656   4
   0   1 -10 32.0790 2.13550   5
   0   1 -10 30.4693 1.76071   6
   0   1 -10 27.8940 1.76166   2
   0  -1  10 28.9149 1.71917   6
   0  -1  10 32.7127 3.10430   7
   0  -1  10 28.7436 2.01517   3
   0  -1  10 29.9144 2.63633   4
   0  -1  10 32.4643 3.78597   1
  -1   1 -10 50.2693 2.65149   6
  -1   1 -10 51.8359 2.70827   2
  -1   1 -10 46.6512 3.45242   7
  -1   1 -10 47.9845 4.16601   1
  -1   1 -10 52.8418 2.78871   5
  -1   1 -10 51.8598 3.26778   4
  -1   1 -10 50.3273 2.67484   3
   1  -1  10 48.2951 2.78239   3
   1  -1  10 46.8514 3.15898   4
   1  -1  10 51.7068 2.64963   6
   1  -1  10 54.3130 4.38714   1
   1  -1  10 50.0122 2.76632   5
   1  -1  10 46.9428 2.62049   2
   1  -1  10 53.8834 3.95986   7
  -2   1 -10 40.0426 3.52849   1
  -2   1 -10 38.6028 3.20071   7
  -2   1 -10 40.5452 2.78844   4
  -2   1 -10 42.5922 2.58439   3
  -2   1 -10 45.8664 2.84198   6
   2  -1  10 39.8474 2.57242   2
   2  -1  10 39.9714 2.45628   5
   2  -1  10 38.0948 2.56561   6
   2  -1  10 37.5693 2.67776   3
   2  -1  10 41.1382 3.68626   7
   2  -1  10 42.4341 2.77603   4
   2  -1  10 41.5940 3.75002   1
  -3   1 -10 11.4554 1.81647   6
  -3   1 -10 13.8563 1.90417   3
  -3   1 -10 14.3838 2.78795   7
   3  -1  10 13.2385 1.59306   5
   3  -1  10 12.4305 1.78280   2
   3  -1  10 11.2043 1.68472   6
  -4   1 -10 23.3405 4.00020   7
  -4   1 -10 29.0626 2.91074   6
  -4   1 -10 23.8038 2.81470   3
   4  -1  10 24.2707 2.60878   2
   4  -1  10 26.9840 2.65199   6
   4  -1  10 25.6908 2.30854   5
  -5   1 -10 9.53071 2.18031   6
  -5   1 -10 7.51668 2.36910   3
   5  -1  10 11.4840 2.25821   6
   5  -1  10 11.4920 2.25226   2
   5   0 -10 19.5556 3.44836   1
   4   0 -10 5.32569 1.92618   4
   4   0 -10 5.66813 1.60083   5
  -4   0  10 6.17066 2.51364   7
  -4   0  10 12.6593 4.08414   1
  -4   0  10 5.79749 1.58334   3
   3   0 -10 -0.5470 0.92634   5
   3   0 -10 0.33875 1.14782   4
  -3   0  10 0.22332 1.88046   7
  -3   0  10 -0.0235 1.00582   3
  -3   0  10 1.45828 2.78680   1
   2   0 -10 40.9364 2.68331   5
   2   0 -10 41.8552 3.37390   4
  -2   0  10 38.7962 4.88752   1
  -2   0  10 41.0971 2.77984   3
  -2   0  10 34.5120 3.91836   7
   1   0 -10 2.62677 1.13415   4
   1   0 -10 3.06286 0.91937   5
   1   0 -10 2.79752 2.11945   1
  -1   0  10 2.87743 1.77690   7
  -1   0  10 3.30389 1.01719   3
  -1   0  10 4.07948 2.26940   1
   0   0 -10 5.10018 1.32397   4
   0   0 -10 3.62176 0.88592   5
   0   0 -10 3.98049 1.88829   1
   0   0 -10 4.87384 0.83182   2
   0   0  10 7.70721 2.13713   7
   0   0  10 3.73282 1.00293   3
   0   0  10 3.10913 0.67566   2
   0   0  10 3.54478 0.74828   6
   0   0  10 5.17724 2.29929   1
  -1   0 -10 26.7336 2.77476   7
  -1   0 -10 25.0176 3.11638   1
  -1   0 -10 26.8895 1.87812   2
  -1   0 -10 28.3994 1.88517   5
  -1   0 -10 28.1840 2.31937   4
   1   0  10 26.2782 1.93252   5
   1   0  10 29.7022 2.42999   4
   1   0  10 27.4126 2.21021   3
   1   0  10 27.1957 3.40090   1
   1   0  10 30.7378 3.26389   7
   1   0  10 27.8584 1.94291   6
   1   0  10 26.2175 1.85114   2
  -2   0 -10 13.5657 2.54217   7
  -2   0 -10 11.2174 2.25915   1
  -2   0 -10 13.8157 1.66446   3
  -2   0 -10 11.0677 1.52505   4
   2   0  10 9.92894 1.63939   4
   2   0  10 9.83396 1.47061   2
   2   0  10 9.41613 1.47075   6
   2   0  10 12.2421 1.74976   3
   2   0  10 11.0751 1.44207   5
  -3   0 -10 9.53100 1.70488   6
  -3   0 -10 12.4164 2.74795   7
  -3   0 -10 10.3898 1.79610   3
   3   0  10 9.78164 1.42748   5
   3   0  10 9.73745 1.64292   2
   3   0  10 8.98425 1.57937   6
   3   0  10 13.7231 2.19063   3
  -4   0 -10 4.98789 1.61692   3
  -4   0 -10 5.77859 2.67069   7
  -4   0 -10 3.09473 1.47129   6
   4   0  10 7.35673 1.64821   6
   4   0  10 6.63692 1.60586   2
  -5   0 -10 8.74311 2.20514   6
  -5   0 -10 3.03518 1.91838   3
   5   0  10 6.01799 1.83196   6
   5   0  10 5.12930 1.65759   2
   5  -1 -10 9.32032 2.77293   1
  -5   1  10 6.40220 2.96393   7
  -5   1  10 3.22277 1.60740   3
   4  -1 -10 -0.2562 1.05484   5
   4  -1 -10 2.54930 1.91211   1
   4  -1 -10 -0.5507 1.22795   4
  -4   1  10 2.56819 1.33182   3
  -4   1  10 2.38991 2.36334   7
  -4   1  10 3.12040 3.22282   1
   3  -1 -10 3.53889 1.62257   4
   3  -1 -10 1.98296 1.10530   5
   3  -1 -10 1.89914 2.18764   1
  -3   1  10 3.91456 3.33724   1
  -3   1  10 2.04404 1.98202   7
  -3   1  10 2.75366 1.28293   3
   2  -1 -10 6.18252 1.21669   5
   2  -1 -10 6.62406 2.63599   1
   2  -1 -10 6.46051 1.69608   4
  -2   1  10 5.90253 1.50489   3
  -2   1  10 3.99773 2.05210   7
  -2   1  10 9.39441 3.43485   1
   1  -1 -10 -1.3786 1.49343   1
   1  -1 -10 1.08952 1.01577   4
   1  -1 -10 0.95382 0.62732   5
  -1   1  10 0.46370 1.73366   1
  -1   1  10 0.92808 1.47512   7
  -1   1  10 0.81363 0.64625   6
  -1   1  10 1.06835 0.85765   3
   0  -1 -10 13.7469 1.28179   5
   0  -1 -10 13.1509 1.14377   2
   0  -1 -10 15.9853 3.22700   1
   0  -1 -10 14.3976 1.82953   4
   0   1  10 13.1620 1.14065   2
   0   1  10 12.1763 1.27515   6
   0   1  10 14.5826 2.65064   7
   0   1  10 14.0208 1.74625   3
   0   1  10 20.0205 3.87489   1
  -1  -1 -10 1.78622 1.49391   1
  -1  -1 -10 3.00294 0.80364   5
  -1  -1 -10 2.15535 1.51906   7
  -1  -1 -10 2.87060 0.99323   4
   1   1  10 4.60571 1.95295   7
   1   1  10 2.05316 0.75286   2
   1   1  10 3.28348 0.88419   6
   1   1  10 2.02547 0.76637   5
   1   1  10 2.88558 1.07029   3
  -2  -1 -10 81.0116 5.33152   1
  -2  -1 -10 88.5526 4.17602   3
  -2  -1 -10 84.4925 5.20702   7
   2   1  10 79.8218 3.84918   2
   2   1  10 84.6468 4.33818   3
   2   1  10 87.3615 4.11387   6
  -3  -1 -10 5.31474 1.38494   3
  -3  -1 -10 3.28227 2.18907   7
   3   1  10 3.90453 1.15228   2
   3   1  10 3.81368 1.22055   6
   3   1  10 3.23722 1.41302   3
  -4  -1 -10 25.6784 2.98065   3
  -4  -1 -10 19.3185 4.02483   7
  -4  -1 -10 31.2839 3.03119   6
   4   1  10 27.1702 2.70341   2
   4   1  10 28.2837 2.80617   6
   5   1  10 -0.0382 1.16735   2
   5  -2 -10 -0.8124 1.61813   4
   5  -2 -10 4.04256 2.65450   1
  -5   2  10 5.24112 4.83830   1
  -5   2  10 6.46640 2.76898   7
  -5   2  10 2.68926 1.67775   3
   4  -2 -10 2.91318 1.29533   5
   4  -2 -10 3.91494 2.30178   1
   4  -2 -10 0.94370 1.51457   4
  -4   2  10 4.71652 4.20562   1
  -4   2  10 2.47512 2.40726   7
  -4   2  10 4.24981 1.56064   3
   3  -2 -10 1.87062 1.01665   5
   3  -2 -10 4.48495 1.68115   4
   3  -2 -10 2.42609 2.39682   1
  -3   2  10 3.92961 2.20784   7
  -3   2  10 3.39045 1.37538   3
  -3   2  10 3.65192 3.50726   1
   2  -2 -10 24.5022 1.95530   5
   2  -2 -10 26.0372 2.67542   4
   2  -2 -10 23.5585 3.60880   1
  -2   2  10 29.2407 5.15186   1
  -2   2  10 18.6026 3.17287   7
  -2   2  10 24.7415 2.48112   3
   1  -2 -10 1.65025 1.06438   4
   1  -2 -10 0.70085 0.56700   5
   1  -2 -10 -0.7658 1.38765   1
  -1   2  10 0.92083 0.89977   3
  -1   2  10 0.18366 0.50683   6
  -1   2  10 -0.0799 1.81332   1
  -1   2  10 0.60126 1.50435   7
   0  -2 -10 12.0879 1.74974   4
   0  -2 -10 8.88023 1.06972   5
   0  -2 -10 11.7803 2.91029   1
   0   2  10 10.6567 1.31975   6
   0   2  10 11.3299 1.65656   3
   0   2  10 13.1365 2.82552   7
   0   2  10 12.6734 3.30584   1
  -1  -2 -10 112.940 6.59632   1
  -1  -2 -10 104.112 4.91174   4
  -1  -2 -10 109.825 6.01101   7
   1   2  10 105.367 4.30009   2
   1   2  10 110.478 4.71508   6
   1   2  10 103.493 4.90817   3
   1   2  10 107.680 6.34384   7
  -2  -2 -10 1.17423 0.83433   3
  -2  -2 -10 -0.1311 1.18822   7
  -2  -2 -10 -0.7787 1.30215   1
   2   2  10 0.60571 0.70437   2
   2   2  10 0.41919 0.85452   6
   2   2  10 -1.3925 0.89159   3
  -3  -2 -10 -0.9101 1.76408   7
  -3  -2 -10 0.29647 0.90795   3
   3   2  10 0.06046 0.83583   2
   3   2  10 -0.3654 1.10217   3
   3   2  10 0.13827 0.85254   6
  -4  -2 -10 -0.4897 2.44807   7
  -4  -2 -10 3.59480 1.55562   3
   4   2  10 4.59281 1.48745   2
   4   2  10 4.89404 1.66288   6
   5  -3 -10 -1.6091 1.32675   5
   5  -3 -10 -1.6808 1.55161   4
  -5   3  10 3.80185 2.93580   7
  -5   3  10 1.28928 1.60049   3
   4  -3 -10 -1.3074 0.98334   5
   4  -3 -10 0.32415 1.42913   4
   4  -3 -10 2.00978 1.98523   1
  -4   3  10 -1.5440 3.74577   1
  -4   3  10 1.95768 2.46834   7
  -4   3  10 1.11149 1.47030   3
   3  -3 -10 2.59974 2.31519   1
   3  -3 -10 1.55190 1.33914   4
   3  -3 -10 2.73398 1.09737   5
  -3   3  10 3.55616 2.39246   7
  -3   3  10 1.83428 3.64762   1
  -3   3  10 2.84611 1.37848   3
   2  -3 -10 1.84456 1.89499   1
   2  -3 -10 1.22248 0.77286   5
   2  -3 -10 1.17057 1.14043   4
  -2   3  10 1.85125 1.91066   7
  -2   3  10 2.17325 2.84692   1
  -2   3  10 2.85252 1.31587   3
   1  -3 -10 1.75154 1.10019   4
   1  -3 -10 3.65373 1.93551   1
  -1   3  10 3.10291 1.82221   7
  -1   3  10 3.76589 1.29720   3
  -1   3  10 5.31037 2.64002   1
  -1   3  10 2.36299 0.83090   6
   0  -3 -10 40.4339 3.64248   7
   0  -3 -10 51.9504 4.58776   1
   0  -3 -10 44.4025 3.03973   4
   0   3  10 41.8735 4.12037   7
   0   3  10 47.0191 3.13850   3
   0   3  10 49.9549 2.75067   6
  -1  -3 -10 -0.6839 1.43907   1
  -1  -3 -10 -0.5437 1.15045   7
  -1  -3 -10 -0.3262 0.64146   4
   1   3  10 1.01861 1.87673   7
   1   3  10 1.37712 1.14007   3
   1   3  10 0.25039 0.60032   2
   1   3  10 -0.6784 0.73409   6
  -2  -3 -10 39.2564 4.12858   1
  -2  -3 -10 38.8351 2.75350   3
  -2  -3 -10 36.6881 3.79898   7
   2   3  10 39.3682 2.84530   6
   2   3  10 34.7462 2.98280   3
   2   3  10 39.7458 2.50953   2
  -3  -3 -10 26.4268 4.49385   7
  -3  -3 -10 24.8293 2.61714   3
   3   3  10 26.4013 2.36379   2
   3   3  10 27.3789 2.56943   6
   3   3  10 28.5077 3.26123   3
  -4  -3 -10 -0.6811 2.58069   7
  -4  -3 -10 2.61049 1.54171   3
   4   3  10 3.57499 1.60014   6
   4   3  10 3.84569 1.42758   2
   5  -4 -10 1.96320 2.26890   4
   5  -4 -10 2.19119 1.67457   5
  -5   4  10 2.49752 1.82969   3
  -5   4  10 5.88204 3.43967   7
   4  -4 -10 -0.2451 1.16243   5
   4  -4 -10 -1.1575 1.34496   4
   4  -4 -10 0.62460 1.82973   1
  -4   4  10 -1.8182 2.42285   7
  -4   4  10 -1.2684 1.40116   3
   3  -4 -10 0.74776 1.38253   4
   3  -4 -10 -0.6580 0.88571   5
   3  -4 -10 -0.0194 1.80858   1
  -3   4  10 -0.6778 1.13857   3
  -3   4  10 0.00728 1.94169   7
   2  -4 -10 4.87823 1.64021   4
   2  -4 -10 4.81697 2.38873   1
  -2   4  10 3.44180 1.42157   3
  -2   4  10 4.34311 2.25071   7
   1  -4 -10 2.36858 1.29007   4
   1  -4 -10 2.39397 1.94539   1
  -1   4  10 2.26769 0.91452   6
  -1   4  10 1.54478 2.03685   7
  -1   4  10 1.66059 1.24756   3
   0  -4 -10 51.3609 4.08423   7
   0  -4 -10 54.1695 3.43155   4
   0  -4 -10 54.2265 4.95164   1
   0   4  10 57.3650 3.09860   6
   0   4  10 56.1942 3.47186   3
   0   4  10 53.0383 4.68894   7
  -1  -4 -10 50.9182 3.49733   4
  -1  -4 -10 50.6932 4.25469   7
  -1  -4 -10 53.7655 4.96375   1
   1   4  10 56.0050 3.24517   6
   1   4  10 51.3755 4.84868   7
   1   4  10 50.8207 3.42116   3
  -2  -4 -10 32.1475 3.79240   7
  -2  -4 -10 35.2526 2.72942   3
  -2  -4 -10 33.0761 4.23726   1
   2   4  10 32.6006 2.30536   2
   2   4  10 36.1683 2.74654   6
   2   4  10 27.1196 2.89785   3
  -3  -4 -10 4.33167 2.55256   7
  -3  -4 -10 3.57781 1.40472   3
   3   4  10 5.71962 1.41776   2
   3   4  10 5.88937 1.50208   6
   3   4  10 5.92223 1.95196   3
  -4  -4 -10 2.52686 3.39948   7
  -4  -4 -10 2.82203 1.65188   3
   4   4  10 4.21804 1.45196   2
   4   4  10 3.38617 1.62513   6
   4  -5 -10 0.37981 2.01734   1
   4  -5 -10 0.21513 1.74040   4
  -4   5  10 0.75645 1.63040   3
  -4   5  10 3.18057 2.78326   7
   3  -5 -10 11.7617 3.34964   1
   3  -5 -10 10.4413 2.44217   4
  -3   5  10 13.6350 2.36722   3
  -3   5  10 12.7799 3.60599   7
   2  -5 -10 63.4708 5.60883   1
   2  -5 -10 63.1432 4.29955   4
  -2   5  10 59.0053 3.95149   3
  -2   5  10 59.2768 5.27457   7
   1  -5 -10 2.20146 2.03508   1
   1  -5 -10 1.35654 1.16091   4
  -1   5  10 1.05257 1.19789   3
  -1   5  10 0.60929 0.86684   6
  -1   5  10 -0.4397 1.69632   7
   0  -5 -10 37.1696 2.95632   4
   0  -5 -10 36.9871 4.42881   1
   0  -5 -10 40.5063 3.72314   7
   0   5  10 38.9902 4.31351   7
   0   5  10 39.2706 3.11464   3
   0   5  10 44.0872 2.81192   6
  -1  -5 -10 35.4321 3.73311   7
  -1  -5 -10 32.8632 4.40084   1
   1   5  10 40.8548 2.85442   6
   1   5  10 38.1268 4.49659   7
   1   5  10 39.1069 3.10432   3
  -2  -5 -10 6.72193 1.61667   3
  -2  -5 -10 6.44003 2.60427   7
  -2  -5 -10 4.69786 2.70118   1
   2   5  10 6.47231 1.50158   6
   2   5  10 3.99741 1.69550   3
   2   5  10 6.76624 1.49880   2
  -3  -5 -10 1.87495 1.21710   3
  -3  -5 -10 1.09163 2.39532   7
   3   5  10 0.65643 1.57425   3
   3   5  10 2.12994 1.30405   6
   3   5  10 1.55154 0.99389   2
   4   5  10 5.96436 1.72528   2
   4  -6 -10 3.24738 2.36479   4
   4  -6 -10 9.05584 3.35096   1
  -4   6  10 12.3970 3.91981   7
  -4   6  10 8.62706 2.39266   3
   3  -6 -10 71.2839 5.19555   4
   3  -6 -10 66.6388 6.20115   1
  -3   6  10 64.9817 4.60370   3
  -3   6  10 72.5787 6.26086   7
   2  -6 -10 -0.3649 1.30839   4
   2  -6 -10 -0.2984 1.95940   1
  -2   6  10 -0.5823 2.20740   7
  -2   6  10 0.02123 1.34860   3
  -2   6  10 -1.9973 0.81200   6
   1  -6 -10 -1.1799 1.58120   1
   1  -6 -10 -2.0622 0.98328   4
   1  -6 -10 2.65205 1.37638   7
  -1   6  10 -0.3562 0.93039   6
  -1   6  10 -0.6551 2.04006   7
  -1   6  10 -1.7194 1.10462   3
   0  -6 -10 10.0058 1.98605   4
   0  -6 -10 11.7995 3.36174   1
   0  -6 -10 16.7333 3.27370   7
   0   6  10 10.0787 1.68356   6
   0   6  10 12.3552 2.04070   3
   0   6  10 11.9734 3.33712   7
  -1  -6 -10 2.51801 1.77762   7
  -1  -6 -10 0.70279 2.37737   1
   1   6  10 2.67474 1.45088   3
   1   6  10 2.45827 1.21973   6
  -2  -6 -10 4.82973 1.49003   3
  -2  -6 -10 2.66373 2.17482   7
  -2  -6 -10 1.73095 2.73964   1
   2   6  10 3.41227 1.64394   3
   2   6  10 7.03244 1.67217   6
  -3  -6 -10 4.19645 1.45220   3
  -3  -6 -10 -2.8369 3.40570   1
  -3  -6 -10 1.41188 2.73925   7
   3   6  10 2.88215 1.56342   6
   3   6  10 1.79854 1.83069   3
   3   6  10 3.42531 1.24572   2
   4  -7 -10 4.08749 3.01605   1
  -4   7  10 6.63162 2.19059   3
  -4   7  10 5.03179 3.51086   7
   3  -7 -10 4.16621 3.06300   1
   3  -7 -10 6.31070 2.49559   4
  -3   7  10 9.01038 2.36318   3
  -3   7  10 7.31033 3.18051   7
   2  -7 -10 -1.2357 2.06289   1
   2  -7 -10 -2.3306 1.36376   4
  -2   7  10 -0.0070 0.99303   6
  -2   7  10 -0.4444 1.42148   3
  -2   7  10 -2.1761 2.16044   7
   1  -7 -10 -1.2446 2.07890   1
   1  -7 -10 3.83804 1.57111   7
   1  -7 -10 -2.4674 1.22510   4
  -1   7  10 -2.9282 2.21556   7
  -1   7  10 -1.5146 1.18976   3
  -1   7  10 -0.2572 0.97671   6
   0  -7 -10 6.23320 1.89148   4
   0  -7 -10 13.4806 3.08223   7
   0  -7 -10 9.71072 3.39635   1
   0   7  10 8.61768 1.90164   3
   0   7  10 9.94362 3.54003   7
   0   7  10 11.4176 1.84910   6
  -1  -7 -10 7.80984 2.55973   7
  -1  -7 -10 2.88699 2.75711   1
   1   7  10 7.48810 1.65809   6
   1   7  10 9.11560 2.15003   3
  -2  -7 -10 4.20513 1.39456   3
  -2  -7 -10 0.16011 2.08402   7
  -2  -7 -10 -1.1463 2.75326   1
   2   7  10 1.75303 1.34032   6
   2   7  10 -0.0593 1.48434   3
  -3  -7 -10 1.70038 3.01750   7
  -3  -7 -10 1.94340 1.33241   3
  -3  -7 -10 -3.4274 4.86564   1
   3   7  10 3.25295 1.72958   6
   3   7  10 2.26446 2.06213   3
   4  -8 -10 -1.7694 2.73627   1
   3  -8 -10 -4.5447 1.89511   4
   3  -8 -10 -0.7758 2.83151   1
  -3   8  10 1.07592 1.77141   3
  -3   8  10 0.28127 2.57062   7
   2  -8 -10 -1.8868 1.78499   4
   2  -8 -10 -0.2361 2.55199   1
  -2   8  10 -1.9052 2.34447   7
  -2   8  10 0.31652 1.63555   3
  -2   8  10 0.94047 1.05857   6
   1  -8 -10 3.21326 2.96831   1
   1  -8 -10 10.0364 2.71109   7
   1  -8 -10 -0.8756 1.78754   4
  -1   8  10 4.95049 1.42576   6
  -1   8  10 3.50748 1.82797   3
  -1   8  10 0.51994 2.78442   7
   0  -8 -10 3.43161 1.85751   7
   0  -8 -10 -2.0199 2.47692   1
   0   8  10 1.35250 1.17916   6
   0   8  10 0.49995 1.42440   3
  -1  -8 -10 -2.0785 2.62306   1
  -1  -8 -10 -0.9947 1.64253   7
   1   8  10 -2.2117 1.20136   3
   1   8  10 -0.1761 1.14216   6
  -2  -8 -10 2.23212 1.20336   3
  -2  -8 -10 -3.5721 2.99650   1
  -2  -8 -10 -2.2283 1.86188   7
   2   8  10 0.47308 1.28961   6
   2   8  10 -0.9978 1.56428   3
   3  -9 -10 -1.7195 2.55913   4
   3  -9 -10 6.15474 4.05164   1
  -3   9  10 6.33354 3.40693   7
  -3   9  10 8.04136 2.41691   3
   2  -9 -10 -0.9660 2.82993   1
  -2   9  10 0.73503 1.75014   3
  -2   9  10 1.00974 1.22084   6
  -2   9  10 -2.3719 2.49324   7
   1  -9 -10 7.23210 2.45474   7
   1  -9 -10 1.43917 3.41082   1
  -1   9  10 0.49732 1.70380   3
  -1   9  10 -0.4471 3.13771   7
  -1   9  10 4.04584 1.52874   6
   0  -9 -10 0.84699 3.28452   1
   0  -9 -10 3.78025 2.17435   7
   0   9  10 4.85920 1.57083   6
   0   9  10 5.20630 2.00698   3
  -1  -9 -10 0.28110 1.97236   7
  -1  -9 -10 -2.2565 3.19527   1
   1   9  10 4.83706 1.95014   3
   1   9  10 1.76625 1.44797   6
   2 -10 -10 8.08545 2.51733   7
   2 -10 -10 -0.7784 3.47695   1
  -2  10  10 -1.3348 3.31240   7
  -2  10  10 1.87512 1.42337   6
  -2  10  10 2.91202 2.03150   3
   1 -10 -10 1.35489 3.34806   4
   1 -10 -10 14.1953 3.21211   7
   1 -10 -10 7.23209 4.55170   1
  -1  10  10 6.83801 2.21719   3
  -1  10  10 9.97093 2.05388   6
   0 -10 -10 1.10830 2.26003   7
   0 -10 -10 -2.9750 3.54044   1
   0  10  10 -0.4956 1.27732   6
   0  10  10 -0.0556 1.70387   3
   1 -11  11 35.5055 3.86715   1
   1  10 -11 2.87533 1.86979   5
   1  10 -11 -0.9887 1.59972   2
  -1 -10  11 6.47850 2.64959   4
  -1 -10  11 8.62917 3.35351   1
   0  10 -11 3.85911 1.86551   5
   0  10 -11 4.18474 1.88373   2
   0 -10  11 12.2498 3.59477   1
   0 -10  11 7.85462 2.47817   4
  -1  10 -11 4.13806 1.77334   2
  -1  10 -11 3.83112 1.79126   5
   1 -10  11 4.97366 1.80229   5
   1 -10  11 9.59951 2.42190   4
  -2  10 -11 2.88842 1.71856   2
  -2  10 -11 3.00986 1.60691   5
   2 -10  11 5.14461 1.93800   5
   2 -10  11 5.60312 1.82610   4
   2   9 -11 6.47830 2.38361   4
   2   9 -11 8.28197 2.31799   5
   2   9 -11 4.33223 1.91819   2
  -2  -9  11 16.3560 4.76182   1
  -2  -9  11 9.13110 2.89589   4
  -1  -9  11 7.56183 2.60471   4
  -1  -9  11 9.15051 3.32753   1
   0   9 -11 15.2183 2.71995   5
   0   9 -11 10.2477 2.06552   2
   0  -9  11 19.8770 3.38105   4
  -1   9 -11 9.42205 2.09211   2
  -1   9 -11 14.3594 2.58327   5
   1  -9  11 14.1840 2.75624   4
   1  -9  11 13.3005 2.41963   5
  -2   9 -11 3.94523 1.62736   6
  -2   9 -11 5.65649 1.80963   5
  -2   9 -11 5.18743 1.92199   2
   2  -9  11 3.55399 1.72048   5
   2  -9  11 8.59946 2.05077   4
  -3   9 -11 3.55970 1.85819   5
  -3   9 -11 2.30442 1.61842   6
  -3   9 -11 2.44047 1.63659   2
   3  -9  11 7.71470 1.75289   4
   3  -9  11 4.18189 1.81345   5
  -3  -8  11 11.4829 6.11286   1
   2   8 -11 0.43779 1.56538   5
   2   8 -11 1.38089 1.71713   4
   2   8 -11 -0.5590 1.35005   2
  -2  -8  11 1.49758 2.10276   4
  -2  -8  11 6.21860 3.46829   1
   1   8 -11 1.89523 1.44083   2
   1   8 -11 1.38849 1.59716   5
  -1  -8  11 4.18489 2.16290   4
  -1  -8  11 7.09627 3.33226   1
   0   8 -11 -0.5252 1.19702   5
   0   8 -11 -0.0671 1.11481   2
   0  -8  11 1.64041 1.82251   4
   0  -8  11 2.74740 2.60927   1
  -1   8 -11 0.61931 1.24040   5
  -1   8 -11 1.61207 1.37054   2
   1  -8  11 1.16932 1.37665   5
   1  -8  11 5.15754 2.44723   1
   1  -8  11 4.31001 1.84012   4
  -2   8 -11 1.26502 1.43618   5
  -2   8 -11 0.12622 1.32757   2
  -2   8 -11 -0.2368 1.19113   6
   2  -8  11 4.39606 1.60075   4
   2  -8  11 -0.4631 1.18068   5
  -3   8 -11 3.34177 1.50928   6
  -3   8 -11 6.06306 1.81711   2
  -3   8 -11 6.78831 1.99951   5
   3  -8  11 4.58932 1.76769   5
   3   7 -11 -3.0812 1.53273   2
   3   7 -11 -0.0259 1.59482   4
   3   7 -11 -0.4833 1.49282   5
  -3  -7  11 3.79185 2.24343   7
  -3  -7  11 -1.1575 2.03407   4
   2   7 -11 1.60098 1.32379   2
   2   7 -11 -0.9115 1.37225   5
   2   7 -11 0.28520 1.47947   4
  -2  -7  11 3.79686 2.05701   7
  -2  -7  11 2.74394 2.15200   4
  -2  -7  11 8.16769 3.45046   1
   1   7 -11 15.0317 2.86357   4
   1   7 -11 13.8969 2.17190   2
   1   7 -11 12.0857 2.33076   5
  -1  -7  11 13.6745 2.92307   4
  -1  -7  11 17.9131 4.48854   1
   0   7 -11 4.69802 1.66396   5
   0   7 -11 4.86391 1.40932   2
   0  -7  11 4.44535 2.09703   4
   0  -7  11 10.4232 3.42996   1
  -1   7 -11 18.7923 2.50841   2
  -1   7 -11 16.9715 2.53737   5
   1  -7  11 18.2373 2.93030   4
   1  -7  11 21.6972 4.54084   1
   1  -7  11 15.0027 2.40064   5
  -2   7 -11 4.01375 1.34234   6
  -2   7 -11 3.20231 1.41945   2
  -2   7 -11 2.29539 1.42085   5
   2  -7  11 4.62469 1.54727   5
   2  -7  11 4.34837 1.62731   4
  -3   7 -11 1.78995 1.39376   2
  -3   7 -11 0.09977 1.30561   6
   3  -7  11 1.73673 1.18883   2
   3  -7  11 5.06705 1.60045   4
   3  -7  11 1.33332 1.21340   5
  -4   7 -11 -0.7544 1.42120   6
  -4   7 -11 -0.3667 1.36136   2
   4  -7  11 0.51391 1.33563   2
   4  -7  11 2.25007 1.40814   5
   3   6 -11 -0.1324 1.47868   4
   3   6 -11 -1.5171 1.29213   5
  -3  -6  11 1.83948 2.23158   4
  -3  -6  11 2.93395 2.19051   7
  -3  -6  11 3.64536 2.97136   1
   2   6 -11 30.6554 2.82811   2
   2   6 -11 33.8679 3.73320   4
   2   6 -11 31.7735 3.31555   5
  -2  -6  11 35.6580 5.47325   1
  -2  -6  11 28.6677 3.72697   4
  -2  -6  11 31.6924 4.05611   7
   1   6 -11 18.5234 3.02619   4
   1   6 -11 19.8471 2.72213   5
   1   6 -11 16.1380 2.13775   2
  -1  -6  11 19.4532 3.23280   4
  -1  -6  11 23.4418 5.12837   1
  -1  -6  11 15.4864 2.91765   7
   0   6 -11 1.35121 1.13450   2
   0   6 -11 3.11513 1.28786   5
   0  -6  11 1.16123 1.68805   4
   0  -6  11 3.09043 2.76316   1
  -1   6 -11 0.33676 0.97800   6
  -1   6 -11 1.35999 1.11009   5
  -1   6 -11 0.81691 1.06436   2
   1  -6  11 2.78507 1.63733   4
   1  -6  11 2.01050 2.30610   1
   1  -6  11 2.36522 1.30587   5
  -2   6 -11 2.36324 1.28615   5
  -2   6 -11 3.77568 1.25392   6
  -2   6 -11 2.55154 1.31119   2
   2  -6  11 2.85027 1.31949   5
   2  -6  11 1.99996 1.41559   4
  -3   6 -11 1.91688 1.37821   2
  -3   6 -11 0.03379 1.10538   6
   3  -6  11 3.28209 1.44511   4
   3  -6  11 3.50064 1.41353   2
   3  -6  11 2.87576 1.31103   5
  -4   6 -11 -0.0094 1.36077   2
  -4   6 -11 -0.2881 1.28700   6
   4  -6  11 -0.4677 1.21984   2
   4  -6  11 1.43978 1.19762   5
   4   5 -11 4.96938 2.07211   4
   4   5 -11 3.50555 1.93830   5
  -4  -5  11 6.79398 3.05660   7
   3   5 -11 1.22755 1.53170   4
   3   5 -11 1.83189 1.51683   5
  -3  -5  11 5.98056 2.77043   7
  -3  -5  11 0.80774 1.96714   4
  -3  -5  11 6.77082 3.38796   1
   2   5 -11 33.3613 3.60491   4
   2   5 -11 31.6050 3.08345   5
   2   5 -11 27.3367 2.56294   2
  -2  -5  11 33.3847 5.31157   1
  -2  -5  11 28.5814 3.67250   4
  -2  -5  11 31.8731 4.05316   7
   1   5 -11 5.87638 1.34159   2
   1   5 -11 5.78670 1.55675   5
   1   5 -11 5.90735 1.94281   4
  -1  -5  11 4.57374 2.00202   7
  -1  -5  11 6.42539 2.10401   4
  -1  -5  11 9.69983 3.68684   1
   0   5 -11 2.93847 1.48071   4
   0   5 -11 2.67059 1.20247   5
   0   5 -11 3.94119 1.19683   2
   0  -5  11 1.54136 1.68513   4
   0  -5  11 5.32500 1.83080   7
   0  -5  11 6.92916 3.06064   1
  -1   5 -11 -0.0505 0.89107   5
  -1   5 -11 0.06886 0.76185   6
  -1   5 -11 0.22883 0.81496   2
   1  -5  11 0.58658 1.25700   4
   1  -5  11 0.11273 1.01081   5
   1  -5  11 -0.4582 1.88866   1
  -2   5 -11 17.0384 2.24155   2
  -2   5 -11 13.3884 1.80457   6
  -2   5 -11 19.2751 2.56092   5
   2  -5  11 15.9472 2.98562   1
   2  -5  11 14.3534 1.98332   2
   2  -5  11 19.6607 2.26058   5
   2  -5  11 16.2054 2.37268   4
  -3   5 -11 6.05701 1.72550   2
  -3   5 -11 3.77118 1.35434   6
   3  -5  11 7.84924 1.68484   5
   3  -5  11 7.47688 1.64871   4
   3  -5  11 6.87961 1.64880   2
  -4   5 -11 -0.9530 1.44055   3
  -4   5 -11 1.83929 1.58637   2
  -4   5 -11 0.57953 1.30585   6
   4  -5  11 0.98715 1.25841   2
   4  -5  11 4.02403 1.47058   5
   4   4 -11 25.3368 3.55834   4
   4   4 -11 20.4447 3.07280   5
  -4  -4  11 29.2583 4.60880   7
   3   4 -11 16.6500 3.06405   4
   3   4 -11 19.9348 2.83354   5
  -3  -4  11 31.1194 5.12287   1
  -3  -4  11 22.2919 3.91444   7
   2   4 -11 9.83675 2.27848   4
   2   4 -11 9.54769 1.91619   5
  -2  -4  11 11.4240 2.71119   4
  -2  -4  11 11.9125 3.06157   7
  -2  -4  11 11.8460 4.12074   1
   1   4 -11 4.29299 1.69449   4
   1   4 -11 2.53070 1.12440   5
   1   4 -11 3.59231 1.04720   2
  -1  -4  11 3.68622 1.77237   4
  -1  -4  11 4.81383 2.03537   7
  -1  -4  11 5.43425 2.97021   1
   0   4 -11 17.1136 2.70430   4
   0   4 -11 12.8947 1.69177   2
   0   4 -11 16.5548 2.05644   5
   0  -4  11 19.3477 3.78576   1
   0  -4  11 16.9125 2.74540   4
   0  -4  11 15.1077 2.53032   7
  -1   4 -11 3.18679 0.98188   6
  -1   4 -11 4.90425 1.19017   2
  -1   4 -11 7.19385 1.60629   5
   1  -4  11 9.57055 3.09455   1
   1  -4  11 5.22486 1.86313   7
   1  -4  11 6.11490 1.81951   4
   1  -4  11 5.32428 1.37262   5
  -2   4 -11 1.57770 0.88006   3
  -2   4 -11 2.58624 1.25619   5
  -2   4 -11 1.81910 1.08610   2
  -2   4 -11 2.43836 1.06313   6
   2  -4  11 2.04580 1.20340   4
   2  -4  11 3.12284 1.05680   2
   2  -4  11 2.22317 1.03424   5
   2  -4  11 2.93776 1.63986   1
  -3   4 -11 8.80044 1.61604   3
  -3   4 -11 10.8597 1.86785   6
  -3   4 -11 9.73047 1.92735   2
   3  -4  11 17.7677 2.39247   4
   3  -4  11 11.4308 1.91587   5
   3  -4  11 9.66692 1.76277   2
  -4   4 -11 3.30613 1.55155   3
  -4   4 -11 4.73083 1.58142   6
  -4   4 -11 4.91571 1.77468   2
   4  -4  11 4.66087 1.57439   2
   4  -4  11 5.29616 1.50953   5
   4   3 -11 14.5045 2.62300   5
   4   3 -11 14.0492 2.92571   4
  -4  -3  11 16.5241 3.88000   7
   3   3 -11 11.8389 2.20609   5
   3   3 -11 10.9991 2.53923   4
  -3  -3  11 20.0678 4.80203   1
  -3  -3  11 11.0333 3.42623   7
   2   3 -11 0.26251 1.01005   5
   2   3 -11 2.73555 1.44942   4
  -2  -3  11 1.92386 1.79446   4
  -2  -3  11 2.06516 2.16093   7
  -2  -3  11 4.21369 2.74677   1
   1   3 -11 41.1834 3.04359   5
   1   3 -11 43.0021 2.53971   2
   1   3 -11 42.9922 3.61297   4
  -1  -3  11 44.4609 4.02849   7
  -1  -3  11 50.3904 5.31016   1
  -1  -3  11 44.7004 3.75875   4
   0   3 -11 8.25006 1.36993   2
   0   3 -11 11.9654 2.33972   4
   0   3 -11 9.96148 1.68393   5
   0  -3  11 13.6109 3.62398   1
   0  -3  11 12.7109 2.56683   7
   0  -3  11 9.91526 2.15408   4
  -1   3 -11 2.84108 0.82682   3
  -1   3 -11 3.26064 1.07731   5
  -1   3 -11 1.97921 0.85155   6
  -1   3 -11 2.26169 0.95260   2
  -1   3 -11 2.71858 1.30874   4
   1  -3  11 2.02201 1.03162   5
   1  -3  11 2.39753 1.62532   7
   1  -3  11 3.68703 2.19629   1
   1  -3  11 2.85305 0.81005   6
   1  -3  11 3.06473 1.44761   4
   1  -3  11 3.49442 0.97587   3
   1  -3  11 2.07403 0.83249   2
  -2   3 -11 1.66243 1.03105   7
  -2   3 -11 0.20314 0.71575   3
  -2   3 -11 2.01553 1.15182   1
  -2   3 -11 1.66684 0.99962   5
  -2   3 -11 -0.0756 0.87197   2
  -2   3 -11 0.94438 0.91905   6
   2  -3  11 0.86798 0.84143   2
   2  -3  11 -0.6527 1.49366   7
   2  -3  11 1.80817 1.54116   1
   2  -3  11 -0.0819 0.61240   6
   2  -3  11 1.83195 1.11009   4
   2  -3  11 0.85912 0.85142   5
  -3   3 -11 1.08102 1.11264   6
  -3   3 -11 0.08988 0.92017   3
  -3   3 -11 0.01210 1.01810   2
   3  -3  11 1.26509 0.90351   5
   3  -3  11 0.37607 0.88640   2
   3  -3  11 0.66279 0.82340   6
  -4   3 -11 2.11967 1.47284   2
  -4   3 -11 2.70169 1.59791   6
  -4   3 -11 0.87664 1.30808   3
   4  -3  11 1.69872 1.35243   2
   4  -3  11 0.24426 1.09404   6
   4  -3  11 2.67171 1.21250   5
   4   2 -11 14.0772 2.42911   5
   4   2 -11 13.4215 2.87043   4
  -4  -2  11 14.7956 3.71760   7
   3   2 -11 -0.2612 1.29362   4
   3   2 -11 -0.4489 0.99326   5
  -3  -2  11 3.67257 3.03619   1
  -3  -2  11 1.85716 2.02436   7
   2   2 -11 61.5074 3.78214   5
   2   2 -11 59.6657 4.38769   4
  -2  -2  11 69.2950 6.31175   1
  -2  -2  11 54.5458 5.04420   7
   1   2 -11 1.92735 0.98916   2
   1   2 -11 1.98758 1.07518   5
   1   2 -11 1.79945 1.20985   4
  -1  -2  11 3.32826 2.48557   1
  -1  -2  11 2.91055 1.54460   4
  -1  -2  11 3.16487 1.86274   7
  -1  -2  11 0.89889 0.90151   3
   0   2 -11 3.16498 1.36217   4
   0   2 -11 2.61266 0.80403   2
   0   2 -11 3.87367 1.15195   5
   0  -2  11 3.81830 1.61615   4
   0  -2  11 3.30513 0.99177   3
   0  -2  11 6.17734 2.64141   1
   0  -2  11 3.85630 1.74590   7
  -1   2 -11 2.18561 1.49076   1
  -1   2 -11 0.94477 0.71559   5
  -1   2 -11 0.09902 0.91975   4
  -1   2 -11 3.10877 1.20223   7
  -1   2 -11 0.25061 0.68278   6
  -1   2 -11 1.33332 0.80747   2
  -1   2 -11 1.14400 0.73417   3
   1  -2  11 1.19771 0.91510   3
   1  -2  11 1.51398 0.88286   5
   1  -2  11 1.46779 1.68621   7
   1  -2  11 1.42151 1.71919   1
   1  -2  11 0.78020 0.63723   6
   1  -2  11 0.66319 0.71678   2
   1  -2  11 1.44888 1.12952   4
  -2   2 -11 10.1975 1.68450   2
  -2   2 -11 9.58651 1.53988   3
  -2   2 -11 9.04157 1.86690   4
  -2   2 -11 9.91139 2.08076   7
  -2   2 -11 7.84435 1.50656   5
  -2   2 -11 10.6731 2.14509   1
  -2   2 -11 7.55952 1.39336   6
   2  -2  11 7.78029 2.31902   1
   2  -2  11 8.39371 1.53188   3
   2  -2  11 9.62500 1.87055   4
   2  -2  11 5.58945 1.16464   6
   2  -2  11 8.15366 1.50676   2
   2  -2  11 9.33134 1.50192   5
   2  -2  11 9.25431 2.45161   7
  -3   2 -11 13.4203 1.98260   3
  -3   2 -11 14.3940 2.06835   6
  -3   2 -11 16.3591 2.86831   7
   3  -2  11 15.1909 1.82129   5
   3  -2  11 14.0532 2.08956   2
   3  -2  11 13.0958 1.82133   6
  -4   2 -11 0.64560 1.27884   6
  -4   2 -11 -0.4227 1.14391   3
   4  -2  11 -0.6746 1.01547   2
   4  -2  11 1.63347 1.11720   5
   4  -2  11 1.47640 1.13099   6
   4   1 -11 6.90206 1.85422   5
   4   1 -11 7.68926 2.27013   4
  -4  -1  11 8.52097 3.04910   7
   3   1 -11 10.7816 1.99922   5
   3   1 -11 14.4272 2.74854   4
  -3  -1  11 13.3143 2.44303   3
  -3  -1  11 12.2580 3.19962   7
  -3  -1  11 21.5596 4.99707   1
   2   1 -11 66.9002 4.60661   4
   2   1 -11 75.6653 4.01264   5
  -2  -1  11 71.8754 6.39833   1
  -2  -1  11 69.8510 3.63476   3
  -2  -1  11 60.2881 5.25005   7
   1   1 -11 2.96076 1.31108   4
   1   1 -11 2.76895 0.96804   5
  -1  -1  11 1.84656 1.03047   3
  -1  -1  11 3.19454 2.62218   1
  -1  -1  11 1.57780 1.75548   7
   0   1 -11 2.77039 1.22830   4
   0   1 -11 1.20232 1.75339   1
   0   1 -11 1.20860 0.64400   2
   0   1 -11 2.12984 0.85368   5
   0   1 -11 2.05233 0.69259   6
   0  -1  11 1.09246 0.60476   6
   0  -1  11 2.33979 2.09648   1
   0  -1  11 2.87223 1.45950   4
   0  -1  11 1.87069 0.90400   3
   0  -1  11 3.36631 1.75174   7
  -1   1 -11 7.25257 1.85804   7
  -1   1 -11 5.82334 1.15997   3
  -1   1 -11 5.59410 1.52911   4
  -1   1 -11 8.80934 1.38101   5
  -1   1 -11 5.19751 1.12036   2
  -1   1 -11 8.72617 2.46495   1
  -1   1 -11 5.59279 1.13705   6
   1  -1  11 6.78821 2.15940   7
   1  -1  11 6.66553 1.19082   2
   1  -1  11 6.51374 1.25814   5
   1  -1  11 5.50639 1.11283   6
   1  -1  11 9.14557 3.04531   1
   1  -1  11 5.69927 1.28911   3
   1  -1  11 6.33678 1.56516   4
  -2   1 -11 2.84185 1.01845   2
  -2   1 -11 0.80100 0.89872   4
  -2   1 -11 2.73405 1.49282   1
  -2   1 -11 2.74870 1.47684   7
  -2   1 -11 1.68150 0.93759   3
  -2   1 -11 0.58317 0.69047   5
  -2   1 -11 1.27281 1.02377   6
   2  -1  11 1.27476 0.83585   2
   2  -1  11 2.16121 0.94244   6
   2  -1  11 0.28444 1.86076   7
   2  -1  11 2.56532 0.88448   5
   2  -1  11 1.47308 0.99517   4
   2  -1  11 -0.2073 1.00051   3
   2  -1  11 1.71657 1.61664   1
  -3   1 -11 0.15841 1.02950   6
  -3   1 -11 0.90274 0.93137   3
  -3   1 -11 0.29786 1.40875   7
   3  -1  11 0.58736 0.69186   5
   3  -1  11 0.19584 0.86528   6
   3  -1  11 -0.0975 0.75935   2
  -4   1 -11 0.47613 1.26188   3
  -4   1 -11 1.48248 1.44661   6
   4  -1  11 1.12997 1.16761   2
   4  -1  11 1.41991 1.12845   6
   4   0 -11 2.09346 1.33575   5
   4   0 -11 6.31839 2.71321   1
   4   0 -11 3.47824 1.70840   4
  -4   0  11 4.80795 1.66568   3
  -4   0  11 4.90285 2.48082   7
  -4   0  11 10.7475 4.19156   1
   3   0 -11 4.80050 1.51044   5
   3   0 -11 2.30164 1.50121   4
   3   0 -11 6.43738 2.71215   1
  -3   0  11 5.94599 1.54336   3
  -3   0  11 3.18994 2.29069   7
  -3   0  11 6.03020 3.82721   1
   2   0 -11 1.83649 0.95471   5
   2   0 -11 1.48923 1.33890   4
   2   0 -11 5.74230 2.16099   1
  -2   0  11 0.60350 2.71787   1
  -2   0  11 1.29822 1.09637   3
  -2   0  11 1.72205 2.09008   7
   1   0 -11 21.0071 1.89209   5
   1   0 -11 19.2315 3.40786   1
   1   0 -11 18.6477 2.39134   4
  -1   0  11 20.3706 2.06354   3
  -1   0  11 25.5390 5.03752   1
  -1   0  11 21.4826 3.62262   7
   0   0 -11 13.4220 3.10377   1
   0   0 -11 14.0432 1.48805   5
   0   0 -11 16.8770 1.90147   2
   0   0 -11 14.4458 2.03314   4
   0   0  11 14.0438 1.76965   3
   0   0  11 13.7755 2.82847   7
   0   0  11 18.4517 3.97292   1
   0   0  11 11.2140 1.27102   6
  -1   0 -11 64.1103 3.28721   2
  -1   0 -11 67.8675 5.14685   1
  -1   0 -11 70.2758 4.54971   7
  -1   0 -11 72.9330 4.06361   4
  -1   0 -11 65.9494 3.35923   5
   1   0  11 73.7379 3.77575   3
   1   0  11 64.7950 3.33807   5
   1   0  11 70.0540 4.02173   4
   1   0  11 67.4922 3.39670   6
   1   0  11 74.4139 5.69992   1
   1   0  11 73.2564 5.10540   7
   1   0  11 67.0989 3.30657   2
  -2   0 -11 15.8436 1.91434   3
  -2   0 -11 14.6159 2.62304   1
  -2   0 -11 14.4108 1.63785   5
  -2   0 -11 15.8504 2.59723   7
  -2   0 -11 18.2196 2.01570   6
   2   0  11 15.1495 2.08574   3
   2   0  11 14.0978 3.16118   7
   2   0  11 16.6597 1.93288   6
   2   0  11 15.6301 1.69204   2
   2   0  11 15.5206 1.59438   5
  -3   0 -11 4.09494 1.40964   6
  -3   0 -11 6.14775 1.59337   3
  -3   0 -11 5.50912 2.24164   7
   3   0  11 5.95062 1.72836   3
   3   0  11 4.04078 1.23958   6
   3   0  11 4.94004 1.30077   2
  -4   0 -11 5.08902 1.74942   6
  -4   0 -11 5.95979 1.81024   3
  -4   0 -11 1.17487 2.56378   7
   4   0  11 5.03148 1.55605   2
   4   0  11 6.11365 1.52857   6
  -5   1  11 15.3116 5.07326   1
   4  -1 -11 3.46074 2.46582   1
   4  -1 -11 3.27675 1.73466   4
   4  -1 -11 1.78110 1.31865   5
  -4   1  11 6.48638 4.14938   1
  -4   1  11 1.65951 2.40362   7
  -4   1  11 0.64946 1.29970   3
   3  -1 -11 7.68016 1.61116   5
   3  -1 -11 9.56234 3.15791   1
   3  -1 -11 9.07186 2.33048   4
  -3   1  11 9.92713 1.87288   3
  -3   1  11 11.3780 3.43515   7
  -3   1  11 11.8929 4.70215   1
   2  -1 -11 70.2552 3.71823   5
   2  -1 -11 71.1893 4.62150   4
   2  -1 -11 75.0443 6.01615   1
  -2   1  11 60.8963 5.25576   7
  -2   1  11 74.9955 3.96466   3
  -2   1  11 68.0240 6.48250   1
   1  -1 -11 1.50455 1.13237   4
   1  -1 -11 1.65476 0.78317   5
   1  -1 -11 0.07195 1.48322   1
  -1   1  11 0.43954 1.00488   3
  -1   1  11 0.22987 1.74647   7
  -1   1  11 0.94823 2.40493   1
   0  -1 -11 4.64866 2.13862   1
   0  -1 -11 3.39626 0.92463   5
   0  -1 -11 5.48846 1.53170   4
   0   1  11 2.20810 0.77149   6
   0   1  11 4.22315 2.47551   1
   0   1  11 4.59226 2.30601   7
   0   1  11 5.03951 1.32322   3
  -1  -1 -11 83.3677 5.20957   7
  -1  -1 -11 86.0466 5.95454   1
  -1  -1 -11 98.5610 5.28061   5
  -1  -1 -11 79.0934 4.37149   4
   1   1  11 76.7772 3.64478   2
   1   1  11 84.6810 4.29853   3
   1   1  11 85.7150 3.95796   6
   1   1  11 78.8262 5.58269   7
  -2  -1 -11 4.03543 1.96935   1
  -2  -1 -11 5.75129 1.38671   3
  -2  -1 -11 5.82328 2.14560   7
   2   1  11 3.05151 1.43578   3
   2   1  11 5.48044 1.28600   6
   2   1  11 4.57956 1.09001   2
  -3  -1 -11 4.19628 2.29766   7
  -3  -1 -11 7.06320 1.60433   3
   3   1  11 7.38048 1.53489   2
   3   1  11 4.70286 1.62790   3
   3   1  11 5.86390 1.52542   6
  -4  -1 -11 1.79048 2.75133   7
  -4  -1 -11 8.00726 1.90360   3
  -4  -1 -11 7.93713 1.89294   6
   4   1  11 7.28000 1.65932   2
   4   1  11 4.78166 1.59133   6
   5  -2 -11 4.28218 2.54753   1
  -5   2  11 4.53206 4.97485   1
   4  -2 -11 -0.9501 1.07810   5
   4  -2 -11 1.92641 2.24844   1
   4  -2 -11 0.27421 1.49312   4
  -4   2  11 0.76485 1.40637   3
  -4   2  11 -1.4329 3.72452   1
  -4   2  11 1.91574 2.93767   7
   3  -2 -11 5.69154 1.89684   4
   3  -2 -11 6.43266 2.85874   1
   3  -2 -11 4.59187 1.30622   5
  -3   2  11 5.13322 1.60529   3
  -3   2  11 5.07352 3.98160   1
  -3   2  11 4.51335 2.52564   7
   2  -2 -11 2.14202 0.94353   5
   2  -2 -11 0.84401 1.15551   4
   2  -2 -11 4.02357 2.33388   1
  -2   2  11 3.82176 1.36950   3
  -2   2  11 1.41804 1.92528   7
  -2   2  11 0.92280 2.99471   1
   1  -2 -11 89.1477 4.96361   4
   1  -2 -11 84.9009 3.90653   5
   1  -2 -11 87.8699 6.38154   1
  -1   2  11 83.7548 6.75544   1
  -1   2  11 83.7113 5.86721   7
  -1   2  11 86.2710 4.42285   3
   0  -2 -11 66.4290 4.01707   4
   0  -2 -11 66.7919 5.50151   1
   0   2  11 63.2328 3.20727   6
   0   2  11 72.7768 5.99148   1
   0   2  11 63.6533 5.09186   7
   0   2  11 62.3647 3.71022   3
  -1  -2 -11 13.3424 1.86620   4
  -1  -2 -11 14.1468 2.78612   7
  -1  -2 -11 14.7809 3.31994   1
   1   2  11 17.3425 2.22266   3
   1   2  11 13.0962 1.67752   6
   1   2  11 14.2604 3.19238   7
  -2  -2 -11 19.5689 3.06654   7
  -2  -2 -11 21.2447 2.17514   3
  -2  -2 -11 17.6122 3.18480   1
   2   2  11 16.4961 1.71937   2
   2   2  11 21.0990 2.28690   6
   2   2  11 21.4228 2.66060   3
  -3  -2 -11 9.36138 1.86992   3
  -3  -2 -11 7.65156 2.88026   7
   3   2  11 11.3781 1.92432   6
   3   2  11 8.33335 1.58979   2
   3   2  11 12.0458 2.14697   3
  -4  -2 -11 1.01603 1.37022   6
  -4  -2 -11 -2.8731 2.19292   7
  -4  -2 -11 1.27118 1.37755   3
   4   2  11 2.07099 1.24491   2
   4   2  11 -1.7876 1.14327   6
   4  -3 -11 2.38811 1.70847   4
   4  -3 -11 2.76515 2.30665   1
   4  -3 -11 3.09148 1.53786   5
  -4   3  11 4.71590 3.00246   7
  -4   3  11 5.98136 1.84052   3
  -4   3  11 2.90407 4.73436   1
   3  -3 -11 2.42170 2.28171   1
   3  -3 -11 2.01206 1.60337   4
   3  -3 -11 1.79287 1.07712   5
  -3   3  11 1.70282 1.38899   3
  -3   3  11 2.25955 3.63768   1
  -3   3  11 4.18474 2.51388   7
   2  -3 -11 1.16365 1.29646   4
   2  -3 -11 0.72458 1.80153   1
  -2   3  11 2.91790 1.32493   3
  -2   3  11 0.28238 2.96065   1
  -2   3  11 1.33031 1.97952   7
   1  -3 -11 60.3625 3.99457   4
   1  -3 -11 55.1652 5.22009   1
  -1   3  11 64.3109 4.25127   6
  -1   3  11 56.1179 4.90919   7
  -1   3  11 56.3647 3.60742   3
   0  -3 -11 20.0213 2.68053   7
   0  -3 -11 20.1674 2.27453   4
   0  -3 -11 19.2546 3.50322   1
   0   3  11 23.2181 4.03512   7
   0   3  11 17.9946 1.79815   6
   0   3  11 20.8351 2.51710   3
  -1  -3 -11 26.7002 3.98073   1
  -1  -3 -11 31.0636 2.46242   4
  -1  -3 -11 29.4839 3.42191   7
   1   3  11 29.3870 2.39054   6
   1   3  11 31.8166 2.80629   3
   1   3  11 25.8940 4.03302   7
  -2  -3 -11 13.1285 3.20981   1
  -2  -3 -11 12.3359 1.84431   3
  -2  -3 -11 12.1201 2.92354   7
   2   3  11 12.5212 1.88109   6
   2   3  11 14.3750 2.20920   3
   2   3  11 9.68693 1.46271   2
  -3  -3 -11 5.73236 2.73676   7
  -3  -3 -11 12.4028 2.15250   3
   3   3  11 8.73603 1.70641   6
   3   3  11 12.8605 2.37471   3
   3   3  11 9.29443 1.65481   2
  -4  -3 -11 -0.8632 1.23283   3
  -4  -3 -11 -2.9868 2.53735   7
   4   3  11 -1.0134 1.26035   6
   4   3  11 0.48040 1.20955   2
   4  -4 -11 0.35736 1.59696   4
   4  -4 -11 1.26580 2.17735   1
  -4   4  11 3.34975 3.02485   7
  -4   4  11 0.13433 1.40356   3
   3  -4 -11 9.91110 3.20154   1
   3  -4 -11 7.93424 2.13918   4
  -3   4  11 11.0820 3.47215   7
  -3   4  11 8.26782 2.10506   3
   2  -4 -11 11.3532 2.29210   4
   2  -4 -11 13.4149 3.44056   1
  -2   4  11 11.4337 3.20153   7
  -2   4  11 13.2727 2.16894   3
   1  -4 -11 -0.2747 1.02870   4
   1  -4 -11 0.19963 1.58057   1
  -1   4  11 0.83371 1.24899   3
  -1   4  11 0.85518 2.02956   7
  -1   4  11 -0.1850 0.69534   6
   0  -4 -11 6.15558 1.93349   7
   0  -4 -11 3.04295 2.17943   1
   0  -4 -11 3.13732 1.30622   4
   0   4  11 3.90878 1.11344   6
   0   4  11 5.26925 2.49811   7
   0   4  11 5.47871 1.58286   3
  -1  -4 -11 2.74201 1.86223   7
  -1  -4 -11 1.63912 2.19225   1
   1   4  11 1.27499 2.28174   7
   1   4  11 3.34214 1.48677   3
   1   4  11 3.23822 1.07837   6
  -2  -4 -11 -0.1665 2.00152   1
  -2  -4 -11 4.07796 1.26726   3
  -2  -4 -11 2.40248 2.12552   7
   2   4  11 1.91451 1.50204   3
   2   4  11 3.27614 1.30582   6
  -3  -4 -11 9.27776 2.00638   3
  -3  -4 -11 3.39695 2.45194   7
   3   4  11 6.79086 1.54329   2
   3   4  11 8.68179 1.80196   6
   3   4  11 7.96128 2.21023   3
   4  -5 -11 0.13630 1.87234   4
   4  -5 -11 1.78909 2.59517   1
  -4   5  11 1.35539 3.06799   7
  -4   5  11 2.20314 1.64026   3
   3  -5 -11 16.2061 2.95272   4
   3  -5 -11 24.4880 4.35245   1
  -3   5  11 20.3837 3.10422   3
  -3   5  11 23.0076 4.60733   7
   2  -5 -11 -0.2517 1.21905   4
   2  -5 -11 0.33478 1.99879   1
  -2   5  11 2.08928 1.50192   3
  -2   5  11 -1.7652 2.12898   7
   1  -5 -11 -0.1537 1.77801   1
   1  -5 -11 -0.5660 1.07139   4
  -1   5  11 -0.0325 1.95510   7
  -1   5  11 0.72845 1.34402   3
  -1   5  11 0.46658 0.87372   6
   0  -5 -11 7.79583 2.21935   7
   0  -5 -11 5.58686 2.78085   1
   0  -5 -11 6.12513 1.63935   4
   0   5  11 3.40001 2.63986   7
   0   5  11 3.58224 1.16897   6
   0   5  11 4.72411 1.65234   3
  -1  -5 -11 21.4362 3.26211   7
  -1  -5 -11 16.2369 3.93231   1
   1   5  11 22.5731 4.49064   7
   1   5  11 22.6367 2.30778   6
   1   5  11 23.7732 2.76622   3
  -2  -5 -11 -2.4145 2.11348   1
  -2  -5 -11 0.81473 1.72495   7
  -2  -5 -11 1.27577 1.05510   3
   2   5  11 -0.6010 1.36900   3
   2   5  11 0.28021 1.09825   6
  -3  -5 -11 4.19835 1.66304   3
  -3  -5 -11 0.82856 2.31256   7
   3   5  11 1.14797 1.65251   3
   4  -6 -11 0.28952 2.28813   4
   4  -6 -11 4.40454 3.00879   1
  -4   6  11 6.86895 2.16171   3
  -4   6  11 8.80943 3.87076   7
   3  -6 -11 53.6746 5.90079   1
   3  -6 -11 44.1920 4.38130   4
  -3   6  11 47.1824 5.71403   7
  -3   6  11 40.0345 4.04022   3
   2  -6 -11 0.33999 2.16913   1
   2  -6 -11 -1.9618 1.19492   4
  -2   6  11 -0.9753 2.22681   7
  -2   6  11 -0.9001 1.31569   3
   1  -6 -11 10.9920 3.56188   1
   1  -6 -11 16.0234 2.57635   7
   1  -6 -11 5.95529 1.93970   4
  -1   6  11 11.3479 1.75842   6
  -1   6  11 8.27896 3.12452   7
  -1   6  11 7.95982 2.05362   3
   0  -6 -11 4.82825 2.00718   7
   0  -6 -11 3.00378 2.58842   1
   0  -6 -11 0.87760 1.34960   4
   0   6  11 3.42130 1.22035   6
   0   6  11 0.06796 2.36892   7
   0   6  11 3.66361 1.60391   3
  -1  -6 -11 -1.9824 1.98520   1
  -1  -6 -11 0.91483 1.73845   7
   1   6  11 -0.3296 1.01168   6
   1   6  11 -0.6406 1.33483   3
  -2  -6 -11 1.92124 1.18843   3
  -2  -6 -11 -3.4099 1.96540   1
  -2  -6 -11 0.09139 1.74743   7
   2   6  11 0.75130 1.12587   6
   2   6  11 -1.0662 1.40681   3
  -3  -6 -11 4.34136 3.35011   7
  -3  -6 -11 8.80282 1.99518   3
   3   6  11 5.92748 2.26474   3
   3   6  11 6.46646 1.85760   6
   3  -7 -11 -1.2079 2.56875   1
   3  -7 -11 -2.7608 1.80429   4
  -3   7  11 -2.1368 2.64986   7
  -3   7  11 -2.1188 1.52893   3
   2  -7 -11 -0.7189 2.38725   1
   2  -7 -11 -0.1266 1.75804   4
  -2   7  11 0.39342 1.63560   3
  -2   7  11 -0.1463 2.83248   7
   1  -7 -11 -0.3344 1.57723   4
   1  -7 -11 3.55999 2.89826   1
  -1   7  11 4.12689 1.31075   6
  -1   7  11 2.38872 1.74399   3
  -1   7  11 0.69856 2.59490   7
   0  -7 -11 -0.6264 2.29793   1
   0  -7 -11 5.41546 2.33966   7
   0   7  11 -1.3319 2.55769   7
   0   7  11 0.74533 1.43807   3
   0   7  11 0.00331 0.98623   6
  -1  -7 -11 1.85971 2.91452   1
  -1  -7 -11 1.44574 1.98408   7
   1   7  11 1.43673 1.25646   6
   1   7  11 2.20282 1.65089   3
  -2  -7 -11 0.83726 1.10429   3
  -2  -7 -11 -1.5367 2.01534   7
  -2  -7 -11 -2.8235 2.55602   1
   2   7  11 0.84699 1.27644   6
   2   7  11 -1.2175 1.49242   3
   3  -8 -11 3.65541 3.34052   1
   3  -8 -11 -0.5145 2.44331   4
  -3   8  11 8.32082 2.47490   3
  -3   8  11 1.69444 3.20111   7
   2  -8 -11 4.22779 2.48501   4
   2  -8 -11 9.31647 3.94462   1
  -2   8  11 8.27558 2.27126   3
  -2   8  11 9.45711 3.93800   7
   1  -8 -11 8.06712 3.63207   1
   1  -8 -11 3.58466 2.23256   4
  -1   8  11 4.33659 3.49503   7
  -1   8  11 9.65232 1.85012   6
  -1   8  11 7.02356 2.22434   3
   0  -8 -11 2.27264 1.68358   7
   0  -8 -11 -2.2253 2.56847   1
   0   8  11 0.25774 1.57548   3
   0   8  11 0.82160 1.21467   6
  -1  -8 -11 -0.2615 2.07575   7
  -1  -8 -11 -3.3126 2.69583   1
   1   8  11 -0.8401 1.09465   6
   1   8  11 -1.7045 1.41739   3
  -2  -8 -11 -3.1856 3.26742   1
   2  -9 -11 -0.9568 2.52361   4
   2  -9 -11 7.59511 4.25296   1
  -2   9  11 4.86644 3.68719   7
  -2   9  11 8.38310 2.37954   3
   1  -9 -11 -1.5762 3.31357   1
  -1   9  11 0.70092 1.25780   6
  -1   9  11 0.12544 3.49185   7
  -1   9  11 0.36772 1.77328   3
   0  -9 -11 3.80494 2.15438   7
   0  -9 -11 -3.2164 3.11329   1
   0   9  11 0.12601 1.72423   3
   0   9  11 1.84059 1.40523   6
  -1  -9 -11 -3.2737 3.29201   1
   0 -10  12 36.1666 4.60274   1
   1 -10  12 54.0204 4.60360   1
   1   9 -12 4.87577 2.09033   5
   1   9 -12 6.54602 2.34039   4
   1   9 -12 3.30249 1.81582   2
  -1  -9  12 7.07289 2.68511   4
  -1  -9  12 13.8815 4.08226   1
   0   9 -12 60.9063 4.67599   5
   0   9 -12 57.3429 4.24923   2
   0  -9  12 64.3655 5.35237   4
   0  -9  12 69.5621 6.70030   1
  -1   9 -12 1.25693 1.61330   5
  -1   9 -12 1.33534 1.45723   2
   1  -9  12 3.88789 1.74522   4
   1  -9  12 0.02628 1.51856   5
  -2   9 -12 1.02818 1.60721   5
  -2   9 -12 -0.0019 1.49586   2
   2  -9  12 1.23663 1.79053   5
   2  -9  12 6.03122 1.92154   4
   2   8 -12 9.95934 2.80485   4
   2   8 -12 7.21055 2.03227   2
   2   8 -12 9.27825 2.50661   5
  -2  -8  12 11.1728 3.28588   4
   1   8 -12 12.2806 2.28026   2
   1   8 -12 13.5610 2.99920   4
   1   8 -12 14.3941 2.69213   5
  -1  -8  12 18.7080 3.52826   4
   0   8 -12 1.48663 1.30478   2
   0   8 -12 2.79412 1.65277   5
   0  -8  12 3.04935 2.13808   4
  -1   8 -12 2.80127 1.51581   2
  -1   8 -12 1.70082 1.45796   5
   1  -8  12 1.89192 1.66403   5
   1  -8  12 5.54495 1.92707   4
  -2   8 -12 4.53467 1.65622   2
  -2   8 -12 6.30200 1.94720   5
   2  -8  12 6.55320 2.01391   5
   2  -8  12 6.29488 1.88870   4
  -3   8 -12 1.54747 1.49145   6
  -3   8 -12 1.04954 1.46396   2
  -3   8 -12 0.92793 1.48308   5
   3  -8  12 -0.1842 1.30787   5
   3  -8  12 4.22026 1.56730   4
   2   7 -12 1.45933 1.74830   5
   2   7 -12 1.74355 1.67343   4
   2   7 -12 3.06923 1.58088   2
  -2  -7  12 3.33222 2.38672   4
  -2  -7  12 7.29221 3.60561   1
  -2  -7  12 5.79619 2.39552   7
   1   7 -12 2.53937 1.41695   2
   1   7 -12 2.70228 1.67160   4
   1   7 -12 2.58111 1.59025   5
  -1  -7  12 1.94809 2.14414   4
  -1  -7  12 7.11738 3.63892   1
   0   7 -12 4.85012 1.47255   2
   0   7 -12 4.63098 1.76449   5
   0  -7  12 14.1155 4.24987   1
   0  -7  12 6.41669 2.33557   4
  -1   7 -12 6.05057 1.82486   5
  -1   7 -12 6.60027 1.68001   2
   1  -7  12 5.17025 1.76618   5
   1  -7  12 14.7544 3.77463   1
   1  -7  12 7.35193 2.18340   4
  -2   7 -12 4.97856 1.49159   6
  -2   7 -12 10.0102 2.15064   5
  -2   7 -12 7.48422 1.84968   2
   2  -7  12 8.10537 2.05437   4
   2  -7  12 10.4697 2.15590   5
  -3   7 -12 0.30751 1.30134   2
  -3   7 -12 0.23164 1.22071   5
  -3   7 -12 -1.3605 1.20996   6
   3  -7  12 3.08555 1.37151   4
   3  -7  12 1.58615 1.22877   5
   3   6 -12 4.25222 2.11453   4
   3   6 -12 2.87608 1.83571   5
  -3  -6  12 8.67859 2.89208   7
  -3  -6  12 -0.0755 2.30819   4
  -3  -6  12 13.0940 4.32713   1
   2   6 -12 6.40399 2.00138   5
   2   6 -12 7.18864 2.46485   4
  -2  -6  12 8.20220 2.80911   4
  -2  -6  12 14.5652 4.53518   1
  -2  -6  12 7.12813 2.61214   7
   1   6 -12 1.47369 1.49046   4
   1   6 -12 0.84355 1.21113   5
   1   6 -12 0.57196 1.14645   2
  -1  -6  12 5.68934 3.52314   1
  -1  -6  12 1.38406 1.87596   4
  -1  -6  12 2.15145 1.79925   7
   0   6 -12 6.88732 1.56941   2
   0   6 -12 6.38459 1.76072   5
   0   6 -12 5.88206 2.14158   4
   0  -6  12 7.93314 3.57663   1
   0  -6  12 8.17497 2.45185   4
  -1   6 -12 8.75895 1.72001   2
  -1   6 -12 14.3373 2.34405   5
   1  -6  12 10.0413 2.26885   4
   1  -6  12 12.1276 2.06203   5
   1  -6  12 18.8714 4.43829   1
  -2   6 -12 -0.5176 1.02189   5
  -2   6 -12 0.09805 1.04970   2
  -2   6 -12 -1.0384 0.96374   6
   2  -6  12 1.24688 1.19559   5
   2  -6  12 1.44753 1.33063   4
  -3   6 -12 1.03882 1.18639   6
  -3   6 -12 2.44642 1.45968   5
  -3   6 -12 2.74160 1.56563   2
   3  -6  12 3.63419 1.44126   5
   3  -6  12 4.81165 1.63704   4
   3  -6  12 1.20879 1.20238   2
   4  -6  12 0.14862 1.43707   2
   3   5 -12 3.57500 1.94568   4
   3   5 -12 2.04846 1.62420   5
  -3  -5  12 11.8631 4.12953   1
  -3  -5  12 6.77948 2.69218   7
   2   5 -12 1.80618 1.38724   5
   2   5 -12 0.80200 1.51016   4
  -2  -5  12 -0.5132 1.80284   4
  -2  -5  12 2.96361 2.07513   7
  -2  -5  12 5.38498 3.49937   1
   1   5 -12 1.41353 1.04929   2
   1   5 -12 1.88313 1.21774   5
   1   5 -12 0.13975 1.37220   4
  -1  -5  12 2.86356 3.06450   1
  -1  -5  12 0.22814 1.64887   7
  -1  -5  12 2.29190 1.86155   4
   0   5 -12 1.21074 1.12398   5
   0   5 -12 0.80933 0.99917   2
   0   5 -12 0.57476 1.13536   4
   0  -5  12 0.16240 1.42942   4
   0  -5  12 2.27463 2.82874   1
   0  -5  12 0.45125 1.57919   7
  -1   5 -12 15.6425 2.34001   5
  -1   5 -12 17.3899 2.25022   2
   1  -5  12 20.6157 4.09121   1
   1  -5  12 18.2161 2.95410   4
   1  -5  12 14.1571 2.17764   5
  -2   5 -12 10.9037 1.89593   2
  -2   5 -12 16.8165 2.10145   6
  -2   5 -12 14.1755 2.35881   5
   2  -5  12 13.2899 1.89099   2
   2  -5  12 19.8095 2.37365   5
   2  -5  12 20.4470 2.74620   4
  -3   5 -12 0.52426 1.13316   6
  -3   5 -12 0.47164 1.31374   2
   3  -5  12 1.93801 1.14934   5
   3  -5  12 -0.7352 0.94511   2
   3  -5  12 3.39269 1.68837   4
  -4   5 -12 -0.3739 1.33362   6
  -4   5 -12 -0.1038 1.37408   2
   4  -5  12 0.01054 1.07907   5
   4  -5  12 0.83775 1.36535   2
  -4  -4  12 14.6922 4.76750   1
   3   4 -12 -0.2022 1.60848   4
   3   4 -12 -0.7100 1.25492   5
  -3  -4  12 2.82892 2.33786   7
  -3  -4  12 7.23779 3.54885   1
   2   4 -12 0.64433 1.18812   5
   2   4 -12 0.75128 1.38838   4
  -2  -4  12 1.68937 3.07428   1
  -2  -4  12 2.32891 2.03381   7
  -2  -4  12 0.68938 1.75089   4
   1   4 -12 67.8206 4.85757   4
   1   4 -12 68.6433 4.19724   5
   1   4 -12 69.2668 3.99459   2
  -1  -4  12 69.7469 5.08338   4
  -1  -4  12 65.8749 5.14861   7
  -1  -4  12 71.9918 6.67630   1
   0   4 -12 1.00230 1.03487   5
   0   4 -12 1.41575 0.99754   2
   0   4 -12 1.84183 1.31131   4
   0  -4  12 0.53497 1.47484   7
   0  -4  12 4.29824 2.69312   1
   0  -4  12 1.64637 1.47005   4
  -1   4 -12 12.1535 2.43106   4
  -1   4 -12 10.5632 1.71684   2
  -1   4 -12 15.0687 2.27306   5
   1  -4  12 12.6363 1.96501   5
   1  -4  12 13.3397 2.46034   4
   1  -4  12 16.0294 3.89015   1
   1  -4  12 12.0102 2.89182   7
  -2   4 -12 6.75661 1.38666   6
  -2   4 -12 10.4186 1.94342   5
  -2   4 -12 8.34398 3.32697   1
  -2   4 -12 7.61249 1.64149   2
   2  -4  12 10.4660 2.24721   4
   2  -4  12 10.8095 1.86657   5
   2  -4  12 8.33128 1.52897   2
  -3   4 -12 3.67488 1.30368   6
  -3   4 -12 3.41254 1.51841   2
  -3   4 -12 1.66717 1.23500   3
   3  -4  12 2.07927 1.24245   2
   3  -4  12 3.86783 1.35089   5
  -4   4 -12 1.77290 1.36159   6
  -4   4 -12 0.64710 1.45001   3
  -4   4 -12 0.63150 1.46700   2
   4  -4  12 2.72442 1.30780   5
   4  -4  12 1.74666 1.42292   2
  -4  -3  12 4.43611 2.65749   7
   3   3 -12 0.20765 1.30879   5
   3   3 -12 1.36287 1.59264   4
  -3  -3  12 10.8329 3.88141   1
  -3  -3  12 3.40369 2.23220   7
   2   3 -12 25.8152 3.29281   4
   2   3 -12 19.3511 2.72454   5
  -2  -3  12 22.8944 4.13590   7
  -2  -3  12 31.0154 5.22146   1
  -2  -3  12 22.2050 3.49961   4
   1   3 -12 12.6433 2.05658   5
   1   3 -12 16.6670 2.82487   4
  -1  -3  12 16.5371 2.93949   4
  -1  -3  12 16.6018 3.28653   7
  -1  -3  12 21.8108 5.00021   1
   0   3 -12 -0.5583 0.74966   5
   0   3 -12 -0.7511 0.88406   4
   0   3 -12 -0.2799 0.72199   2
   0  -3  12 0.18558 1.31781   4
   0  -3  12 3.00201 2.66937   1
   0  -3  12 0.08480 1.59193   7
  -1   3 -12 42.8288 3.62354   4
  -1   3 -12 45.5434 2.83248   6
  -1   3 -12 45.5575 2.89311   2
  -1   3 -12 46.6824 3.14135   5
  -1   3 -12 53.6948 3.17111   3
  -1   3 -12 43.4692 3.28324   7
   1  -3  12 44.1403 3.04937   5
   1  -3  12 46.6898 4.03763   7
   1  -3  12 51.5748 5.20223   1
   1  -3  12 48.2356 3.72405   4
   1  -3  12 41.4513 2.68951   6
  -2   3 -12 7.96930 1.63455   5
  -2   3 -12 7.06936 1.36953   3
  -2   3 -12 8.35417 1.58502   6
  -2   3 -12 12.6147 2.46815   1
  -2   3 -12 8.87722 2.00109   4
  -2   3 -12 8.47997 1.67520   2
   2  -3  12 6.97634 1.39800   2
   2  -3  12 8.94627 1.64725   5
   2  -3  12 6.28934 2.44872   1
   2  -3  12 8.13879 1.79666   4
   2  -3  12 6.71522 1.32712   6
  -3   3 -12 1.33846 1.12893   6
  -3   3 -12 3.17763 1.40011   2
  -3   3 -12 1.66915 1.19247   3
   3  -3  12 3.04793 1.19030   5
   3  -3  12 2.67616 1.13218   6
   3  -3  12 2.10285 1.17301   2
  -4   3 -12 4.90656 1.74922   3
  -4   3 -12 3.55853 1.64637   6
  -4   3 -12 6.41250 1.88670   2
   4  -3  12 5.50577 1.72797   2
   4  -3  12 3.53551 1.40475   6
   4  -3  12 7.70097 1.64394   5
   4   2 -12 6.70965 2.10426   5
   4   2 -12 8.51782 2.49613   4
  -4  -2  12 13.3010 3.32030   7
   3   2 -12 8.97125 2.48350   4
   3   2 -12 6.35185 1.85184   5
  -3  -2  12 4.99944 2.56819   7
   2   2 -12 1.39151 1.45673   4
   2   2 -12 0.68697 1.09137   5
  -2  -2  12 2.30919 2.17341   7
  -2  -2  12 2.93504 3.13126   1
   1   2 -12 1.89181 1.10293   5
   1   2 -12 1.68363 1.33373   4
  -1  -2  12 3.04809 1.80605   4
  -1  -2  12 4.11772 3.13485   1
  -1  -2  12 2.04339 2.11288   7
   0   2 -12 25.8635 2.16304   2
   0   2 -12 23.4290 2.78044   4
   0   2 -12 24.2121 2.21437   5
   0  -2  12 24.8435 2.12868   3
   0  -2  12 25.4247 2.93814   4
   0  -2  12 31.3439 4.62052   1
   0  -2  12 21.9498 3.27875   7
  -1   2 -12 -1.4938 0.63507   6
  -1   2 -12 0.62003 0.69938   3
  -1   2 -12 -0.5964 1.18163   1
  -1   2 -12 -0.0122 0.75501   2
  -1   2 -12 -0.2814 0.68261   5
  -1   2 -12 -0.5775 0.88554   4
  -1   2 -12 2.58826 0.99985   7
   1  -2  12 0.86487 2.16260   1
   1  -2  12 0.18675 0.66179   2
   1  -2  12 -0.3735 1.62960   7
   1  -2  12 -0.9515 0.55141   6
   1  -2  12 -0.8301 0.81495   3
   1  -2  12 -0.0377 1.06776   4
   1  -2  12 1.45320 0.88248   5
  -2   2 -12 4.61365 1.65639   7
  -2   2 -12 1.43914 1.04842   6
  -2   2 -12 3.24124 1.23274   2
  -2   2 -12 3.65513 1.24160   5
  -2   2 -12 4.60111 1.56096   4
  -2   2 -12 5.66578 1.97427   1
  -2   2 -12 2.86355 1.11447   3
   2  -2  12 2.05310 2.03773   7
   2  -2  12 3.10589 0.98477   6
   2  -2  12 2.69810 1.29636   4
   2  -2  12 1.11421 1.17026   3
   2  -2  12 3.27355 2.10446   1
   2  -2  12 2.29858 1.00433   2
   2  -2  12 4.39927 1.20601   5
  -3   2 -12 1.13155 1.07093   3
  -3   2 -12 0.60487 1.10970   2
  -3   2 -12 -0.0339 0.98742   6
   3  -2  12 0.77815 0.90640   6
   3  -2  12 1.38040 0.91055   5
   3  -2  12 0.92353 0.97526   2
  -4   2 -12 -0.5239 1.31697   6
  -4   2 -12 -0.7893 1.15764   3
   4  -2  12 -0.1144 1.01735   6
   4  -2  12 0.76669 1.21396   2
   4   1 -12 0.20503 1.41817   5
   4   1 -12 0.30405 1.52549   4
  -4  -1  12 14.3153 4.30957   1
  -4  -1  12 5.16234 2.75674   7
   3   1 -12 3.37207 1.45435   5
   3   1 -12 5.13875 1.92020   4
  -3  -1  12 11.2025 4.07804   1
  -3  -1  12 5.02631 2.67211   7
   2   1 -12 1.29466 1.07273   5
   2   1 -12 0.37307 1.32122   4
  -2  -1  12 1.78799 2.03485   7
  -2  -1  12 2.99942 2.98436   1
  -2  -1  12 0.39381 1.17699   3
   1   1 -12 10.2839 1.75420   5
   1   1 -12 9.42760 2.80434   1
   1   1 -12 11.0873 2.31365   4
  -1  -1  12 9.90014 3.72010   1
  -1  -1  12 8.80760 2.78254   7
  -1  -1  12 7.57756 1.46051   3
   0   1 -12 0.44812 1.69102   1
   0   1 -12 0.20084 0.71310   5
   0   1 -12 1.10803 1.09504   4
   0  -1  12 0.48165 0.91416   3
   0  -1  12 3.06289 2.51653   1
   0  -1  12 1.03796 1.32488   4
   0  -1  12 1.73744 2.02729   7
  -1   1 -12 33.5346 4.06591   1
  -1   1 -12 31.5752 2.37445   2
  -1   1 -12 32.8318 2.99122   4
  -1   1 -12 36.4717 3.25015   7
  -1   1 -12 35.1714 2.32813   3
  -1   1 -12 34.3570 2.45364   6
  -1   1 -12 33.6686 2.44597   5
   1  -1  12 33.0837 3.06111   4
   1  -1  12 32.8245 3.88539   7
   1  -1  12 33.8365 2.45292   5
   1  -1  12 34.1962 2.40994   6
   1  -1  12 36.0875 4.87405   1
   1  -1  12 32.7409 2.32385   2
   1  -1  12 36.4466 2.66484   3
  -2   1 -12 16.4854 2.08602   3
  -2   1 -12 12.6734 1.79675   6
  -2   1 -12 16.5045 2.04394   2
  -2   1 -12 17.3448 2.56631   7
  -2   1 -12 15.9409 2.08341   5
  -2   1 -12 16.2065 2.85790   1
  -2   1 -12 12.0811 2.08276   4
   2  -1  12 14.5222 3.25504   7
   2  -1  12 13.3209 1.80284   2
   2  -1  12 11.7079 1.65009   6
   2  -1  12 16.9721 1.84507   5
   2  -1  12 12.5636 2.09195   3
  -3   1 -12 -0.0705 1.13818   6
  -3   1 -12 -0.0806 0.90126   3
  -3   1 -12 -0.2518 1.49632   7
   3  -1  12 -0.8216 0.76918   6
   3  -1  12 0.55979 0.94535   2
  -4   1 -12 0.00426 1.26481   6
  -4   1 -12 0.10008 1.37025   3
   4  -1  12 1.18902 1.16458   6
   4  -1  12 0.63755 1.04759   2
   4   0 -12 2.16946 1.66754   4
   4   0 -12 7.85464 2.85235   1
   4   0 -12 0.38250 1.26965   5
  -4   0  12 2.82922 2.79387   7
  -4   0  12 11.4678 4.58384   1
   3   0 -12 0.53126 1.44445   4
   3   0 -12 3.43850 2.19325   1
   3   0 -12 0.18519 1.12580   5
  -3   0  12 1.98228 3.40881   1
  -3   0  12 -0.4459 1.16327   3
  -3   0  12 1.48698 2.24956   7
   2   0 -12 0.52241 1.44364   4
   2   0 -12 2.16509 1.09315   5
   2   0 -12 6.55721 2.69491   1
  -2   0  12 2.14820 1.27683   3
  -2   0  12 4.54752 2.38817   7
  -2   0  12 6.06849 3.61579   1
   1   0 -12 5.72177 1.32079   5
   1   0 -12 4.48680 1.65619   4
   1   0 -12 9.63801 2.95315   1
  -1   0  12 10.9667 4.47330   1
  -1   0  12 5.11090 2.66544   7
  -1   0  12 4.61475 1.36391   3
   0   0 -12 2.32590 2.02123   1
   0   0 -12 2.17803 1.25502   4
   0   0 -12 1.41369 0.88227   5
   0   0  12 1.76129 2.66921   1
   0   0  12 3.09269 2.12004   7
   0   0  12 1.78217 1.05297   3
  -1   0 -12 101.594 6.89356   1
  -1   0 -12 99.0606 4.68142   5
  -1   0 -12 99.6752 5.34137   4
  -1   0 -12 108.180 4.81421   2
  -1   0 -12 105.146 5.97969   7
   1   0  12 102.405 6.51706   7
   1   0  12 100.603 4.96260   3
   1   0  12 108.752 7.37488   1
   1   0  12 108.822 4.69447   6
  -2   0 -12 0.36350 0.85570   3
  -2   0 -12 0.20612 1.42903   1
  -2   0 -12 0.30530 0.97937   6
  -2   0 -12 -0.7590 1.08767   7
   2   0  12 -2.1859 1.97817   7
   2   0  12 -0.2133 1.07934   3
   2   0  12 -1.0525 0.66668   6
   2   0  12 -0.4371 0.70639   2
  -3   0 -12 -1.5195 1.03635   6
  -3   0 -12 -1.2686 0.92122   3
  -3   0 -12 0.02066 1.56506   7
   3   0  12 -1.7399 0.76659   6
   3   0  12 -0.9452 1.17833   3
   3   0  12 0.04304 0.79451   2
  -4   0 -12 0.75519 1.44928   6
  -4   0 -12 2.42832 1.56318   3
  -4   0 -12 -1.2135 3.21640   7
   4   0  12 1.56550 1.21042   2
   4   0  12 0.77384 1.25223   6
   4  -1 -12 -0.2024 1.44487   4
   4  -1 -12 4.06507 2.46311   1
   4  -1 -12 0.15609 1.22882   5
  -4   1  12 4.20314 4.44619   1
  -4   1  12 2.19183 1.44986   3
  -4   1  12 -0.5653 2.57685   7
   3  -1 -12 0.95737 1.48337   4
   3  -1 -12 2.54742 2.18474   1
   3  -1 -12 -0.4811 0.92290   5
  -3   1  12 0.71734 2.06920   7
  -3   1  12 0.06407 1.31915   3
  -3   1  12 0.41555 3.76464   1
   2  -1 -12 8.27649 2.12549   4
   2  -1 -12 11.1297 3.28826   1
   2  -1 -12 6.14186 1.41808   5
  -2   1  12 8.57185 4.01039   1
  -2   1  12 8.11663 1.74159   3
  -2   1  12 8.88210 2.94418   7
   1  -1 -12 13.9279 3.48952   1
   1  -1 -12 13.5163 2.54684   4
   1  -1 -12 11.4429 1.64183   5
  -1   1  12 12.3959 1.96508   3
  -1   1  12 16.2477 4.56581   1
  -1   1  12 14.1911 3.28302   7
   0  -1 -12 97.8319 6.95051   1
   0  -1 -12 101.319 5.54155   4
   0   1  12 103.182 4.97890   3
   0   1  12 98.7866 6.62787   7
   0   1  12 105.747 5.14445   6
   0   1  12 111.779 7.78427   1
  -1  -1 -12 47.8091 4.87614   1
  -1  -1 -12 45.5288 3.37827   4
  -1  -1 -12 46.0854 4.01602   7
   1   1  12 44.3548 4.69587   7
   1   1  12 49.4199 2.90183   6
   1   1  12 48.7565 3.43609   3
  -2  -1 -12 10.3152 2.93357   1
  -2  -1 -12 13.5986 2.99649   7
  -2  -1 -12 12.1466 1.86013   3
   2   1  12 10.7778 1.70423   6
   2   1  12 11.6375 1.96030   3
   2   1  12 11.5104 1.63043   2
  -3  -1 -12 4.32756 2.33946   7
  -3  -1 -12 3.82836 1.43166   6
  -3  -1 -12 4.30920 1.45393   3
   3   1  12 3.48006 1.23019   2
   3   1  12 3.39674 1.55355   3
   3   1  12 3.91606 1.36364   6
  -4  -1 -12 2.82310 1.57727   6
  -4  -1 -12 0.14701 2.76527   7
  -4  -1 -12 4.47031 1.73622   3
   4   1  12 4.36791 1.46655   2
   4   1  12 3.47300 1.53119   6
   4  -2 -12 3.76102 2.62953   1
   4  -2 -12 1.49373 1.78826   4
   4  -2 -12 -0.0578 1.26845   5
  -4   2  12 1.04464 1.46028   3
  -4   2  12 0.25320 4.77749   1
  -4   2  12 3.24292 2.93004   7
   3  -2 -12 5.49276 2.79896   1
   3  -2 -12 2.60041 1.65318   4
   3  -2 -12 1.81680 1.12627   5
  -3   2  12 2.43995 1.49153   3
  -3   2  12 1.63847 3.87481   1
  -3   2  12 2.48014 2.46337   7
   2  -2 -12 0.28035 1.13537   5
   2  -2 -12 -0.1510 1.12496   4
   2  -2 -12 0.22157 1.67427   1
  -2   2  12 2.43459 2.22288   7
  -2   2  12 -1.4738 3.09075   1
  -2   2  12 0.60705 1.19337   3
   1  -2 -12 10.6162 3.20995   1
   1  -2 -12 7.85061 1.91928   4
  -1   2  12 7.67301 1.76782   3
  -1   2  12 11.7473 3.95720   1
  -1   2  12 7.14804 2.61549   7
   0  -2 -12 3.18891 1.32594   7
   0  -2 -12 0.70408 1.13437   4
   0  -2 -12 2.56345 1.99571   1
   0   2  12 1.22301 0.79337   6
   0   2  12 3.27954 2.43076   7
   0   2  12 1.25154 1.24259   3
  -1  -2 -12 11.9359 2.00167   4
  -1  -2 -12 10.6889 2.72763   7
  -1  -2 -12 10.9561 3.23102   1
   1   2  12 11.2953 1.57411   6
   1   2  12 14.2698 3.67919   7
   1   2  12 13.7078 2.16343   3
  -2  -2 -12 62.8053 5.42356   1
  -2  -2 -12 60.6763 4.95748   7
  -2  -2 -12 64.9050 3.78961   3
   2   2  12 61.8017 3.65671   6
   2   2  12 65.1438 4.14969   3
  -3  -2 -12 4.55221 1.39638   3
  -3  -2 -12 1.09161 2.09181   7
   3   2  12 1.53809 1.00106   2
   3   2  12 3.42094 1.55476   3
   3   2  12 2.08030 1.08126   6
   4   2  12 -0.1430 1.13245   2
   4  -3 -12 0.06284 1.68719   4
   4  -3 -12 3.44581 2.56785   1
  -4   3  12 -5.2901 4.59932   1
  -4   3  12 3.14849 1.59206   3
  -4   3  12 2.99548 2.79440   7
   3  -3 -12 2.77702 2.32052   1
   3  -3 -12 0.98373 1.60967   4
  -3   3  12 -1.8977 3.90677   1
  -3   3  12 1.78839 2.40798   7
  -3   3  12 2.04204 1.52063   3
   2  -3 -12 0.98316 1.97941   1
   2  -3 -12 0.99712 1.24526   4
  -2   3  12 -2.8368 2.93490   1
  -2   3  12 -0.1120 2.09133   7
  -2   3  12 2.35491 1.42832   3
   1  -3 -12 23.6461 2.82824   4
   1  -3 -12 30.0303 4.26095   1
  -1   3  12 25.7962 2.72623   3
  -1   3  12 23.4598 3.85872   7
   0  -3 -12 -1.3273 1.73061   1
   0  -3 -12 0.49291 1.07629   7
   0  -3 -12 -0.8730 0.87423   4
   0   3  12 -0.0259 1.13422   3
   0   3  12 -1.7977 1.98506   7
   0   3  12 -0.2558 0.64161   6
  -1  -3 -12 31.4963 3.67842   7
  -1  -3 -12 29.1672 4.34850   1
   1   3  12 36.2355 2.64459   6
   1   3  12 29.0188 4.45013   7
   1   3  12 35.9993 3.17520   3
  -2  -3 -12 43.4767 4.38240   7
  -2  -3 -12 36.8157 4.66700   1
  -2  -3 -12 44.0655 3.19098   3
   2   3  12 49.3265 3.67600   3
   2   3  12 42.2988 3.11151   6
  -3  -3 -12 2.24864 1.37917   3
  -3  -3 -12 0.59036 2.05560   7
   3   3  12 2.77799 1.31557   6
   3   3  12 -0.0372 1.56402   3
   3   3  12 2.82649 1.20554   2
   4  -4 -12 4.90614 2.98883   1
   4  -4 -12 2.72715 2.06055   4
  -4   4  12 8.27501 3.62801   7
  -4   4  12 4.68191 1.94721   3
   3  -4 -12 5.90989 3.04604   1
   3  -4 -12 2.09674 1.78430   4
  -3   4  12 5.69516 1.86172   3
  -3   4  12 3.33603 2.84910   7
   2  -4 -12 2.42684 2.28899   1
   2  -4 -12 2.20850 1.63985   4
  -2   4  12 4.60086 2.76596   7
  -2   4  12 3.55831 1.71352   3
   1  -4 -12 -0.3819 1.81862   1
   1  -4 -12 -1.2302 1.05163   4
  -1   4  12 0.23516 2.27024   7
  -1   4  12 -0.9016 1.21563   3
   0  -4 -12 2.89306 1.46481   7
   0  -4 -12 -0.9859 0.90057   4
   0   4  12 1.08228 1.32442   3
   0   4  12 -2.2030 1.92249   7
   0   4  12 0.38007 0.76989   6
  -1  -4 -12 9.24660 2.73597   7
  -1  -4 -12 5.83747 2.82368   1
   1   4  12 2.79792 1.18864   6
   1   4  12 6.75334 3.02367   7
   1   4  12 6.46338 1.82343   3
  -2  -4 -12 0.15652 1.61464   7
  -2  -4 -12 1.73857 1.06826   3
  -2  -4 -12 -0.7919 2.04909   1
   2   4  12 0.54932 1.42674   3
   2   4  12 1.07177 1.08593   6
  -3  -4 -12 0.35251 2.42066   7
  -3  -4 -12 4.36190 1.64580   3
   3   4  12 0.41575 1.74008   3
   3   4  12 0.27732 1.19596   6
   4  -5 -12 14.6674 4.24157   1
   3  -5 -12 1.89806 2.55213   1
   3  -5 -12 -1.0746 1.53498   4
  -3   5  12 1.78469 1.69672   3
  -3   5  12 5.19029 3.25095   7
   2  -5 -12 0.78924 2.06142   1
   2  -5 -12 -0.0438 1.39191   4
  -2   5  12 0.65553 2.46011   7
  -2   5  12 -1.2941 1.35162   3
   1  -5 -12 -0.4741 1.13512   4
   1  -5 -12 -0.8308 1.85366   1
  -1   5  12 -1.6676 2.06864   7
  -1   5  12 -0.1845 1.39139   3
   0  -5 -12 9.16817 2.36495   7
   0  -5 -12 7.75773 3.19493   1
   0  -5 -12 5.65308 1.64889   4
   0   5  12 7.26069 1.44772   6
   0   5  12 7.21448 1.93455   3
   0   5  12 6.92462 3.03065   7
  -1  -5 -12 1.50289 1.79707   7
  -1  -5 -12 -1.8438 1.74697   1
   1   5  12 1.29535 1.46174   3
   1   5  12 0.69858 0.98475   6
  -2  -5 -12 -1.1710 1.62024   7
  -2  -5 -12 1.11460 1.12686   3
  -2  -5 -12 -3.0306 2.02981   1
   2   5  12 -0.9554 0.96969   6
   2   5  12 0.13989 1.61331   3
   3  -6 -12 -1.8161 1.67042   4
   3  -6 -12 0.31875 2.47201   1
  -3   6  12 2.09401 2.96024   7
  -3   6  12 1.06856 1.73344   3
   2  -6 -12 -0.8922 1.44442   4
   2  -6 -12 -0.6818 2.23386   1
  -2   6  12 -3.3652 2.38678   7
  -2   6  12 -2.0117 1.40261   3
   1  -6 -12 10.7446 2.38149   4
   1  -6 -12 16.9704 4.32786   1
  -1   6  12 17.5122 2.98760   6
  -1   6  12 12.2129 3.62132   7
  -1   6  12 14.5856 2.58792   3
   0  -6 -12 1.46977 1.40202   7
   0  -6 -12 -1.0218 2.05982   1
   0   6  12 -1.5364 1.30538   3
   0   6  12 -1.0261 0.93781   6
   0   6  12 -1.3184 2.56091   7
  -1  -6 -12 1.05687 2.56888   1
  -1  -6 -12 2.62662 2.01210   7
   1   6  12 3.09597 1.82447   3
   1   6  12 1.60980 1.10908   6
  -2  -6 -12 -0.1797 2.85628   1
  -2  -6 -12 4.72879 2.59839   7
  -2  -6 -12 5.29183 1.63297   3
   2   6  12 2.42809 1.45384   6
   2   6  12 4.81022 2.07535   3
   3  -7 -12 0.25609 2.99986   1
  -3   7  12 -3.5806 2.71421   7
  -3   7  12 1.85771 1.87711   3
   2  -7 -12 3.83793 3.22069   1
   2  -7 -12 -1.0304 1.84096   4
  -2   7  12 1.87461 3.22483   7
  -2   7  12 5.01633 1.97125   3
   1  -7 -12 -1.2082 1.63337   4
   1  -7 -12 -0.7015 2.36527   1
  -1   7  12 1.74497 1.74298   3
  -1   7  12 -1.4168 2.72990   7
  -1   7  12 0.11711 1.16789   6
   0  -7 -12 13.5387 3.23151   7
   0  -7 -12 8.37844 3.77120   1
   0   7  12 8.22914 2.30820   3
   0   7  12 6.49122 1.57263   6
   0   7  12 7.43964 3.75574   7
  -1  -7 -12 -2.4404 2.52128   1
  -1  -7 -12 -0.3250 1.61749   7
   1   7  12 0.12658 1.59702   3
   1   7  12 1.59945 1.27277   6
  -2  -7 -12 -2.0272 3.11448   1
   2  -8 -12 -0.5694 3.07569   1
  -2   8  12 -5.0160 3.02330   7
  -2   8  12 1.88737 1.87007   3
   1  -8 -12 -1.4773 2.71517   1
  -1   8  12 1.06659 1.26887   6
  -1   8  12 -2.8855 3.00776   7
  -1   8  12 -0.0651 1.79443   3
   0  -8 -12 3.50222 1.61836   7
   0   8  12 0.26629 1.11403   6
   0   8  12 0.39804 1.66863   3
  -1  -8 -12 -3.2686 2.93195   1
   0  -9  13 55.3914 5.75151   1
   1  -9  13 48.2924 4.50455   1
   1   8 -13 15.7297 2.98531   5
   1   8 -13 18.0754 3.55136   4
   1   8 -13 14.3714 2.48856   2
  -1  -8  13 18.4033 3.64578   4
   0   8 -13 1.00165 1.46141   2
   0   8 -13 -1.4911 1.30198   5
   0   8 -13 1.58551 1.63879   4
   0  -8  13 2.61383 1.98887   4
  -1   8 -13 4.00642 1.70621   2
  -1   8 -13 8.88561 2.23099   5
   1  -8  13 8.20878 2.38059   4
   1  -8  13 5.11851 1.87170   5
  -2   8 -13 1.53153 1.52061   5
  -2   8 -13 0.08460 1.38911   2
   2  -8  13 -0.0443 1.48306   5
   2  -8  13 2.58017 1.57711   4
   2   7 -13 -0.9667 1.66700   5
   2   7 -13 -0.4540 1.64755   4
  -2  -7  13 5.04585 3.62318   1
  -2  -7  13 -0.2346 2.26064   4
   1   7 -13 11.1121 2.44359   5
   1   7 -13 10.2867 2.05204   2
   1   7 -13 10.4222 2.83704   4
  -1  -7  13 8.25581 2.85596   4
   0   7 -13 5.75970 1.94155   5
   0   7 -13 3.55630 1.49179   2
   0   7 -13 3.66722 1.82738   4
   0  -7  13 6.53266 2.23915   4
  -1   7 -13 -0.0084 1.17687   2
  -1   7 -13 -0.5592 1.25624   5
   1  -7  13 0.13703 1.23679   5
   1  -7  13 3.04883 1.71249   4
  -2   7 -13 -0.4443 1.17333   5
  -2   7 -13 -0.8063 1.21487   2
   2  -7  13 0.68191 1.43703   5
   2  -7  13 4.24160 1.73597   4
   2   6 -13 1.49453 1.72648   4
   2   6 -13 -0.6566 1.45917   5
  -2  -6  13 4.43646 2.19035   7
  -2  -6  13 0.84873 2.23857   4
  -2  -6  13 9.63921 3.68939   1
   1   6 -13 1.38019 1.60734   2
   1   6 -13 -0.4976 1.43789   4
   1   6 -13 0.45975 1.31492   5
  -1  -6  13 -0.1491 1.97477   4
  -1  -6  13 4.51197 3.33318   1
   0   6 -13 6.55119 2.25434   4
   0   6 -13 4.40635 1.41982   2
   0   6 -13 7.21621 1.92456   5
   0  -6  13 11.3208 4.06827   1
   0  -6  13 5.16129 2.07661   4
  -1   6 -13 -0.3544 1.00463   2
  -1   6 -13 0.65436 1.18582   5
   1  -6  13 4.66497 2.69142   1
   1  -6  13 1.22937 1.48073   4
   1  -6  13 0.92191 1.21848   5
  -2   6 -13 0.08869 1.18112   2
  -2   6 -13 0.82794 1.26415   5
   2  -6  13 2.30759 1.37823   4
   2  -6  13 0.67228 1.20932   5
  -3   6 -13 -0.2056 1.27577   5
  -3   6 -13 0.62631 1.25056   6
  -3   6 -13 -0.5352 1.21269   2
   3  -6  13 0.69434 1.14863   5
   3  -6  13 2.25974 2.20232   4
   3  -6  13 0.12655 1.06276   2
   3   5 -13 0.39785 1.85343   4
   3   5 -13 2.87967 1.78448   5
  -3  -5  13 5.73988 2.56135   7
  -3  -5  13 10.3942 4.09900   1
   2   5 -13 6.50043 2.43030   4
   2   5 -13 5.33045 1.81193   5
  -2  -5  13 10.6471 2.90987   7
  -2  -5  13 12.7872 4.28757   1
  -2  -5  13 6.70558 2.60450   4
   1   5 -13 3.91901 1.91449   4
   1   5 -13 3.11517 1.50959   5
  -1  -5  13 12.1866 3.96048   1
  -1  -5  13 7.02957 2.52882   7
  -1  -5  13 2.66547 2.07569   4
   0   5 -13 21.4685 2.68582   5
   0   5 -13 20.6253 2.40411   2
   0   5 -13 22.9837 3.26034   4
   0  -5  13 22.4439 3.21442   4
   0  -5  13 25.0152 4.73093   1
  -1   5 -13 1.98421 1.17561   2
  -1   5 -13 1.32486 1.25428   5
  -1   5 -13 4.37984 1.81753   4
   1  -5  13 8.65229 3.09422   1
   1  -5  13 4.06932 1.79775   4
   1  -5  13 3.17789 1.38999   5
  -2   5 -13 1.70349 1.17607   2
  -2   5 -13 -0.2503 1.00157   6
  -2   5 -13 0.37076 1.13987   5
   2  -5  13 1.57779 1.39622   4
   2  -5  13 1.51087 1.16837   5
  -3   5 -13 -0.1978 1.19577   5
  -3   5 -13 0.53566 1.31424   2
  -3   5 -13 -0.8854 1.05176   6
   3  -5  13 0.15287 1.02981   5
   3  -5  13 0.58616 1.02121   2
   3   4 -13 2.73887 1.81018   5
   3   4 -13 2.42345 2.09464   4
  -3  -4  13 15.8389 4.36863   1
  -3  -4  13 7.53804 2.72809   7
   2   4 -13 7.47519 2.28604   4
   2   4 -13 4.63959 1.69497   5
  -2  -4  13 7.21771 2.58536   7
  -2  -4  13 5.61746 2.45809   4
  -2  -4  13 17.3136 4.57269   1
   1   4 -13 5.17921 1.94910   4
   1   4 -13 3.05959 1.43279   5
  -1  -4  13 4.12011 2.25105   4
  -1  -4  13 4.00762 2.23111   7
  -1  -4  13 12.0372 4.13099   1
   0   4 -13 1.18448 1.13641   5
   0   4 -13 0.35835 0.96590   2
   0   4 -13 0.07656 1.26406   4
   0  -4  13 0.87491 1.55580   4
   0  -4  13 -0.1033 1.58759   7
   0  -4  13 5.93757 3.37874   1
  -1   4 -13 7.06527 1.55798   2
  -1   4 -13 7.90848 1.79012   5
  -1   4 -13 4.24393 1.76121   4
   1  -4  13 6.50403 1.59764   5
   1  -4  13 9.21234 2.21466   4
   1  -4  13 15.6162 4.42377   1
  -2   4 -13 0.46717 1.06657   2
  -2   4 -13 1.51479 1.15646   5
  -2   4 -13 -0.8734 0.94558   6
  -2   4 -13 0.69533 1.21855   4
   2  -4  13 -1.0961 0.81599   2
   2  -4  13 2.20220 1.21041   5
   2  -4  13 0.92326 1.27752   4
  -3   4 -13 10.8968 2.15851   2
  -3   4 -13 9.53773 1.85048   6
  -3   4 -13 15.2650 2.40884   5
   3  -4  13 12.0897 2.05373   2
   3  -4  13 17.0862 2.37064   5
   3   3 -13 0.92974 1.44332   5
   3   3 -13 1.12103 1.71594   4
  -3  -3  13 9.84153 3.97558   1
  -3  -3  13 3.01941 2.53490   7
   2   3 -13 3.37733 1.41261   5
   2   3 -13 3.08668 1.88467   4
  -2  -3  13 3.84783 2.47289   7
  -2  -3  13 7.54023 3.87144   1
   1   3 -13 39.7099 3.25419   5
   1   3 -13 38.2615 3.89287   4
  -1  -3  13 49.2528 5.87167   1
  -1  -3  13 41.0669 4.19285   4
  -1  -3  13 38.0848 4.40273   7
   0   3 -13 1.54909 1.09710   5
   0   3 -13 2.56029 1.61316   4
   0  -3  13 2.96082 1.68579   4
   0  -3  13 6.30508 3.35004   1
   0  -3  13 -0.4303 1.73291   7
  -1   3 -13 -0.3812 1.11990   4
  -1   3 -13 0.56058 0.94818   2
  -1   3 -13 0.22020 0.94114   5
  -1   3 -13 0.98666 1.59761   1
   1  -3  13 0.35765 1.02469   5
   1  -3  13 1.06346 2.51407   1
   1  -3  13 -0.8700 1.21514   4
   1  -3  13 -1.1691 1.67090   7
  -2   3 -13 8.29618 1.65773   6
  -2   3 -13 7.07105 1.63854   5
  -2   3 -13 8.56815 2.05621   4
  -2   3 -13 10.2305 1.86254   2
   2  -3  13 9.46927 1.76558   5
   2  -3  13 5.94062 1.33612   6
   2  -3  13 9.30311 1.63257   2
   2  -3  13 9.35388 2.05637   4
  -3   3 -13 0.17131 1.18944   6
  -3   3 -13 0.09760 1.08156   3
  -3   3 -13 0.62913 1.12407   5
  -3   3 -13 0.33181 1.29626   2
   3  -3  13 0.65223 1.06270   2
   3  -3  13 1.14808 1.04156   5
   3  -3  13 -0.0655 0.89168   6
   3   2 -13 2.57868 1.46519   5
   3   2 -13 1.67400 1.81315   4
  -3  -2  13 1.10394 2.16994   7
  -3  -2  13 10.5305 3.92381   1
   2   2 -13 2.65900 1.85462   4
   2   2 -13 4.37049 1.52284   5
  -2  -2  13 8.31700 3.91919   1
  -2  -2  13 2.41405 2.34362   7
   1   2 -13 0.30612 1.00842   5
   1   2 -13 1.71197 1.46526   4
  -1  -2  13 0.57605 1.94472   7
  -1  -2  13 4.72574 3.36659   1
   0   2 -13 3.39208 2.08691   1
   0   2 -13 1.83242 1.40209   4
   0   2 -13 1.10311 0.90813   5
   0  -2  13 0.77150 1.51288   4
   0  -2  13 1.38629 2.11395   7
   0  -2  13 5.31143 3.63081   1
  -1   2 -13 3.17209 1.57288   4
  -1   2 -13 4.93377 2.14238   1
  -1   2 -13 2.91082 1.09915   2
  -1   2 -13 3.86776 1.23511   5
  -1   2 -13 3.66069 1.00881   3
   1  -2  13 5.66307 1.38540   5
   1  -2  13 3.56580 1.66929   4
   1  -2  13 8.57071 3.87494   1
   1  -2  13 2.35726 1.14472   2
   1  -2  13 4.77664 2.37852   7
   1  -2  13 2.88811 1.24957   3
  -2   2 -13 0.40353 0.96624   6
  -2   2 -13 1.25255 1.11199   2
  -2   2 -13 2.74339 1.34130   7
  -2   2 -13 0.73118 0.90028   3
  -2   2 -13 1.12629 1.25231   4
  -2   2 -13 0.44267 0.95421   5
  -2   2 -13 2.08643 2.09868   1
   2  -2  13 0.02201 1.10845   3
   2  -2  13 1.29841 0.85897   6
   2  -2  13 1.04652 0.95963   5
   2  -2  13 0.67616 0.90920   2
   2  -2  13 0.58310 2.09645   7
  -3   2 -13 -1.1922 1.02614   6
  -3   2 -13 -0.4921 0.98145   3
  -3   2 -13 -0.2232 1.12831   2
   3  -2  13 0.61711 0.98244   6
   3  -2  13 0.20131 0.99552   2
   4   1 -13 4.68967 2.20915   1
  -4  -1  13 10.1397 4.71217   1
   3   1 -13 11.2437 3.48948   1
   3   1 -13 6.91906 2.36558   4
   3   1 -13 5.93067 1.72988   5
  -3  -1  13 5.21835 2.77124   7
  -3  -1  13 13.1981 4.63744   1
   2   1 -13 4.37300 1.44597   5
   2   1 -13 9.99188 3.17363   1
   2   1 -13 4.30265 1.99880   4
  -2  -1  13 6.64007 2.86082   7
  -2  -1  13 7.29598 4.27226   1
   1   1 -13 3.77731 1.69842   4
   1   1 -13 6.28779 2.59661   1
   1   1 -13 5.55786 1.51204   5
  -1  -1  13 3.08329 1.50379   3
  -1  -1  13 1.28814 2.23523   7
  -1  -1  13 7.35492 4.20765   1
   0   1 -13 15.8258 2.78232   4
   0   1 -13 21.8145 3.66118   1
   0   1 -13 16.5943 2.02380   5
   0  -1  13 16.7544 3.58266   7
   0  -1  13 20.4448 2.25132   3
   0  -1  13 31.7246 5.52088   1
  -1   1 -13 31.7412 3.11925   7
  -1   1 -13 29.4004 2.61667   6
  -1   1 -13 32.3983 2.33539   3
  -1   1 -13 31.6425 4.19308   1
  -1   1 -13 24.9555 2.84678   4
  -1   1 -13 26.0535 2.39104   5
   1  -1  13 22.4169 3.87111   7
   1  -1  13 24.1667 2.63248   3
   1  -1  13 26.4677 2.96251   4
   1  -1  13 32.4034 5.16817   1
  -2   1 -13 10.2744 2.31588   7
  -2   1 -13 11.7598 3.06771   1
  -2   1 -13 8.60755 1.56818   3
  -2   1 -13 10.2905 1.75729   6
  -2   1 -13 10.5024 1.77706   2
   2  -1  13 6.97980 1.45488   2
   2  -1  13 6.34309 1.65945   3
   2  -1  13 9.77342 3.13032   7
   2  -1  13 8.35272 1.51827   6
  -3   1 -13 1.80425 1.17307   3
  -3   1 -13 -0.4447 1.20280   6
  -3   1 -13 1.42252 2.63867   7
  -3   1 -13 -0.2058 1.10225   2
   3  -1  13 0.64900 1.03071   2
   3  -1  13 0.83568 0.99186   6
   4   0 -13 4.07953 2.29152   1
  -4   0  13 8.91337 4.64441   1
   3   0 -13 8.98876 1.90943   5
   3   0 -13 9.92267 2.65265   4
   3   0 -13 13.1489 3.65040   1
  -3   0  13 10.2359 3.33420   7
  -3   0  13 15.7033 5.46806   1
   2   0 -13 0.09874 1.34373   4
   2   0 -13 0.72234 1.07019   5
   2   0 -13 4.35283 2.24384   1
  -2   0  13 -0.0439 2.00023   7
  -2   0  13 -0.1609 3.37170   1
  -2   0  13 0.91920 1.12165   3
   1   0 -13 -0.0181 1.20797   4
   1   0 -13 -1.4011 0.72689   5
   1   0 -13 0.70416 1.65188   1
  -1   0  13 -0.3022 1.04836   3
  -1   0  13 -2.1288 1.76397   7
  -1   0  13 -2.9720 3.01796   1
   0   0 -13 32.9372 3.46507   5
   0   0 -13 33.3968 3.39872   4
   0   0 -13 36.0678 4.56982   1
   0   0  13 38.5701 5.80415   1
   0   0  13 36.0084 4.54437   7
   0   0  13 33.6956 2.91831   3
  -1   0 -13 71.7314 4.94804   7
  -1   0 -13 76.8433 6.13645   1
  -1   0 -13 73.9059 3.72219   3
  -1   0 -13 65.6454 4.37118   4
  -1   0 -13 73.0409 3.70850   6
   1   0  13 65.7966 5.62175   7
   1   0  13 65.2348 4.04657   3
   1   0  13 66.6385 3.56271   6
   1   0  13 69.8445 6.44800   1
  -2   0 -13 1.01063 1.07827   2
  -2   0 -13 0.47030 0.84928   3
  -2   0 -13 -0.7351 0.98444   6
  -2   0 -13 0.95763 1.76966   1
  -2   0 -13 0.39635 1.28529   7
   2   0  13 -1.2637 1.04593   3
   2   0  13 -0.1801 0.81955   6
  -3   0 -13 15.7942 3.36477   7
  -3   0 -13 13.9092 2.28456   3
  -3   0 -13 15.5654 2.23518   6
   3   0  13 13.0767 1.98051   6
   3   0  13 14.4929 2.41726   3
   3   0  13 15.7828 2.19816   2
  -4   1  13 8.25025 4.80671   1
   3  -1 -13 3.56136 1.49802   5
   3  -1 -13 4.28790 1.90941   4
   3  -1 -13 10.8272 3.40482   1
  -3   1  13 5.09321 2.75523   7
  -3   1  13 4.44011 4.23444   1
  -3   1  13 5.96784 1.76856   3
   2  -1 -13 0.19885 1.41354   4
   2  -1 -13 0.32638 1.00371   5
   2  -1 -13 3.11176 2.33694   1
  -2   1  13 1.59433 3.46664   1
  -2   1  13 2.67420 2.37925   7
  -2   1  13 2.58051 1.32431   3
   1  -1 -13 0.37873 1.23978   4
   1  -1 -13 2.15657 2.06119   1
  -1   1  13 -0.2084 1.93523   7
  -1   1  13 0.10095 3.19517   1
  -1   1  13 0.43940 1.15533   3
   0  -1 -13 125.062 8.27840   1
   0  -1 -13 119.447 6.45027   4
   0   1  13 124.172 7.78573   7
   0   1  13 120.970 5.74060   3
   0   1  13 131.204 8.99675   1
  -1  -1 -13 -0.0115 1.02298   4
  -1  -1 -13 2.13636 1.33109   7
  -1  -1 -13 -0.1905 1.74859   1
   1   1  13 1.20266 1.38303   3
   1   1  13 0.87787 0.79218   6
   1   1  13 -1.8652 2.09816   7
  -2  -1 -13 11.6502 3.24344   1
  -2  -1 -13 9.93411 1.85465   3
  -2  -1 -13 12.0817 2.95398   7
   2   1  13 9.55070 1.68732   6
   2   1  13 9.07575 1.91288   3
  -3  -1 -13 2.55699 2.24543   7
  -3  -1 -13 3.13552 1.40298   3
  -3  -1 -13 1.53141 1.42450   6
   3   1  13 1.56842 1.59908   3
   3   1  13 2.10779 1.19395   6
   3   1  13 1.99205 1.10381   2
   4  -2 -13 6.39826 3.17676   1
  -4   2  13 9.63740 5.70597   1
   3  -2 -13 3.41088 2.46374   1
   3  -2 -13 0.49317 1.48551   4
  -3   2  13 -0.1187 1.30103   3
  -3   2  13 -3.1546 3.84005   1
  -3   2  13 -0.5524 2.21823   7
   2  -2 -13 -0.3199 1.72647   1
   2  -2 -13 1.43778 1.43816   4
  -2   2  13 0.50018 1.16756   3
  -2   2  13 -0.8318 3.42583   1
  -2   2  13 -0.6681 2.19206   7
   1  -2 -13 2.57112 1.57775   4
   1  -2 -13 5.06710 2.71082   1
  -1   2  13 2.64200 3.44138   1
  -1   2  13 3.88809 1.57618   3
  -1   2  13 5.70484 2.72089   7
   0  -2 -13 -1.1483 1.76138   1
   0  -2 -13 2.26690 1.31646   7
   0  -2 -13 0.36960 1.15778   4
   0   2  13 2.63791 1.38106   3
   0   2  13 -1.8329 2.00512   7
  -1  -2 -13 20.9573 3.13935   7
  -1  -2 -13 20.5883 4.28020   1
   1   2  13 21.6067 4.16107   7
   1   2  13 21.0276 2.13118   6
   1   2  13 19.5556 2.63055   3
  -2  -2 -13 0.61120 1.53240   7
  -2  -2 -13 0.59539 2.24950   1
  -2  -2 -13 2.19126 1.12764   3
   2   2  13 -0.1235 0.82783   6
   2   2  13 -1.2012 1.28255   3
  -3  -2 -13 -0.5784 1.10378   3
  -3  -2 -13 0.05646 2.24309   7
   3   2  13 1.81057 1.23693   6
   3   2  13 1.39542 1.55298   3
   3  -3 -13 3.61203 1.99000   4
   3  -3 -13 2.79115 2.59260   1
  -3   3  13 4.74203 1.78686   3
  -3   3  13 -1.9202 4.35427   1
  -3   3  13 2.31934 2.90302   7
   2  -3 -13 6.49179 2.10691   4
   2  -3 -13 11.3405 3.58298   1
  -2   3  13 3.57958 4.05397   1
  -2   3  13 7.08619 1.87069   3
  -2   3  13 7.06821 2.93002   7
   1  -3 -13 1.28156 1.43072   4
   1  -3 -13 2.67964 2.24086   1
  -1   3  13 2.68762 1.47739   3
  -1   3  13 -0.3283 2.34156   7
   0  -3 -13 4.31642 1.70095   7
   0  -3 -13 2.35925 1.39598   4
   0  -3 -13 1.54326 2.33471   1
   0   3  13 1.77668 2.46576   7
   0   3  13 1.68250 1.38070   3
  -1  -3 -13 2.67195 1.68492   7
  -1  -3 -13 -1.0361 1.81480   1
   1   3  13 1.15138 0.88212   6
   1   3  13 0.67191 1.39925   3
   1   3  13 -1.4517 2.29858   7
  -2  -3 -13 6.07232 3.00549   1
  -2  -3 -13 6.88503 2.38965   7
  -2  -3 -13 9.68502 1.89065   3
   2   3  13 6.85718 2.03384   3
   2   3  13 5.42882 1.47780   6
   3   3  13 6.58964 1.80264   6
   3  -4 -13 2.92260 1.93565   4
   3  -4 -13 7.10985 3.23768   1
  -3   4  13 4.11257 1.83788   3
  -3   4  13 4.16937 3.13854   7
   2  -4 -13 -1.3932 1.21376   4
   2  -4 -13 0.59180 2.13144   1
  -2   4  13 1.53212 1.40719   3
  -2   4  13 -0.3926 2.48981   7
   1  -4 -13 0.59403 1.33633   4
   1  -4 -13 2.62533 2.45513   1
  -1   4  13 0.54985 1.38296   3
  -1   4  13 -1.5845 2.15284   7
   0  -4 -13 -0.7694 1.01886   4
   0  -4 -13 -1.2542 1.88858   1
   0  -4 -13 4.57146 1.79428   7
   0   4  13 -0.6437 1.14298   3
   0   4  13 -0.4285 0.93910   6
   0   4  13 -2.0386 2.19453   7
  -1  -4 -13 -0.4847 2.18432   1
  -1  -4 -13 2.08447 1.58280   7
   1   4  13 0.03330 1.44920   3
   1   4  13 -0.2695 0.90531   6
   1   4  13 -3.4240 2.41653   7
  -2  -4 -13 3.28249 1.33201   3
  -2  -4 -13 0.43368 1.79677   7
  -2  -4 -13 -0.1446 2.35103   1
   2   4  13 1.64827 1.09271   6
   2   4  13 0.70801 1.60603   3
   3  -5 -13 0.19054 2.51544   1
   3  -5 -13 0.78374 1.85105   4
  -3   5  13 0.39104 2.61901   7
  -3   5  13 1.41785 1.73804   3
   2  -5 -13 1.48347 2.52151   1
   2  -5 -13 -1.7255 1.39146   4
  -2   5  13 0.18077 1.38121   3
  -2   5  13 -1.3903 2.43584   7
   1  -5 -13 0.68709 1.37972   4
   1  -5 -13 3.64349 2.72719   1
  -1   5  13 1.54670 2.88499   7
  -1   5  13 1.19353 1.67063   3
   0  -5 -13 3.91349 1.51966   7
   0  -5 -13 -1.6482 2.02747   1
   0   5  13 -0.8803 2.48786   7
   0   5  13 -0.8882 0.78296   6
   0   5  13 -0.4147 1.38200   3
  -1  -5 -13 0.72230 2.51361   1
  -1  -5 -13 2.32794 1.57974   7
   1   5  13 0.08935 1.48163   3
   1   5  13 0.02576 1.07721   6
   1   5  13 -4.3035 2.45978   7
  -2  -5 -13 -2.0730 2.64201   1
  -2  -5 -13 3.08772 2.26272   7
  -2  -5 -13 5.39329 1.59051   3
   2   5  13 4.67745 1.99792   3
   2   5  13 3.16622 1.37253   6
   2  -6 -13 1.02036 2.62631   1
   2  -6 -13 -1.2746 1.54457   4
  -2   6  13 -1.1512 2.69307   7
  -2   6  13 -2.3618 1.45491   3
   1  -6 -13 -0.3860 1.46180   4
   1  -6 -13 0.14633 2.53554   1
  -1   6  13 -2.3259 2.59784   7
  -1   6  13 -0.5550 1.60491   3
   0  -6 -13 4.41067 3.10634   1
   0  -6 -13 8.47322 2.58173   7
   0   6  13 1.06784 3.12196   7
   0   6  13 2.48553 1.78487   3
   0   6  13 2.84791 1.26097   6
  -1  -6 -13 -3.3116 2.09158   1
  -1  -6 -13 1.42737 1.83139   7
   1   6  13 -0.6334 1.60484   3
   1   6  13 -0.1410 1.00880   6
   2  -7 -13 -0.2282 3.06593   1
   1  -7 -13 6.73523 3.69806   1
   1  -7 -13 5.20310 2.42913   4
  -1   7  13 10.6504 2.59452   3
  -1   7  13 5.26922 3.79822   7
   0  -7 -13 4.79188 2.15434   7
   0  -7 -13 -0.6282 2.86398   1
   0   7  13 1.52471 1.35078   6
   0   7  13 0.99521 1.71564   3
   0   7  13 -1.0337 3.33334   7
  -1  -7  14 25.6654 4.83139   1
   0   7 -14 1.74309 1.55023   5
   0   7 -14 -0.0791 1.57976   4
   0   7 -14 -0.3351 1.45601   2
   0  -7  14 0.88207 1.89859   4
   1  -7  14 2.03970 1.68495   4
   1   6 -14 6.86827 2.66426   4
   1   6 -14 8.54787 2.20473   5
  -1  -6  14 10.7076 3.03524   4
   0   6 -14 2.33021 1.67694   2
   0   6 -14 2.99598 1.91898   4
   0   6 -14 1.76178 1.49430   5
   0  -6  14 2.53613 1.99417   4
  -1   6 -14 3.41364 1.44604   2
  -1   6 -14 0.41831 1.48392   4
  -1   6 -14 3.18942 1.59405   5
   1  -6  14 5.65792 1.99189   4
  -2   6 -14 8.90976 2.02458   2
  -2   6 -14 7.16702 2.07362   5
  -2   6 -14 9.57078 2.50615   4
   2  -6  14 10.4948 2.38377   4
   2  -6  14 10.6582 2.21959   5
   2   5 -14 4.96984 2.29238   4
   2   5 -14 5.17481 1.96542   5
  -2  -5  14 8.18144 2.69951   7
  -2  -5  14 1.54452 2.50661   4
   1   5 -14 1.20018 1.44628   5
   1   5 -14 0.91788 1.61667   4
  -1  -5  14 2.67447 2.13727   4
  -1  -5  14 2.84840 2.03377   7
   0   5 -14 12.1416 2.36859   5
   0   5 -14 13.8602 3.00748   4
   0  -5  14 15.2677 3.08491   4
  -1   5 -14 1.50880 1.34371   5
  -1   5 -14 1.27738 1.21901   2
  -1   5 -14 1.26916 1.53204   4
   1  -5  14 4.53649 1.90622   4
  -2   5 -14 4.06495 1.77909   4
  -2   5 -14 4.69983 1.65655   5
  -2   5 -14 3.44075 1.46966   2
   2  -5  14 5.54967 1.79980   4
   2  -5  14 4.89456 1.70327   5
   2   4 -14 2.58273 1.83819   4
   2   4 -14 2.07752 1.53547   5
  -2  -4  14 10.3073 3.83379   1
  -2  -4  14 3.15652 2.36542   7
   1   4 -14 -0.7087 1.14158   5
   1   4 -14 0.14830 1.47161   4
  -1  -4  14 1.07328 1.97571   4
  -1  -4  14 1.94655 2.13491   7
  -1  -4  14 9.77595 3.64036   1
   0   4 -14 3.80807 1.99070   4
   0   4 -14 2.91974 1.31896   5
   0  -4  14 3.20916 2.13498   7
   0  -4  14 3.45751 2.06591   4
  -1   4 -14 2.29395 1.70586   4
  -1   4 -14 5.09894 1.57976   2
  -1   4 -14 7.11257 1.79066   5
  -1   4 -14 8.51929 2.64438   1
   1  -4  14 6.24336 2.01302   4
  -2   4 -14 -0.5257 1.27211   4
  -2   4 -14 -1.6095 0.93990   2
  -2   4 -14 0.22266 1.09137   5
   2  -4  14 1.81133 1.33617   5
   2  -4  14 0.09936 0.90684   2
   2  -4  14 1.01461 1.40533   4
   3  -4  14 -0.7607 0.96147   2
  -3  -3  14 12.8407 4.71562   1
   2   3 -14 4.34965 2.07530   4
   2   3 -14 5.56244 1.84567   5
  -2  -3  14 5.83560 2.70862   7
   1   3 -14 15.0909 3.00784   4
   1   3 -14 13.8483 2.37207   5
  -1  -3  14 11.2031 2.81671   4
  -1  -3  14 13.3694 3.37015   7
   0   3 -14 3.71804 1.70605   4
   0   3 -14 6.11749 1.58814   5
   0   3 -14 6.68409 2.49223   1
   0  -3  14 2.21981 1.78859   4
   0  -3  14 3.98617 2.41673   7
   0  -3  14 13.1966 4.72046   1
  -1   3 -14 5.85407 2.10581   1
  -1   3 -14 3.47998 1.81312   4
  -1   3 -14 2.78847 1.31420   5
   1  -3  14 10.8034 3.69780   1
   1  -3  14 3.07523 1.84946   4
   1  -3  14 2.57866 3.17854   7
  -2   3 -14 0.84284 1.17484   2
  -2   3 -14 2.75005 1.32501   5
  -2   3 -14 2.23509 1.61098   4
   2  -3  14 1.31199 0.94676   2
   2  -3  14 1.53121 1.08726   5
  -3   3 -14 2.10610 1.45906   2
  -3   3 -14 1.55514 1.28447   6
   3  -3  14 1.47279 1.20818   2
   3  -3  14 1.58397 1.17919   6
   3   2 -14 0.42617 1.48907   5
   3   2 -14 -0.8372 1.58374   4
  -3  -2  14 0.43183 2.56313   7
  -3  -2  14 7.02313 3.76255   1
   2   2 -14 1.23853 1.60591   4
   2   2 -14 0.40867 1.15127   5
  -2  -2  14 7.04512 3.54317   1
  -2  -2  14 2.79726 2.17967   7
   1   2 -14 3.91939 2.10670   1
   1   2 -14 0.17218 1.10246   5
   1   2 -14 -0.8210 1.26512   4
  -1  -2  14 4.65437 3.57452   1
  -1  -2  14 -0.4500 2.01030   7
   0   2 -14 8.48446 1.73150   5
   0   2 -14 7.38947 2.19505   4
   0  -2  14 20.4210 5.43728   1
   0  -2  14 10.2997 2.47994   4
   0  -2  14 5.88642 2.74664   7
  -1   2 -14 28.5561 2.75418   5
  -1   2 -14 25.4714 3.17768   4
  -1   2 -14 34.4091 3.14321   7
  -1   2 -14 34.1157 4.29741   1
   1  -2  14 27.4494 3.28355   4
   1  -2  14 39.4656 5.58643   1
   1  -2  14 23.2280 4.03056   7
  -2   2 -14 1.61949 1.10976   6
  -2   2 -14 1.80864 1.10925   3
  -2   2 -14 1.54235 1.32646   2
   2  -2  14 1.07382 1.00674   6
  -3   2 -14 -0.4028 1.07474   3
  -3   2 -14 -1.5583 1.09123   6
  -3   2 -14 -1.0514 1.19158   2
   3  -2  14 -0.8389 0.87141   6
   3  -2  14 -0.3129 0.99624   2
   3   1 -14 0.52455 1.69411   4
   3   1 -14 6.91650 2.90960   1
   3   1 -14 0.40465 1.35643   5
  -3  -1  14 3.10255 2.55400   7
  -3  -1  14 6.76741 4.00560   1
   2   1 -14 0.30827 1.57948   4
   2   1 -14 0.47281 1.14253   5
   2   1 -14 4.24684 2.23623   1
  -2  -1  14 4.22286 3.65655   1
  -2  -1  14 1.74740 2.40684   7
   1   1 -14 4.76182 2.34344   1
   1   1 -14 0.58996 1.13290   5
   1   1 -14 0.43021 1.43719   4
  -1  -1  14 0.52573 2.19137   7
  -1  -1  14 0.00210 3.63805   1
   0   1 -14 98.6655 7.46687   1
   0   1 -14 96.3226 5.17114   5
   0   1 -14 94.9156 5.90496   4
   0  -1  14 90.8198 6.80425   7
   0  -1  14 115.297 8.90353   1
  -1   1 -14 3.34435 1.20454   7
  -1   1 -14 0.53739 1.16247   4
  -1   1 -14 4.03516 1.99706   1
   1  -1  14 1.15041 3.11494   1
   1  -1  14 -0.7143 2.18562   7
   1  -1  14 -0.7782 1.13259   3
  -2   1 -14 0.68181 1.43142   7
  -2   1 -14 0.06536 0.90949   3
  -2   1 -14 -0.6691 0.97938   6
   2  -1  14 -1.4922 1.13449   3
   2  -1  14 -3.3103 2.12652   7
   2  -1  14 -0.3882 0.73531   6
  -3   1 -14 8.56386 1.93353   3
  -3   1 -14 8.59727 1.98227   2
  -3   1 -14 6.71675 1.69837   6
   3  -1  14 8.18408 1.63084   6
   3  -1  14 8.53302 1.80767   2
   3   0 -14 8.35533 3.38308   1
   3   0 -14 4.61909 2.21348   4
   3   0 -14 3.05842 1.56080   5
  -3   0  14 6.11099 2.78884   7
  -3   0  14 11.2956 4.84921   1
   2   0 -14 -0.9309 1.28245   4
   2   0 -14 0.54984 1.11960   5
   2   0 -14 5.66428 2.67135   1
  -2   0  14 1.92073 3.83314   1
  -2   0  14 1.19642 2.29079   7
   1   0 -14 24.2202 4.20203   1
   1   0 -14 14.3941 3.01723   4
  -1   0  14 16.7321 3.68469   7
  -1   0  14 18.0939 2.40440   3
  -1   0  14 29.4303 6.49045   1
   0   0 -14 5.12183 2.49319   1
   0   0 -14 -0.2014 1.31842   4
   0   0  14 3.38036 3.73086   1
   0   0  14 2.30387 1.33063   3
   0   0  14 1.92398 2.58080   7
  -1   0 -14 18.4276 1.94613   3
  -1   0 -14 13.9565 2.59374   4
  -1   0 -14 20.6809 2.79518   7
  -1   0 -14 16.2541 4.08446   1
   1   0  14 8.79594 3.25549   7
   1   0  14 9.95629 4.12768   1
   1   0  14 12.5170 2.15061   3
  -2   0 -14 3.49372 1.18285   3
  -2   0 -14 5.17949 2.06315   7
  -2   0 -14 3.80423 1.40347   6
   2   0  14 5.12475 1.34375   6
   2   0  14 4.04041 1.60319   3
   3  -1 -14 4.21293 2.74943   1
   3  -1 -14 2.15249 1.81361   4
  -3   1  14 4.02721 2.80519   7
  -3   1  14 6.48173 4.71396   1
   2  -1 -14 3.22590 2.51474   1
   2  -1 -14 1.25041 1.59847   4
  -2   1  14 2.34018 3.63877   1
  -2   1  14 0.99570 1.38869   3
  -2   1  14 0.48928 2.30586   7
   1  -1 -14 6.02859 2.83083   1
   1  -1 -14 2.33567 1.67464   4
  -1   1  14 4.95085 2.93938   7
  -1   1  14 3.56387 1.46919   3
  -1   1  14 5.32382 4.32355   1
   0  -1 -14 10.4386 2.36114   4
   0  -1 -14 12.0703 3.79119   1
   0   1  14 11.7275 4.65359   1
   0   1  14 11.9488 2.02133   3
   0   1  14 12.3673 3.48623   7
  -1  -1 -14 2.73664 1.46004   7
  -1  -1 -14 0.82661 1.97701   1
  -1  -1 -14 1.84787 0.85440   3
   1   1  14 -1.2223 2.27980   7
   1   1  14 0.10073 1.27580   3
  -2  -1 -14 3.69303 3.05308   1
  -2  -1 -14 7.66828 1.62857   3
  -2  -1 -14 5.45983 1.53997   6
  -2  -1 -14 5.98450 2.18268   7
   2   1  14 2.69984 1.15694   6
   2   1  14 4.34347 1.71395   3
   3  -2 -14 1.35508 2.27886   1
   3  -2 -14 -0.0321 1.54480   4
  -3   2  14 -1.3916 2.08941   7
  -3   2  14 -1.2130 4.13937   1
  -3   2  14 -1.1302 1.38716   3
   2  -2 -14 -0.6666 1.23472   4
   2  -2 -14 0.51896 2.28163   1
  -2   2  14 -1.5362 1.85451   7
  -2   2  14 -2.2777 3.12212   1
  -2   2  14 -0.4625 1.30782   3
   1  -2 -14 0.45868 2.35197   1
   1  -2 -14 -1.2548 1.12581   4
  -1   2  14 0.75499 1.36569   3
  -1   2  14 -2.4140 3.03603   1
  -1   2  14 -0.7784 2.26640   7
   0  -2 -14 1.55988 1.38767   4
   0  -2 -14 0.98454 2.23135   1
   0   2  14 1.33310 1.34313   3
   0   2  14 1.60169 2.77894   7
  -1  -2 -14 2.22469 1.40672   7
  -1  -2 -14 -0.9756 1.81379   1
   1   2  14 -3.0134 2.28774   7
   1   2  14 1.27588 1.37907   6
   1   2  14 -0.5886 1.37616   3
  -2  -2 -14 1.02583 2.41481   1
  -2  -2 -14 1.97645 1.10680   3
  -2  -2 -14 3.69132 2.05877   7
   2   2  14 0.34894 1.40501   3
   2   2  14 1.66414 1.06445   6
   3  -3 -14 0.40377 2.38726   1
  -3   3  14 -3.1598 4.48837   1
   2  -3 -14 1.69660 2.45634   1
   2  -3 -14 0.01999 1.43189   4
  -2   3  14 0.07110 2.48595   7
  -2   3  14 0.40565 1.41097   3
   1  -3 -14 -1.7720 1.00315   4
   1  -3 -14 -1.1135 1.98434   1
  -1   3  14 -1.1696 2.45677   7
  -1   3  14 -0.2274 1.29796   3
   0  -3 -14 3.98761 1.38787   7
   0  -3 -14 0.32921 1.18711   4
   0  -3 -14 -1.3975 1.99541   1
   0   3  14 -0.5279 1.18059   3
   0   3  14 -1.6508 2.23453   7
  -1  -3 -14 3.59243 1.78707   7
  -1  -3 -14 0.95996 2.38469   1
   1   3  14 -1.8724 2.79820   7
   1   3  14 -0.9927 1.43816   3
   1   3  14 0.32409 0.87709   6
  -2  -3 -14 8.24466 2.97258   7
  -2  -3 -14 6.22233 3.24068   1
  -2  -3 -14 10.4064 2.08110   3
   2   3  14 5.04224 2.01924   3
   2   3  14 5.40505 1.49705   6
   2  -4 -14 0.21640 1.57620   4
   2  -4 -14 0.85478 2.45855   1
  -2   4  14 2.27395 1.74757   3
  -2   4  14 0.07339 2.83771   7
   1  -4 -14 4.65220 3.00629   1
   1  -4 -14 2.46073 1.72635   4
  -1   4  14 5.43615 3.28642   7
  -1   4  14 2.92788 1.69932   3
   0  -4 -14 0.54956 2.40452   1
   0  -4 -14 3.72460 1.62971   7
   0   4  14 0.30172 1.44059   3
   0   4  14 -2.9384 2.32649   7
  -1  -4 -14 4.52110 1.95762   7
  -1  -4 -14 -0.7552 2.46447   1
   1   4  14 2.97700 1.95030   3
   1   4  14 2.34410 1.18326   6
   1   4  14 0.98020 2.88193   7
   2  -5 -14 1.41280 2.75323   1
   2  -5 -14 0.80686 1.74243   4
  -2   5  14 2.31265 1.85061   3
  -2   5  14 2.94452 3.11179   7
   1  -5 -14 3.89318 1.90662   4
   1  -5 -14 5.72728 3.41208   1
  -1   5  14 3.35093 3.27105   7
  -1   5  14 5.64764 2.07852   3
   0  -5 -14 -0.2120 2.59412   1
   0  -5 -14 4.43153 1.91968   7
   0   5  14 -0.5380 1.51227   3
   0   5  14 0.22607 2.85447   7
  -1  -5 -14 1.54794 1.85983   7
  -1  -5 -14 -1.9077 2.34942   1
   1   5  14 -0.9154 1.04175   6
   1  -6 -14 1.51672 3.11903   1
   0  -6 -14 -0.9639 2.67912   1
   0  -6  15 42.9139 5.22548   1
  -1  -5  15 35.6473 5.30780   1
   0   5 -15 5.64200 2.35646   4
   0   5 -15 3.59899 1.68502   5
   0  -5  15 6.97802 2.49992   4
   1   4 -15 -0.1459 1.68900   4
   1   4 -15 -0.0772 1.33521   5
  -1  -4  15 -1.5839 1.91085   4
  -1  -4  15 1.72012 2.09381   7
   0  -4  15 1.99967 1.93763   4
  -1   4 -15 5.35061 2.07177   1
  -1   4 -15 0.52064 1.64848   4
   1  -4  15 1.16408 1.65700   4
  -2  -3  15 8.67879 4.09869   1
   1   3 -15 0.10059 1.30484   5
   1   3 -15 0.51741 1.71181   4
  -1  -3  15 1.09324 2.28866   7
  -1  -3  15 8.68418 4.16990   1
   0   3 -15 -0.1899 1.35779   4
   0   3 -15 -0.6706 0.94729   5
   0   3 -15 5.51346 2.17445   1
   0  -3  15 10.9751 4.38342   1
   0  -3  15 -0.1088 1.57219   4
   0  -3  15 -0.8546 2.24226   7
  -1   3 -15 0.43419 1.18289   5
  -1   3 -15 3.73222 1.90814   1
  -1   3 -15 0.18626 1.40381   4
   1  -3  15 1.06071 1.67699   4
   1  -3  15 12.6592 4.07859   1
   2   2 -15 0.21019 1.28937   5
   2   2 -15 5.13177 2.35610   1
  -2  -2  15 3.62166 2.59841   7
  -2  -2  15 8.63146 4.04372   1
   1   2 -15 8.26707 2.88195   1
   1   2 -15 2.56738 1.46112   5
   1   2 -15 1.07691 1.73546   4
  -1  -2  15 2.52042 2.49001   7
  -1  -2  15 11.5411 4.51447   1
   0   2 -15 2.75902 1.81098   4
   0   2 -15 6.10980 2.29715   1
   0   2 -15 2.67267 1.42638   5
   0  -2  15 0.66606 2.44565   7
   0  -2  15 10.0178 4.81680   1
  -1   2 -15 4.17949 1.84767   4
  -1   2 -15 8.23467 2.68793   1
   1  -2  15 11.5625 4.04408   1
   1  -2  15 3.14675 1.80629   4
   2   1 -15 -0.0613 1.33522   5
   2   1 -15 7.14416 2.86621   1
   2   1 -15 1.53296 1.93247   4
  -2  -1  15 6.54478 4.31195   1
  -2  -1  15 0.25297 2.45164   7
   1   1 -15 4.74690 2.50136   1
   1   1 -15 -0.8600 1.43478   4
  -1  -1  15 1.81781 2.26404   7
  -1  -1  15 2.06746 4.11133   1
   0   1 -15 14.1472 2.83601   4
   0  -1  15 13.1799 3.74107   7
   0  -1  15 20.0467 5.46120   1
  -1   1 -15 5.56352 2.50125   1
  -1   1 -15 1.17090 1.43862   4
   1  -1  15 3.75742 3.44797   1
   1  -1  15 0.77726 2.48442   7
  -2   1 -15 0.25725 1.00850   3
  -2   1 -15 2.69624 1.73190   7
   2  -1  15 -0.2906 1.32142   3
   2  -1  15 -5.4639 3.91495   7
   2   0 -15 -0.0699 1.62027   4
   2   0 -15 3.72065 2.69068   1
  -2   0  15 -0.4868 2.31470   7
  -2   0  15 3.39733 4.08678   1
   1   0 -15 8.49695 2.53395   4
   1   0 -15 12.4816 3.72710   1
  -1   0  15 13.6092 5.22594   1
  -1   0  15 11.7209 3.68647   7
   0   0 -15 38.4405 3.58229   7
   0   0 -15 37.8523 5.29189   1
   0   0 -15 28.6834 3.69773   4
   0   0  15 27.7251 3.30339   3
   0   0  15 29.6732 4.78289   7
   0   0  15 32.5305 6.32170   1
  -1   0 -15 5.27793 1.24715   3
  -1   0 -15 3.16680 2.52545   1
   1   0  15 1.58004 1.43295   3
   1   0  15 0.65167 2.94753   7
   2  -1 -15 -0.4112 1.45531   4
   2  -1 -15 4.52979 3.07731   1
  -2   1  15 0.03787 3.91121   1
  -2   1  15 1.18154 2.56675   7
   1  -1 -15 14.2612 4.21821   1
   1  -1 -15 9.70782 2.54967   4
  -1   1  15 9.12933 1.94795   3
  -1   1  15 8.20467 3.35167   7
  -1   1  15 9.31749 4.39231   1
   0  -1 -15 1.79708 2.55723   1
   0  -1 -15 1.25511 1.48323   4
   0   1  15 -3.1240 3.30424   1
   0   1  15 1.73691 1.49880   3
   0   1  15 -0.3057 2.70396   7
  -1  -1 -15 6.77762 2.07710   7
  -1  -1 -15 7.17663 3.13539   1
  -1  -1 -15 8.82544 1.60164   3
   1   1  15 2.43845 1.55114   3
   1   1  15 1.41618 2.87879   7
   2  -2 -15 0.12956 2.42929   1
   2  -2 -15 -0.1217 1.48501   4
  -2   2  15 -1.9678 3.72576   1
  -2   2  15 -1.5073 1.44731   3
  -2   2  15 0.84754 2.72055   7
   1  -2 -15 2.18189 1.68415   4
   1  -2 -15 1.68163 2.70820   1
  -1   2  15 2.49711 1.56261   3
  -1   2  15 -0.1907 2.70327   7
   0  -2 -15 0.17380 2.36769   1
   0  -2 -15 0.39927 1.36121   4
   0   2  15 0.21231 1.42690   3
   0   2  15 -3.6593 2.39832   7
  -1  -2 -15 1.80587 1.70100   7
  -1  -2 -15 1.06774 2.34940   1
  -1  -2 -15 2.89728 1.00880   3
   1   2  15 -0.5655 1.47412   3
   1   2  15 -3.1100 2.57314   7
   1  -3 -15 -0.0651 1.40633   4
   1  -3 -15 -2.8465 2.07356   1
  -1   3  15 0.87656 2.93642   7
  -1   3  15 -1.6135 1.26218   3
   0  -3 -15 -0.9475 2.34047   1
   0  -3 -15 0.43063 1.78404   4
   0   3  15 -2.1211 2.66752   7
   0   3  15 -0.9036 1.32741   3
  -1  -3 -15 -1.1343 2.28457   1
   1  -4 -15 0.40125 2.65290   1
   0  -4 -15 7.75208 3.72740   1
   0   2 -16 6.42583 2.68571   1
   0  -2  16 13.2118 4.45455   1
  -1  -1  16 13.8648 6.39981   1
   0   1 -16 5.77068 2.77129   1
   0  -1  16 3.28617 3.91191   1
  -1   0  16 12.6755 6.85541   1
   0   0 -16 7.16518 3.45199   1
   0   0  16 2.72491 3.95673   1
   0   0   0    0.00    0.00   0
 The following wavelength and cell were deduced by SADABS from the
 direction cosines etc. They are given here for emergency use only:
 CELL 0.71092    5.097   10.691   12.078   93.735   91.107   98.566
;
_shelx_hkl_checksum              7811
_shelx_res_file
;
TITL mo_bzf15_0m in P-1
CELL 0.71073   5.1839  10.8531  12.2685  93.562  91.167  98.714
ZERR    2.00   0.0012   0.0025   0.0028   0.003   0.003   0.003
LATT  1
SFAC C H N O
UNIT 34 26 2 8
TEMP 24.000
SIZE 0.213 0.32 0.396
L.S. 10
BOND $H
FMAP 2 1 60
PLAN 20
ACTA
CONF
OMIT -4 55
WGHT    0.046200    0.189900
FVAR       0.87139
N1    3    0.656294    0.678867    0.637334    11.00000    0.05384    0.06427 =
         0.06036    0.00967   -0.00783    0.01994
H1A   2    0.611037    0.617355    0.584049    11.00000    0.06937
H1B   2    0.797134    0.681650    0.670231    11.00000    0.07424
O1    4    0.231442    0.472544    0.101778    11.00000    0.04322    0.05054 =
         0.04893    0.00537    0.00369    0.00347
O2    4    0.051391    0.728672    0.417021    11.00000    0.05110    0.05139 =
         0.04921   -0.00107   -0.00656    0.01575
O3    4    0.336542    0.678685    0.242473    11.00000    0.05052    0.05792 =
         0.06351   -0.00018    0.00506   -0.00407
O4    4    0.294912    0.593662    0.477973    11.00000    0.06473    0.04261 =
         0.06802    0.00225   -0.00802    0.01584
C1    1    0.129739    0.358816    0.051203    11.00000    0.04560    0.04573 =
         0.04411    0.00721   -0.00515    0.00969
C2    1    0.236015    0.300146   -0.035209    11.00000    0.05884    0.06758 =
         0.05080    0.00583    0.00534    0.01737
AFIX  43
H2A   2    0.389038    0.335569   -0.066704    11.00000   -1.20000
AFIX   0
C3    1    0.103216    0.186610   -0.072044    11.00000    0.08456    0.06970 =
         0.05320   -0.00268   -0.00421    0.02916
AFIX  43
H3A   2    0.166926    0.143436   -0.130919    11.00000   -1.20000
AFIX   0
C4    1   -0.124013    0.133398   -0.024491    11.00000    0.08463    0.05187 =
         0.06299   -0.00432   -0.01948    0.00954
AFIX  43
H4A   2   -0.207187    0.055145   -0.051447    11.00000   -1.20000
AFIX   0
C5    1   -0.228282    0.193804    0.061352    11.00000    0.05648    0.05396 =
         0.06218    0.00834   -0.00734   -0.00181
AFIX  43
H5A   2   -0.381381    0.158110    0.092629    11.00000   -1.20000
AFIX   0
C6    1   -0.097649    0.310451    0.100331    11.00000    0.04568    0.04624 =
         0.04415    0.00813   -0.00599    0.00753
C7    1   -0.137572    0.400695    0.184539    11.00000    0.03988    0.05228 =
         0.04378    0.00871    0.00172    0.00474
AFIX  43
H7A   2   -0.276202    0.395680    0.231817    11.00000   -1.20000
AFIX   0
C8    1    0.062489    0.494524    0.182978    11.00000    0.04083    0.04887 =
         0.04091    0.00931   -0.00140    0.01053
C9    1    0.135514    0.608382    0.252400    11.00000    0.04052    0.04579 =
         0.04580    0.00800   -0.00506    0.00651
C10   1   -0.058210    0.632867    0.337987    11.00000    0.04325    0.05759 =
         0.05080   -0.00080   -0.00334    0.00831
AFIX  23
H10A  2   -0.210672    0.657149    0.303076    11.00000   -1.20000
H10B  2   -0.114106    0.556724    0.374065    11.00000   -1.20000
AFIX   0
C11   1    0.233758    0.696971    0.485212    11.00000    0.04220    0.04472 =
         0.04442    0.00932    0.00422    0.00975
C12   1    0.341521    0.798672    0.564026    11.00000    0.04158    0.04137 =
         0.04025    0.00640    0.00575    0.00785
C13   1    0.553894    0.787077    0.633647    11.00000    0.04174    0.05105 =
         0.04040    0.01038    0.00687    0.00635
C14   1    0.657345    0.890641    0.702646    11.00000    0.05377    0.06838 =
         0.04608    0.00320   -0.00265    0.00393
AFIX  43
H14A  2    0.799642    0.885479    0.748620    11.00000   -1.20000
AFIX   0
C15   1    0.554929    0.998968    0.704237    11.00000    0.07237    0.05726 =
         0.04885   -0.00489    0.00523   -0.00235
AFIX  43
H15A  2    0.628943    1.066672    0.750637    11.00000   -1.20000
AFIX   0
C16   1    0.343114    1.009467    0.637976    11.00000    0.07758    0.04715 =
         0.05786   -0.00056    0.00737    0.01564
AFIX  43
H16A  2    0.271524    1.083115    0.640307    11.00000   -1.20000
AFIX   0
C17   1    0.240124    0.910646    0.569101    11.00000    0.05651    0.04825 =
         0.05195    0.00340    0.00079    0.01520
AFIX  43
H17A  2    0.097639    0.917920    0.523964    11.00000   -1.20000
AFIX   0
HKLF 4
REM  mo_bzf15_0m in P-1
REM R1 =  0.0464 for    2214 Fo > 4sig(Fo)  and  0.0735 for all    3105 data
REM    207 parameters refined using      0 restraints
END
WGHT      0.0462      0.1900
REM Highest difference peak  0.176,  deepest hole -0.179,  1-sigma level  0.035
Q1    1   0.0467  0.3108  0.0954  11.00000  0.05    0.18
Q2    1   0.4611  0.7998  0.5807  11.00000  0.05    0.18
Q3    1  -0.0918  0.4737  0.1664  11.00000  0.05    0.15
Q4    1  -0.0255  0.3374  0.0529  11.00000  0.05    0.15
Q5    1   0.2516  0.8349  0.5845  11.00000  0.05    0.15
Q6    1   0.3807  0.8566  0.5270  11.00000  0.05    0.14
Q7    1   0.0402  0.4227  0.2063  11.00000  0.05    0.14
Q8    1   0.3803  0.6370  0.4209  11.00000  0.05    0.14
Q9    1  -0.0958  0.2491  0.1051  11.00000  0.05    0.14
Q10   1  -0.1588  0.2787  0.0767  11.00000  0.05    0.13
Q11   1   0.5506  0.8220  0.7003  11.00000  0.05    0.13
Q12   1   0.3239  0.7679  0.5212  11.00000  0.05    0.13
Q13   1   0.3978  0.5250  0.0581  11.00000  0.05    0.12
Q14   1   0.2658  0.5323  0.0430  11.00000  0.05    0.12
Q15   1  -0.2058  0.0165 -0.0639  11.00000  0.05    0.12
Q16   1   0.2580  0.5152  0.5198  11.00000  0.05    0.12
Q17   1   0.6455  0.8555  0.6388  11.00000  0.05    0.12
Q18   1   0.2851  0.6205  0.2826  11.00000  0.05    0.12
Q19   1   0.2202  0.6707  0.2045  11.00000  0.05    0.12
Q20   1   0.7401  0.7359  0.5825  11.00000  0.05    0.12
;
_shelx_res_checksum              26462
_shelxl_version_number           20.13
loop_
_space_group_symop_operation_xyz
'x, y, z'
'-x, -y, -z'
loop_
_atom_site_type_symbol
_atom_site_label
_atom_site_fract_x
_atom_site_fract_y
_atom_site_fract_z
_atom_site_U_iso_or_equiv
_atom_site_adp_type
_atom_site_calc_flag
_atom_site_occupancy
N N1 0.6563(4) 0.67887(18) 0.63733(16) 0.0583(4) Uani d 1
H H1A 0.611(4) 0.617(2) 0.5840(19) 0.069(7) Uiso d 1
H H1B 0.797(5) 0.682(2) 0.6702(19) 0.074(7) Uiso d 1
O O1 0.2314(2) 0.47254(11) 0.10178(9) 0.0478(3) Uani d 1
O O2 0.0514(2) 0.72867(11) 0.41702(9) 0.0500(3) Uani d 1
O O3 0.3365(3) 0.67869(12) 0.24247(11) 0.0587(4) Uani d 1
O O4 0.2949(3) 0.59366(11) 0.47797(11) 0.0579(4) Uani d 1
C C1 0.1297(3) 0.35882(16) 0.05120(14) 0.0448(4) Uani d 1
C C2 0.2360(4) 0.3001(2) -0.03521(16) 0.0581(5) Uani d 1
H H2A 0.3890 0.3356 -0.0667 0.070 Uiso calc 1
C C3 0.1032(5) 0.1866(2) -0.07204(17) 0.0677(6) Uani d 1
H H3A 0.1669 0.1434 -0.1309 0.081 Uiso calc 1
C C4 -0.1240(5) 0.1334(2) -0.02449(18) 0.0672(6) Uani d 1
H H4A -0.2072 0.0551 -0.0514 0.081 Uiso calc 1
C C5 -0.2283(4) 0.19380(18) 0.06135(17) 0.0585(5) Uani d 1
H H5A -0.3814 0.1581 0.0926 0.070 Uiso calc 1
C C6 -0.0976(3) 0.31045(16) 0.10033(14) 0.0452(4) Uani d 1
C C7 -0.1376(3) 0.40069(16) 0.18454(14) 0.0453(4) Uani d 1
H H7A -0.2762 0.3957 0.2318 0.054 Uiso calc 1
C C8 0.0625(3) 0.49452(16) 0.18298(13) 0.0429(4) Uani d 1
C C9 0.1355(3) 0.60838(16) 0.25240(14) 0.0439(4) Uani d 1
C C10 -0.0582(3) 0.63287(18) 0.33799(14) 0.0507(4) Uani d 1
H H10A -0.2107 0.6571 0.3031 0.061 Uiso calc 1
H H10B -0.1141 0.5567 0.3741 0.061 Uiso calc 1
C C11 0.2338(3) 0.69697(16) 0.48521(13) 0.0431(4) Uani d 1
C C12 0.3415(3) 0.79867(15) 0.56403(13) 0.0407(4) Uani d 1
C C13 0.5539(3) 0.78708(16) 0.63365(13) 0.0441(4) Uani d 1
C C14 0.6573(4) 0.89064(19) 0.70265(15) 0.0567(5) Uani d 1
H H14A 0.7996 0.8855 0.7486 0.068 Uiso calc 1
C C15 0.5549(4) 0.9990(2) 0.70424(16) 0.0611(5) Uani d 1
H H15A 0.6289 1.0667 0.7506 0.073 Uiso calc 1
C C16 0.3431(4) 1.00947(18) 0.63798(16) 0.0603(5) Uani d 1
H H16A 0.2715 1.0831 0.6403 0.072 Uiso calc 1
C C17 0.2401(4) 0.91065(17) 0.56910(15) 0.0515(4) Uani d 1
H H17A 0.0976 0.9179 0.5240 0.062 Uiso calc 1
loop_
_atom_site_aniso_label
_atom_site_aniso_U_11
_atom_site_aniso_U_22
_atom_site_aniso_U_33
_atom_site_aniso_U_12
_atom_site_aniso_U_13
_atom_site_aniso_U_23
N1 0.0538(10) 0.0643(11) 0.0604(11) 0.0199(9) -0.0078(8) 0.0097(9)
O1 0.0432(7) 0.0505(7) 0.0489(7) 0.0035(5) 0.0037(5) 0.0054(5)
O2 0.0511(7) 0.0514(7) 0.0492(7) 0.0158(6) -0.0066(6) -0.0011(6)
O3 0.0505(8) 0.0579(8) 0.0635(8) -0.0041(6) 0.0051(6) -0.0002(6)
O4 0.0647(8) 0.0426(7) 0.0680(8) 0.0158(6) -0.0080(7) 0.0023(6)
C1 0.0456(9) 0.0457(10) 0.0441(9) 0.0097(8) -0.0051(7) 0.0072(8)
C2 0.0588(12) 0.0676(13) 0.0508(11) 0.0174(10) 0.0053(9) 0.0058(9)
C3 0.0846(16) 0.0697(14) 0.0532(12) 0.0292(12) -0.0042(11) -0.0027(10)
C4 0.0846(16) 0.0519(12) 0.0630(13) 0.0095(11) -0.0195(12) -0.0043(10)
C5 0.0565(11) 0.0540(11) 0.0622(12) -0.0018(9) -0.0073(9) 0.0083(10)
C6 0.0457(9) 0.0462(10) 0.0442(9) 0.0075(8) -0.0060(7) 0.0081(8)
C7 0.0399(9) 0.0523(10) 0.0438(9) 0.0047(8) 0.0017(7) 0.0087(8)
C8 0.0408(9) 0.0489(10) 0.0409(9) 0.0105(7) -0.0014(7) 0.0093(7)
C9 0.0405(9) 0.0458(10) 0.0458(9) 0.0065(8) -0.0051(7) 0.0080(7)
C10 0.0432(10) 0.0576(11) 0.0508(10) 0.0083(8) -0.0033(8) -0.0008(8)
C11 0.0422(9) 0.0447(10) 0.0444(9) 0.0098(7) 0.0042(7) 0.0093(7)
C12 0.0416(9) 0.0414(9) 0.0403(8) 0.0078(7) 0.0058(7) 0.0064(7)
C13 0.0417(9) 0.0511(10) 0.0404(9) 0.0064(8) 0.0069(7) 0.0104(7)
C14 0.0538(11) 0.0684(13) 0.0461(10) 0.0039(10) -0.0026(8) 0.0032(9)
C15 0.0724(13) 0.0573(12) 0.0488(11) -0.0023(10) 0.0052(9) -0.0049(9)
C16 0.0776(14) 0.0471(11) 0.0579(11) 0.0156(10) 0.0074(10) -0.0006(9)
C17 0.0565(11) 0.0482(10) 0.0520(10) 0.0152(9) 0.0008(8) 0.0034(8)
loop_
_atom_type_symbol
_atom_type_description
_atom_type_scat_dispersion_real
_atom_type_scat_dispersion_imag
_atom_type_scat_source
C C 0.0033 0.0016 'International Tables Vol C Tables 4.2.6.8 and 6.1.1.4'
H H 0.0000 0.0000 'International Tables Vol C Tables 4.2.6.8 and 6.1.1.4'
N N 0.0061 0.0033 'International Tables Vol C Tables 4.2.6.8 and 6.1.1.4'
O O 0.0106 0.0060 'International Tables Vol C Tables 4.2.6.8 and 6.1.1.4'
loop_
_geom_angle_atom_site_label_1
_geom_angle_atom_site_label_2
_geom_angle_atom_site_label_3
_geom_angle
C13 N1 H1A 119.3(14)
C13 N1 H1B 117.8(16)
H1A N1 H1B 118(2)
C1 O1 C8 105.72(13)
C11 O2 C10 115.04(13)
C2 C1 O1 125.63(17)
C2 C1 C6 124.29(18)
O1 C1 C6 110.08(15)
C3 C2 C1 115.8(2)
C3 C2 H2A 122.1
C1 C2 H2A 122.1
C2 C3 C4 122.1(2)
C2 C3 H3A 119.0
C4 C3 H3A 119.0
C5 C4 C3 121.3(2)
C5 C4 H4A 119.3
C3 C4 H4A 119.3
C4 C5 C6 117.9(2)
C4 C5 H5A 121.1
C6 C5 H5A 121.1
C1 C6 C5 118.65(17)
C1 C6 C7 105.84(15)
C5 C6 C7 135.50(18)
C8 C7 C6 106.96(16)
C8 C7 H7A 126.5
C6 C7 H7A 126.5
C7 C8 O1 111.38(15)
C7 C8 C9 132.36(17)
O1 C8 C9 116.19(14)
O3 C9 C8 122.65(17)
O3 C9 C10 122.21(16)
C8 C9 C10 115.14(15)
O2 C10 C9 111.46(14)
O2 C10 H10A 109.3
C9 C10 H10A 109.3
O2 C10 H10B 109.3
C9 C10 H10B 109.3
H10A C10 H10B 108.0
O4 C11 O2 121.09(16)
O4 C11 C12 126.02(15)
O2 C11 C12 112.89(14)
C17 C12 C13 118.93(16)
C17 C12 C11 120.32(15)
C13 C12 C11 120.72(15)
N1 C13 C14 119.72(17)
N1 C13 C12 122.51(17)
C14 C13 C12 117.76(16)
C15 C14 C13 121.56(18)
C15 C14 H14A 119.2
C13 C14 H14A 119.2
C14 C15 C16 120.74(19)
C14 C15 H15A 119.6
C16 C15 H15A 119.6
C17 C16 C15 119.00(18)
C17 C16 H16A 120.5
C15 C16 H16A 120.5
C16 C17 C12 121.99(18)
C16 C17 H17A 119.0
C12 C17 H17A 119.0
loop_
_geom_bond_atom_site_label_1
_geom_bond_atom_site_label_2
_geom_bond_distance
N1 C13 1.363(2)
N1 H1A 0.91(2)
N1 H1B 0.82(2)
O1 C1 1.371(2)
O1 C8 1.373(2)
O2 C11 1.3469(19)
O2 C10 1.420(2)
O3 C9 1.208(2)
O4 C11 1.209(2)
C1 C2 1.371(3)
C1 C6 1.382(2)
C2 C3 1.363(3)
C2 H2A 0.9300
C3 C4 1.387(3)
C3 H3A 0.9300
C4 C5 1.370(3)
C4 H4A 0.9300
C5 C6 1.393(3)
C5 H5A 0.9300
C6 C7 1.419(2)
C7 C8 1.340(2)
C7 H7A 0.9300
C8 C9 1.453(2)
C9 C10 1.507(3)
C10 H10A 0.9700
C10 H10B 0.9700
C11 C12 1.457(2)
C12 C17 1.394(2)
C12 C13 1.405(2)
C13 C14 1.396(3)
C14 C15 1.361(3)
C14 H14A 0.9300
C15 C16 1.376(3)
C15 H15A 0.9300
C16 C17 1.358(3)
C16 H16A 0.9300
C17 H17A 0.9300
loop_
_geom_hbond_atom_site_label_D
_geom_hbond_atom_site_label_H
_geom_hbond_atom_site_label_A
_geom_hbond_site_symmetry_A
_geom_hbond_distance_DH
_geom_hbond_distance_HA
_geom_hbond_distance_DA
_geom_hbond_angle_DHA
_geom_hbond_publ_flag
N1 H1A O4 . 0.91(2) 2.05(2) 2.700(3) 127.7(18) yes
N1 H1A O4 2_666 0.91(2) 2.49(2) 3.246(2) 141.4(18) yes
C10 H10A O3 1_455 0.9700 2.5000 3.444(2) 165.00 yes
C17 H17A O2 . 0.9300 2.3500 2.687(2) 101.00 yes
loop_
_geom_torsion_atom_site_label_1
_geom_torsion_atom_site_label_2
_geom_torsion_atom_site_label_3
_geom_torsion_atom_site_label_4
_geom_torsion
C8 O1 C1 C2 179.91(16)
C8 O1 C1 C6 -0.32(16)
O1 C1 C2 C3 179.33(15)
C6 C1 C2 C3 -0.4(3)
C1 C2 C3 C4 -0.5(3)
C2 C3 C4 C5 1.0(3)
C3 C4 C5 C6 -0.5(3)
C2 C1 C6 C5 0.8(3)
O1 C1 C6 C5 -178.95(14)
C2 C1 C6 C7 -179.49(16)
O1 C1 C6 C7 0.74(17)
C4 C5 C6 C1 -0.3(2)
C4 C5 C6 C7 -179.90(18)
C1 C6 C7 C8 -0.87(18)
C5 C6 C7 C8 178.74(18)
C6 C7 C8 O1 0.71(18)
C6 C7 C8 C9 -176.21(16)
C1 O1 C8 C7 -0.26(17)
C1 O1 C8 C9 177.21(13)
C7 C8 C9 O3 174.59(17)
O1 C8 C9 O3 -2.2(2)
C7 C8 C9 C10 -5.5(3)
O1 C8 C9 C10 177.70(13)
C11 O2 C10 C9 -70.85(18)
O3 C9 C10 O2 -13.3(2)
C8 C9 C10 O2 166.80(13)
C10 O2 C11 O4 -0.3(2)
C10 O2 C11 C12 179.52(14)
O4 C11 C12 C17 -175.17(17)
O2 C11 C12 C17 5.1(2)
O4 C11 C12 C13 6.8(3)
O2 C11 C12 C13 -172.97(14)
C17 C12 C13 N1 176.84(17)
C11 C12 C13 N1 -5.1(2)
C17 C12 C13 C14 -1.8(2)
C11 C12 C13 C14 176.29(15)
N1 C13 C14 C15 -177.67(18)
C12 C13 C14 C15 1.0(3)
C13 C14 C15 C16 0.6(3)
C14 C15 C16 C17 -1.3(3)
C15 C16 C17 C12 0.4(3)
C13 C12 C17 C16 1.1(3)
C11 C12 C17 C16 -176.94(17)
