#------------------------------------------------------------------------------
#$Date: 2019-12-26 21:22:11 +0200 (Thu, 26 Dec 2019) $
#$Revision: 246100 $
#$URL: file:///home/coder/svn-repositories/cod/cif/2/31/17/2311751.cif $
#------------------------------------------------------------------------------
#
# This file is available in the Crystallography Open Database (COD),
# http://www.crystallography.net/. The original data for this entry
# were provided by IUCr Journals, http://journals.iucr.org/.
#
# The file may be used within the scientific community so long as
# proper attribution is given to the journal article from which the
# data were obtained.
#
data_2311751
loop_
_publ_author_name
'Ende, Martin'
'Effenberger, Herta'
'Miletich, Ronald'
_publ_section_title
;
 Evolution of the \a-BaMg(CO<sub>3</sub>)<sub>2</sub> low-temperature
 superstructure and the tricritical nature of its \a-\b phase transition.
;
_journal_issue                   'Pt 5'
_journal_name_full
'Acta crystallographica Section B, Structural science, crystal engineering and materials'
_journal_page_first              827
_journal_page_last               835
_journal_paper_doi               10.1107/S2052520617009295
_journal_volume                  73
_journal_year                    2017
_chemical_formula_sum            'C6 Ba3 Mg3 O18'
_chemical_formula_weight         845.01
_space_group_crystal_system      trigonal
_space_group_IT_number           167
_space_group_name_Hall           '-R 3 2"c'
_space_group_name_H-M_alt        'R -3 c :H'
_audit_creation_method           SHELXL-2014/7
_cell_angle_alpha                90
_cell_angle_beta                 90
_cell_angle_gamma                120
_cell_formula_units_Z            2
_cell_length_a                   5.01980(10)
_cell_length_b                   5.01980(10)
_cell_length_c                   33.5169(9)
_cell_measurement_reflns_used    9486
_cell_measurement_temperature    350(2)
_cell_measurement_theta_max      45
_cell_measurement_theta_min      1.5
_cell_volume                     731.42(3)
_computing_structure_refinement  'SHELXL-2014/7 (Sheldrick, 2014)'
_diffrn_ambient_temperature      350(2)
_diffrn_measured_fraction_theta_full 0.993
_diffrn_measured_fraction_theta_max 0.996
_diffrn_measurement_device_type  StoeStadiVari
_diffrn_radiation_type           MoK\a
_diffrn_radiation_wavelength     0.71073
_diffrn_reflns_av_R_equivalents  0.0299
_diffrn_reflns_av_unetI/netI     0.0136
_diffrn_reflns_Laue_measured_fraction_full 0.993
_diffrn_reflns_Laue_measured_fraction_max 0.996
_diffrn_reflns_limit_h_max       9
_diffrn_reflns_limit_h_min       -10
_diffrn_reflns_limit_k_max       10
_diffrn_reflns_limit_k_min       -9
_diffrn_reflns_limit_l_max       66
_diffrn_reflns_limit_l_min       -34
_diffrn_reflns_number            9486
_diffrn_reflns_point_group_measured_fraction_full 0.993
_diffrn_reflns_point_group_measured_fraction_max 0.996
_diffrn_reflns_theta_full        25.242
_diffrn_reflns_theta_max         45.588
_diffrn_reflns_theta_min         3.647
_exptl_absorpt_coefficient_mu    8.230
_exptl_absorpt_correction_T_max  0.8
_exptl_absorpt_correction_T_min  0.7
_exptl_absorpt_correction_type   numerical
_exptl_absorpt_process_details   '(Stoe & Cie GmbH 2016)'
_exptl_crystal_density_diffrn    3.837
_exptl_crystal_description       prismatic
_exptl_crystal_F_000             768
_exptl_crystal_size_max          0.060
_exptl_crystal_size_mid          0.030
_exptl_crystal_size_min          0.030
_refine_diff_density_max         0.635
_refine_diff_density_min         -0.458
_refine_diff_density_rms         0.103
_refine_ls_extinction_method     none
_refine_ls_goodness_of_fit_ref   1.010
_refine_ls_hydrogen_treatment    undef
_refine_ls_matrix_type           full
_refine_ls_number_parameters     17
_refine_ls_number_reflns         701
_refine_ls_number_restraints     0
_refine_ls_restrained_S_all      1.010
_refine_ls_R_factor_all          0.0244
_refine_ls_R_factor_gt           0.0102
_refine_ls_shift/su_max          0.000
_refine_ls_shift/su_mean         0.000
_refine_ls_structure_factor_coef Fsqd
_refine_ls_weighting_details
'w=1/[\s^2^(Fo^2^)+(0.0114P)^2^+0.3650P] where P=(Fo^2^+2Fc^2^)/3'
_refine_ls_weighting_scheme      calc
_refine_ls_wR_factor_gt          0.0212
_refine_ls_wR_factor_ref         0.0237
_reflns_Friedel_coverage         0.000
_reflns_number_gt                459
_reflns_number_total             701
_reflns_threshold_expression     'I > 2\s(I)'
_cod_data_source_file            xk5041sup1.cif
_cod_data_source_block           norse_350
_cod_original_cell_volume        731.42(4)
_cod_original_sg_symbol_H-M      'R -3 c'
_cod_database_code               2311751
_shelx_shelxl_version_number     2014/7
_shelx_space_group_comment
;
The symmetry employed for this shelxl refinement is uniquely defined
by the following loop, which should always be used as a source of
symmetry information in preference to the above space-group names.
They are only intended as comments.
;
_shelx_estimated_absorpt_t_min   0.638
_shelx_estimated_absorpt_t_max   0.790
_shelx_res_file
;

    norse_350.res created by SHELXL-2014/7


TITL norse_100K_woo_a.res in R-3c
REM Old TITL norse_100k_woo in R-3c

REM SHELXT solution in R-3c
REM R1 0.027,  Rweak 0.000,  Alpha 0.038,  Orientation as input
REM Formula found by SHELXT:  C2 O6 Mg Ba

CELL  0.71073   5.0198   5.0198  33.5169   90.000   90.000  120.000
ZERR    2.000   0.0001   0.0001   0.0009    0.000    0.000    0.000
LATT  3
SYMM -Y, X-Y, Z
SYMM -X+Y, -X, Z
SYMM Y, X, 1/2-Z
SYMM X-Y, -Y, 1/2-Z
SYMM -X, -X+Y, 1/2-Z
SFAC C O MG BA
UNIT 12 36 6 6
L.S. 20
TEMP 76.85
SIZE 0.06 0.03 0.03
BOND $H
ACTA
LIST 4
FMAP 2
PLAN 20
REM EXTI    0.000000
WGHT    0.011400    0.365000
FVAR       0.22178
BA1   4    0.000000    0.000000    0.250000    10.16667    0.01078    0.01078 =
         0.01534    0.00000    0.00000    0.00539
MG2   3    0.000000    0.000000    0.000000    10.16667    0.00841    0.00841 =
         0.01260    0.00000    0.00000    0.00420
O3    2    0.128839    0.836262    0.129089    11.00000    0.03468    0.02861 =
         0.02481   -0.00697   -0.01100    0.02704
C4    1    0.000000    0.000000    0.130329    10.33333    0.00994    0.00994 =
         0.01100    0.00000    0.00000    0.00497
HKLF 4

REM  norse_100K_woo_a.res in R-3c
REM R1 =  0.0102 for     459 Fo > 4sig(Fo)  and  0.0244 for all     701 data
REM     17 parameters refined using      0 restraints

END

WGHT      0.0113      0.3815

REM Highest difference peak  0.635,  deepest hole -0.458,  1-sigma level  0.103
Q1    1  -0.1296 -0.0750  0.1324  11.00000  0.05    0.34
Q2    1   0.0179  0.5071  0.1178  11.00000  0.05    0.31
Q3    1  -0.1090  0.4651  0.1316  11.00000  0.05    0.28
Q4    1   0.3406  0.9670  0.1212  11.00000  0.05    0.27
Q5    1   0.0847 -0.1825  0.2699  11.00000  0.05    0.26
Q6    1   0.2479  0.7691  0.1356  11.00000  0.05    0.23
Q7    1  -0.0033  0.7675  0.1564  11.00000  0.05    0.23
Q8    1  -0.0195  0.4910  0.1421  11.00000  0.05    0.22
Q9    1  -0.0438 -0.0891  0.2641  11.00000  0.05    0.22
Q10   1   0.0618  0.6021  0.1048  11.00000  0.05    0.22
Q11   1  -0.0023  0.6394  0.1375  11.00000  0.05    0.22
Q12   1   0.4536  1.1737  0.1340  11.00000  0.05    0.22
Q13   1   0.0288  0.5785  0.1538  11.00000  0.05    0.21
Q14   1   0.0606  0.7420  0.1116  11.00000  0.05    0.21
Q15   1  -0.1584  0.5575  0.1330  11.00000  0.05    0.21
Q16   1  -0.1109  0.6163  0.1595  11.00000  0.05    0.21
Q17   1  -0.0579  0.7336  0.0939  11.00000  0.05    0.21
Q18   1  -0.1440  0.0025  0.1703  11.00000  0.05    0.19
Q19   1   0.0502  0.2547  0.2710  11.00000  0.05    0.19
Q20   1  -0.0859 -0.0387  0.1713  11.00000  0.05    0.19
;
_shelx_res_checksum              72450
_shelx_hkl_file
;
   0   2  19    2.53    5.05   0
   0   5  -2  329.98    9.92   0
   0   5   1   -4.31    5.91   0
   1   0 -26  828.38   19.64   0
   2   2  36  361.15   10.75   0
   0   4  14  316.15    9.24   0
   1   3  28  698.61   13.15   0
   1   0  25    4.04    6.74   0
   1   2  29   -0.66    5.34   0
   0   1  14 1864.48   27.19   0
   0   3 -18  838.74   20.52   0
   0   4 -13   -1.59    5.83   0
   0   4  11    3.88    5.25   0
   1  -2   0 3632.43   36.66   0
   0   3  15   -4.59    5.45   0
   1  -2   3   14.20    5.98   0
   1   1  27    1.00    5.67   0
   1   4  21    0.24    5.12   0
   2   1  34  573.53   13.48   0
   1   5 -13    2.15    5.69   0
   0   4   5    1.92    5.25   0
   2   2  33   -0.60    4.99   0
   0   4  -7    2.47    5.23   0
   0   4   2 1430.86   17.46   0
   1   2  26  503.76   11.53   0
   0   2  13   -1.98    6.09   0
   0   4  -4 1511.01   18.58   0
   0   1  11    2.20    5.85   0
   0   3 -15    0.93    5.76   0
   1   5  -7   -2.44    5.52   0
   2   0  32  609.53   14.91   0
   0   2 -17   -1.04    7.91   0
   1   5  -4  677.73   12.08   0
   1   5  -1    2.58    5.00   0
   0   3   9    1.62    5.04   0
   1   3  22  367.74    9.42   0
   0   0  -6 1270.64   47.22   0
   1   4  15    6.11    5.76   0
   1   1  24 1731.76   21.72   0
   0   2  10  181.30    8.48   0
   0   3   6 2082.10   21.57   0
   2   2  30  186.90    8.20   0
   1   0  22  466.26   14.74   0
   2  -3  17    3.12    5.09   0
   2   1  31    2.86    5.49   0
   0   3   3   -0.81    5.85   0
   1   3  19    3.42    5.80   0
   1   4  12 1120.65   14.27   0
   0   1   8 9412.83   62.16   0
   1  -2   9   12.58    5.34   0
   0   3  -9    2.08    4.04   0
   0   3   0 2624.03   25.14   0
   3   1  35    2.74    5.51   0
   0   2   7    5.51    6.29   0
   0   3  -3    1.88    5.29   0
   1   4   9    2.23    4.92   0
   0   0  -9   -0.04    8.42   0
   1   3  16 2048.10   19.86   0
   1   4 -15    5.33    5.27   0
   1   4   6  342.54    9.18   0
   1   2  20 1439.32   17.99   0
   2   2  27   -6.20    5.55   0
  -2   1  30  601.19   11.61   0
  -1   0  20 1593.38   19.71   0
   0   1 -10 3752.38   35.66   0
   0   0  -6 1777.03   37.49   0
  -3  -1  25   -0.80    5.58   0
  -3   0  30  554.97   11.06   0
  -1   2  21    3.28    5.45   0
  -3  -2  14  363.51   10.19   0
   0   0  -9   -0.58    6.83   0
  -2  -2   9   -0.86    3.93   0
  -2  -1  20 1444.07   17.11   0
  -2   2  29   -3.99    5.45   0
  -1  -1  12 4139.42   33.95   0
  -4  -2  13   -1.25    5.37   0
  -2   0  25    2.67    4.95   0
   0   2   1   -0.40    6.60   0
  -4  -1  24  621.94   11.64   0
  -3   1  32 1178.49   14.77   0
  -3   4  32  860.63   15.47   0
  -2   1  27   -1.90    6.12   0
  -1   0  17    5.98    6.34   0
   0   0 -12  315.30   13.01   0
  -3  -2  11   -3.56    5.89   0
  -3   3  33    2.80    6.15   0
  -3   0  27   -3.48    6.49   0
  -2   4  24 1752.27   29.65   0
  -1   1  19    2.18    6.31   0
  -1   3  17    6.79   10.89   0
  -2  -1  17    8.41    6.83   0
  -2   6   7   -0.90    5.76   0
   0   2   4 4790.19   36.83   0
   0   3   3    4.87    4.83   0
  -3   6  12  679.19   11.77   0
  -2   5  11    5.12    5.68   0
  -4   3  17   -2.17    5.58   0
   1   4 -12  899.86   13.69   0
   1   2  -4 3031.73   28.69   0
   2   2 -24 1735.87   26.42   0
   0   4   2 1425.29   16.79   0
  -4   5  18  370.60   10.46   0
  -3   0   6 1952.27   27.58   0
  -3   5  16 1793.65   19.32   0
  -3   4  17    1.71    5.45   0
   0   5  -2  332.42    8.60   0
   1   4  -9    0.76    5.30   0
  -4   6  17   -0.09    5.54   0
  -1   3  11   -0.82    5.54   0
  -1   4  10 1108.08   14.95   0
   1  -1 -16 5245.85   46.02   0
   1   5 -19    3.33    5.90   0
   2   1 -20 1440.67   31.10   0
  -2   6  10  313.75    8.51   0
  -3   6  15    6.78    5.52   0
  -4   4  19    0.62    5.08   0
   0   3   6 2023.73   20.63   0
  -1   5   9    9.23    5.36   0
   0   5   1   -2.36    5.38   0
   1   1  -3   15.55    6.78   0
  -2   2  14  327.97   12.60   0
   0  -1  -8 9999.99   59.33   0
   0   4   5    3.92    5.65   0
   1   4  -6  842.58   13.03   0
   1   5 -13    4.03    5.26   0
   1  -1 -19   -1.88    4.73   0
   1   2  -1   17.09    4.93   0
  -2   3  16 2029.04   23.14   0
  -2   6  13   -0.21    5.57   0
   0   2   7    0.33    6.07   0
  -3   3  18 1266.91   20.83   0
   1   5 -10  437.98    9.97   0
   2   1 -17    4.51    6.76   0
   2   2 -15   -0.34    5.60   0
  -3   5  19    5.49    5.44   0
  -1   4  13    1.53    5.72   0
   2   3 -19    0.34    5.29   0
  -4   6  20  569.15   11.82   0
   0   1   5   -0.20    6.31   0
   0   5   4 1107.00   13.83   0
  -4   5  21    1.94    5.31   0
  -3   1  11    5.99    9.55   0
  -3   6  18  398.65    9.48   0
  -1   5  12 1114.63   14.27   0
  -2   5  17   -5.60    5.46   0
   0   4   8 1533.41   16.96   0
   1   5  -7   -0.85    5.35   0
   2   3 -16 1781.40   20.98   0
  -3   4  20  867.54   15.16   0
  -1   3  14 1619.49   19.15   0
   0   3   9   -0.20    4.62   0
   1   3   1    6.82    4.94   0
  -2   4  18 1019.13   14.68   0
   2   2 -12  782.08   15.77   0
  -3   2  16 2069.76   37.22   0
   0  -1 -11   -1.57    3.94   0
   0   5   7   -2.63    5.43   0
   1   2   2  692.43   13.83   0
   1   5  -4  702.67   11.88   0
   2   3 -13    0.81    4.96   0
   2   1 -14 1675.42   29.54   0
  -2   0   4 4738.89   48.80   0
  -1   4  16 2022.95   19.60   0
  -1   5  15    3.47    5.35   0
  -3   6  21   -0.63    5.29   0
   0   4  11    0.77    5.48   0
   1   1   0 4103.41   39.55   0
   2   2  -9   -4.43    5.76   0
   2   3 -10  736.51   13.37   0
  -4   6  23    0.99    5.42   0
  -3   5  22  276.65    8.93   0
   1   3   4 1302.96   16.05   0
   1   4   3    7.30    5.22   0
   1   5  -1    8.80    5.32   0
  -2   5  20  554.83   11.08   0
   0   2  10  187.63    8.24   0
   2   4 -14  253.48    8.48   0
  -2   3  19    0.44    5.15   0
  -1   1  10 3932.51   49.52   0
   0   3  12 2034.69   20.02   0
   0   5  10  690.90   11.05   0
   2   3  -7    5.94    4.59   0
   2   4 -11    1.08    4.93   0
  -2   4  21   -0.49    5.35   0
   2   1 -11    8.21    6.10   0
   1   2   5    1.31    4.54   0
   2   2  -6  825.24   14.94   0
  -3   4  23    5.54    5.28   0
   1   3   7    3.47    5.53   0
   1   4   6  349.81    8.62   0
   2   4  -8  812.11   13.02   0
   0   4  14  308.53    8.43   0
  -3   3  21   -3.20    5.24   0
   0   5  13    0.19    4.48   0
  -2   2  17   -0.24    4.59   0
  -2   5  23    6.91    5.45   0
   2   4  -5    1.33    5.10   0
  -3   5  25    2.17    5.15   0
   0   1   8 9679.22   61.73   0
   0   3  15    4.49    5.62   0
   1   4   9   10.01    5.31   0
   2   2  -3    2.19    4.17   0
   0   2  13    2.87    4.55   0
   1   1   3   13.37    5.54   0
   2   1  -8 3384.77   36.07   0
   2   3  -1    2.76    5.12   0
   1   3  10 1108.04   14.81   0
   2   4  -2  584.11   11.07   0
   0   4  17   -0.12    5.33   0
   0   5  16  643.52   10.59   0
   1   2   8 3350.84   26.81   0
  -2   4  24 1792.79   19.36   0
  -2   3  22  464.05   11.67   0
  -1   0   2 1947.37   42.91   0
   2   3   2  791.91   12.88   0
   2   4   1    6.19    5.02   0
   1   4  12 1106.55   13.58   0
  -2   5  26  575.23   11.18   0
  -3   4  26  596.68   12.76   0
   2   1  -5    4.11    5.02   0
  -3   5  28  360.99   10.19   0
   1   3  13    6.81    5.20   0
   0   4  20 1256.03   14.97   0
   2   4   4  817.52   12.31   0
   1   2  11    7.16    5.67   0
   0   2  16 3057.09   26.28   0
   1   4  15   -1.88    5.24   0
   1   1   6 1983.61   24.56   0
  -2   4  27    3.37    5.18   0
  -1   3  23   -1.66    5.30   0
  -1   4  25   -2.47    4.65   0
  -3   3  24 1035.07   18.95   0
   0   1  11   -1.49    6.35   0
  -2   0  -2 5054.35   39.54   0
  -2   5  29   -1.59    5.17   0
   1   3  16 2068.09   19.09   0
   2   3   8 2113.75   18.95   0
   0   3  21   -6.29    5.28   0
   3   3  -9    2.14    4.96   0
  -2   2  20 3425.91   35.34   0
  -2   3  25    0.08    5.76   0
   0   4  23    0.62    4.43   0
   1   4  18  697.06   11.23   0
   2   2   6  782.44   12.93   0
   1   2  14 1636.15   18.40   0
   3   2 -14  363.40   11.45   0
   3   3  -6  434.32   10.64   0
   1   0  -5    0.54   10.87   0
   3   2 -11    1.78    5.39   0
  -3   4  29   -0.28    4.92   0
   2   1   1   17.02    5.59   0
   2   3  11    3.69    4.51   0
   3   2  -8 2178.75   23.56   0
   3   3  -3    1.94    4.98   0
  -3   2  19   -0.07    6.33   0
   0   2  19   -0.16    4.41   0
   1   1   9   14.95    6.34   0
  -1   2  21    7.50    5.00   0
  -1   4  28  666.15   11.43   0
   1   0 -23    0.79    4.81   0
   1   3  19    9.82    4.72   0
   2   2   9    3.07    5.33   0
   2   4  13    3.34    4.96   0
   1   4  21    3.51    5.25   0
   3   2  -5    6.98    5.09   0
  -2   4  30  201.74    8.01   0
  -1   3  26  522.31   11.30   0
   0   3  24 1541.50   16.97   0
   3   3   0 1022.06   13.81   0
  -3   1   8 3342.17   44.49   0
  -1   0  -1   -1.28    7.02   0
   1   2  17    1.64    4.86   0
   2   3  14  365.43    8.67   0
   3   2  -2  817.19   13.81   0
   2   1   4 3109.09   27.90   0
   3   3   3    2.49    5.03   0
   1   0 -20 1606.16   27.31   0
   0   1  14 1618.64   22.60   0
   1   3  22  357.15    9.09   0
   2   2  12  767.62   12.30   0
   3   2   1    1.88    5.05   0
  -2   3  28 1284.29   18.13   0
  -1   4  31    2.03    5.28   0
   3   3   6  442.45    9.70   0
   0   2  22 1835.94   19.50   0
   1   1  12 4057.93   31.45   0
   2   3  17   -0.01    4.46   0
  -3   3  27   -1.39    4.76   0
   2   1   7    0.64    4.28   0
   3   2   4  677.05   12.21   0
  -1   0  -4 2652.11   34.91   0
  -1   3  29    1.23    5.23   0
   1   2  20 1446.92   16.44   0
   2   2  15   -5.61    5.28   0
   3   3   9   -0.97    4.72   0
  -2   2  23    0.60    5.15   0
  -2   4  33    2.96    4.90   0
  -1   2  24 1793.47   21.24   0
   1   0 -17   -0.43    5.16   0
   1   3  25   -2.62    5.16   0
   2   3  20  570.80   10.14   0
   3   1 -10 1117.67   20.48   0
   3   1  -7    5.54    5.65   0
   3   2   7    5.55    5.14   0
  -1   0  -7   -1.36    4.75   0
   3   3  12  680.44   11.32   0
  -3   1 -16 1953.92   51.34   0
  -5   1  21    0.58    5.21   0
  -1  -1  33   -4.16    6.25   0
  -1   0 -19   -1.19    6.68   0
  -4   1  22  364.89   10.34   0
  -2   1   9   18.57    6.26   0
  -1  -2  40  423.33   11.54   0
  -3   1  20 1442.53   18.09   0
  -2  -1  38  310.27   10.28   0
  -2   1  12 4032.66   34.53   0
   0  -1  28 1331.62   21.44   0
   1  -2  30  575.01   16.75   0
  -4   1  25   -2.42    5.23   0
   1  -1 -10 3723.63   35.71   0
   0   0   6 1651.98   44.92   0
  -3   1  23   -0.20    5.59   0
  -2   0  31   -2.36    5.18   0
  -5   2   5    0.49    6.24   0
  -2   1  15    1.52    5.34   0
  -1  -1  36  878.28   15.72   0
  -6   2   4  860.20   14.36   0
  -5   2  -1    0.86    5.96   0
  -5   2   8 2137.16   21.58   0
  -6   2   1   -1.98    5.75   0
  -6   2   7   -4.67    5.99   0
  -4   1  28  663.15   12.01   0
  -3   0  36  484.50   11.40   0
  -6   2  -2  578.24   12.89   0
  -6   2  10  311.73    9.13   0
  -5   2  -4  695.73   15.05   0
  -2  -1  41   -2.08    6.14   0
  -1   0  26 1138.26   17.83   0
   0   0   9   -3.14    8.76   0
  -6   2  13    2.19    6.01   0
  -5   2  14  376.29   10.29   0
  -3   1  26  531.74   11.52   0
  -2   1  18 1203.46   17.99   0
  -6   2  -5    0.20    6.02   0
  -2   1  -9   16.48    9.72   0
   1  -1  -7    1.16    5.43   0
   1  -1  17    0.22    7.52   0
  -4   2   9    5.64    5.40   0
  -2   0  34  275.00    9.19   0
   0  -1  31    2.82    5.96   0
  -5   2  -7    3.15    6.31   0
  -5   2  17    4.13    5.26   0
  -4   1  31    3.21    5.18   0
  -4   2   0 4130.54   33.63   0
  -4   2  12  788.25   14.18   0
  -5   2  20  567.99   11.67   0
  -4   2  -3    0.64    5.65   0
  -3   1  29    3.48    5.80   0
  -2   1  21    8.88    5.88   0
  -1  -1  39    2.90    6.54   0
   0   0  12  261.19   14.70   0
  -4   2  15    0.04    5.41   0
  -1   0  29   -3.04    6.38   0
  -2   0 -23    1.07    5.88   0
   1  -2  33    4.14    5.69   0
  -5   2  23    0.04    5.99   0
  -4   2  18 1091.77   15.31   0
  -2   0  37   -1.25    6.21   0
  -1   0 -16 5000.80   55.76   0
  -5   2 -10  691.57   16.47   0
  -4   2  -6  796.34   17.82   0
  -2   1  24 1803.82   20.68   0
   1  -1  -4 2469.31   34.94   0
  -4   2  21   -5.98    5.33   0
   0   0  15    1.68    6.71   0
   0  -1  34  899.87   17.56   0
  -1   0  32 1684.56   20.70   0
  -3   2   7    0.50    6.02   0
  -3   2  10 2047.75   22.97   0
  -1  -1  42  292.35   10.14   0
   1  -1  20 1463.56   33.40   0
  -3   1  35   -1.93    6.11   0
  -3   2   4 3022.88   29.79   0
  -3   2  13   10.50    5.49   0
  -2   0  40  763.58   14.00   0
  -4   2  27   -0.53    5.20   0
  -3   2  16 2075.60   21.59   0
  -4   2  -9    0.26    6.60   0
  -3   2  19   -2.87    5.62   0
  -1   0  35    4.41    6.25   0
   1  -1  -1    0.85    6.41   0
  -6   3   6  451.26   10.98   0
  -6   3   9    3.41    5.08   0
  -6   3  12  715.73   12.38   0
  -6   3  15   -0.06    5.94   0
  -4   2  30  200.42    7.75   0
  -3   1  38  298.46    8.89   0
   0  -1  37   -1.95    5.79   0
   0   0  21    2.07    5.68   0
   2  -2   7    1.25    5.57   0
   2  -2  13    1.28    7.52   0
  -3   2  22  484.91   11.05   0
  -6   3   3    2.84    5.71   0
  -2   0  43    3.03    5.70   0
   2  -2  10  173.14   12.67   0
  -2   1  33   -3.54    6.05   0
  -1   1  10 3751.66   38.32   0
  -1   1  13   -1.17    5.77   0
  -6   3   0 1036.48   16.39   0
  -4   2  33    3.96    5.00   0
  -3   2  25    0.15    5.31   0
  -1   1   7   -3.10    8.31   0
  -1   1  16 5334.06   40.91   0
  -5   3   7    1.41    5.20   0
  -5   3  16 1795.53   18.49   0
   1  -1  23   -1.43    6.54   0
  -5   3   4  695.81   13.70   0
  -5   3  19    2.21    5.15   0
  -1   0  38  252.52   10.04   0
   0   0  24 4694.40   40.31   0
  -3   2  28 1351.13   16.88   0
  -1   1  19   -0.73    4.89   0
  -6   3  -3    2.91    5.99   0
  -5   3  22  279.21    8.56   0
  -5   3   1    5.65    6.11   0
  -2   1  36  849.62   14.39   0
  -5   3  25    1.25    5.04   0
  -1   1   4 2360.33   36.00   0
  -3   2  31    2.24    5.62   0
  -4   2 -12  735.12   20.79   0
  -3   2  -5    5.28    5.57   0
   0   0  27    2.24    6.44   0
   1  -1   2 1830.92   39.43   0
  -5   3  -2  799.39   15.52   0
  -4   3  11   13.39    5.35   0
  -4   3  14  675.51   12.40   0
  -4   3  17   -0.51    5.09   0
  -1   0  41    2.66    5.94   0
  -4   3  20  876.61   13.89   0
  -2   0 -20 3207.44   41.76   0
  -2   1  39   -4.95    5.88   0
   1  -1  26 1134.65   25.43   0
  -4   3  23    3.04    5.31   0
  -2   2  14  337.56   10.98   0
  -2   2  11    1.44    5.22   0
  -2   2  17   -3.57    5.21   0
  -1   1  28 1316.40   18.67   0
  -4   3  26  629.27   11.50   0
  -2   2  20 3479.28   27.93   0
   0   0  30  161.31    9.02   0
  -5   3  -5    4.04    5.92   0
  -3   2  37   -3.61    4.99   0
  -2   2   8 2212.32   25.82   0
  -4   3   2  842.65   15.25   0
  -4   3  29    2.31    5.52   0
  -2   1  42  305.67    9.78   0
  -2   2  23    1.56    5.24   0
  -1   1   1   -1.20    7.37   0
  -1   1  31    0.54    5.87   0
  -2   2  26 1240.33   16.99   0
  -6   4  11   -7.99    5.78   0
  -6   4  14  268.87    8.47   0
   1  -1  29   -1.13    5.92   0
  -2   2   5   -1.51    5.39   0
   0   0  33   -3.10    5.27   0
  -6   4   8  830.98   13.70   0
  -4   3  -1    5.80    5.62   0
  -3   2  -8 3233.93   41.37   0
  -2   1  45    2.27    5.92   0
  -1   1  34  903.59   15.47   0
  -6   4   5   -2.37    5.72   0
   0  -1 -11   -0.77    3.62   0
  -5   3  -8 2104.58   26.74   0
  -2   2  32  642.06   12.62   0
  -3   3  15    1.11    6.23   0
  -3   3  18 1353.13   16.90   0
  -3   3  21   -7.42    6.16   0
  -5   4  21    3.40    5.04   0
  -3   3  12 2590.88   24.10   0
  -6   4   2  587.34   12.65   0
  -3   3  24 1075.07   14.90   0
  -2   2   2 5169.68   42.78   0
  -1   1  37    3.73    5.58   0
   0   0  36  585.31   14.12   0
  -5   4   9    0.16    5.71   0
  -3   3  27    1.74    5.55   0
  -2   2  35   -3.12    5.50   0
   1  -1  32 1664.61   28.70   0
  -3   3   9   -6.58    5.05   0
   1  -1   5    0.74    8.57   0
  -4   3  -4 1279.94   20.28   0
  -3   3  30  298.02    9.38   0
  -5   4   6  871.38   14.42   0
  -6   4  -1    0.01    5.76   0
  -3   3   6  531.16   12.72   0
  -2   2  38  237.54    9.01   0
  -1   1  40  691.05   13.66   0
   0   0  39    1.50    5.42   0
  -5   4   3    9.81    6.34   0
  -3   3  36  748.31   12.97   0
  -4   4  19    5.54    6.04   0
  -4   4  22  711.01   12.49   0
  -2   2  -1    2.02    6.63   0
  -2   2  41    2.27    5.77   0
  -4   4  16 1505.72   17.24   0
  -4   4  25    6.87    5.12   0
  -3   3   3   -1.95    4.62   0
  -1   1  -2 1776.42   41.00   0
  -6   4  -4  810.47   15.55   0
  -5   3 -11    2.05    6.14   0
  -4   4  13    3.11    5.86   0
  -4   4  28  616.35   11.90   0
  -1   1  43   -1.21    5.72   0
  -5   4   0 1447.50   19.08   0
  -4   4  10  413.90   10.71   0
   0  -1  -8 9726.72   64.40   0
  -3   3  -9    4.42    5.27   0
  -2   3  22  455.20   10.70   0
  -5   5  -1    2.16    5.33   0
  -3   4  14  712.40   12.14   0
  -3   4  17    6.37    4.87   0
  -3   4  20  884.77   13.42   0
  -2   2  41   -1.79    5.55   0
  -1   2  15   -5.16    5.65   0
  -1   2  18 1174.49   17.89   0
   0  -1  -8 9726.13   63.40   0
  -3   4  11   13.52    5.20   0
  -3   4  23    6.29    5.50   0
  -2   3   7    2.38    4.87   0
  -1   2  12 4062.38   33.47   0
  -3   4   8 2680.94   22.64   0
  -5   4 -15    1.60    5.88   0
  -4   4  -8 1492.85   19.18   0
  -2   3  28 1319.32   16.68   0
   0   0  33    1.21    5.48   0
  -1   2   9   18.78    5.69   0
  -1   2  24 1803.89   21.24   0
  -5   5  -4 1083.39   14.87   0
  -4   5  18  358.22    9.32   0
  -3   4   5    4.55    4.88   0
  -2   3   4 3000.37   26.54   0
  -4   5  12  931.78   13.30   0
  -4   5  15    9.31    4.72   0
  -4   5  21   -1.72    5.49   0
  -3   4  29    1.72    4.59   0
   1  -2   6 1930.82   26.93   0
  -2   4  18 1022.56   13.86   0
  -2   5  32  649.44   12.19   0
  -2   5  35   -0.73    6.15   0
  -2   5  38   84.65    6.61   0
  -1   4   7    7.25    4.57   0
  -1   6  26  197.77    8.19   0
  -1   6  38  107.50    8.20   0
  -1   6  29   -4.90    5.93   0
  -1   6  32  357.45   10.74   0
  -1   6  35   -4.07    6.10   0
   0   6  18  256.49    9.33   0
   3   6  21   -3.01    7.65   0
  -2   4  45   -1.59    5.79   0
  -1   3   5    3.93    4.24   0
  -1   5  51    3.67    6.77   0
   1   5   5    2.29    5.99   0
   2   6  17    2.72    6.95   0
  -2   4  21   -2.42    4.59   0
  -1   5  15    5.41    5.99   0
   0   6  21   -3.00    6.59   0
   0   6  45   10.32    6.99   0
   1   3  -5    3.79    4.49   0
   2   3  -7    2.13    4.70   0
   3   6  24  151.75    8.78   0
  -2   4  42  352.18   10.10   0
  -1   5  48  119.77    8.38   0
   0   6  42  117.64    8.09   0
   2   4  -2  568.11   11.69   0
   2   6  20  168.76    9.09   0
   3   5   7   -3.13    5.95   0
   3   6  27    1.71    6.19   0
  -2   4  39    5.61    5.83   0
  -1   4  10 1113.02   14.54   0
  -1   5  18  718.08   12.32   0
   0   5  10  684.10   11.62   0
   0   6  27   -3.16    7.10   0
   0   6  39  -10.26    7.49   0
   1   4   0 1410.22   16.88   0
   2   5   6  416.77   10.51   0
  -2   4  27    1.05    5.44   0
   0   6  30  134.65    7.77   0
   0   6  33   -1.13    7.56   0
   0   6  36  126.55    8.16   0
   1   6  22  132.76    7.56   0
   1   6  43   10.66    7.33   0
   2   6  23  -11.67    7.29   0
  -2   3  43    0.47    5.74   0
  -2   4  30  194.81    7.94   0
  -2   4  33   -0.05    5.76   0
  -2   4  36  343.21    9.15   0
  -1   5  45   -8.95    6.60   0
   1   5   8  757.25   12.77   0
   1   6  25    1.20    6.90   0
   1   6  40  171.42    9.18   0
  -1   5  21   10.68    6.20   0
   1   6  28  139.97    8.53   0
   1   6  37    3.94    7.03   0
   2   6  32  148.89    8.48   0
   2   6  35    6.41    7.03   0
   4   5  14   58.58    6.87   0
  -1   4  52  155.05    9.18   0
  -1   5  42  193.01    8.97   0
   0   4   5    0.53    5.11   0
   0   5  13    1.86    5.83   0
   0   5  52  133.05    8.59   0
   1   6  31    2.53    6.89   0
   1   6  34  153.31    8.47   0
   3   5  10  186.17    8.46   0
  -2   2  23   -0.15    4.08   0
  -2   3  25    2.51    4.90   0
  -2   3  40  420.72   10.53   0
  -1   3   8 3350.75   25.36   0
   0   4  59   -0.97    5.70   0
   2   5   9    2.32    6.07   0
  -1   4  13    4.11    4.73   0
  -1   5  27   -0.04    6.13   0
  -1   5  39   -4.61    5.77   0
   4   5  17   -0.31    6.41   0
  -2   3  28 1291.18   16.43   0
  -2   3  37    5.06    5.19   0
  -1   5  30  152.87    7.42   0
  -1   5  33   -7.75    6.65   0
   0   5  49    4.62    7.11   0
  -2   2  26 1193.25   17.02   0
  -2   3  31    3.83    5.07   0
  -2   3  34  579.84   11.74   0
  -1   4  49    2.28    6.33   0
   0   5  16  641.35   11.37   0
   2   4   1    1.56    5.27   0
   3   5  13   -0.36    6.63   0
  -2   2  29   -1.76    4.85   0
  -2   2  35    3.23    4.91   0
   0   5  46   64.16    8.10   0
   1   4   3   -0.44    4.38   0
   4   5  20   96.23    8.08   0
  -2   2  32  601.74   12.51   0
  -1   4  16 2035.55   18.63   0
   1   3  -2  850.21   13.97   0
   2   5  12  390.36    9.72   0
   3   4   2  199.87    8.29   0
  -1   4  46   66.12    7.29   0
   0   4   8 1459.60   16.09   0
   0   5  19   -3.46    5.31   0
   2   3  -4  669.16   12.85   0
   3   5  16  385.26   10.77   0
   4   5  23    4.11    6.78   0
  -1   3  11    7.30    5.08   0
   0   3   3    0.78    4.80   0
   4   5  26  129.41    7.87   0
  -1   4  19    1.99    5.42   0
   0   5  22  217.30    7.98   0
   0   5  40  177.13    8.98   0
   1   5  47    4.05    6.72   0
   2   5  15   -6.63    6.30   0
   4   5  29   -0.94    7.06   0
  -1   4  43    6.11    6.25   0
   0   4  53   -3.08    6.24   0
   0   5  25   -2.76    6.30   0
   0   5  37   -0.60    6.95   0
   1   5  17    2.47    5.60   0
   3   5  19   -0.93    6.56   0
  -1   3  50  139.72    7.94   0
   0   5  28  614.79   12.02   0
   0   5  31    3.23    6.46   0
   0   5  34  265.74    9.38   0
   1   4  57    4.33    6.32   0
   1   5  44  139.66    8.64   0
   2   4   4  863.47   13.66   0
   2   5  45   -0.29    7.37   0
  -1   4  22  351.75    8.92   0
  -1   4  40  418.14   10.60   0
   0   4  11    0.04    5.15   0
   1   4   6  354.01    8.94   0
   1   5  20  475.16   10.73   0
   2   5  18  150.16    8.34   0
   3   4   5   -2.12    5.67   0
   3   5  22  103.32    8.09   0
  -1   4  37   -5.26    6.10   0
   1   5  41    9.23    7.16   0
   2   5  42   93.72    8.07   0
   3   3  -3    2.44    5.28   0
   3   5  25   -4.23    7.34   0
   3   5  37   -2.87    7.50   0
  -1   3  14 1630.98   17.78   0
  -1   4  25   -2.84    4.79   0
  -1   4  28  673.19   12.09   0
   0   3  57    3.52    5.92   0
   0   4  50  138.04    8.53   0
   1   5  23   -5.28    6.79   0
   1   5  38  119.48    8.47   0
   3   5  34  126.46    8.39   0
   4   4   9    0.07    6.10   0
  -1   3  47    0.40    5.73   0
   1   4  54   44.51    7.14   0
   1   5  35   -2.39    7.30   0
   2   5  24  390.02   10.79   0
   2   5  39   -1.41    7.50   0
   1   5  29   -3.27    6.09   0
   1   5  32  340.34    9.60   0
   2   5  27    7.86    7.00   0
   2   5  33    6.61    7.43   0
   2   5  36  147.83    9.02   0
   0   3   6 1996.38   19.81   0
   0   4  14  314.97    8.45   0
   0   4  47    3.37    6.97   0
   1   3   1   10.77    5.02   0
   2   4   7   -2.88    5.52   0
   2   5  30  158.26    8.10   0
   5   4  19    1.82    6.18   0
  -1   3  44  279.96    9.32   0
   3   4   8  505.93   11.07   0
  -1   3  17    3.91    4.36   0
   0   3  54   71.93    6.97   0
   1   4  51    6.45    7.27   0
   2   3  -1    0.65    4.74   0
   4   4  12  228.50    9.03   0
   5   4  22   72.33    7.77   0
   0   4  17    0.96    5.75   0
   0   4  44  358.00    9.67   0
   5   4  25    0.84    6.31   0
  -1   3  41    0.94    5.63   0
   1   3  58   87.72    7.45   0
   5   4  28   73.72    7.88   0
  -1   3  20 1447.99   16.69   0
   1   4  12 1089.12   14.16   0
   2   4  10  326.32    9.44   0
   4   4  15   -0.98    6.22   0
  -1   3  38  286.12    9.12   0
   0   3  51    2.34    6.55   0
   0   4  20 1245.59   14.82   0
   2   4  49   -4.04    7.24   0
   3   3   0 1007.21   15.38   0
   3   4  11   -1.35    5.06   0
   0   4  23   -6.07    6.06   0
   3   4  47    2.38    7.22   0
  -1   2  45    0.04    5.26   0
  -1   3  23   -1.65    4.38   0
  -1   3  35    1.29    5.46   0
   0   3   9   -3.35    4.28   0
   0   4  26  704.97   12.35   0
   0   4  35   -1.88    5.59   0
   4   4  18  175.59    8.90   0
  -1   3  29    1.42    5.25   0
  -1   3  32 1118.41   15.04   0
   0   4  29   -1.32    5.48   0
   1   3  55   -3.64    6.31   0
   1   4  15    7.33    5.05   0
   2   4  13   -0.54    6.00   0
   2   4  46   87.45    8.02   0
   4   4  21   -0.72    7.14   0
   4   4  39   -6.61    7.09   0
   0   3  48  287.97    9.72   0
   1   4  42  209.96    9.31   0
   3   4  44  125.44    8.69   0
   1   4  18  717.24   12.25   0
   2   3   2  816.33   13.44   0
   2   3  56   84.55    8.19   0
   4   4  24  303.94   10.35   0
   4   4  27   -1.39    7.27   0
   4   4  30   86.61    8.25   0
  -1   2  42  290.07    9.29   0
   1   4  39   -1.29    6.78   0
   2   4  43    5.35    6.85   0
   3   4  17   -5.33    6.64   0
   3   4  41   -0.96    7.25   0
   4   3   4  598.47   12.15   0
   6   3  21    1.73    7.22   0
   0   3  12 2021.21   19.47   0
   1   2  59    0.08    6.60   0
   1   3  52  173.73    8.99   0
   1   4  21    0.49    5.91   0
   0   3  45   -4.97    6.32   0
   1   4  24  636.42   11.94   0
   1   4  36  438.13   10.51   0
   2   4  40  225.16    8.88   0
   3   3   3    1.21    5.18   0
   3   4  20  387.94   10.61   0
   6   3  24  169.52    8.74   0
  -1   2  39   -2.54    5.14   0
   0   2  52  162.10    8.43   0
   1   4  27   -1.17    6.60   0
   1   4  30  164.86    8.56   0
   1   4  33    5.64    5.89   0
   2   4  19    6.01    5.49   0
   2   4  37   -3.80    7.34   0
   3   2  -5    3.96    5.02   0
   3   4  35    3.33    7.69   0
   5   3  11   -3.98    6.11   0
   1   3   7    4.91    5.09   0
   2   3  53    3.85    7.15   0
   2   4  22  345.53    9.77   0
   2   4  34  142.88    8.93   0
   3   4  29    0.63    7.19   0
   3   4  32  246.83    9.03   0
   0   3  42  228.65    8.92   0
   1   3  49   -1.47    6.71   0
   2   2  60   87.12    7.42   0
   2   4  25   -1.04    6.84   0
   2   4  28  401.69   10.72   0
   2   4  31   -6.21    6.70   0
  -1   2  36  875.85   14.03   0
   0   3  15    1.12    4.60   0
   1   2  56  166.41    9.47   0
   2   3   5    1.58    5.18   0
   4   3   7   -8.63    5.59   0
   0   3  39   -2.86    6.10   0
   3   3  51   -1.48    7.51   0
   5   3  14  126.33    8.09   0
  -1   2  24 1727.59   19.14   0
  -1   2  33    6.88    5.09   0
   0   2  49   -3.49    5.89   0
  -1   2  27   -4.20    4.92   0
  -1   2  30  589.03   11.83   0
   0   3  18  535.53   10.49   0
   1   3  46   75.10    6.98   0
   3   3   6  442.74   10.55   0
   4   3  46   42.06    8.06   0
   5   3  17    0.52    6.54   0
   1   3  10 1118.29   14.55   0
   3   3  48  117.39    8.79   0
   4   3  10  347.23   10.03   0
   0   3  21   -2.52    4.75   0
   2   2  57    0.91    7.25   0
   5   3  20  195.25    9.05   0
   0   2  46  216.52    8.77   0
   0   3  24 1584.31   16.95   0
   0   3  27   -0.58    5.52   0
   0   3  30  527.66   10.73   0
   1   2  53    4.78    6.78   0
   2   3   8 2173.32   20.37   0
   4   3  43   -5.98    7.34   0
   5   3  23   -4.91    6.83   0
   5   3  26  164.76    8.94   0
   5   3  29    1.14    7.30   0
   5   3  32  161.73    9.24   0
   3   3  45   -4.84    7.56   0
  -1   1  37   -0.09    4.95   0
   1   3  13    1.27    4.74   0
   2   1  61   -2.15    6.22   0
   2   3  44  217.04    9.64   0
   3   3   9   -0.28    4.86   0
   4   3  13    1.38    6.28   0
   4   3  40  122.35    8.85   0
  -9   3  18  157.13    9.15   0
  -4   0  35   -0.21    6.76   0
  -9   4   8  320.83   10.68   0
  -8   3  22  122.20    9.40   0
  -6   3  21    1.34    6.26   0
  -5   0  37    8.13    7.42   0
  -5   1  33    7.95    7.20   0
  -3   1  26  503.26   11.41   0
  -3   2  16 2065.94   20.72   0
  -8   4  12  245.54    9.76   0
  -7   1  34  145.08    9.63   0
  -7   3  23    3.62    7.80   0
  -4   1  31   -0.22    6.60   0
 -10   4   1    2.50    6.58   0
  -8   2  29   -0.48    7.59   0
  -7   2  30  167.54    8.70   0
  -4   2  24 1852.09   19.35   0
  -4   3  11   13.08    5.10   0
  -9   3  21   -0.33    7.83   0
  -8   1  33    5.29    7.85   0
  -7   4  13    7.04    7.19   0
  -6   1  35   -3.03    7.03   0
  -5   3  19   -4.64    5.75   0
  -3   0  33    3.80    5.89   0
  -2   0  28 1059.23   16.27   0
  -8   4  15   -2.44    7.98   0
  -5   2  29   -6.34    7.12   0
  -8   3  25    0.46    7.77   0
  -7   0  38   26.57    8.23   0
  -6   0  39    4.15    7.83   0
  -6   3  24  589.67   12.49   0
  -6   4  11   -7.00    6.34   0
  -5   4  -9    7.56    5.23   0
  -5   4  -6  359.56   10.14   0
  -5   4  -3   -0.85    5.36   0
  -9   4  14   71.52    8.41   0
  -7   3  26  152.45    9.46   0
  -7   4  16  402.98   11.24   0
  -5   4   0 1404.85   17.41   0
  -9   3  24  142.93    9.38   0
  -4   3  14  680.69   12.09   0
  -3   2  19   -0.09    4.91   0
  -8   4  18  177.66    9.41   0
  -7   1  37    3.38    7.76   0
  -5   1  36  447.64   12.02   0
  -5   3  22  288.45    9.64   0
  -5   4   3    8.34    5.73   0
  -9   4  17   -1.57    7.36   0
  -6   4  14  261.83    9.01   0
  -5   0  40  183.33   10.03   0
  -4   0  38  104.83    8.32   0
  -4   2  27   -6.88    6.06   0
  -3   1  29    2.12    4.85   0
  -8   5  -4  241.63    9.50   0
  -7   4  19   -3.61    7.57   0
  -6   1  38  125.02    9.17   0
  -4   1  34  511.92   12.02   0
  -9   5  -5    1.16    6.35   0
  -9   5  -2  153.82    8.80   0
  -8   5  -7    3.40    6.33   0
  -8   5  -1   -0.40    6.79   0
  -7   3  29   -1.91    8.19   0
  -6   3  27    9.76    6.41   0
  -9   3  27    6.10    7.32   0
  -9   5   1    5.23    6.62   0
  -8   4  21    3.33    8.08   0
  -8   5   2  218.18    9.60   0
  -4   3  17   -2.27    5.16   0
  -9   4  20   98.48    8.29   0
  -9   5   4  102.13    8.16   0
  -8   5   5    2.05    7.06   0
  -6   4  17  -10.58    6.01   0
  -5   4   9    3.09    5.13   0
  -3   0  36  500.77   12.07   0
  -8   2  35   -2.39    7.29   0
  -7   2  36  154.05    9.53   0
  -7   5  -6  410.84   10.84   0
  -7   5  -3   -0.72    6.10   0
  -6   0  42  110.47    8.43   0
  -5   3  25   -5.44    5.77   0
  -3   2  22  458.65   10.42   0
  -9   5   7   -7.25    7.52   0
  -8   3  31   13.52    8.02   0
  -8   5   8  446.10   11.71   0
  -7   4  22  145.30    8.32   0
  -7   5  -9   -3.29    6.29   0
  -7   5   0  562.05   11.68   0
  -2   0  31   -2.41    5.01   0
 -10   5   0  171.88    8.72   0
 -10   5   3    1.02    7.63   0
  -9   4  23    4.77    7.95   0
  -7   1  40  183.21    9.89   0
  -7   5   3   -8.80    5.67   0
  -5   1  39    2.45    7.28   0
  -5   4  12  899.00   13.94   0
  -2   1  24 1742.52   19.65   0
  -9   5  10  119.21    9.25   0
  -8   5  11    1.57    7.33   0
  -7   3  32  269.27   10.42   0
  -7   5   6  132.29    8.14   0
  -6   4  20  639.50   12.12   0
  -4   3  20  902.13   13.44   0
  -3   1  32 1149.79   16.14   0
 -10   5   6   74.11    7.36   0
  -6   1  41    5.04    7.17   0
  -6   2  37    2.58    7.92   0
  -5   2  35   -3.21    7.42   0
  -4   0  41   -5.97    7.26   0
  -4   1  37    7.49    6.50   0
  -3   3   6  519.31   11.36   0
  -9   5  13    2.34    7.23   0
  -7   4  25    4.22    8.11   0
  -7   5   9    7.19    6.71   0
  -5   0  43   -5.04    7.37   0
  -5   3  28  396.07   10.96   0
  -2   2  11    1.72    4.47   0
  -1  -1  30  561.10   13.60   0
  -8   4  27    8.93    8.08   0
  -5   4  15    7.21    5.41   0
  -9   4  26  138.15    8.37   0
  -8   3  34  107.96    8.97   0
  -7   2  39    1.84    7.48   0
  -6   4  23   -3.17    6.26   0
  -3   2  25    0.73    4.96   0
  -3   3   9   -1.89    5.26   0
  -6   3  33   -0.57    7.33   0
  -4   3  23    6.68    6.24   0
  -8   5  17   -7.46    6.39   0
  -7   1  43    1.94    8.02   0
  -6   5  -2  324.93    9.70   0
  -6   5   1    7.07    5.98   0
  -5   4  18  375.39   10.09   0
  -4   2  33    1.24    6.33   0
  -7   4  28  345.66   10.32   0
  -7   5  15  -10.52    7.18   0
  -6   5  -5    1.44    5.40   0
  -6   5   4  690.47   12.81   0
  -5   1  42  187.98    9.61   0
  -3   0  39    2.13    5.88   0
  -2   2  14  339.65    9.82   0
  -9   4  29    4.10    7.36   0
  -9   5  19    1.61    6.85   0
  -8   4  30   87.83    8.68   0
  -6   2  40  233.19   10.25   0
  -6   5  -8  730.03   13.50   0
  -5   3  31    4.30    6.52   0
  -3   3  12 2590.34   22.29   0
  -2   1  27    0.52    4.89   0
  -6   1  44  156.26    9.63   0
  -6   5   7    4.12    5.30   0
  -5   2  38   89.36    7.25   0
  -4   4  -2 1324.66   17.25   0
  -4   4   1   -2.19    4.94   0
  -3   1  35   -0.73    5.91   0
  -2   0  34  262.16    9.24   0
  -7   5  18  373.09   10.68   0
  -5   4  21   -0.39    6.68   0
  -4   1  40  411.54   11.23   0
  -4   4  -5   -0.10    4.60   0
  -9   5  22   66.59    8.03   0
  -7   2  42   74.31    8.32   0
  -7   4  31    8.19    8.10   0
  -4   3  26  645.59   11.82   0
  -8   5  23   -9.06    7.59   0
  -3   3  15    4.19    4.58   0
  -8   4  33   -3.12    7.60   0
  -7   5  21    0.93    7.43   0
  -6   4  29   -2.96    7.09   0
  -4   4  10  386.55    9.91   0
  -2   2  17   -0.18    4.44   0
  -9   6   3    2.25    7.15   0
  -4   2  36  355.68    9.79   0
  -9   5  25    6.57    6.88   0
  -9   6   6  155.69    8.57   0
  -6   2  43   -3.34    7.98   0
  -6   5  16  631.38   12.40   0
  -5   4  24  877.59   13.36   0
  -9   6   9    3.34    6.74   0
  -8   3  40  126.63    8.61   0
  -8   5  26  150.90    9.25   0
  -8   6   1    3.02    6.69   0
  -5   1  45   -7.36    7.33   0
  -5   2  41    6.72    7.14   0
  -4   3  29    0.93    6.09   0
  -4   4 -11    0.81    4.82   0
  -4   4  13    1.96    5.71   0
  -3   3  18 1302.13   15.79   0
  -8   6  -2  195.65    8.94   0
  -8   6   4  200.41    9.45   0
  -8   6   7   -0.66    7.25   0
  -7   4  34  172.87    8.71   0
  -7   5  24  310.11   10.57   0
  -6   3  39    3.74    7.86   0
  -3   2  31    1.00    5.82   0
  -2   1  30  583.98   11.63   0
  -9   5  28   80.25    8.59   0
  -9   6  12  129.56    8.71   0
  -8   4  36  110.54    8.68   0
  -7   2  45    2.67    8.31   0
  -7   3  41   -9.81    7.64   0
  -6   4  32  333.65   10.49   0
  -6   5  19    3.90    6.81   0
  -2   2  20 3516.45   26.43   0
  -8   6  10  163.46    9.21   0
  -5   4  27    5.61    6.60   0
  -4   1  43    1.65    6.51   0
  -4   4  16 1469.91   16.79   0
  -9   6  15    6.53    7.44   0
  -8   5  29   -6.85    7.59   0
  -8   6  13   -9.09    7.42   0
  -2   0  37    5.70    5.19   0
  -7   5  27    5.21    6.92   0
  -5   5   2  315.07    9.41   0
  -5   5   5   -3.28    5.58   0
  -4   2  39   -4.73    6.57   0
  -3   3  21    2.86    4.82   0
  -9   6  18   84.99    8.19   0
  -8   6  16  327.84   10.85   0
  -7   4  37    2.91    7.73   0
  -6   5  22  190.61    8.36   0
  -5   5  -1    3.37    5.25   0
  -5   5   8  948.02   14.15   0
  -4   3  32  822.34   13.83   0
  -7   6  -1   -1.20    6.07   0
  -7   6   2  325.29    9.98   0
  -7   6   5    1.95    6.31   0
  -6   2  46   97.26    8.65   0
  -5   5  -4 1078.63   15.68   0
  -4   4  19    3.72    5.21   0
  -1   0  29    0.70    4.40   0
  -8   5  32  200.42    9.89   0
  -7   6   8  618.44   12.58   0
  -6   3  42  135.32    9.16   0
  -6   4  35   -4.64    6.59   0
  -5   2  44  204.15    9.84   0
  -5   4  30  291.46   10.03   0
  -2   2  23    3.08    5.16   0
  -7   3  44  131.29    8.97   0
  -7   5  30   73.24    8.94   0
  -7   6  11    0.79    7.06   0
  -6   5  25    2.79    7.00   0
  -3   2  34  553.52   11.22   0
  -3   3  24 1081.21   14.82   0
  -2   1  33    6.67    5.44   0
  -5   5  -7   -1.97    5.14   0
  -5   5  14  593.98   11.42   0
  -4   4  22  711.44   12.43   0
  -7   6  14  130.54    7.62   0
  -5   3  40  405.46   11.33   0
  -3   1  41    2.54    5.88   0
  -8   6  22   90.61    8.08   0
  -5   5  17    8.90    6.53   0
  -4   1  46   74.28    7.72   0
  -8   5  35    5.87    7.34   0
  -7   5  33   -2.24    7.99   0
  -6   4  38   76.09    8.38   0
  -6   5  28  391.93   10.99   0
  -5   4  33    3.56    7.17   0
  -4   2  42  345.13   10.62   0
  -4   4  25   -3.86    6.00   0
  -3   3  27   -3.81    5.82   0
  -1   1  22  452.46   11.08   0
  -9   6  27   -0.72    7.28   0
  -8   6  25   -0.63    7.04   0
  -7   6  20  246.84    9.82   0
  -6   2  49   -1.41    7.78   0
  -6   3  45    2.72    7.50   0
  -5   5  20  667.54   11.89   0
  -7   3  47    2.01    7.11   0
  -5   2  47    0.86    7.19   0
  -3   2  37    1.20    5.15   0
  -6   5  31   -9.21    7.20   0
  -8   5  38   52.12    8.02   0
  -8   6  28  154.44    8.92   0
  -7   4  43   -0.16    7.05   0
  -7   5  36  225.18   10.19   0
  -7   6  23    5.02    6.42   0
  -6   6   3   -0.01    5.63   0
  -6   6   6  231.54    9.02   0
  -6   6   9    1.88    6.40   0
  -5   3  43   -1.31    6.34   0
  -5   4  36  303.64   10.12   0
  -5   5  23   -1.80    5.85   0
  -4   3  38  154.67    8.55   0
  -4   4  28  608.00   12.20   0
  -2   1  36  851.33   14.02   0
  -1   0  32 1675.22   20.85   0
  -9   7   5   -1.63    6.83   0
  -9   7   8  186.88    9.21   0
  -6   6   0  826.55   13.97   0
  -6   6  12  382.09   10.29   0
  -9   7  11   -9.66    6.67   0
  -3   1  44  313.52   10.23   0
  -3   3  30  308.52    8.85   0
  -9   7  14  112.21    8.08   0
  -6   6  -3   -1.81    5.58   0
  -5   5  26  206.08    8.87   0
  -4   2  45    4.82    6.87   0
  -3   4   8 2605.29   22.15   0
  -2   3   7    2.30    4.91   0
  -1   1  25    0.72    4.50   0
  -8   6  31    6.89    7.08   0
  -6   3  48  124.75    8.85   0
  -6   5  34  204.94    8.76   0
  -6   6  18  349.48   10.36   0
  -3   4   2  874.65   13.73   0
  -3   4  11   13.98    4.83   0
  -2   3  10 2036.26   20.22   0
  -9   7  17   11.66    7.25   0
  -8   7   6  156.13    8.63   0
  -8   7   9   -4.32    6.91   0
  -7   5  39   -4.21    7.66   0
  -4   4  31   -3.02    5.66   0
  -3   2  40  463.74   11.30   0
  -3   4  14  694.71   12.27   0
  -9   7  20  123.54    8.80   0
  -8   7   3    7.36    6.62   0
  -8   7  12  150.76    8.67   0
  -7   4  46   51.92    7.94   0
  -7   6  29   -7.10    7.63   0
  -5   2  50  155.62    9.29   0
  -3   4  -1    6.69    4.71   0
  -2   3  13    6.61    4.59   0
  -8   7  15    4.92    6.91   0
  -6   4  44  208.61   10.29   0
  -6   6  21    2.95    6.14   0
  -5   3  46   57.67    7.47   0
  -5   5  29    3.05    7.08   0
  -4   3  41    3.19    5.72   0
  -4   5   6  863.07   13.52   0
  -3   4  17    0.44    5.60   0
  -8   6  34   83.96    8.14   0
  -6   5  37   -4.95    7.70   0
  -4   5   3    7.09    5.29   0
  -4   5  12  890.38   13.51   0
  -2   1  39    1.33    5.36   0
  -2   2  32  636.12   12.18   0
  -2   3  16 2067.01   19.77   0
  -9   7  23    3.88    6.76   0
  -8   7  18  116.39    8.73   0
  -6   6  24  465.44   11.41   0
  -4   5  15   11.22    6.09   0
  -7   5  42  115.59    8.87   0
  -4   4  34  240.74    8.63   0
  -4   5   0 1391.60   17.25   0
  -3   4  -4 1227.59   17.41   0
  -3   4  20  885.21   13.08   0
  -1   0  35   -0.52    4.62   0
  -1   1  28 1264.80   16.97   0
  -8   7  21    2.01    6.71   0
  -5   4  42  168.26    9.12   0
  -5   5  32  462.09   11.61   0
  -4   2  48  270.18   10.24   0
  -4   5  18  356.12    9.70   0
  -2   3  19   -0.93    4.60   0
  -8   6  37    1.28    7.34   0
  -6   3  51   -3.49    7.66   0
  -6   6  27    3.04    6.98   0
  -3   2  43   -0.73    6.31   0
  -7   7   7    2.31    6.31   0
  -7   7  10  217.40    9.07   0
  -6   4  47   -1.65    7.65   0
  -6   5  40  190.48    9.73   0
  -4   5  -3    1.43    4.90   0
  -4   5  21    3.52    6.40   0
  -3   3  36  804.37   13.05   0
  -3   4  23    3.93    5.21   0
  -7   6  35    8.96    7.45   0
  -7   7   4  160.53    8.39   0
  -7   7  13    5.62    6.14   0
  -5   3  49    3.77    7.26   0
  -2   3  22  467.86   10.04   0
  -7   7   1    5.80    6.17   0
  -7   7  16  464.39   10.88   0
  -6   6  30  109.08    8.65   0
  -5   5  35   -1.69    6.90   0
  -5   6   7    1.61    5.88   0
  -5   6  10  450.30   10.83   0
  -4   4  37    1.69    5.71   0
  -2   2  35   -0.06    4.62   0
  -8   7  27    5.38    6.70   0
  -7   7  19   -1.06    7.12   0
  -5   6   4  702.28   12.74   0
  -4   5  24  890.42   13.91   0
  -3   4  26  660.51   12.11   0
  -1   2  15    4.20    4.22   0
  -5   4  45   -2.81    7.66   0
  -5   6   1    4.56    5.62   0
  -2   1  42  314.44    9.78   0
  -2   3  25   -5.22    5.57   0
  -1   1  31    2.05    4.82   0
  -8   7  30   58.86    8.49   0
  -7   6  38   44.09    7.93   0
  -5   6  19    8.91    5.64   0
  -3   3  39   -2.04    6.13   0
  -1   2  18 1203.26   16.25   0
  -6   6  33   -4.96    7.78   0
  -4   2  51    0.55    6.84   0
  -4   5  27   -5.47    6.72   0
  -7   7  25   -4.74    7.12   0
  -6   4  50   87.14    8.80   0
  -5   5  38  174.27    8.44   0
  -5   6  -2  308.12    9.35   0
  -5   6  22  207.63    8.19   0
  -4   3  47   11.21    6.70   0
  -3   2  46  125.03    7.88   0
  -3   4  29   -0.43    5.29   0
  -5   3  52  115.72    9.61   0
  -2   2  38  234.73    8.78   0
  -2   3  28 1291.75   15.86   0
  -1   2  21    8.54    4.98   0
  -8   7  33   10.40    7.81   0
  -7   6  41    5.50    7.81   0
  -5   6  25    8.71    7.03   0
  -4   5  30  287.71    9.48   0
  -7   7  28  115.81    8.22   0
  -6   6  36  181.07    8.70   0
  -6   5  46   57.03    8.47   0
  -6   7  11    5.02    6.64   0
  -5   4  48  185.25    9.35   0
  -5   5  41  -10.07    7.63   0
  -5   6  -5    0.46    5.49   0
  -4   5  -9    6.22    4.87   0
  -3   3  42  308.14   10.06   0
  -3   4  32  846.43   13.19   0
  -1   1  34  907.54   14.69   0
  -7   7  31   -2.88    7.72   0
  -6   7   8  621.54   12.49   0
  -6   7  14  124.32    7.27   0
  -6   7  17   -1.29    7.23   0
  -5   6  28  392.43   10.31   0
  -4   4  43   -4.11    7.50   0
  -4   5  33    4.93    5.94   0
  -2   1  45   -3.32    5.34   0
  -8   8  11    1.61    7.54   0
  -6   4  53    0.75    7.58   0
  -6   6  39    2.76    7.83   0
  -4   3  50  170.14    9.27   0
  -8   8   8  223.78    9.00   0
  -8   8  14  114.48    8.39   0
  -8   8  17    1.35    6.65   0
  -6   7  23    2.71    7.21   0
  -5   6  31    0.69    6.41   0
  -3   2  49   -1.01    6.26   0
  -3   4  35    3.34    6.46   0
  -2   2  41    0.00    5.78   0
  -8   8  20  117.44    8.12   0
  -7   7  34  140.73    8.71   0
  -6   5  49    2.68    7.77   0
  -6   7  -1    3.82    6.20   0
  -6   7  26  246.30    9.83   0
  -5   4  51   -0.04    7.02   0
  -4   5  36  286.71    9.52   0
  -8   8  23   -0.69    7.53   0
  -6   6  42  117.35    8.83   0
  -5   6  34  201.46    9.85   0
  -3   3  45   -3.09    6.84   0
  -3   5  13    2.18    4.92   0
  -3   5  16 1728.25   18.00   0
  -1   1  37    0.49    4.95   0
  -7   7  37   -4.54    7.40   0
  -6   7  29  -12.06    7.69   0
  -3   5  19    2.88    6.25   0
  -8   8  26   77.94    7.55   0
  -4   6  11    1.07    5.63   0
  -4   6  17   -6.62    6.38   0
  -2   4  12  734.03   12.14   0
  -2   4  15    7.40    5.61   0
  -1   2  30  575.53   11.59   0
  -5   6  37   -1.79    7.84   0
  -4   5  39   -0.25    7.13   0
  -4   6   8  835.14   13.53   0
  -4   6  20  610.15   12.30   0
  -3   5   4  684.03   12.44   0
  -3   5  22  289.94    8.68   0
  -2   4   9    4.97    4.35   0
  -2   4  18 1046.73   14.08   0
  -5   5  47   -2.34    7.61   0
  -4   3  53    5.22    6.64   0
  -3   5  25  -10.36    6.44   0
  -2   2  44  647.47   13.01   0
  -2   3  37    0.70    5.98   0
  -2   4  21    2.35    5.50   0
  -7   7  40  148.29    8.83   0
  -7   8   9   -3.47    6.65   0
  -7   8  12  163.41    8.80   0
  -7   8  15   -7.16    7.10   0
  -7   8  18  115.37    8.34   0
  -6   6  45   12.43    7.51   0
  -4   6   5   -1.30    4.70   0
  -4   6  23    1.38    5.83   0
  -7   8  21   -0.12    7.11   0
  -5   4  54   50.29    7.46   0
  -4   4  49   -2.04    7.34   0
  -3   3  48  183.18    9.30   0
  -3   4  41    7.84    6.74   0
  -3   5   1    0.50    5.02   0
  -7   8   6  159.95    8.68   0
  -7   8  24  225.63    9.75   0
  -6   7  35    1.12    7.46   0
  -5   6  40  200.79    9.86   0
  -5   7  15    4.43    6.58   0
  -4   6   2  564.72   11.68   0
  -4   6  26  335.63    9.69   0
  -3   5  28  383.44    9.67   0
  -1   1  40  710.93   13.79   0
  -1   2  33   -4.84    5.40   0
  -5   7   9   -7.40    6.25   0
  -5   7  12  466.49   10.49   0
  -5   5  50   60.68    8.83   0
  -4   6  29    8.31    6.22   0
  -2   3  40  459.15   10.97   0
  -2   4  27    2.15    5.16   0
  -5   7  24  300.80   10.17   0
  -3   5  31   -0.31    5.79   0
  -7   8  30   68.82    7.89   0
  -6   7  38   44.36    7.57   0
  -4   6  -1   -0.88    5.34   0
  -3   4  44  276.13   10.04   0
  -3   5  -2  766.59   13.45   0
  -2   2  47   -1.72    5.73   0
  -2   4  30  200.07    8.17   0
  -1   3  14 1639.81   17.80   0
  -1   3  17   -1.47    4.56   0
  -5   6  43   10.10    7.03   0
  -5   7   3   -3.84    5.83   0
  -5   7  27   -4.12    6.20   0
  -4   6  32  322.78    9.82   0
  -2   4   0 4048.26   29.47   0
  -1   2  36  852.83   14.00   0
  -1   3  11    2.39    4.47   0
  -1   3  20 1480.41   16.73   0
  -4   4  52  132.04    9.27   0
  -3   3  51    7.74    6.94   0
  -3   5  34  418.31   10.38   0
  -1   3  23    6.90    5.53   0
  -7   8  33   -0.07    7.05   0
  -6   7  41    7.53    7.58   0
  -5   4  57    1.70    7.13   0
  -5   7  30   66.39    8.39   0
  -4   6  35  -12.79    7.71   0
  -1   3   8 3328.18   25.88   0
   0   1  23   -1.31    4.40   0
  -2   3  43    4.99    5.24   0
  -2   4  33    0.81    5.36   0
  -1   1  43    1.82    5.65   0
  -6   8  13   -2.58    6.56   0
  -6   8  16  329.52   10.25   0
  -6   8  19    6.07    7.35   0
  -5   5  53    2.62    7.60   0
  -5   7   0  581.68   12.03   0
  -5   7  33   -7.87    7.36   0
  -3   5  37   13.16    6.50   0
  -1   3  26  531.93   10.63   0
   0   0  33    0.81    4.55   0
  -6   8  10  172.59    8.86   0
  -6   8  22  100.55    7.77   0
  -4   5  48  188.50    9.63   0
  -3   4  47   -0.25    7.12   0
   0   1  26 1132.44   16.37   0
  -6   8   7    1.74    7.21   0
  -4   6  38   86.16    7.56   0
  -3   5  -5    5.56    4.59   0
  -1   2  39   -1.99    5.49   0
  -1   3   5    2.85    4.17   0
  -1   3  29    1.99    5.33   0
  -4   4  55   -1.56    8.03   0
  -2   4  -3   -0.38    4.50   0
  -3   5  40  412.04   11.23   0
  -2   3  46  112.70    7.99   0
  -6   8   4  217.60    9.13   0
  -6   8  31   -3.76    7.12   0
  -5   6  49    0.93    7.31   0
  -4   6  41    7.94    7.70   0
  -3   3  54   75.01    7.84   0
   0   1  29    1.01    4.62   0
  -5   7  39   -8.91    7.42   0
  -3   6  15   -0.41    6.27   0
  -3   6  18  384.47    9.82   0
  -3   6  21   -0.53    6.28   0
  -4   5  51    1.23    7.02   0
  -3   4  50  158.97    9.19   0
  -3   6  24  584.28   11.91   0
  -1   2  42  311.66    9.81   0
  -4   7  13   11.00    6.48   0
  -4   7  16  405.42   10.80   0
  -4   7  22  155.30    8.60   0
  -3   6   9    2.65    5.78   0
  -2   5  14  355.56    9.63   0
  -2   5  17    0.28    5.15   0
  -2   5  20  591.55   11.58   0
  -4   6  44  188.42    9.93   0
  -4   7  25    9.33    6.79   0
  -3   6  27    4.16    5.91   0
  -2   5  23    6.72    5.39   0
  -1   3  35    1.58    5.81   0
   0   1  32 1663.97   19.42   0
  -7   9  17    1.56    7.04   0
  -7   9  20  106.32    8.39   0
  -6   8  37   -3.39    7.27   0
  -4   7  10  386.86   10.46   0
  -3   6  30  170.54    8.57   0
  -2   4  42  366.92   10.65   0
  -2   5  11    3.96    4.85   0
  -2   5  26  625.37   11.51   0
  -7   9  14  109.05    7.68   0
  -7   9  23    1.44    6.57   0
  -4   7  28  348.00   10.01   0
  -3   6   6  416.27   10.21   0
  -2   3  49   -4.07    6.49   0
  -4   7   7    1.65    6.13   0
  -4   7  31    3.16    7.66   0
  -2   5  29    2.14    5.72   0
  -5   8  14  132.77    8.54   0
  -5   8  17   -7.81    7.24   0
  -5   8  20  192.83    9.41   0
  -4   5  54   56.79    7.42   0
  -3   4  53    0.86    6.90   0
  -3   5  46   41.86    6.75   0
  -3   6  33    0.77    6.04   0
  -1   3  38  307.82    9.63   0
   0   2  16 3077.34   25.16   0
   0   2  19    1.81    4.30   0
   0   2  22 1921.84   19.75   0
  -5   7  45   -7.81    6.66   0
  -3   6   3    4.01    5.44   0
  -2   5  32  688.30   12.19   0
  -1   2  45    2.00    5.72   0
   0   1  35   -1.36    4.88   0
  -5   8  11   -0.37    6.45   0
  -4   7   4  591.64   12.00   0
  -4   7  34  151.79    8.63   0
  -3   6  36  275.86   10.11   0
  -2   4  45   -6.37    6.74   0
  -2   5   5    2.83    5.29   0
  -1   4  16 2059.73   19.39   0
  -1   4  19   12.54    4.97   0
  -1   4  22  348.95    9.09   0
   0   2  13   -3.13    4.14   0
  -5   8  29   -0.40    6.95   0
  -2   5  35   -6.04    6.89   0
  -1   4  13    6.25    5.46   0
  -1   4  25   -0.43    5.20   0
  -5   8   8  414.51   10.90   0
  -5   8  32  193.36    9.12   0
  -4   7  37   -3.11    7.45   0
  -3   5  49   -3.43    7.44   0
  -2   3  52  240.02    9.68   0
  -1   3  41   -0.67    6.17   0
   0   2  28 1041.09   14.47   0
  -4   6  50   88.66    8.70   0
  -5   8   5   -3.36    5.95   0
  -5   8  35   -7.86    7.46   0
  -4   5  57    0.81    7.25   0
  -4   7   1    1.13    5.62   0
  -3   6   0 1009.73   14.79   0
  -2   5   2  765.05   12.96   0
  -2   5  38   89.86    8.10   0
  -1   4  10 1075.29   14.32   0
  -1   4  31    5.74    6.31   0
   0   1  38  240.20    9.08   0
   0   2  31   -2.29    5.16   0
  -4   7  40  129.96    8.77   0
  -3   4  56  113.89    8.58   0
  -2   4  48  261.04   10.14   0
  -1   2  48  298.32    9.74   0
  -6   9  18   86.73    7.65   0
  -6   9  21   -4.38    7.31   0
  -6   9  24  182.67    8.74   0
  -3   6  42  133.21    9.10   0
  -6   9  15   -1.37    6.96   0
  -6   9  27    2.69    6.78   0
  -5   8  38   48.49    7.80   0
  -1   3  44  299.08    9.64   0
  -1   4   7    7.13    4.50   0
  -6   9  12  127.46    7.84   0
  -4   7  43   -1.62    7.54   0
  -3   5  52  116.65    9.07   0
   0   2  34  268.02    8.31   0
  -4   6  53    5.26    7.36   0
  -4   7  -2  205.59    8.51   0
  -3   6  -3   -0.30    5.25   0
  -3   7  20  378.31   10.72   0
  -3   7  23   11.89    7.05   0
  -2   4  51    5.18    7.11   0
  -2   5  -1   -5.35    4.95   0
   0   1  41    3.06    5.38   0
  -3   7  26  125.57    8.55   0
  -2   5  44  199.35    9.74   0
  -2   6  22  344.86   10.24   0
   0   2  37    1.27    5.36   0
  -4   7  46   52.09    7.61   0
  -3   7  14  347.53   10.02   0
  -3   7  29    7.41    7.33   0
  -2   6  16  703.97   12.66   0
  -2   6  19    8.31    5.59   0
  -2   6  25    7.64    5.87   0
  -1   3  47    2.44    6.29   0
  -4   8  18  183.80    9.06   0
  -4   8  21   -2.76    6.01   0
  -4   8  27    0.12    7.45   0
  -3   5  55    7.61    7.21   0
  -2   6  28  394.59   10.10   0
  -1   4  40  412.89   10.87   0
   0   3  18  545.99   11.10   0
   0   3  21   -2.38    4.70   0
  -4   8  15   -2.22    6.97   0
  -3   6  48  118.38    8.55   0
  -3   7  11    3.13    5.41   0
  -3   7  32  271.21    9.57   0
  -2   6  31   -2.62    6.69   0
   0   3  27   -0.17    4.87   0
  -4   8  12  230.61    9.42   0
  -4   8  30   88.27    7.74   0
  -3   7  35    2.83    7.70   0
   0   3  15   -4.83    4.62   0
  -4   8  33    3.69    7.10   0
  -3   7   8  504.99   11.44   0
  -2   4  54   21.13    7.67   0
  -2   5  47    6.14    6.43   0
  -2   6  34  148.27    8.38   0
   0   2  40  761.12   13.43   0
  -1   4   1    5.88    4.93   0
  -1   4  43    0.17    5.72   0
  -1   5  18  702.55   12.37   0
  -1   5  21    8.74    5.54   0
  -1   5  24  637.01   11.67   0
  -1   5  27    0.33    6.38   0
   0   3  12 2021.30   19.47   0
  -5   9  19   -1.56    7.28   0
  -5   9  22   63.30    7.65   0
  -5   9  25    4.40    6.72   0
  -4   8   9    2.17    6.43   0
  -4   8  36  114.34    8.37   0
  -3   6  -6  407.61   10.62   0
  -3   7  38  123.95    8.32   0
  -2   5  -4  659.62   12.62   0
  -2   6  37   -0.06    7.25   0
  -1   3  50  142.77    8.24   0
  -1   5  15    0.39    5.70   0
  -1   5  30  178.27    8.75   0
   0   3  33    7.26    4.93   0
  -5   9  16  307.50   10.07   0
  -5   9  28   72.91    7.65   0
  -3   6  51   -1.83    7.55   0
  -3   7   5   -0.69    5.92   0
  -2   6   7    2.30    4.81   0
  -4   8  39   -0.88    7.38   0
  -3   5  58   77.10    8.05   0
  -3   7  41   -4.34    7.36   0
  -2   5  50  140.46    8.60   0
  -1   5  12 1101.35   14.79   0
  -1   5  33    2.40    6.83   0
   0   2  43    2.07    5.67   0
   0   3  36  520.56   11.23   0
  -5   9  13   -2.05    7.03   0
  -4   8   6  182.65    8.44   0
  -2   6  40  219.09    8.78   0
  -1   4  46   75.46    7.94   0
   0   3   9    2.83    4.36   0
  -1   5  36  452.91   11.19   0
  -3   7  44  131.75    8.65   0
  -2   6   4  803.14   12.82   0
  -1   5   9    0.49    4.78   0
   0   3  39    5.54    6.15   0
  -4   8   3   -4.40    6.49   0
  -3   7   2  206.84    8.57   0
  -2   6  43  -11.28    6.80   0
  -2   5  53    0.82    6.85   0
  -1   4  -2  833.68   13.89   0
  -1   4  49   -2.91    7.01   0
   0   2  46  235.41    8.88   0
   0   3   6 1982.94   19.70   0
   0   4  23    4.03    6.20   0
  -3   7  47    6.68    7.09   0
   0   3  42  225.55    8.95   0
   0   4  20 1246.18   15.16   0
   0   4  29   -1.48    6.25   0
   1   1  21    4.76    4.61   0
   1   1  24 1730.03   19.44   0
  -2   5  -7    5.43    4.45   0
  -2   6   1    1.95    4.56   0
   0   4  17    4.38    4.84   0
   0   4  32  456.41   10.97   0
   1   1  27   -1.29    3.95   0
  -3   7  -1   -2.22    5.31   0
  -3   8  19   -0.94    6.97   0
  -3   8  25   -0.63    6.63   0
  -3   8  28  150.33    8.71   0
  -2   7  21   -4.78    5.96   0
  -2   7  24  404.70   10.22   0
  -2   7  27    4.35    6.20   0
   1   1  30  582.76   12.10   0
  -3   8  16  379.76   10.83   0
  -3   8  31    2.69    7.53   0
  -2   7  30  153.64    8.45   0
  -1   4  52  162.32    9.66   0
   0   4  14  305.05    8.60   0
   1   0  31   -0.70    4.18   0
  -2   5  56   90.26    8.23   0
  -2   6  49    8.13    6.87   0
  -2   7  33   -4.94    6.36   0
  -1   5   3   -2.21    5.30   0
  -1   5  45    5.51    7.31   0
   0   3  45   -0.89    5.69   0
   1   1  33    1.41    4.76   0
  -4   9  20   95.53    8.09   0
  -4   9  23   -3.21    6.71   0
  -4   9  26  125.57    8.16   0
  -3   8  13   -6.42    6.59   0
  -2   7  36  154.61    8.88   0
  -1   6  20  471.92   11.20   0
  -1   6  23   -5.87    6.91   0
  -1   6  26  214.28    9.25   0
   0   3   3   -0.92    4.84   0
   0   4  11    6.01    5.49   0
  -4   9  17    4.50    6.92   0
  -3   8  37   -4.65    7.22   0
  -2   7  12  371.63   10.47   0
  -1   6  29    3.32    6.21   0
   0   4  38  116.67    7.36   0
   1   0  34  866.87   15.78   0
  -3   8  10  190.99    8.77   0
  -2   6  -2  575.87   11.77   0
  -2   7  39    7.32    7.56   0
  -1   6  17   -1.25    5.62   0
  -1   6  32  344.73    9.82   0
   1   2  20 1462.83   16.72   0
   1   2  29   -0.81    5.26   0
  -4   9  14   78.12    7.36   0
  -3   8  40  122.58    8.38   0
  -2   6  52  106.22    8.48   0
  -1   4  -5    1.51    4.60   0
  -1   5  48  121.22    8.67   0
  -1   6  14  375.67   10.03   0
  -1   6  35    8.86    7.13   0
   0   4  41    2.12    6.68   0
   1   1  36  824.44   14.06   0
   1   2  32 1157.35   15.68   0
  -2   7   9    4.61    5.36   0
  -1   4  55   -4.13    6.80   0
   0   4   8 1479.29   16.81   0
   1   2  17    2.49    4.48   0
  -4   9  11    3.13    6.91   0
  -2   7  42   63.53    8.30   0
  -1   5   0 1344.62   16.60   0
  -1   6  38  117.30    8.91   0
   1   2  35   -4.00    5.49   0
  -3   8   7   -1.11    6.45   0
   1   1  39    3.79    5.46   0
  -2   7   6  409.82   10.38   0
  -1   5  51    4.93    6.58   0
  -1   6  41    4.46    7.02   0
   0   4  44  348.23    9.88   0
   0   5  22  215.08    8.65   0
   0   5  25   -5.00    6.71   0
   0   5  28  606.69   11.96   0
   1   2  14 1668.96   17.97   0
  -4   9   8  310.88   10.08   0
  -2   7  45   -6.15    7.41   0
   0   5  19    6.46    6.11   0
   0   5  31    2.07    7.00   0
   1   2  38  310.82    9.49   0
  -1   6   8  743.49   12.24   0
   0   3  51    1.62    6.31   0
   0   4   5    0.11    4.58   0
   0   5  34  250.63    9.47   0
   1   3  22  369.61    9.72   0
   1   3  25    0.39    5.86   0
  -3   8   4  243.14    9.36   0
  -2   6  -5    3.22    4.99   0
   0   4  47   -2.75    6.89   0
   0   5  16  646.12   11.66   0
  -2   7   3    5.64    5.95   0
   0   5  37    2.41    7.39   0
   1   2  11    8.83    4.50   0
   1   3  19    9.56    4.89   0
  -1   5  54   40.72    7.81   0
   0   5  13    8.09    5.30   0
   1   2  41   -3.01    5.72   0
   1   3  34  467.17   10.41   0
  -2   8  26  173.72    8.89   0
  -2   8  29   -1.40    7.42   0
  -1   5  -3    8.33    5.41   0
  -1   6   5   -4.10    5.80   0
  -1   6  47    4.28    6.87   0
   1   3  16 2077.23   19.12   0
  -2   8  32  158.34    9.05   0
   1   3  37   -4.22    5.18   0
  -3   8   1   -0.16    6.08   0
  -3   9  21   -2.19    7.28   0
  -3   9  24  141.22    8.78   0
  -2   8  17    7.94    7.15   0
  -2   8  35    1.19    7.18   0
  -1   7  22  145.71    8.64   0
  -1   7  25    4.14    7.47   0
  -1   7  28  135.61    8.72   0
   0   4  50  128.74    8.50   0
   0   5  10  659.33   11.69   0
   1   3  13    4.93    5.57   0
  -3   9  18  160.84    8.95   0
  -1   4  -8 2639.92   25.55   0
  -1   7  19    1.46    6.82   0
  -1   7  31    5.47    6.75   0
   0   5  43   -5.39    7.27   0
   1   2   8 3496.76   26.29   0
   1   3  40  423.70   10.58   0
  -2   7   0  562.46   11.71   0
  -2   8  14   92.44    7.94   0
  -1   5  57    0.04    6.67   0
  -1   6  50   66.74    7.52   0
  -1   7  34  145.77    8.30   0
  -8   7  18  126.39    9.62   0
  -8   8   8  222.60   10.30   0
  -7   8   3   -5.63    7.54   0
  -6   8 -14   99.30    8.49   0
  -5   7   0  598.03   12.50   0
  -4   5  15    7.79    5.96   0
  -1   3 -25   -0.24    4.49   0
  -6   5  25   -0.50    6.55   0
  -6   8 -20  168.94    8.77   0
  -6   8 -11   -1.52    6.86   0
  -5   7 -33    6.80    7.23   0
  -4   6   5   -0.58    6.60   0
  -7   6  23    3.77    7.12   0
  -7   7  16  475.55   12.44   0
  -6   8 -23   -0.54    7.82   0
  -2   4   3    2.67    5.60   0
  -8   9 -11    2.19    7.27   0
  -7   8   6  171.18    9.62   0
  -6   8 -26  154.63    8.62   0
  -6   8  -5    0.88    7.51   0
  -4   4  22  696.60   13.49   0
  -1   3  -4 3045.65   25.92   0
  -9   8  13    1.13    6.76   0
  -8   8  11    9.86    7.45   0
  -8   9  -8  129.27    9.08   0
  -3   5   7    9.29    5.63   0
  -8   9  -5   13.85    7.53   0
  -6   6  21   -2.08    6.74   0
  -6   8 -29    2.11    7.06   0
  -6   8  -2  195.42    9.66   0
  -5   6  16  603.87   12.63   0
  -3   3  21    2.83    4.73   0
  -5   5  23    3.93    6.04   0
  -4   6   8  828.24   13.09   0
  -8   7  21    2.12    7.33   0
  -8   9  -2   93.99    8.46   0
  -6   7  14  127.56    7.91   0
  -5   7   6  144.87    7.94   0
  -3   6 -18  384.25   10.38   0
  -3   6 -15    5.48    6.07   0
  -7   7  19   -0.07    7.52   0
  -6   8 -32  133.59    8.41   0
  -6   8   1    7.58    6.54   0
  -4   5  18  373.84   10.31   0
  -3   4  17   -4.22    5.26   0
  -3   6 -21    7.35    6.03   0
  -3   6  -9    5.84    6.33   0
  -2   4   6  831.20   13.10   0
  -1   3  -1   17.35    5.37   0
  -8   8  14  100.75    8.92   0
  -8   9   1   -2.44    7.40   0
  -4   7 -20  392.02   10.87   0
  -4   7 -17    2.21    5.76   0
  -7   9 -19    0.55    6.82   0
  -7   9 -13   10.21    7.46   0
  -3   5  10  722.00   12.28   0
  -3   6 -24  558.90   11.91   0
  -3   6  -6  417.29    9.92   0
  -2   5 -16 1733.95   18.97   0
  -2   5 -13    1.25    5.48   0
  -7   8  12  171.43    9.61   0
  -7   9 -22   46.71    7.16   0
  -7   9  -7   -6.83    7.56   0
  -5   7   9    9.78    6.05   0
  -4   6  11    3.59    5.49   0
  -4   7 -23   -5.03    5.87   0
  -2   5 -19   -2.65    5.46   0
  -6   7  17    5.41    7.13   0
  -5   6  19   -0.83    5.57   0
  -4   7 -26  131.24    8.14   0
  -4   7  -5   -2.66    5.98   0
  -3   6 -27   -1.14    5.74   0
  -3   6  -3   -1.58    6.36   0
  -2   5 -22  266.93    8.96   0
  -7   9  -4  164.46    9.60   0
  -6   6  24  449.48   11.89   0
  -5   8 -16  379.47   10.87   0
  -2   5  -7    7.52    4.89   0
  -8   8  17    2.07    7.04   0
  -6   8   7   -1.75    6.70   0
  -5   8 -19    4.45    6.28   0
  -5   8 -10  187.94    8.34   0
  -4   4  25   -0.62    5.30   0
  -4   7  -2  217.46    8.52   0
  -2   4   9   -0.55    5.55   0
  -1   3   2  686.71   12.68   0
  -7   7  22   80.59    8.34   0
  -5   8 -22  100.72    8.56   0
  -5   8  -7   -8.61    6.44   0
  -4   7 -29    3.38    6.26   0
  -3   6   0 1005.44   13.95   0
  -2   5 -25   -0.86    5.19   0
  -2   5  -4  651.69   11.60   0
  -7   8  15   -3.04    7.25   0
  -5   5  26  206.40    9.32   0
  -5   8 -25   -2.75    6.77   0
  -5   8  -4  244.40    9.68   0
  -4   5  21    2.95    6.02   0
  -4   7   1    6.48    6.54   0
  -3   5  13    3.52    5.09   0
  -3   6 -30  157.05    8.06   0
  -2   3  16 1969.66   21.26   0
  -7   9   2   53.86    8.08   0
  -6   7  20  229.01    9.97   0
  -6   8  10  167.64    8.52   0
  -5   8 -28  154.96    9.20   0
  -5   8  -1    4.75    7.05   0
  -3   4  20  884.39   14.07   0
  -3   6   3    0.78    5.51   0
  -2   5 -28  338.95    9.99   0
  -2   5  -1    0.61    4.95   0
  -8   9  10   81.55    7.94   0
  -5   6  22  190.21    9.00   0
  -4   7   4  624.33   12.31   0
  -3   3  24 1022.78   16.79   0
  -8   8  20  111.40    8.22   0
  -7   9   5    3.47    7.58   0
  -6   9 -18  166.19    9.01   0
  -1   3   5    6.63    4.95   0
  -1   4 -14  661.58   12.48   0
  -7   8  18  110.68    9.21   0
  -6   9 -21   -0.94    6.88   0
  -6   9  -9    3.20    6.88   0
  -5   8   2  219.68    8.81   0
  -2   4  12  764.28   12.74   0
  -2   5   2  769.61   12.31   0
  -1   4 -17   -1.20    4.83   0
  -1   4 -11   13.96    5.14   0
  -7   7  25    4.06    7.01   0
  -6   6  27   -3.38    6.84   0
  -6   9  -6   71.11    7.83   0
  -4   6  17   -2.23    6.03   0
  -3   6   6  427.39   10.02   0
  -1   4 -20  840.91   14.26   0
  -8   9  13   -2.70    6.83   0
  -7   9   8  190.21    9.15   0
  -6   9 -24  135.32    8.56   0
  -6   9  -3   -0.82    7.32   0
  -5   8   5   13.89    7.87   0
  -4   7   7   -8.96    5.98   0
  -1   4  -5    0.94    5.33   0
  -6   7  23    7.71    6.76   0
  -6   9 -27   -0.80    6.11   0
  -4   5  24  890.04   14.80   0
  -2   5   5   11.11    5.15   0
  -1   4 -23    7.22    5.05   0
  -3   6   9   -0.79    5.55   0
  -7   8  21   -4.25    7.72   0
  -6   8  16  325.65    9.99   0
  -6   9   3    8.43    7.42   0
  -5   6  25    0.80    6.51   0
  -5   8   8  430.57   10.77   0
  -4   7  10  382.05   10.03   0
  -2   3  19    0.56    4.59   0
  -1   3   8 3395.79   26.56   0
  -3   4  23    2.49    5.33   0
  -3   7 -16  405.56   10.61   0
  -3   7 -13    4.94    6.74   0
  -4   6  20  584.66   11.60   0
  -4   8 -18  191.16    9.15   0
  -4   8 -15   -6.95    7.29   0
  -3   7 -19   -0.72    6.34   0
  -3   7  -7    2.61    6.33   0
  -1   4 -26  546.25   12.76   0
  -6   9   6  150.16    9.07   0
  -5   8  11   -3.25    7.74   0
  -4   8  -6  171.68    9.18   0
  -3   5  19    3.05    5.05   0
  -3   7 -22  156.82    8.28   0
  -3   7  -4  601.43   12.14   0
  -2   5   8 2180.02   19.76   0
  -7   9  14  117.20    8.64   0
  -4   7  13    4.21    7.00   0
  -4   8 -21    5.57    6.86   0
  -3   6  12  700.90   12.17   0
  -2   6 -14  267.47    9.09   0
  -2   6 -11    3.98    5.67   0
  -1   4   1    9.00    4.77   0
  -6   8  19   13.87    7.66   0
  -5   7  21    0.76    6.01   0
  -4   8 -24  300.48   10.04   0
  -4   8  -3    7.91    6.27   0
  -2   6 -17    1.61    4.95   0
  -6   7  26  222.53    9.93   0
  -6   9   9    6.12    7.34   0
  -5   9 -17    9.83    6.88   0
  -5   9 -14   66.88    8.16   0
  -5   9  -8  335.86   10.73   0
  -3   7 -25    1.98    6.16   0
  -2   6 -20  575.70   11.92   0
  -2   6  -5   -0.22    5.88   0
  -7   8  24  210.90    9.45   0
  -5   9 -20   93.70    7.90   0
  -5   9  -5    4.75    7.36   0
  -4   5  27    1.53    6.59   0
  -4   8   0  481.20   11.07   0
  -4   8 -27    3.26    6.05   0
  -3   3  27   -0.68    4.49   0
  -3   7   2  210.39    8.33   0
  -2   5  11    1.14    5.25   0
  -2   6 -23   -0.35    5.66   0
  -2   6  -2  581.71   11.70   0
  -1   3  11    4.98    5.09   0
  -1   4   4 1282.88   15.70   0
  -7   9  17    1.28    6.79   0
  -5   6  28  379.08   11.09   0
  -5   9 -23   -1.15    6.39   0
  -5   9  -2  155.19    8.47   0
  -4   6  23   -1.69    6.46   0
  -4   8   3   -3.44    6.46   0
  -3   6  15   -2.57    5.44   0
  -3   5  22  282.23    9.36   0
  -2   6   1   -0.91    6.45   0
  -6   8  22   88.60    8.57   0
  -5   7  24  292.38   10.36   0
  -5   9 -26  102.61    7.46   0
  -5   9   1   -7.32    7.04   0
  -3   7   5    1.06    5.95   0
  -2   6 -26  344.69   10.22   0
  -4   8   6  186.29    8.50   0
  -3   4  26  605.64   12.46   0
  -5   9   4  119.90    9.03   0
  -2   5  14  372.36    9.83   0
  -2   6   4  842.00   13.33   0
  -1   4   7    4.02    4.83   0
  -1   5 -15    5.77    5.41   0
  -1   5 -12  907.32   13.96   0
  -1   5  -9   -5.70    5.44   0
  -7   9  20  118.54    8.87   0
  -3   7   8  520.91   11.10   0
  -1   5 -18  354.02    9.93   0
  -6  10  -1   -2.58    7.66   0
  -4   8   9   -1.90    6.32   0
  -5   9   7    9.55    7.24   0
  -1   5  -3   13.49    5.85   0
  -6   8  25   -4.07    7.10   0
  -6  10   2   77.27    7.77   0
  -4   6  26  355.14   10.09   0
  -2   6   7    3.08    5.67   0
  -1   5 -21    0.26    5.20   0
   0   3 -15   -0.34    4.20   0
   0   3 -12 2454.57   23.66   0
   0   3  -9    3.62    4.49   0
  -5   8  20  195.74    8.65   0
  -4   5  30  266.57    9.77   0
  -4   8  12  252.96   10.26   0
  -3   7  11   -0.40    6.16   0
  -2   4  21    1.29    5.21   0
  -1   4  10 1136.38   15.12   0
  -1   5   0 1382.99   16.38   0
  -6   9  18   81.86    8.84   0
  -5   7  27    2.19    7.14   0
  -5   9  10  129.28    9.12   0
  -3   5  25   -1.71    5.80   0
  -4   7  22  156.72    8.65   0
  -3   8 -14  134.88    8.60   0
  -3   8 -11   -1.93    5.88   0
  -1   5 -24  822.87   14.33   0
   0   3 -18 1211.26   18.16   0
  -4   9 -16  290.99   10.25   0
  -4   9 -13   -0.49    6.92   0
  -4   9 -10  126.60    8.59   0
  -3   6  21    7.76    5.61   0
  -3   8 -17    0.21    6.89   0
  -3   8  -5   -0.83    6.16   0
  -2   6  10  346.38    9.28   0
  -1   5   3    8.71    5.88   0
   0   3  -3   -0.29    4.22   0
  -5   9  13   -2.86    7.19   0
  -4   9  -4  129.11    8.71   0
  -3   7  14  347.03    9.72   0
  -3   8 -20  189.68    9.03   0
  -2   7 -12  456.59   11.24   0
  -2   7  -9   -2.43    6.48   0
  -5   8  23    0.49    7.09   0
  -4   8  15   -2.16    6.24   0
  -4   9 -19    2.80    6.90   0
  -2   7 -15    1.81    6.34   0
  -6   8  28  140.33    8.99   0
  -6   9  21    1.06    7.76   0
  -4   9 -22   63.46    8.01   0
  -3   4  29    0.57    5.13   0
  -3   8 -23   -2.00    6.54   0
  -3   8   1   -6.86    6.15   0
  -2   7 -18  360.74   10.28   0
  -2   7  -3    0.15    6.37   0
  -1   4  13    5.27    4.84   0
   0   3   0 2596.28   22.70   0
  -4   6  29    3.69    6.30   0
  -2   3  25    3.92    4.55   0
  -2   6  13   -1.78    5.60   0
  -1   5   6  371.00    9.22   0
  -5   7  30   72.43    8.64   0
  -5  10  -3    6.04    7.64   0
  -3   7  17    4.05    6.93   0
  -3   8   4  255.22    9.99   0
  -2   7 -21    7.51    6.20   0
  -2   7   0  573.95   11.34   0
  -4   7  25    4.05    6.08   0
  -4   9   5    8.95    7.56   0
  -3   6  24  607.98   12.51   0
  -2   4  24 1791.39   19.33   0
  -3   5  28  369.00   10.42   0
  -3   8   7   -3.88    7.72   0
  -2   7 -24  257.21    9.78   0
  -2   7   3   -3.71    5.97   0
  -1   5   9    2.59    6.17   0
   0   3   3   -1.41    4.41   0
  -6   9  24  179.84    9.55   0
  -5   8  26  165.58    9.25   0
  -5  10   3    0.79    7.81   0
  -1   6 -10  427.85   10.62   0
  -4   9   8  338.00   10.71   0
  -2   6  16  720.42   12.29   0
  -2   7   6  409.20   10.94   0
  -1   4  16 2109.16   19.99   0
  -1   6 -13   10.97    5.07   0
   0   4 -13    2.26    4.92   0
   0   4 -10  398.44   10.13   0
  -5   9  19   -4.05    7.60   0
  -3   8  10  180.42    9.51   0
  -1   6 -16  596.66   12.15   0
  -5  10   6   76.85    8.50   0
  -4   8  21   -2.05    7.19   0
  -1   6 -19   -0.68    5.81   0
  -1   6  -1   -2.56    6.50   0
   0   4 -16 1444.86   18.11   0
   0   4  -4 1523.39   17.07   0
  -4   7  28  350.89   10.82   0
  -4   9  11    6.09    7.39   0
  -2   5  23    0.42    5.94   0
  -2   7   9   -5.43    6.95   0
  -1   5  12 1099.11   14.44   0
   0   3   6 2077.16   19.99   0
   0   4  -1   -3.79    5.38   0
  -5  10   9   -6.37    6.99   0
  -4   6  32  304.47   10.27   0
  -1   6   2  314.82    9.06   0
   0   4 -19   -1.08    5.37   0
  -3   6  27   -2.95    5.37   0
  -3   8  13   -0.49    7.65   0
  -2   6  19   -3.37    5.67   0
  -1   6 -22  195.64    8.29   0
  -6   9  27    2.64    7.15   0
  -5   8  29    2.26    7.07   0
  -5   9  22   73.78    8.31   0
  -4   9  14   54.34    7.99   0
  -1   6   5   -3.73    6.47   0
   0   4   2 1377.98   15.95   0
  -4   8  24  291.26   10.72   0
  -3   5  31    3.49    6.50   0
  -3   7  23   10.69    7.05   0
  -2   4  27   -0.63    5.18   0
  -2   7  12  377.55    9.88   0
  -3   9 -12  116.95    8.46   0
  -3   9  -9    0.61    6.70   0
  -1   5  15    9.60    5.22   0
   0   3   9   -2.50    4.49   0
   0   4 -22  600.55   12.95   0
  -3   9 -15   -1.83    7.25   0
  -2   3  28 1252.87   17.80   0
  -2   8 -10  165.26    8.74   0
  -2   8  -7    2.51    7.00   0
  -1   6   8  774.25   12.91   0
   0   4   5    3.28    4.77   0
  -4   9  17    7.10    7.10   0
  -4  10  -2   60.59    8.09   0
  -3   9 -18   74.51    7.29   0
  -3   9   0  258.01    9.71   0
  -2   5  26  605.10   12.22   0
  -2   8 -13    5.76    7.03   0
  -5   9  25   -0.92    6.92   0
  -4   7  31    5.02    6.64   0
  -3   9   3   -4.06    7.24   0
  -2   7  15    3.11    6.09   0
  -2   8 -16  318.82   10.18   0
  -2   8  -1    6.77    6.13   0
  -4  10   1   -5.92    7.45   0
  -3   6  30  178.71    8.62   0
  -3   9 -21    5.69    6.54   0
  -2   8   2  196.74    9.31   0
   0   5 -11   -3.82    5.66   0
   0   5  -8  934.25   14.02   0
  -4   8  27   -6.18    7.16   0
  -3   7  26  149.74    8.76   0
  -3   8  19   12.81    7.20   0
  -3   9   6   73.22    8.01   0
  -2   8 -19   -2.43    6.54   0
  -1   5  18  695.59   11.95   0
  -1   6  11   -3.37    5.71   0
   0   3  12 2057.86   19.93   0
   0   4   8 1551.11   16.66   0
  -5   8  32  162.92    9.24   0
  -2   8   5   -2.35    7.46   0
  -1   3  23    0.90    4.70   0
  -1   4  22  346.52    9.46   0
  -1   7  -8  592.65   12.36   0
   0   5 -14  613.37   11.59   0
   0   5  -2  323.78    8.86   0
  -2   7  18  137.82    7.72   0
  -1   7 -11   -4.05    6.54   0
   0   5 -17    3.57    5.49   0
   0   5   1   -0.14    5.70   0
  -3   9   9   -6.47    7.17   0
  -2   8   8  397.24   11.33   0
  -1   7 -14  128.22    7.93   0
  -5   9  28   65.88    7.49   0
  -2   4  30  190.75    7.98   0
  -2   6  25   -6.89    5.56   0
  -1   7 -17    0.53    6.35   0
  -1   7   1    1.47    5.90   0
   0   4  11   -3.19    4.78   0
   0   5   4 1139.40   15.09   0
  -2   5  29   -0.87    5.94   0
  -1   7   4  240.36    9.49   0
   0   5 -20  619.28   12.78   0
  -4   7  34  153.16    9.06   0
  -4   9  23    2.92    7.16   0
  -3   7  29   -1.95    7.21   0
  -2   7  21   -6.21    7.06   0
  -2   8  11   -9.72    7.31   0
  -4   8  30   79.46    8.33   0
  -1   7 -20  219.56    9.04   0
   0   3  15   -1.05    4.31   0
   0   5   7   -1.77    5.32   0
  -3   6  33    5.55    6.44   0
  -1   6  17   -9.31    5.87   0
  -1   7   7    1.68    6.21   0
   0   4  14  304.05    9.09   0
  -3   9  15   -2.22    6.92   0
  -2   8  14   97.19    8.45   0
  -1   4  25    3.22    5.42   0
  -3   8  25    1.97    7.54   0
  -2   3  31   -0.41    4.51   0
  -2   6  28  418.68   10.81   0
  -1   7  10  220.81    9.13   0
  -4   9  26  116.21    8.92   0
  -1   3  26  502.46   11.22   0
   0   6  -9   -3.24    6.31   0
   0   6  -6  227.46    8.65   0
  -3   9  18  163.62    8.82   0
  -1   5  24  615.82   11.48   0
  -1   6  20  488.28   11.21   0
   0   6 -12  389.06   10.42   0
  -3   7  32  261.52   10.33   0
  -2   8  17   -1.08    6.41   0
  -2   9 -11   11.04    6.66   0
  -2   9  -8  184.24    9.21   0
  -2   9  -5    0.01    6.65   0
  -1   7  13   -3.25    6.86   0
   0   3  18  517.12   10.90   0
   0   6   0  854.42   13.12   0
  -4   8  33   -2.77    7.33   0
  -2   5  32  644.68   12.66   0
  -2   9 -14  100.32    8.18   0
  -2   9   1   -2.60    7.12   0
   0   4  17   -0.90    4.83   0
   0   5  13    3.07    5.35   0
   0   6 -15    2.64    5.86   0
   1   3  -8 2713.50   23.73   0
  -3   8  28  144.10    9.04   0
  -2   9   4  178.06    9.14   0
   1   3 -11   12.38    4.87   0
   1   3  -2  836.84   13.06   0
  -2   9 -17    0.48    5.99   0
  -1   8  -9    7.39    7.21   0
  -1   8  -6  165.14    8.72   0
   0   6 -18  313.42    9.70   0
   0   6   6  331.66    9.45   0
   1   2  -1   12.29    5.22   0
   1   3   1    9.66    5.24   0
  -4   9  29   -6.69    6.74   0
  -3   6  36  266.59    9.90   0
  -2   6  31    3.66    6.21   0
  -2   7  27   -4.33    7.13   0
  -2   8  20  178.52    8.93   0
  -2   9   7    6.42    7.02   0
  -1   4  28  667.48   12.46   0
  -1   7  16  584.67   11.76   0
  -1   8 -12  149.99    8.60   0
  -1   5  27   -1.67    5.93   0
  -1   8   3    0.31    7.16   0
   0   5  16  637.51   11.54   0
   0   6   9    4.22    6.52   0
   1   3 -14  662.20   12.95   0
  -2   9  10  156.11    8.73   0
  -1   8 -15    1.22    6.52   0
   0   4  20 1250.75   15.62   0
   1   2   2  684.27   12.49   0
   1   3   4 1298.95   15.57   0
   1   4  -9   -0.83    5.45   0
   1   4  -6  847.50   13.04   0
  -1   7  19    1.49    7.71   0
  -1   8   6  100.70    8.50   0
   0   2  19    2.47    4.66   0
   1   4   0 1359.81   15.78   0
  -3   7  35    1.81    6.54   0
  -3   8  31   -0.36    7.36   0
  -3   9  24  136.33    8.99   0
  -1   8 -18  110.57    7.52   0
   0   6  12  320.36   10.18   0
   1   4 -12  901.16   13.77   0
   1   4   3   -0.51    5.54   0
  -2   9  13    0.45    7.56   0
  -1   3  29    0.64    5.04   0
  -1   8   9   -0.13    7.66   0
   0   5  19    5.87    6.25   0
   1   2   5    3.19    4.31   0
   1   3 -17    1.39    4.24   0
   1   3   7    6.62    4.68   0
  -2   5  35    0.24    5.76   0
  -2   7  30  156.06    8.93   0
  -1   6  26  206.76    8.19   0
   0   7  -4  164.72    8.93   0
   1   4 -15    0.59    5.13   0
   1   4   6  365.97    9.57   0
  -1   8  12  182.10    9.27   0
   0   6  15   -1.13    6.65   0
   0   7 -10  198.35    8.98   0
   0   7  -7   -0.83    5.92   0
  -2   6  34  152.00    8.60   0
  -2   9  16  124.62    8.95   0
  -1   5  30  163.86    8.23   0
  -1   7  22  125.01    7.72   0
   0   7   2  204.41    8.39   0
   1   3  10 1092.95   14.23   0
  -3   9  27    3.78    7.38   0
  -2   8  26  171.13    9.35   0
  -1   4  31    0.10    5.49   0
   0   7 -13   -3.22    6.64   0
   0   7   5  -15.09    7.15   0
   1   2   8 3355.73   25.56   0
   1   4 -18  352.05   10.28   0
   1   4   9    2.43    5.23   0
   1   5  -7   -1.66    5.98   0
   1   5  -4  698.97   12.08   0
  -1   8  15   -2.85    7.30   0
   0   5  22  231.85    8.90   0
   1   3 -20  790.40   15.14   0
   1   5 -10  446.81   10.79   0
   1   5   2  323.30    9.71   0
  -3   8  34  124.48    8.41   0
  -2   9  19    0.41    7.07   0
  -1   6  29    5.65    6.88   0
   0   3  24 1474.18   16.84   0
   0   6  18  263.99    8.77   0
   0   7 -16  440.22   11.27   0
   0   7   8  540.99   11.27   0
  -2   7  33    3.38    7.24   0
   1   3  13    0.68    4.67   0
   1   4  12 1113.11   14.72   0
   1   5 -13    6.54    5.92   0
   1   5   5   -4.81    5.52   0
  -1   8  18  186.01    9.31   0
   0   7  11   11.72    7.28   0
   1   2  11    9.32    5.21   0
   1   5   8  775.68   13.03   0
  -2   8  29   -6.21    7.05   0
  -1   9  -4  140.90    8.10   0
  -1   9  -1    4.81    7.42   0
   0   4  26  687.37   12.35   0
   1   5 -16  595.59   12.12   0
  -2   9  22   34.98    7.44   0
  -1   9 -10   73.17    8.14   0
  -1   9  -7    4.71    6.99   0
   0   6  21   -5.51    6.05   0
  -2   6  37   -5.71    6.46   0
  -1   3  32 1109.92   16.20   0
  -1   5  33   -1.14    6.07   0
  -1   9   5    6.19    7.03   0
   0   7  14  109.85    7.65   0
   1   4  15    4.81    5.24   0
   1   5  11   -8.56    5.78   0
  -1   7  28  138.04    8.80   0
  -1   8  21   -0.87    7.54   0
  -1   9 -13   -0.92    5.79   0
   1   3  16 2035.15   18.94   0
  -3   8  37   -0.10    6.58   0
  -1   4  34  477.44   11.19   0
  -1   6  32  331.89   10.36   0
  -1   9   8  121.82    7.88   0
   1   2  14 1699.50   18.41   0
   1   5 -19    0.87    5.25   0
   1   6  -8  623.30   12.58   0
   1   6  -5   -1.83    5.63   0
   1   6  -2  294.06    9.14   0
  -2   7  36  132.96    8.91   0
   0   3  27   -1.73    4.16   0
   0   6  24  530.87   11.73   0
   0   7  17   -3.86    6.39   0
   0   8  -5   -5.44    7.34   0
   0   8  -2   91.44    8.16   0
   1   5  14  373.85    9.59   0
   1   6   4  243.64    9.52   0
  -2   8  32  160.94    9.36   0
  -1   9  11    1.08    6.44   0
   0   8  -8  209.56    8.78   0
   0   8   1   -2.14    7.54   0
   1   4  18  691.45   11.74   0
   1   6 -11   -0.71    6.43   0
   1   6   7   -5.97    7.01   0
  -1   8  24  188.39    9.40   0
   0   4  29    1.14    5.40   0
   0   5  28  570.79   11.96   0
   0   8 -11    3.28    6.76   0
   1   3  19    8.39    5.53   0
   0   2  25    1.99    4.65   0
   0   8   7   -9.67    7.35   0
   1   5  17   -3.00    6.59   0
   1   6 -14  109.07    7.75   0
   1   6  10  219.58    9.03   0
  -1   7  31    6.46    7.40   0
   0   8 -14   98.95    8.25   0
   0   8  10  135.42    8.82   0
  -1   5  36  442.31   11.11   0
  -1   6  35    9.15    6.96   0
   1   2  17   -0.47    4.36   0
   1   4  21   10.92    5.86   0
   1   6 -17    0.20    5.73   0
   1   6  13   -3.58    6.18   0
  -2   8  35    3.16    7.41   0
   0   7  23    9.63    6.75   0
   0   8  13    2.79    6.71   0
   1   5  20  464.72   10.33   0
  -2   7  39   10.76    6.61   0
   0   3  30  518.10   11.23   0
   0   5  31    2.59    6.52   0
   1   6  16  568.34   12.05   0
   2   3  -4  680.88   12.16   0
   2   3   2  781.21   12.65   0
  -1   3  35    0.42    4.87   0
  -1   4  37   -1.42    5.34   0
   0   4  32  443.38   10.77   0
   0   8  16  172.66    8.88   0
   1   7  -6  172.36    8.81   0
   1   7  -3    6.96    7.05   0
   1   7   0  329.02   10.62   0
   2   3  -7    1.19    5.11   0
   2   4  -5    2.01    5.72   0
  -1   7  34  147.42    9.08   0
   0   6  30  111.51    8.28   0
   1   4  24  619.12   11.84   0
   1   7  -9   -5.48    6.86   0
   1   7   6   98.81    8.21   0
   2   3   5    3.45    4.89   0
   2   4   4  823.88   12.69   0
  -1   8  30   33.88    7.47   0
   0   7  26  166.74    9.48   0
   1   5  23    6.88    5.94   0
   1   6  19   -4.40    7.14   0
   2   3 -10  715.20   12.74   0
   2   3   8 2217.33   19.85   0
   2   4  -8  820.99   13.02   0
   2   4   7    0.72    5.84   0
   0   8  19    2.26    7.22   0
   1   7 -12  149.35    8.62   0
   1   7   9   -4.37    6.51   0
  -1   5  39    2.57    6.04   0
  -1   6  38   98.52    8.18   0
   0   2  28 1074.49   15.92   0
   1   7  12  182.82    9.29   0
   2   2   0 4202.42   28.02   0
   2   2   3   -2.80    5.13   0
   2   4 -11    4.25    4.92   0
   2   4  10  330.46    9.62   0
   2   5  -3    0.42    6.41   0
   0   5  34  250.59    9.35   0
   2   2  -6  813.05   13.61   0
   2   3 -13    0.32    4.86   0
   2   3  11    4.58    4.95   0
   1   5  26  217.21    9.05   0
   1   6  22  151.76    7.88   0
   2   2   6  797.75   12.56   0
   2   4  13    2.97    6.37   0
   2   5   6  426.76   10.18   0
  -1   7  37   -0.82    6.98   0
  -1   8  33    0.23    7.46   0
   0   6  33   -1.15    7.22   0
   1   7  15   -0.47    6.96   0
   2   4 -14  247.72    8.85   0
   2   5  -9    0.71    6.24   0
   2   5   9   -0.72    6.80   0
   0   3  33    2.98    5.17   0
   0   4  35    5.01    5.93   0
   1   2  23   -2.56    4.87   0
   2   2  -9    1.22    3.78   0
   2   2   9    2.10    4.58   0
   2   3  14  372.17    9.25   0
   1   7  18  189.04    9.37   0
   2   4  16  718.82   12.35   0
   2   5 -12  430.66   10.93   0
   2   5  12  370.11   10.51   0
   0   8  25   -5.96    7.09   0
   1   6  25    7.64    6.23   0
   2   3 -16 1680.83   19.77   0
   0   7  32  220.43    9.67   0
   1   3  28  641.03   11.57   0
   1   8  -1   -1.95    7.26   0
   1   8   2   82.62    8.07   0
   2   2  12  766.57   12.23   0
   2   3  17   -2.99    5.07   0
   2   4 -17   -1.33    5.12   0
   2   5  15    0.04    6.54   0
   2   6   2  204.71    9.50   0
  -1   6  41    2.88    6.56   0
   0   5  37   -5.04    6.46   0
   1   4  30  159.32    8.07   0
   1   7  21  -11.48    7.26   0
   1   8  -4  145.28    8.15   0
   1   8   5    6.67    6.75   0
   2   2 -12  754.17   13.72   0
   2   4  19    4.37    6.26   0
   2   5 -15    2.38    5.79   0
   2   6  -4  225.26    9.35   0
   0   6  36  135.26    8.37   0
   1   8  -7   -9.19    6.23   0
   2   6  -7   -9.72    6.73   0
   2   6   8  432.54   11.29   0
  -1   7  40  170.82    8.69   0
   0   2  31   -0.39    5.02   0
   1   8  11    7.14    6.87   0
   2   2  15   -0.67    4.69   0
   2   5  18  160.46    7.88   0
   2   6  11    2.70    7.21   0
   1   2  26  497.90   10.77   0
   2   3  20  572.93   10.89   0
   0   4  38  102.82    7.41   0
   1   5  32  354.57   10.53   0
   1   7  24  189.40    8.91   0
   1   8  14   66.00    7.63   0
   2   3 -19    1.49    4.97   0
   2   4  22  356.45   10.03   0
   2   6  14   98.17    8.36   0
   0   3  36  478.24   11.10   0
   0   7  35    1.14    6.98   0
   1   3  31   -1.92    5.78   0
   2   2 -15   -1.46    4.75   0
   2   5  21    4.05    7.12   0
   2   6 -13   -0.84    6.32   0
   1   4  33   -9.36    6.27   0
   2   2  18 1069.90   14.07   0
   2   6  17   -5.50    7.65   0
   1   7  27   -4.96    7.41   0
   2   1   1   14.21    4.48   0
   2   1   4 3071.64   25.13   0
   2   3  23    4.15    5.23   0
   0   5  40  183.05    8.79   0
   0   6  39    1.16    7.23   0
   2   1   7    3.49    4.92   0
   2   4  25   -8.10    6.61   0
   2   5  24  406.40   11.20   0
   2   7   1   -1.53    6.76   0
   2   7   4  170.57    8.93   0
   2   6  20  157.84    9.05   0
   2   7  -2   66.37    7.89   0
   1   1  21    5.30    4.45   0
   1   2  29    6.80    5.10   0
   1   5  35   -0.62    6.78   0
   2   2  21   -8.67    5.34   0
   2   7  -5    2.20    6.91   0
   2   7  10  146.44    8.39   0
   3   3   3    1.35    5.88   0
   0   7  38   28.24    6.96   0
   2   1  10 2082.03   20.17   0
   2   7  13    1.46    7.65   0
   3   3  -3    2.34    5.69   0
   3   3   6  436.46    9.90   0
   3   4  -4  626.90   12.22   0
   3   4  -1    0.84    5.35   0
   3   4   5   -1.77    5.68   0
   3   4   8  518.94   11.17   0
   1   3  34  482.37   10.99   0
   1   6  34  136.72    8.73   0
   2   5  27    1.66    7.16   0
   2   6  23    2.57    7.40   0
   3   3   9    1.81    5.39   0
   0   2  34  256.64    9.16   0
   0   4  41    0.10    5.92   0
   2   7  16  137.12    8.75   0
   3   3  -6  450.47   10.60   0
   3   3  12  726.89   12.42   0
   3   4  -7   -1.97    5.74   0
   3   4  11   -2.59    5.83   0
   2   1  13   10.79    4.52   0
   3   4  14  352.03    9.95   0
   3   5  -2  210.35    9.37   0
   3   5   1    1.40    5.81   0
   3   5   7    0.96    6.65   0
   0   3  39   -0.49    5.12   0
   0   6  42  109.49    8.18   0
   3   2   1   -1.83    5.31   0
   3   2   4  692.71   11.96   0
   3   3  -9   -2.52    5.45   0
   3   5  -5   -3.75    6.66   0
   3   5  10  199.97    9.02   0
   0   5  43   -1.31    5.95   0
   1   5  38  110.52    8.37   0
   1   7  33   -3.83    6.73   0
   2   3  29   -6.14    6.13   0
   2   6  26  183.13    8.50   0
   2   7  19    7.77    6.55   0
   3   2   7    4.77    4.91   0
   3   3  15    2.98    5.52   0
   3   4 -10  354.17   10.10   0
   3   4  17    5.55    6.93   0
   1   1  24 1698.60   19.41   0
   1   6  37   -0.41    6.89   0
   2   1  16 2094.64   20.07   0
   2   4  31  -17.00    6.21   0
   3   2  10  718.14   12.24   0
   3   5  -8  425.24   11.08   0
   3   5  13   -7.48    6.17   0
   1   2  32 1116.03   15.56   0
   2   7  22   49.55    7.50   0
   3   2  -5   10.23    5.11   0
   3   3  18  409.26   10.24   0
   3   5  16  388.03   11.02   0
   1   4  39    0.74    6.30   0
   2   6  29   -6.40    7.24   0
   3   2  13    5.70    5.08   0
   3   3 -12  707.10   12.79   0
   3   4 -13    2.61    5.58   0
   3   4  20  384.38   10.42   0
   1   3  37    1.77    5.60   0
   2   2  27    3.65    5.42   0
   3   5 -11    6.14    5.99   0
   3   6   0  262.72    9.71   0
   3   6   3    3.87    7.18   0
   3   6   6   62.61    7.76   0
   2   1  19   -2.73    5.04   0
   2   5  33    0.31    7.38   0
   3   2  -8 2189.06   20.91   0
   3   2  16 1787.29   17.81   0
   3   3  21    7.76    6.72   0
   3   5  19    0.82    6.24   0
   3   6  -3   -4.84    6.53   0
   2   3  32  617.01   12.14   0
   2   4  34  150.66    8.59   0
   3   4  23    8.43    6.96   0
   3   6  -6  155.96    9.22   0
   3   6  12  156.21    8.43   0
   1   5  41   -3.91    6.34   0
   1   6  40  169.87    9.09   0
   3   3 -15   -0.26    5.69   0
   3   5  22   92.65    8.35   0
   3   6  15   -8.08    7.29   0
   3   2  19   -7.08    6.09   0
   3   3  24  591.98   11.76   0
   1   1  27   -0.39    4.31   0
   3   2 -11    3.54    4.87   0
   3   6  -9    2.83    6.34   0
   3   6  18  169.00    8.77   0
   1   2  35    3.61    5.14   0
   2   2  30  185.37    7.98   0
   2   5  36  142.91    8.79   0
   3   4  26  132.05    7.49   0
   3   5  25  -10.38    7.21   0
   1   4  42  199.44    8.61   0
   3   1   2  870.33   13.43   0
   3   1   5    7.70    5.31   0
   3   2  22  283.54    9.05   0
   3   6  21    7.03    6.97   0
   1   3  40  403.63   10.57   0
   2   3  35    1.25    5.33   0
   2   4  37   -4.74    6.49   0
   2   6  35    4.44    6.86   0
   3   1   8 2689.23   21.73   0
   3   3  27   -0.12    6.30   0
   3   1  11    8.68    4.95   0
   3   4  29    9.53    6.83   0
   1   5  44  135.53    8.33   0
   1   6  43   -0.82    6.22   0
   3   2 -14  372.24    9.96   0
   3   5  28  144.99    8.00   0
   3   6  24  152.33    8.72   0
   4   3   7   -1.13    6.26   0
   4   4   3    6.80    6.69   0
   2   1  25    3.77    4.83   0
   3   1  -4 1262.11   16.16   0
   3   1  14  679.29   11.53   0
   3   2  25   -0.98    5.74   0
   4   3   1    5.13    5.33   0
   4   3  10  369.35    9.54   0
   4   4   0  487.31   11.57   0
   4   4   9   -1.60    5.87   0
   2   2  33    2.28    5.65   0
   2   5  39    0.44    6.64   0
   4   3  -2  230.70    8.76   0
   4   3  13   -3.65    6.82   0
   4   4  -3    2.51    6.60   0
   3   1  17   -2.14    5.43   0
   3   6  27   14.16    6.90   0
   4   4  15   -3.75    6.05   0
   4   5   5    7.06    7.18   0
   1   1  30  539.92   11.62   0
   2   3  38   84.30    6.99   0
   2   4  40  212.01    9.09   0
   3   5  31   -2.42    6.64   0
   4   2   5   -3.06    5.69   0
   4   2   8  844.83   13.16   0
   4   3  -5    3.04    5.93   0
   4   3  16  399.32    9.88   0
   4   4  -6  171.38    8.48   0
   4   5   2  144.82    8.70   0
   4   5  11    1.04    6.87   0
   1   2  38  291.16    9.35   0
   3   1  -7    7.27    4.08   0
   4   2  11   -7.25    6.23   0
   4   4  18  166.28    8.19   0
   4   5  -1   -1.91    6.85   0
   4   5  14   58.83    7.81   0
   3   1  20  885.33   13.21   0
   4   2  -1   -6.97    4.91   0
   4   2  14  285.52    9.16   0
   4   3  -8  491.37   11.07   0
   4   3  19    0.79    5.86   0
   4   5  -4  110.29    8.01   0
   4   4  21    7.91    6.16   0
  -4   9 -10  125.74    8.67   0
  -3   7   5    2.78    6.51   0
  -2   6   4  860.99   13.61   0
   0   4  -7   -0.33    4.56   0
  -3   6  12  699.09   12.86   0
  -2   7  -6  136.22    7.63   0
  -1   6 -10  430.84   10.02   0
  -5   8  11    7.21    7.32   0
  -4   6  17   -1.10    5.89   0
  -4   9  -7    3.49    7.76   0
  -3   5  16 1713.52   19.20   0
  -3   8  -5    5.82    6.18   0
   0   3   0 2570.70   22.45   0
   0   5 -29    4.35    5.47   0
   0   5 -26  197.19    8.42   0
   0   5 -23   -2.18    5.72   0
   0   5 -20  624.66   12.10   0
  -1   4   7    1.76    5.44   0
  -4   7  13    6.51    5.82   0
  -2   7  -3   -0.88    6.69   0
  -1   6  -7   -0.75    5.56   0
   0   4  -4 1552.30   17.31   0
   0   5 -17   -0.30    4.96   0
  -6   9   9   -5.06    6.90   0
  -5   9   4  113.83    8.86   0
  -4   9  -4  123.70    9.01   0
  -3   8  -2  219.15    9.55   0
  -1   5   3   -1.62    6.01   0
  -2   6   7   -0.18    6.45   0
   0   5 -14  595.15   11.29   0
   1   3 -26  558.60   12.52   0
   1   3 -23    2.31    4.83   0
  -5   7  18  369.90   10.95   0
  -2   4  15    0.52    4.86   0
  -1   6  -4  732.61   12.66   0
  -4   5  21    3.33    5.52   0
  -2   7   0  599.41   12.09   0
  -2   8 -28  134.59    8.45   0
  -2   8 -25   -4.47    7.00   0
  -2   8 -22   92.09    8.09   0
  -2   8 -19  -11.27    7.43   0
   1   3 -17   -1.26    4.62   0
  -6  10   2   63.26    7.64   0
  -5   8  14  127.88    8.85   0
  -5  10  -6   73.77    7.66   0
  -4   8   9    0.43    7.46   0
  -4   9  -1    3.28    7.66   0
  -3   8   1   -2.58    7.62   0
  -3   9 -27  -12.47    6.56   0
  -3   9 -24  175.23    8.96   0
  -2   8 -31   -2.36    6.92   0
  -1   3  11    7.97    4.21   0
  -5   9   7   -0.34    7.29   0
  -3   6  15   -6.34    5.34   0
  -1   7 -26  234.07    9.57   0
  -1   7 -23   12.30    6.87   0
   0   3   3   -1.43    4.85   0
   0   4  -1    4.43    4.81   0
  -6   9  12  138.35    8.76   0
  -4   7  16  392.31   11.05   0
  -3   4  20  856.51   14.88   0
  -3   9 -15   -4.17    7.40   0
  -2   8 -34   86.09    7.18   0
  -2   8 -13   -1.49    7.11   0
  -1   5   6  365.81    9.79   0
  -1   6  -1    1.86    6.22   0
  -1   7 -29    1.19    6.46   0
  -1   7 -20  234.71    9.44   0
   0   5  -8  944.75   13.92   0
   1   3 -14  686.57   12.69   0
  -5  10  -3    0.55    6.98   0
  -3   9 -12  125.28    8.96   0
  -2   5  14  360.25    9.78   0
  -1   4  10 1097.87   14.67   0
  -1   7 -17   -3.95    5.79   0
  -4   9   2  149.45    8.74   0
  -3   5  19    5.38    5.46   0
  -2   6  10  339.17    9.34   0
  -2   7   3    6.39    6.12   0
  -2   8 -10  161.34    9.20   0
  -1   7 -32  201.38    9.16   0
  -3   9  -9   -4.83    7.68   0
  -5   9  10  130.71    8.58   0
  -4   8  12  218.93   10.03   0
  -2   8  -7    1.41    7.52   0
  -1   7 -11    3.89    6.91   0
   0   5  -5    1.85    5.18   0
   1   3 -11    7.51    4.33   0
  -1   6   2  326.40    9.25   0
   0   4   2 1380.67   15.99   0
  -5   8  17    0.33    7.08   0
  -3   9  -6  143.93    9.12   0
  -2   7   6  419.96   10.96   0
  -1   7  -8  613.11   12.33   0
   0   6 -24  425.53   11.06   0
   0   6 -21    1.91    6.34   0
  -6   9  15    0.07    7.42   0
  -3   6  18  392.42   10.76   0
  -3   8   7    3.94    7.43   0
  -2   8  -4  228.04    9.64   0
  -1   5   9   12.09    6.02   0
   0   6 -27    0.86    6.15   0
   0   6 -18  313.43    9.83   0
   1   4 -24  877.92   14.62   0
   1   4 -21    5.49    5.53   0
  -5  10   3   -3.32    6.91   0
  -2   4  18 1031.83   15.26   0
   0   3   6 1991.01   19.63   0
   0   5  -2  315.69    8.91   0
   0   6 -30   90.79    7.63   0
   0   6 -15   -0.45    6.20   0
   1   4 -27    2.00    5.12   0
  -4   7  19   -2.50    6.55   0
  -3   9  -3   -5.88    6.98   0
  -1   7  -5   -0.09    6.73   0
   1   4 -15    2.48    5.50   0
  -5   9  13    0.49    7.01   0
  -4   8  15    1.85    7.28   0
  -2   8  -1    6.79    7.77   0
  -1   4  13   -5.09    5.46   0
  -1   6   5    4.81    5.81   0
   0   6 -12  385.75   10.43   0
  -4   9   8  325.13   10.32   0
  -2   5  17    6.37    4.76   0
   0   4   5   -2.80    5.57   0
  -3   9   0  258.31   10.37   0
  -2   7   9   -7.21    6.13   0
  -1   7  -2  311.65   10.03   0
   1   4 -12  923.78   13.63   0
  -5  10   6   75.26    8.34   0
  -4   6  23   -5.06    5.79   0
  -4  10  -2   75.04    7.71   0
   0   5   1    5.30    5.30   0
  -5   8  20  196.36    9.56   0
  -3   5  22  266.52    9.12   0
  -2   8   2  201.07    9.43   0
  -2   9 -23   -1.95    7.08   0
  -2   9 -20  116.52    8.49   0
  -1   5  12 1143.30   15.18   0
   1   4  -9   -2.22    5.54   0
  -3   7  17    3.00    7.02   0
  -3   9   3   -0.31    7.84   0
  -2   9 -17    3.99    6.99   0
  -1   6   8  797.18   13.42   0
   0   6  -6  223.01    8.20   0
  -4   9  11    1.96    7.72   0
  -4  10   1    0.57    7.02   0
  -2   6  16  689.93   12.81   0
  -1   7   1    4.52    6.19   0
  -1   8 -24  212.96    9.09   0
  -1   8 -21   -5.07    6.60   0
  -1   8 -18  106.33    8.12   0
  -5   9  16  282.38   10.52   0
  -4   8  18  179.97    9.60   0
  -3   4  23    2.87    4.83   0
  -3   6  21    0.17    6.19   0
  -2   7  12  382.89   10.75   0
  -2   9 -11   -4.17    7.33   0
  -1   8 -27    4.13    6.36   0
  -1   8 -15    0.60    6.99   0
   0   3   9   -0.98    4.86   0
  -4   7  22  151.43    8.58   0
  -3   8  13   -6.47    7.75   0
  -2   8   5    1.81    7.30   0
   0   4   8 1506.06   16.86   0
   0   5   4 1101.07   14.36   0
   0   6  -3    1.06    6.83   0
   1   3  -2  825.89   12.88   0
  -2   9  -8  208.48    9.26   0
   1   2  -1   12.23    4.41   0
   1   5 -25    3.65    6.32   0
   1   5 -22  201.02    8.48   0
   1   5 -19    2.11    5.85   0
  -3   9   6   59.52    7.84   0
  -2   5  20  574.83   11.85   0
  -1   7   4  250.89    9.90   0
  -1   8  -9   -0.36    7.06   0
   1   5 -16  601.67   12.25   0
  -4   9  14   67.38    8.58   0
  -2   4  21   -3.59    5.02   0
  -2   9  -5    8.04    7.56   0
  -1   6  11   -0.11    5.91   0
   0   7 -22   89.19    7.94   0
   0   7 -19    0.25    6.95   0
   1   5 -13    2.53    6.05   0
  -1   5  15    4.34    5.07   0
  -1   8  -6  174.26    9.10   0
   0   6   0  831.11   13.18   0
   0   7 -25    4.00    6.59   0
   0   7 -16  465.20   11.68   0
   1   4  -3    9.30    4.90   0
  -3   7  20  405.52   10.70   0
   0   5   7    2.63    5.40   0
   0   7 -13   -0.65    7.21   0
  -5   9  19    6.77    7.21   0
  -2   6  19    2.73    6.31   0
  -2   9  -2   78.36    8.05   0
  -1   3  17    1.82    4.06   0
  -1   7   7   -2.99    6.95   0
   1   3   1    9.24    4.61   0
  -4   8  21    1.25    7.14   0
  -1   8  -3    8.54    6.67   0
   0   4  11    1.74    4.79   0
   0   6   3    1.33    5.89   0
   1   4   0 1381.96   16.19   0
  -3   6  24  564.28   12.37   0
  -2   8  11    1.71    7.79   0
  -2   9   1   -4.70    7.22   0
  -1   6  14  362.01   10.46   0
   0   3  12 1962.42   19.44   0
   1   2   2  670.63   12.39   0
  -4   7  25    4.85    6.33   0
  -4   9  17    5.92    7.76   0
  -1   8   0  353.27    9.99   0
  -1   7  10  206.70    9.20   0
   0   5  10  669.42   11.74   0
   0   7  -4  156.38    9.06   0
  -3   8  19    2.09    7.54   0
  -2   7  18  142.36    8.49   0
  -2   9   4  183.46    9.71   0
  -1   4  19    9.61    5.37   0
   0   6   6  357.89    9.65   0
   1   3   4 1270.36   15.49   0
  -3   7  23   -6.45    7.01   0
  -2   5  23    1.66    5.78   0
  -1   8   3    2.52    7.34   0
   1   4   3    4.51    4.86   0
   1   6 -23    0.78    7.00   0
   1   6 -20  227.92    9.00   0
   1   6 -17   -0.28    6.43   0
  -2   6  22  356.84   10.29   0
   0   7  -1   -1.73    6.22   0
   1   5  -1    1.85    5.44   0
   1   6 -14  117.79    8.06   0
  -4   8  24  311.23   11.42   0
  -1   9 -13    2.02    7.39   0
   0   4  14  306.68    9.22   0
   1   6 -11    4.84    6.73   0
   2   3 -19    1.40    5.43   0
  -4   9  20   99.93    8.74   0
  -3   9  15    3.84    7.18   0
  -2   9   7    2.30    7.19   0
  -1   7  13    7.27    7.14   0
   2   2 -21    0.75    4.76   0
   2   2 -18  988.44   16.37   0
   2   3 -22  258.48    9.11   0
   2   3 -16 1737.11   19.58   0
  -2   4  24 1726.62   19.81   0
  -1   8   6  103.71    7.75   0
   0   5  13    0.16    5.38   0
   0   6   9    1.29    5.82   0
   0   7   2  214.83    9.85   0
   1   2   5    4.05    5.04   0
   1   5   2  317.84    9.61   0
   1   6  -8  623.25   11.90   0
   2   2 -15    0.41    4.26   0
   2   3 -13    2.98    5.24   0
  -1   9  -7    1.84    6.89   0
   0   8 -20  130.13    8.46   0
   0   8 -17   -0.14    6.70   0
   1   3   7    6.42    5.49   0
   1   4   6  357.69    9.66   0
  -3   6  27   -3.25    5.96   0
  -3   8  22  115.21    9.11   0
  -2   7  21   -3.21    6.78   0
   0   3  15   -3.15    4.33   0
   0   8 -23    0.72    6.01   0
   0   8 -14  110.41    8.56   0
   2   2 -12  754.38   13.71   0
   2   3 -10  714.29   12.80   0
  -2   9  10  140.13    9.11   0
  -1   5  21   -5.08    6.04   0
   0   7   5    3.82    7.79   0
   0   8 -11   -0.63    7.55   0
   2   4 -20  616.61   12.89   0
   2   4 -17    0.53    5.52   0
  -1   8   9   -4.88    6.88   0
   0   8  -8  243.33    9.52   0
   1   6  -2  319.01   10.08   0
   2   2  -9    1.84    4.56   0
  -3   7  26  135.59    8.62   0
  -3   9  18  167.03    9.03   0
  -1   4  22  332.93    9.47   0
  -1   7  16  597.11   12.80   0
   0   6  12  324.42    9.54   0
   1   5   5    3.72    5.62   0
   2   3  -7    2.83    4.49   0
   2   4 -11   -0.46    5.75   0
  -2   5  26  564.69   11.95   0
  -2   6  25   -4.13    6.09   0
  -1   9  -1   -7.06    6.63   0
   0   4  17    0.40    5.71   0
   0   5  16  672.11   12.34   0
  -4   9  23   -2.54    7.13   0
   0   7   8  596.90   12.77   0
   1   4   9    8.32    5.20   0
   1   6   1   -2.89    7.07   0
   2   4  -8  814.76   13.36   0
  -2   9  13   -0.10    7.21   0
  -1   8  12  178.19    9.46   0
  -1   9   2   93.50    8.28   0
   0   8  -2   98.07    8.16   0
   1   3  10 1120.30   14.79   0
   2   2  -6  792.41   13.54   0
  -2   8  20  173.14    9.31   0
   1   2   8 3340.56   25.72   0
   1   5   8  744.65   12.84   0
   1   7 -21   -4.23    6.67   0
   1   7 -18   98.43    8.21   0
   1   7 -15    2.63    7.15   0
   2   4  -5    4.23    5.80   0
  -3   8  25    1.84    6.96   0
  -2   7  24  409.39   10.67   0
   0   6  15    3.53    6.76   0
   1   7  -9    4.15    7.24   0
  -3   9  21   -5.06    7.05   0
  -1   9   5    3.45    7.56   0
   0   8   1    3.31    6.80   0
   1   6   4  241.06    8.73   0
   2   5 -21   -1.93    6.47   0
   2   5 -18  339.17   10.14   0
   2   5 -12  461.92   11.34   0
  -1   5  24  629.33   12.30   0
   0   7  11   -9.82    6.55   0
   1   4  12 1118.67   14.80   0
   1   7  -6  174.45    9.14   0
  -2   4  27   -1.75    5.55   0
  -1   6  23   -2.13    6.83   0
  -1   8  15   -2.52    7.34   0
   0   5  19   -4.31    6.30   0
   2   5  -9   -2.62    5.55   0
  -3   7  29    1.71    6.43   0
   0   8   4  187.68    8.74   0
   2   5  -6  136.29    8.17   0
  -2   3  25    2.69    4.44   0
  -2   6  28  401.50   10.89   0
  -1   3  23    0.89    4.60   0
  -1   9   8  116.25    8.58   0
   1   3  13   -4.93    5.53   0
   1   6   7   10.91    6.25   0
   2   4   1    9.73    6.06   0
  -2   8  23   -2.68    7.70   0
  -1   4  25    0.38    5.38   0
   0   6  18  245.78    8.94   0
   1   7   0  337.62   10.55   0
   2   3   2  774.40   12.28   0
  -2   7  27    7.28    7.16   0
  -1   7  22  131.22    8.80   0
   0   8   7    9.44    7.58   0
   1   2  11    9.94    4.97   0
   2   2   0 4128.60   28.00   0
   2   5  -3    9.73    5.63   0
  -3   8  28  141.59    8.75   0
  -3   9  24  139.96    8.67   0
  -2   5  29   -3.28    5.64   0
  -2   9  19    6.61    7.04   0
  -1   9  11    2.34    7.73   0
   1   4  15   -0.38    5.34   0
   1   5  14  374.70   10.10   0
   1   6  10  217.35    8.54   0
   1   7   3    4.15    7.65   0
   2   4   4  846.67   13.31   0
  -1   6  26  195.89    8.98   0
   0   8  10  156.24    9.50   0
   2   3   5   10.11    5.77   0
   2   6 -16  324.74   10.31   0
   2   6 -13    6.61    6.70   0
  -1   5  27    5.80    6.18   0
   2   6 -19   -1.94    6.38   0
   2   6 -10  169.76    9.03   0
   0   6  21    2.56    7.16   0
   1   7   6   95.51    8.57   0
   1   8 -13    0.29    6.88   0
   2   2   3    0.88    4.40   0
   2   5   3   -0.86    6.33   0
   2   6  -7    9.96    7.18   0
  -2   8  26  189.57    9.10   0
   1   3  16 2044.40   19.09   0
   1   6  13   -6.66    7.29   0
   1   8 -10   72.52    7.94   0
   2   4   7    0.01    5.87   0
   2   6  -4  230.31    9.70   0
  -2   9  22   45.76    7.53   0
  -1   7  25    1.80    6.10   0
   0   8  13   13.05    8.00   0
   1   8  -7   -6.23    7.26   0
  -3   9  27   -2.01    6.67   0
  -2   6  31    3.54    6.16   0
   1   4  18  723.22   12.02   0
   1   5  17    2.16    5.79   0
   1   7   9   -1.44    7.72   0
   1   8  -4  146.34    8.47   0
   2   3   8 2139.05   19.33   0
   2   5   6  429.94   10.88   0
  -2   7  30  154.24    9.10   0
   1   2  14 1669.75   18.06   0
  -2   4  30  182.16    8.47   0
  -1   4  28  652.39   12.53   0
   0   2  19    3.26    4.53   0
   0   7  20  125.62    8.01   0
   2   2   6  795.82   12.59   0
   0   5  25    1.18    5.51   0
   1   6  16  594.30   11.84   0
   2   4  10  315.76    9.01   0
  -2   5  32  618.91   12.87   0
  -1   3  26  497.82   11.37   0
  -1   6  29    1.74    5.78   0
  -1   8  24  176.25   10.00   0
   0   8  16  152.53    9.20   0
   1   7  12  188.75    9.53   0
   2   5   9   -7.38    6.54   0
  -2   8  29   -6.98    7.12   0
  -1   5  30  163.99    8.19   0
   1   3  19    6.01    5.37   0
   1   5  20  476.30   11.27   0
   2   3  11    5.38    4.99   0
   3   3 -15    0.13    5.15   0
   3   3 -12  711.42   13.02   0
   3   3  -9   -3.28    5.47   0
  -1   7  28  139.47    9.08   0
   0   3  24 1511.34   17.54   0
   0   4  26  687.33   12.39   0
   2   6   5   -8.96    6.22   0
   2   7 -14   97.64    7.44   0
   2   7 -11    4.55    6.50   0
   3   3  -6  449.98   10.63   0
   3   4 -16  409.70   10.68   0
   3   4 -13    0.66    5.85   0
   3   4 -10  351.89   10.03   0
   1   4  21    5.98    5.42   0
   1   8   5    0.44    6.58   0
   2   4  13    6.62    6.08   0
   2   7  -8  201.51    9.27   0
   3   4  -7   -0.69    6.17   0
   0   8  19   -1.50    7.66   0
   1   6  19    6.31    6.39   0
   1   7  15   -1.34    7.52   0
   2   2   9   -1.49    4.51   0
   2   5  12  387.26   10.43   0
   2   7  -5    5.82    7.45   0
   3   3  -3    2.59    5.73   0
   3   4  -4  635.18   12.42   0
  -2   7  33    5.52    7.74   0
   2   6   8  414.99   10.47   0
   2   7  -2   73.27    7.72   0
   3   2 -11    4.35    4.88   0
  -2   6  34  152.99    8.52   0
   0   5  28  567.17   11.86   0
   0   6  27    0.72    7.10   0
   1   2  17    3.30    4.53   0
   2   3  14  382.05    9.95   0
   3   2 -14  353.38    9.96   0
   3   2  -8 2228.44   21.69   0
   3   4  -1   -6.49    6.37   0
  -1   8  27    4.66    7.74   0
   1   5  23    3.89    6.94   0
   2   7   1    2.02    7.22   0
   3   2 -17   -0.54    4.72   0
   3   5 -14  133.22    7.98   0
   3   5 -11    2.84    6.60   0
   3   5  -8  419.32   11.02   0
  -1   6  32  336.58   10.58   0
   2   4  16  720.73   12.57   0
   2   5  15   -7.70    7.16   0
   2   6  11    4.38    7.20   0
   3   2  -5    4.72    4.52   0
   3   5  -5   -6.81    6.60   0
  -2   8  32  167.85    9.37   0
  -1   4  31   -1.25    5.36   0
  -1   7  31   -0.83    6.98   0
   1   3  22  341.99    9.03   0
   1   4  24  627.70   12.00   0
   1   6  22  137.80    9.04   0
   1   7  18  169.64    9.03   0
   1   8  11    0.76    7.61   0
   2   1   4 3166.00   25.95   0
   3   5  -2  209.46    9.16   0
   0   8  22   60.38    7.33   0
   2   2  12  754.61   12.20   0
   3   2  -2  771.55   12.61   0
  -1   5  33    0.45    5.97   0
   0   4  29   -4.96    5.93   0
   3   5   1   -4.25    6.71   0
   0   3  27    3.50    5.14   0
   1   8  14   62.87    7.94   0
   2   3  17   -2.84    6.17   0
   2   6  14   98.31    8.90   0
   2   7   7    0.09    6.89   0
  -1   3  29    1.04    4.94   0
  -1   8  30   42.56    8.07   0
   0   6  30  122.44    8.60   0
   1   7  21   10.03    7.68   0
   2   4  19    5.39    6.60   0
   2   5  18  164.09    8.69   0
   3   3   6  431.65    9.84   0
   0   5  31    4.96    6.23   0
   1   2  20 1414.11   16.88   0
   3   4   8  509.61   11.37   0
   3   6 -12  120.93    8.76   0
   3   6  -9    0.34    7.02   0
   0   7  29   -1.42    7.58   0
   1   6  25    2.23    6.16   0
   2   1   7   -0.47    4.27   0
   3   6  -6  160.34    8.85   0
   2   2  15    2.86    4.63   0
   2   6  17   -9.73    7.74   0
   3   2   4  676.96   11.69   0
   3   3   9   -3.21    5.86   0
   3   5   7   -2.53    6.64   0
   3   6  -3   -4.02    7.48   0
  -1   6  35   -0.63    6.76   0
  -1   7  34  146.35    8.94   0
   3   6   0  272.20    9.88   0
   1   7  24  178.20    9.55   0
   2   3  20  587.31   11.03   0
   2   5  21    3.22    7.28   0
   2   7  13    5.70    7.23   0
   3   4  11   -6.07    5.72   0
   2   4  22  356.17    9.53   0
   3   2   7    6.91    5.65   0
   3   5  10  184.63    8.78   0
   3   6   3    5.42    7.33   0
  -1   4  34  473.30   11.37   0
  -1   8  33   -0.65    8.17   0
   0   4  32  444.11   10.87   0
   0   6  33    2.88    7.27   0
   2   6  20  164.60    9.16   0
   3   1 -10 1110.21   17.06   0
   3   1  -7    7.64    4.60   0
   3   3  12  708.09   12.41   0
  -1   5  36  419.53   10.83   0
   1   1  15    1.02    4.09   0
   2   1  10 2076.77   20.22   0
   2   7  16  136.18    9.28   0
   0   2  25   -1.34    3.80   0
   0   3  30  555.58   11.52   0
   0   5  34  251.57    9.63   0
   0   7  32  229.57    9.67   0
   2   2  18 1042.21   14.05   0
   3   1 -13    2.99    4.59   0
   3   1  -4 1278.16   16.64   0
   3   4  14  337.32    9.51   0
   3   5  13    5.71    7.57   0
   2   5  24  403.57   11.06   0
   3   2  10  711.77   12.25   0
   1   4  30  160.81    8.25   0
   2   3  23   -0.30    6.13   0
   3   1  -1   12.13    4.31   0
   3   3  15   -2.45    6.21   0
  -1   7  37    1.29    6.63   0
   1   3  28  640.30   11.56   0
   2   4  25   -2.40    5.88   0
   2   6  23   -5.44    7.71   0
   2   7  19   -5.14    7.70   0
  -1   3  32 1099.75   16.85   0
  -1   6  38  103.65    8.19   0
   3   4  17    2.76    5.84   0
   3   5  16  384.79   10.90   0
   3   6  12  156.62    9.06   0
   4   3 -11    3.50    5.67   0
   4   3  -8  511.92   11.64   0
   4   3  -5    7.39    6.04   0
   4   4  -9   -1.30    5.90   0
   4   4  -6  180.29    8.46   0
   4   4  -3    1.14    6.67   0
   1   5  32  345.80   10.48   0
   1   6  31    1.98    6.79   0
   2   1  13    9.59    5.26   0
   3   2  13   -1.26    5.45   0
   4   3  -2  220.90    8.16   0
   4   4 -12  217.75    9.15   0
   0   6  36  130.88    8.42   0
   2   2  21   -2.65    5.31   0
   2   5  27    0.07    7.40   0
   4   3   1   -0.37    6.38   0
   4   4   0  482.27   11.02   0
   0   4  35   -0.54    5.96   0
   0   7  35    5.73    6.88   0
   3   1   5    5.33    5.19   0
   3   3  18  409.87    9.78   0
   4   4   3    3.80    6.79   0
   2   3  26  600.23   11.87   0
   2   6  26  163.23    9.47   0
   2   7  22   46.84    7.03   0
   3   4  20  384.14   10.04   0
   3   5  19   -3.46    7.67   0
   3   6  15   -0.53    6.70   0
   4   2  -7    1.16    5.42   0
   4   3   4  623.85   12.10   0
   4   5  -7   -0.60    6.27   0
   4   5  -4  103.74    7.76   0
   0   5  37    0.38    6.55   0
   1   2  26  496.81   10.73   0
   1   4  33   -1.06    6.53   0
   2   4  28  389.20    9.99   0
   4   2 -10  315.93    9.49   0
   4   2  -4  846.56   13.73   0
   4   4   6  176.54    8.83   0
   4   5  -1   -4.90    7.02   0
  -1   4  37   -0.45    5.62   0
   3   2  16 1742.34   17.49   0
   4   2  -1    1.32    4.77   0
   4   5   2  165.34    8.79   0
   0   2  28 1065.21   15.75   0
   0   3  33    0.01    5.28   0
   1   3  31   -1.55    4.96   0
   1   6  34  134.37    8.77   0
   2   1  16 2105.45   20.04   0
   3   1   8 2702.42   22.03   0
   3   3  21   -5.03    6.66   0
   3   6  18  152.14    8.99   0
   4   2 -13   -0.28    4.90   0
   4   5   5    3.28    7.15   0
   1   5  35   -1.89    6.77   0
   2   5  30  163.30    8.87   0
   3   4  23   -1.39    7.18   0
   3   5  22   99.44    8.39   0
   1   7  33   -4.44    7.68   0
   2   2  24 1819.21   18.00   0
   2   6  29   -2.56    7.10   0
   4   3  10  363.31    9.59   0
   4   5   8  343.08   10.74   0
   0   6  39   -1.22    6.51   0
   0   7  38   33.61    7.45   0
   4   4  12  227.40    9.42   0
   3   1  11   14.93    4.87   0
   3   2  19    0.17    5.28   0
   3   6  21   -0.50    7.45   0
   3   3  24  587.04   11.85   0
   4   3  13    7.03    5.83   0
   0   4  38  117.86    7.63   0
   1   4  36  427.44   10.81   0
   3   4  26  137.63    8.60   0
   3   5  25   -9.32    7.06   0
   4   4  15    2.12    7.01   0
   0   5  40  175.37    8.99   0
   1   2  29   -3.49    5.21   0
   1   6  37    7.87    6.90   0
   2   1  19   -2.71    4.50   0
   4   2  11   -0.14    5.92   0
   4   5  14   77.99    8.24   0
   1   3  34  491.97   11.22   0
   3   1  14  664.98   11.44   0
   3   6  24  132.00    8.81   0
   1   5  38  109.42    7.72   0
   2   2  27   -2.71    4.97   0
   3   2  22  275.43    8.50   0
   4   1  -6  360.52    9.78   0
   4   1  -3    2.66    5.22   0
   4   4  18  186.67    9.18   0
   0   3  36  499.59   11.57   0
   3   5  28  151.33    9.13   0
   4   1   0 1461.99   16.78   0
   4   2  14  277.11    9.21   0
   4   5  17   -4.80    7.63   0
   0   2  31    0.67    4.72   0
   0   6  42  108.32    8.90   0
   3   3  27   -7.33    6.02   0
   4   1  -9    5.22    4.91   0
   4   1   3    9.55    5.58   0
   3   6  27    2.63    7.82   0
   4   3  19   -5.85    6.02   0
   2   1  22  444.22   10.39   0
   2   5  36  146.68    9.04   0
   3   1  17   -3.58    4.82   0
   4   1 -12 1029.27   16.31   0
   4   4  21   -9.88    7.27   0
   1   4  39    3.95    6.68   0
   1   6  40  182.41    8.95   0
   2   6  35    5.08    6.57   0
   3   2  25   -4.71    5.33   0
   4   2  17   -6.16    5.59   0
   4   5  20  100.37    8.61   0
   5   3  -4  245.28    9.25   0
   5   3  -1   -2.67    6.55   0
   0   4  41    2.85    6.70   0
   1   1  24 1667.81   18.60   0
   3   5  31   -2.71    7.45   0
   4   1   9    1.97    5.76   0
   4   3  22  154.28    8.71   0
   5   3  -7    0.30    6.26   0
   5   3   2  214.71    9.14   0
   5   4  -5    3.02    6.02   0
   5   4  -2  142.25    8.41   0
   5   4   1   -1.08    6.48   0
   0   5  43   -0.60    6.11   0
   1   2  32 1086.33   14.83   0
   1   3  37    1.67    5.99   0
   1   5  41    0.58    7.02   0
   3   3  30  165.64    8.51   0
   5   3   5   -4.74    6.95   0
   5   4   4  102.23    7.89   0
   2   3  35    1.85    6.61   0
   2   4  37   -3.01    7.22   0
   3   1  20  910.09   13.40   0
   3   4  32  254.57   10.15   0
   4   4  24  290.74   10.43   0
   4   5  23   -7.69    7.71   0
   5   3   8  418.17   11.28   0
   5   4   7    5.95    6.84   0
   3   0   3    2.40    4.75   0
   4   1  12  894.08   13.09   0
   4   2  20  614.98   11.48   0
   5   2  -3    1.57    5.72   0
   5   2   0  588.87   11.92   0
   3   2  28  378.58   10.24   0
   5   2  -6  406.12   10.71   0
   5   2   3   -6.30    5.25   0
   5   4  10  116.01    8.18   0
   5   5   0  168.70    8.17   0
   5   5   3   -2.72    7.64   0
   0   3  39    0.96    6.00   0
   2   0  11   -1.39    4.41   0
   2   1  25    2.33    4.65   0
   2   5  39    1.61    6.90   0
   3   0   6  533.39   11.26   0
   4   3  25   -5.18    6.21   0
   5   2  -9   -4.12    5.51   0
   5   2   6  152.33    7.48   0
   5   5   6   66.14    8.30   0
   3   5  34  108.96    8.55   0
   4   1  15    6.34    5.18   0
   4   4  27   -8.74    7.34   0
   4   5  26  123.80    8.93   0
   5   2   9   -2.90    6.48   0
   5   4  13   -8.18    7.01   0
   0   2  34  253.65    9.30   0
   1   6  43    1.31    6.49   0
   2   2  33    4.01    5.91   0
   3   1  23    0.35    5.98   0
   3   3  33   -4.50    7.05   0
   4   2  23    6.51    5.80   0
   1   1  27    1.37    4.95   0
   1   4  42  189.02    8.89   0
   3   0   9   -0.77    4.33   0
   1   2  35    2.09    5.45   0
   1   5  44  131.87    9.30   0
   2   4  40  210.36    9.58   0
   5   3  17   -2.72    7.04   0
   2   0  14  334.63    9.23   0
   2   3  38   90.99    6.71   0
   3   2  31    2.43    6.51   0
   3   0  12 2632.63   22.06   0
   4   2  26  355.66   10.35   0
   4   4  30   79.98    7.64   0
   4   5  29   -4.56    7.78   0
   5   2  15    3.05    5.80   0
   5   4  19    1.76    6.85   0
   2   5  42   81.48    7.76   0
   5   1  -2  315.06    9.49   0
   5   1   1    4.86    4.97   0
   5   1   4  738.61   12.87   0
   5   3  20  215.99    9.44   0
   3   1  26  619.51   11.29   0
   3   4  38  121.59    8.75   0
   4   1  21    5.50    5.97   0
   5   1  -5    1.78    5.31   0
   5   1   7    3.97    6.05   0
   4   0   1    0.84    5.01   0
   4   3  31    9.59    6.60   0
   5   2  18  353.78    9.75   0
   5   4  22   60.97    7.98   0
   2   0  17    2.11    4.32   0
   2   2  36  358.56    9.44   0
   3   0  15   -0.65    4.57   0
   4   0  -2 1376.69   17.03   0
   4   4  33    8.49    7.40   0
   5   1  -8  769.21   13.79   0
   5   3  23   -3.38    7.63   0
   1   4  45    0.11    6.77   0
   2   4  43   -1.80    6.95   0
   4   0  -5   -3.62    4.93   0
   4   0   7   -0.16    4.50   0
   4   2  29    3.99    5.91   0
   1   1  30  581.47   11.71   0
   2   3  41    3.87    6.51   0
   3   5  40  105.57    8.76   0
   4   0  10  415.66   10.03   0
   4   1  24  861.61   13.31   0
   5   1  13   -0.76    5.59   0
   5   2  21    7.67    6.06   0
   0   2  37    1.51    5.51   0
   3   1  29    4.37    6.01   0
   5   4  25    8.81    6.54   0
   1   3  43   -0.92    5.91   0
   2   1  31   -2.38    4.71   0
   2   5  45   -6.42    7.20   0
   3   0  18 1322.03   15.61   0
   3   3  39   -2.37    6.96   0
   4   0  -8 1483.43   19.07   0
   4   3  34  148.52    8.26   0
   5   1  16  622.25   12.09   0
   5   3  26  165.66    9.04   0
   6   3   0  279.66   10.35   0
   6   3   3    8.62    7.03   0
   2   0  20 3586.65   26.43   0
   3   4  41    1.05    7.59   0
   4   0  13    3.73    4.88   0
   4   4  36   89.89    8.53   0
   5   2  24  297.11   10.22   0
   6   3   6  157.66    8.91   0
   4   2  32  304.36    9.42   0
   5   4  28   68.81    8.15   0
   6   2   4  211.24    9.14   0
   6   3   9   -5.44    7.40   0
   0   1  29   -0.52    4.28   0
   2   2  39   -0.25    5.92   0
   3   2  37    0.05    6.18   0
   4   0  16 1442.30   16.31   0
   4   1  27    2.62    5.59   0
   5   1  19   -2.19    5.78   0
   6   2  -2  199.51    8.85   0
   6   2   1    3.78    6.58   0
   6   2   7  -10.39    6.62   0
   6   3  12  115.88    8.21   0
   3   0  21   -1.20    4.68   0
   5   3  29   -4.92    7.52   0
   6   2  10  176.29    9.06   0
   2   4  46   82.38    7.81   0
   4   0 -11    0.32    4.67   0
   4   3  37    3.94    7.12   0
   5   2  27    7.83    6.27   0
   6   2  13    1.57    7.25   0
   6   3  15   -0.95    6.58   0
   1   1  33    3.15    5.09   0
   2   3  44  214.17    9.27   0
   3   3  42  143.50    8.68   0
   4   0  19   -1.43    5.84   0
   5   1  22  184.74    7.95   0
   2   0  23   -0.65    4.28   0
   3   4  44  123.11    8.66   0
   4   1  30  291.82    9.37   0
   4   2  35   -2.32    6.05   0
   5   0   2  325.59    9.40   0
   5   0   5    0.97    5.66   0
   1   2  41    0.22    5.58   0
   5   0  -1    2.10    5.29   0
   5   3  32  198.47    9.15   0
   1   3  46   63.93    7.35   0
   3   0  24 1025.97   13.92   0
   3   2  40  382.09   10.66   0
   5   0  11    0.12    5.11   0
   5   1  25   -2.87    6.74   0
   5   2  30   68.37    7.08   0
   6   1   2  323.29    9.84   0
   6   1   5    1.98    5.56   0
   6   1   8  616.15   12.19   0
   4   0  22  678.73   11.53   0
   5   0  -4 1109.77   15.74   0
   5   0  14  630.62   11.89   0
   6   1  -1   -3.18    6.01   0
   6   1  11    0.66    6.81   0
   2   2  42  344.90   10.35   0
   6   1  -4  250.20    9.07   0
   1   0  22  437.84   10.85   0
   4   1  33   -2.69    6.33   0
   5   0  17    3.49    6.35   0
   6   2  22  103.98    8.47   0
   6   3  24  186.53    8.89   0
   2   4  49    4.12    6.39   0
   3   0  27    6.67    5.73   0
   3   3  45   -8.28    7.16   0
   5   0  -7   -1.53    4.88   0
   5   1  28  372.91    9.85   0
   5   2  33    1.05    7.56   0
   5   3  35   13.47    6.57   0
   4   0  25    5.21    5.38   0
   3  -3  24 1609.83   18.20   0
   5  -6  23    4.59    6.93   0
   5  -2  31   -1.98    7.32   0
   7  -8  18  172.81    8.99   0
   8  -5  31   -0.69    7.63   0
   5  -4  30  156.97    8.20   0
   6  -7  22  134.05    8.71   0
   6  -2  32  321.26   11.55   0
   2  -1  21    7.37    4.97   0
   3  -2  26  537.99   11.70   0
   3   0  24 1022.77   15.40   0
   5  -5  28  569.56   12.28   0
   5  -1  30  287.17    9.92   0
   6  -3  33   -2.12    7.97   0
   4  -2  30  196.47    9.14   0
   5  -3  32  611.42   12.53   0
   7  -7  26  189.18   10.03   0
   7  -1  29   -7.31    7.81   0
   8  -8  22   59.56    8.42   0
   8  -4  33    4.74    7.92   0
   8  -3  32  181.16   10.46   0
   3  -5  17    1.22    4.61   0
   5  -7  18  152.99    8.39   0
   6   0  27    1.48    6.93   0
   7  -5  33  -11.32    8.67   0
   4  -6  19   11.77    6.12   0
   6  -5  32  345.69   11.15   0
   6  -1  31    1.82    6.97   0
   7  -6  31    1.07    8.34   0
   6  -4  34  142.16   10.03   0
   7  -8  21   -8.99    7.00   0
   7  -2  33   -4.67    8.43   0
   8  -6  32  161.34    9.77   0
   8  -2  31  -11.19    8.37   0
   4  -4  29   -2.91    6.88   0
   4   0  28  629.53   13.18   0
   7  -4  35   10.60    7.03   0
   8  -5  34  109.49    8.84   0
   2  -4  15   -1.28    5.09   0
   2  -2  22 1892.76   19.63   0
   4  -3  31    8.86    6.03   0
   5  -6  26  190.73    8.48   0
   5   0  29    0.44    6.71   0
   6  -7  25   -1.48    7.30   0
   2  -3  20 1398.87   17.15   0
   3  -3  27    0.19    5.50   0
   3  -1  28 1360.79   17.43   0
   5  -4  33    8.05    6.55   0
   8  -8  25   -4.49    7.05   0
   2   1  19    0.95    4.84   0
   5  -5  31   -5.87    6.26   0
   6  -3  36  275.42   10.99   0
   6  -2  35   -0.92    6.89   0
   8  -3  35   -7.62    8.61   0
   3  -2  29    0.91    6.22   0
   3   1  23    7.41    5.45   0
   4  -5  27    1.97    6.30   0
   5  -7  21    0.27    6.57   0
   5  -3  35    4.33    7.71   0
   5  -1  33    6.01    6.34   0
   7  -1  32  220.61   10.69   0
   2  -1  24 1919.99   20.20   0
   3  -5  20  555.04   11.49   0
   3   0  27   -0.95    5.06   0
   4  -2  33    3.02    7.08   0
   4  -1  32  834.57   14.72   0
   7  -8  24  193.10    9.61   0
   7  -6  34  136.39    9.76   0
   7  -5  36  126.38    9.29   0
   4  -6  22  325.53   10.34   0
   6  -5  35    5.01    6.79   0
   6  -1  34  206.00   10.16   0
   8  -6  35   11.75    8.05   0
   6  -4  37   -3.44    7.12   0
   7  -4  38  122.49    9.61   0
   7  -2  36  232.97   11.22   0
   8  -5  37    4.47    8.08   0
   8  -2  34   95.23    9.27   0
   5  -6  29   -5.63    7.30   0
   6  -7  28  135.49    8.88   0
   2  -4  18 1031.14   15.78   0
   4  -3  34  471.21   11.28   0
   5  -4  36  444.96   11.64   0
   2  -3  23   -2.64    5.67   0
   2  -2  25   -1.32    5.14   0
   3  -3  30  541.64   11.78   0
   4   0  31    3.85    5.46   0
   5  -5  34  254.98    9.92   0
   5   0  32  472.33   12.45   0
   7  -7  32  240.31   10.44   0
   3  -1  31   -0.81    6.49   0
   4   1  27    1.19    6.35   0
   5  -7  24  395.54   11.28   0
   6  -3  39   -7.01    8.58   0
   6  -2  38   83.96    9.64   0
   8  -3  38   44.30    8.27   0
   3  -5  23    4.28    6.14   0
   5  -3  38   87.70    8.92   0
   5  -1  36  284.42   10.76   0
   7  -8  27   -0.97    7.63   0
   7  -6  37   14.16    8.40   0
   7  -5  39    3.50    8.14   0
   7  -1  35    4.11    8.78   0
   3  -6  15    2.20    5.62   0
   3  -2  32 1188.18   15.81   0
   4  -6  25   -1.60    6.62   0
   4  -2  36  341.91   10.89   0
   6  -5  38  122.62    9.65   0
   2  -1  27    4.01    5.94   0
   2   1  22  443.24   11.42   0
   3   0  30  312.17   10.09   0
   3   1  26  608.14   13.20   0
   4  -1  35    2.70    6.09   0
   6  -4  40  209.80   10.52   0
   6  -1  37    1.12    8.01   0
   8  -5  40  121.83    9.23   0
   8  -2  37    5.53    8.77   0
   5  -6  32  347.10   11.22   0
   6  -7  31    9.82    7.52   0
   7  -4  41  -15.80    7.94   0
   7  -2  39   -0.35    8.38   0
   4  -4  35   -9.64    6.40   0
   7  -7  35   -3.42    8.16   0
   1  -2  18 1197.77   16.98   0
   2  -4  21    0.30    5.45   0
   4  -3  37    3.00    6.50   0
   5  -7  27    1.47    7.07   0
   5  -5  37    1.33    7.67   0
   5  -4  39    4.02    6.98   0
   1  -1  20 1584.53   19.25   0
   1   0  19   -1.50    4.42   0
   2  -5  13   -0.01    5.14   0
   2  -3  26  509.28   11.35   0
   2  -2  28 1095.13   15.06   0
   3  -3  33    9.62    6.81   0
   4   0  34  242.09    9.81   0
   7  -8  30   34.95    7.35   0
   3  -5  26  572.97   12.21   0
   4  -6  28  394.05   11.19   0
   5   0  35   -4.01    7.18   0
   6  -3  42  152.00    9.17   0
   6  -2  41    1.92    8.63   0
   7  -6  40  178.78   10.01   0
   3  -4  31   -3.53    5.81   0
   3  -1  34  586.15   11.99   0
   4   1  30  275.39   10.63   0
   5  -3  41   -3.36    6.84   0
   5  -1  39    3.82    7.76   0
   6  -5  41   -0.63    8.00   0
   3  -2  35    4.05    5.94   0
   4  -2  39  -10.67    7.13   0
   6  -7  34  144.24    9.27   0
   6  -4  43    6.83    8.72   0
   7  -3  43   -1.49    8.41   0
   4  -1  38  169.98    9.24   0
   5  -6  35   -6.11    6.39   0
   7  -4  44  105.67    9.24   0
   2  -1  30  620.03   11.94   0
   3   0  33    0.77    6.27   0
   3   1  29    3.28    5.82   0
   4  -4  38  112.52    8.55   0
   6  -1  40  182.63   10.41   0
   7  -7  38   25.21    7.76   0
   7  -2  42  110.63   10.24   0
   2  -4  24 1791.26   19.82   0
   2   1  25    1.27    5.55   0
   4  -3  40  424.22   11.70   0
   5  -7  30  151.65    9.04   0
   5  -5  40  174.66    9.97   0
   5  -4  42  186.21    9.96   0
   7  -8  33   -5.98    8.20   0
   1  -2  21    6.49    5.53   0
   2  -3  29    3.46    5.26   0
   2  -2  31    1.65    5.46   0
   3  -6  21    1.83    5.86   0
   3  -5  29    1.97    6.68   0
   3  -3  36  490.66   11.08   0
   4  -6  31    1.35    6.77   0
   6  -3  45    2.19    8.11   0
   7  -6  43    0.30    8.28   0
   7  -5  45   -7.31    8.19   0
   1  -1  23    2.16    4.80   0
   1   0  22  471.66   11.02   0
   3  -4  34  489.38   11.17   0
   4   0  37    5.69    6.88   0
   5  -3  44  217.57   10.40   0
   5   0  38  186.35    9.79   0
   6  -5  44  132.32    9.55   0
   6  -2  44  198.89   10.25   0
   3  -2  38  299.62   10.23   0
   3  -1  37   -1.42    6.05   0
   5  -6  38  107.10    9.24   0
   5  -1  42  167.47    9.91   0
   6  -7  37    1.19    7.81   0
   7  -3  46   45.01    9.11   0
   4  -2  42  352.37   11.70   0
   4   1  33    6.27    6.97   0
   6  -4  46   78.25    8.55   0
   7  -4  47    4.08    8.47   0
   1  -3  19    1.15    5.09   0
   2  -5  19    1.85    5.32   0
   2  -1  33   -0.11    6.40   0
   4  -4  41   -6.20    7.43   0
   4  -1  41    6.31    7.45   0
   5  -7  33   -5.45    7.17   0
   2  -4  27   -0.66    5.16   0
   3   0  36  802.39   14.45   0
   4  -3  43   -3.64    7.96   0
   5  -5  43   -1.29    8.25   0
   5  -4  45   -6.36    8.24   0
   6  -1  43   -6.79    7.83   0
   7  -2  45    2.60    8.58   0
   1  -2  24 1822.26   19.81   0
   3  -6  24  564.18   12.57   0
   3  -5  32  628.31   13.13   0
   3   1  32  861.23   15.25   0
   2  -3  32 1114.36   15.24   0
   2  -2  34  282.84    9.11   0
   2   1  28 1292.65   17.77   0
   3  -3  39   -2.57    6.36   0
   4  -6  34  144.81    8.20   0
   1  -1  26 1217.96   16.13   0
   1   0  25   -0.46    5.46   0
   2   2  21   -0.29    4.98   0
   3  -4  37   -0.05    6.09   0
   5  -3  47   -6.71    8.71   0
   6  -7  40  169.18    9.68   0
   6  -5  47   -6.81    8.06   0
   6  -2  47    1.25    8.48   0
   1   1  21    8.75    4.95   0
   4   0  40  394.95   11.82   0
   5  -6  41   -0.73    7.54   0
   5   0  41    2.54    8.33   0
   1  -3  22  432.79   10.93   0
   2  -5  22  271.76    9.48   0
   3  -2  41   11.57    6.36   0
   4  -2  45    4.75    7.81   0
   5  -7  36  141.15   10.07   0
   5  -1  45    6.90    8.19   0
   6  -4  49    0.18    7.99   0
   2  -4  30  197.83    8.72   0
   3  -6  27   -3.81    6.28   0
   4  -4  44  337.54   11.45   0
   4  -1  44  257.96   10.63   0
   5  -5  46   67.73    8.70   0
   5  -4  48  130.59    9.72   0
   1  -2  27    4.93    4.93   0
   2  -3  35    1.98    6.78   0
   3  -5  35    6.97    5.90   0
   3   0  39   -4.22    5.82   0
   4  -7  29   -0.34    6.67   0
   4  -6  37   -1.45    7.53   0
   4  -3  46   74.10    7.94   0
   6  -1  46   55.57    8.44   0
   1  -1  29    0.21    6.05   0
   2  -2  37    2.77    5.87   0
   2   1  31    4.77    5.71   0
   3  -4  40  421.19   11.51   0
   3  -3  42  221.61    9.19   0
   3   1  35   -0.12    6.16   0
   2  -5  25    1.48    5.73   0
   5  -2  49   -3.35    8.33   0
   6  -7  43   -2.92    7.07   0
   6  -5  50   69.61    8.86   0
   1   1  24 1721.50   20.50   0
   5  -6  44  143.78    8.94   0
   5  -3  50  144.06    9.65   0
   6  -2  50   93.26    9.39   0
   2  -4  33    1.07    6.52   0
   2   2  24 1736.98   22.29   0
   3  -6  30  167.80    8.85   0
   3  -2  44  289.92   10.03   0
   4  -2  48  266.85   11.07   0
   4   0  43    3.48    7.52   0
   5  -7  39   -4.92    7.74   0
   5   0  44  171.14   10.66   0
   6  -4  52   99.59    9.36   0
   1  -4  17    1.16    4.86   0
   2  -1  39    6.79    6.85   0
   4  -4  47   10.03    8.53   0
   5  -1  48  178.88   10.14   0
   1  -2  30  579.56   11.71   0
   2  -3  38  294.08   10.35   0
   3  -5  38   96.93    8.39   0
   4  -6  40  222.61    9.88   0
   4  -1  47    2.17    8.34   0
   5  -5  49   -0.78    7.86   0
   5  -4  51   13.18    8.37   0
   2  -5  28  381.75   10.86   0
   2  -2  40  774.23   13.79   0
   3  -3  45   -1.40    7.54   0
   3   0  42  294.17   10.41   0
   4  -3  49    0.65    7.45   0
   1  -1  32 1721.51   18.61   0
   2   0  38  234.13    8.78   0
   3  -4  43   11.88    6.59   0
   6  -1  49   -3.12    7.41   0
   1  -4  20  867.85   15.02   0
   1   0  31    3.59    5.16   0
   2   1  34  559.61   11.92   0
   3  -6  33   -2.87    6.91   0
   3   1  38  152.52    8.70   0
   5  -6  47    2.41    7.45   0
   5  -2  52  111.17   10.45   0
   1   1  27   -2.94    4.53   0
   3  -2  47   -2.03    8.05   0
   5  -7  42   71.98    7.98   0
   5  -3  53    0.70    8.48   0
   1  -2  33    2.22    6.05   0
   2   2  27    1.59    5.08   0
   4  -7  35    0.94    6.63   0
   4   0  46  116.56    9.30   0
   6  -2  53    0.86    8.61   0
   2  -1  42  297.98   10.53   0
   3  -5  41    7.70    7.42   0
   4  -6  43  -10.98    7.38   0
   4  -4  50  140.79    8.96   0
   4  -2  51    8.97    6.85   0
   1  -4  23   -0.14    5.69   0
   2  -5  31    8.03    6.56   0
   2  -3  41   -3.16    6.17   0
   4  -3  52  171.94   10.57   0
   4  -1  50  151.78    9.91   0
   5  -4  54   47.39    8.68   0
   5  -1  51   -5.23    8.63   0
   0  -1  19    1.20    4.67   0
   1  -1  35   -0.12    5.68   0
   2  -2  43   -5.79    6.43   0
   2   0  41    6.31    6.78   0
   3  -4  46   61.05    8.98   0
   3  -3  48  285.21   10.11   0
   3   0  45   -2.21    7.03   0
   1   0  34  939.68   14.33   0
   1   1  30  560.44   12.08   0
   2   1  37    0.83    6.25   0
   3  -6  36  274.60   10.33   0
   3   1  41    1.47    6.45   0
   4  -7  38  112.61    9.30   0
   5  -7  45   -1.22    7.04   0
   5  -6  50   66.47    8.67   0
   0  -1  22  491.78   11.51   0
   0   0  21   -1.89    5.39   0
   1  -4  26  612.95   12.93   0
   1  -2  36  853.97   13.74   0
   3  -2  50  171.32    9.97   0
   5  -3  56   81.29    9.23   0
   5  -2  55   10.73    8.31   0
   2  -5  34  398.14   11.32   0
   2  -3  44  289.76   10.67   0
   2  -1  45   -0.38    7.51   0
   2   2  30  185.70    8.75   0
   3  -5  44  183.52    9.00   0
   4  -6  46   87.39    8.46   0
   4  -4  53    5.74    8.19   0
   1  -1  38  259.54    9.68   0
   4   0  49   11.54    7.83   0
   1   0  37    6.96    6.39   0
   2  -2  46  247.48    9.52   0
   3  -6  39   -0.07    7.22   0
   3  -4  49    2.17    7.99   0
   3  -3  51    8.66    7.99   0
   4  -3  55   -7.13    8.25   0
   4  -1  53   -1.86    8.03   0
   5  -5  55   -0.30    7.22   0
   5  -4  57    4.24    7.83   0
   5  -1  54   59.41    8.41   0
   0  -1  25    4.09    4.80   0
   0   0  24 4924.44   32.39   0
   1  -4  29   -0.26    6.15   0
   1   1  33   -1.89    5.89   0
   1   2  23   -0.46    5.11   0
   2   0  44  645.84   13.55   0
   3   0  48  191.63    9.78   0
   1  -2  39    6.23    7.04   0
   2   1  40  445.17   11.73   0
   4  -7  41   -4.20    6.89   0
   0  -2  23   -3.01    5.50   0
   2  -5  37    7.53    6.16   0
   3  -5  47    7.96    8.02   0
   3   1  44  252.23   10.05   0
   1  -3  37   -1.24    5.71   0
   2  -3  47    3.33    7.45   0
   2   2  33    2.51    5.77   0
   3  -2  53    3.87    7.04   0
   4  -6  49   -3.35    7.53   0
   5  -2  58   75.49    8.79   0
   0   0  27   -2.43    4.97   0
   1  -4  32  844.43   14.61   0
   1  -1  41   -4.14    6.09   0
   2  -1  48  312.58   10.33   0
   4  -4  56   57.02    9.40   0
   0  -2  26 1252.01   16.78   0
   1   0  40  708.50   12.99   0
   1   1  36  871.68   14.66   0
   1   2  26  504.18   12.39   0
   2  -2  49   -8.59    6.78   0
   3  -6  42  140.56    9.27   0
   3  -4  52  182.79   10.03   0
   3  -3  54   75.55    9.35   0
   4   0  52  137.24    9.20   0
   1  -2  42  314.95   10.36   0
   2   0  47   -4.89    7.19   0
   4  -3  58   87.11    9.12   0
   4  -1  56  105.93    9.69   0
   1  -3  40  453.13   11.72   0
   2  -5  40  376.56   10.84   0
   2   1  43    4.92    6.78   0
   3   0  51   -1.78    7.76   0
   4  -7  44   98.09    8.74   0
   5  -1  57   -4.16    8.20   0
   0  -1  31   -2.92    5.26   0
   0   0  30  172.46    7.72   0
   0  -3  15    3.76    4.77   0
   0  -2  29    2.72    5.22   0
   1  -4  35    6.15    5.63   0
   1  -1  44  424.62   10.94   0
   1   2  29    5.10    5.29   0
   2  -3  50  147.55    9.73   0
   2   2  36  338.03   10.88   0
   3  -2  56  150.16   10.02   0
   3  -1  55  -10.90    8.47   0
   3   1  47   10.34    7.31   0
   4  -6  52   94.73    9.04   0
   0  -3  18 1295.33   18.43   0
   1  -5  21    2.10    5.20   0
   1   0  43   -5.71    6.62   0
   2  -1  51    5.53    7.03   0
   3  -6  45    1.80    7.15   0
   4  -4  59   -8.08    8.84   0
   0  -3  21   -3.51    5.23   0
   1  -2  45   -1.02    7.59   0
   1   1  39   -3.50    5.44   0
   2  -2  52  177.23    9.13   0
   3  -4  55   -4.09    8.14   0
   0  -2  32  654.70   12.76   0
   0  -1  34  937.86   14.18   0
   0   0  33    3.75    5.23   0
   1  -3  43    3.50    7.04   0
   2  -5  43    7.30    6.69   0
   2   0  50  197.50    9.67   0
   3  -3  57    1.90    7.47   0
   4  -7  47   -1.02    8.14   0
   4   0  55    4.78    8.02   0
   0  -3  24 1041.26   16.06   0
   1  -4  38  151.99    9.00   0
   2   1  46  128.01    8.36   0
   3   0  54   78.53    9.20   0
   4  -3  61    7.79    8.59   0
   4  -1  59   -4.68    8.50   0
   1  -5  27    0.30    5.92   0
   1  -1  47    8.74    7.37   0
   1   2  32 1129.34   17.02   0
   2  -6  35    1.69    6.73   0
   3  -5  53  -12.21    7.65   0
   0  -3  27   -1.50    5.83   0
   2  -3  53   -6.47    7.16   0
   2   2  39    2.41    6.02   0
   3  -6  48  127.49    9.38   0
   3  -2  59    6.45    8.67   0
   3   1  50  158.82   10.27   0
   0  -2  35    4.13    5.83   0
   0  -1  37    2.34    5.75   0
   1  -2  48  313.11   11.20   0
   1   1  42  310.73   10.46   0
   2  -2  55    0.25    8.69   0
   2  -1  54   90.39    8.02   0
   3  -1  58   85.77    9.26   0
   1  -5  30  264.35    9.74   0
   1  -4  41   -2.63    6.99   0
   1  -3  46  120.06    9.01   0
   2  -5  46   49.75    7.36   0
   3  -4  58   91.58    9.34   0
   0  -3  30  296.50    9.25   0
   1   2  35   -1.20    5.81   0
   2  -6  38   72.61    8.09   0
   2   0  53    0.90    7.65   0
   3  -3  60   97.05    9.13   0
   0  -2  38  222.44    9.65   0
   1  -1  50  265.73   10.74   0
   2   1  49    0.94    7.18   0
   4   0  58   59.37    9.39   0
   0  -1  40  695.29   12.87   0
   0   0  39    2.22    5.76   0
   1  -5  33   -2.37    5.94   0
   2  -3  56  170.64   10.37   0
   3  -5  56   76.91    8.79   0
   3   0  57    5.01    7.57   0
   0  -3  33    0.43    5.32   0
   1  -4  44  264.22   10.31   0
   1   1  45    0.60    7.01   0
   3  -6  51   -0.27    7.19   0
   1  -3  49    2.04    7.81   0
   1  -2  51   -0.04    6.97   0
   2  -6  41    6.69    8.05   0
   2  -5  49   -2.76    7.38   0
   2  -2  58   75.85    9.61   0
   2  -1  57   -1.96    7.91   0
   3  -2  62   41.60    8.82   0
   3   1  53    3.96    7.43   0
   0  -2  41   -1.29    6.98   0
   1  -5  36  284.63   10.23   0
   1   2  38  310.59   10.20   0
   3  -1  61   13.39    8.90   0
   0  -3  36  733.32   13.28   0
   0  -1  43   -1.46    6.30   0
   0   0  42  743.75   13.16   0
   2   0  56   79.12    9.54   0
   3  -4  61    0.21    7.21   0
   3  -3  63    8.01    8.74   0
   1  -1  53    2.14    7.02   0
   2   1  52  238.88   10.32   0
   0   2  25   -0.68    4.28   0
   1  -4  47    3.42    7.97   0
   1   1  48  292.65   10.61   0
   2  -3  59    6.53    8.21   0
   0  -3  39   -5.13    7.04   0
   0  -2  44  667.53   13.47   0
   0   2  28 1086.93   16.78   0
   1  -5  39   -0.32    7.05   0
   1  -3  52  247.73   10.90   0
   1  -2  54   89.53    8.35   0
   1   2  41    1.51    6.32   0
   2  -6  44  178.47    9.22   0
   2  -5  52  109.32    9.55   0
   3   0  60  123.63    9.39   0
   0  -4  19    1.52    5.67   0
   0  -4  25   -2.02    5.61   0
   0  -1  46  107.21    8.04   0
   2  -2  61   10.49    8.43   0
   0  -4  28  598.92   13.11   0
   0   2  31   -0.92    5.67   0
   3  -1  64   44.11    9.27   0
  -1   0  23    5.06    5.79   0
   1  -5  42  154.39    9.28   0
   1  -4  50  153.99   10.15   0
   1  -1  56  190.91   10.51   0
   2   0  59   -7.91    8.36   0
  -1  -1  21    8.17    4.96   0
  -1  -1  24 1792.41   19.77   0
  -1  -1  27   -1.40    5.79   0
  -1   0  20 1551.18   19.16   0
  -1   0  26 1183.67   16.16   0
   0  -4  31    2.88    6.38   0
   0  -2  47    8.20    7.31   0
   1   1  51   -3.37    7.76   0
   2  -6  47    1.63    8.15   0
   2   1  55   -5.75    7.30   0
  -1  -1  18 1198.48   17.59   0
  -1  -1  30  595.05   12.42   0
  -1   0  29    0.94    5.38   0
   0  -1  49    9.09    7.67   0
   0   2  34  272.67    9.69   0
   1  -3  55    0.45    8.60   0
   1  -2  57    3.25    8.33   0
   1   2  44  299.14   10.53   0
   2  -5  55    4.65    7.71   0
  -1   0  32 1778.14   19.43   0
   0  -4  34  227.52    9.62   0
  -1  -1  33    4.47    6.60   0
   1  -5  45    0.26    7.53   0
   2  -2  64  100.89    9.50   0
   3   0  63   -0.57    8.09   0
  -1   0  35    0.14    6.73   0
   0  -4  37   -0.78    6.76   0
   0  -2  50  180.25   10.20   0
   0   2  37   -6.52    6.17   0
   1  -4  53   -2.39    7.97   0
   1  -1  59   14.25    8.90   0
  -1  -2  25    6.88    5.91   0
  -1   1  25    2.02    5.80   0
   0   1  47   -1.85    7.45   0
   1   1  54  104.13    9.54   0
   2  -6  50   70.10    7.91   0
   2   0  62   59.70    9.43   0
  -1  -2  22  458.37   11.58   0
  -1   1  22  474.43   11.30   0
  -1   1  28 1330.08   17.14   0
   0  -1  52  287.18   10.50   0
   0   0  51    5.79    6.90   0
   1  -3  58   80.65    9.51   0
   1  -2  60  134.50    9.99   0
   1   2  47    0.47    6.99   0
   2  -5  58   81.13    9.05   0
   2   1  58   85.52    8.81   0
  -1   0  38  250.40    9.07   0
  -1   1  31    2.70    5.29   0
   0  -4  40  410.64   11.59   0
   0   2  40  770.28   14.34   0
   1  -5  48  189.74   10.03   0
  -1  -2  19    2.15    4.63   0
  -1  -1  39   -0.14    6.19   0
  -1   1  19    1.85    4.64   0
  -1   1  34  942.72   15.05   0
  -1   0  41   -3.61    7.16   0
   0  -2  53   -6.59    7.21   0
   1  -4  56  126.58    9.39   0
  -1  -1  42  304.09   10.38   0
  -1   1  37   -4.43    6.79   0
   0  -4  43    8.88    6.94   0
   0  -1  55   -6.99    8.47   0
   0   0  54   31.26    8.29   0
   0   1  50  245.41    9.78   0
   0   2  43    0.18    6.78   0
   1  -1  62   45.21    9.05   0
   1   2  50  155.98    9.56   0
   2  -6  53   10.36    6.62   0
  -1  -2  16 1978.00   23.03   0
   1  -5  51    2.96    8.94   0
   1  -3  61   -2.07    8.38   0
   1   0  61   -3.14    8.30   0
   1   1  57    1.84    8.26   0
  -1   0  44  410.91   11.62   0
   1  -2  63    1.34    7.98   0
   2   0  65  -13.62    7.84   0
   2   1  61    6.82    8.19   0
  -1  -1  45    1.17    7.41   0
  -1   1  40  721.92   13.10   0
   0  -4  46  122.44    9.47   0
   0  -2  56   80.44    9.51   0
   0   1  53   -2.23    8.32   0
   0   2  46  212.34   10.00   0
   1  -4  59   -6.70    7.97   0
  -1  -2  43    0.19    6.43   0
  -1   0  47   -0.31    7.85   0
  -1   1  43   -3.70    7.03   0
   0  -1  58  136.94    9.05   0
   0   0  57   -1.73    8.70   0
   1  -1  65    7.53    8.71   0
   1   2  53   -0.39    8.34   0
  -1  -3  26  619.76   13.36   0
  -1  -3  29    0.01    5.44   0
  -1  -3  32  824.53   15.03   0
  -1  -1  48  299.72   11.37   0
   1  -5  54   41.75    8.13   0
   1  -3  64   53.20    9.37   0
   1   1  60  140.72    9.94   0
  -1  -3  23   -0.14    5.95   0
  -1  -3  35    5.07    6.98   0
  -1   2  27   -1.88    5.52   0
  -1   2  30  545.62   11.84   0
  -1   2  33    4.91    6.16   0
   0  -4  49    1.75    8.04   0
   1  -2  66   44.89    8.79   0
   1   0  64   70.76    9.11   0
  -1  -2  46  116.43    8.49   0
  -1   1  46  110.79    8.57   0
  -1   2  24 1724.02   20.75   0
   0  -2  59   -6.58    8.23   0
   0   1  56  179.59   10.71   0
   0   2  49    2.88    7.26   0
  -1  -3  38  152.12    8.45   0
  -1   0  50  256.27   10.06   0
  -1   2  36  840.55   14.23   0
   0  -1  61    0.92    9.09   0
  -1  -3  20  867.32   15.79   0
  -1  -3  41   10.56    7.65   0
  -1  -1  51   -0.73    7.32   0
  -1   2  39    1.53    6.64   0
   0  -4  52  125.23   10.03   0
   0   0  60  150.85    9.91   0
   0   3  30  523.87   13.03   0
   0   3  33    0.56    6.27   0
   1   2  56  152.75   10.62   0
  -1  -2  49   15.17    6.92   0
  -1   1  49    1.14    7.97   0
  -1   2  21    6.69    5.36   0
   0   3  27    2.25    5.21   0
   1  -5  57    0.02    8.02   0
  -1   0  53   -2.93    8.68   0
   0  -5  41    2.52    7.38   0
   0  -2  62   57.56    9.53   0
   0   2  52  173.61   10.10   0
   1   1  63    1.73    7.92   0
  -1  -3  44  261.19   10.75   0
  -1  -1  54   88.02   10.16   0
  -1   2  42  294.41    9.93   0
   0   1  59   -1.53    8.20   0
   0   3  24 1476.78   22.09   0
  -1  -3  17    0.43    5.39   0
  -1  -2  52  227.56   11.23   0
   0  -4  55   -1.23    8.72   0
   0  -1  64   68.58    9.68   0
   0   3  39    5.25    6.21   0
  -1  -3  47    2.85    8.22   0
  -1   2  45    5.80    7.11   0
   0  -5  44  140.60    9.52   0
  -2   0  28 1111.55   16.20   0
  -2   0  31    7.56    5.81   0
  -2   0  34  261.41    9.42   0
  -1   0  56  184.18   10.64   0
   0   2  55   -7.94    7.55   0
   0   3  42  225.12   10.20   0
  -2  -1  32 1164.71   16.81   0
  -2   0  37   -2.10    6.27   0
  -1  -1  57    6.77    8.75   0
   0  -5  47    9.39    8.32   0
   0  -2  65  -14.47    8.36   0
  -2  -1  29    0.45    5.74   0
  -2  -1  35   -0.45    6.11   0
  -2   0  25   -4.84    5.51   0
  -2   0  40  793.53   14.03   0
  -2   1  33   12.05    6.52   0
  -1  -3  50  151.67   10.05   0
  -1  -2  55   -3.85    7.75   0
  -1   2  48  298.20   11.24   0
   0   1  62   45.25    8.56   0
  -2  -1  26  512.10   12.15   0
  -2  -1  38  312.82   10.16   0
  -2   0  43    0.95    7.83   0
  -2   1  30  588.76   12.26   0
  -2   1  36  892.21   14.46   0
   0  -4  58   54.00    8.88   0
   0   3  45   -3.67    7.03   0
  -2  -1  41    2.86    6.70   0
  -2   0  22 1928.93   21.12   0
  -2   1  27   -1.59    5.55   0
  -2   1  39    2.13    6.33   0
  -1  -4  30  268.89   10.44   0
  -1  -4  33    3.62    6.79   0
  -1  -4  36  276.23   10.76   0
  -1   0  59  -10.83    8.66   0
  -2  -1  44  302.77   11.28   0
  -2   1  42  323.80   11.28   0
  -1  -4  27    4.35    6.92   0
  -1  -4  39    2.59    6.98   0
  -1  -3  53   -0.02    8.64   0
  -1  -2  58   90.09    9.57   0
  -1  -1  60  120.86   10.22   0
  -1   2  51   -3.76    7.59   0
   0   2  58   69.84    9.51   0
  -2   1  24 1857.62   20.43   0
  -1  -4  42  161.00   10.48   0
  -2  -2  33   -6.75    7.07   0
  -2   1  45   -1.29    6.86   0
   0   1  65    4.66    8.07   0
  -2  -2  30  184.91    9.33   0
  -2  -2  36  356.39   10.77   0
  -2  -2  39   -2.59    7.23   0
  -2  -1  47   -5.72    7.12   0
  -2   0  19    6.26    5.97   0
  -2   0  49   -4.41    7.25   0
  -1  -4  45   -5.95    8.01   0
  -1   0  62   40.73    9.38   0
  -1   2  54   88.65    9.72   0
  -1   3  32 1146.14   17.71   0
  -1   3  35    1.52    6.36   0
  -1   3  38  312.05   10.77   0
  -2  -2  27  -11.65    6.51   0
  -2  -2  42  360.73   11.84   0
  -2   1  21   10.37    6.28   0
  -2   1  48  322.67   11.48   0
  -1  -3  56  109.69    9.94   0
  -1  -2  61    0.65    8.77   0
  -1  -1  63  -16.31    9.07   0
  -1   3  29    1.78    5.95   0
   0   2  61    5.99    9.27   0
  -2  -1  50  150.10   10.54   0
  -2   0  52  189.08   11.18   0
  -1   3  41   -0.99    6.06   0
  -2  -2  45    1.86    8.14   0
  -1  -4  48  188.32   10.67   0
  -1   3  26  502.84   13.12   0
  -1   3  44  289.46   11.04   0
  -2  -2  24 1866.02   21.62   0
  -2   1  51    0.02    7.35   0
  -1   2  57    5.79    8.12   0
  -2  -2  48  281.23   11.45   0
  -2  -1  53   -2.66    7.43   0
  -2   0  55    0.84    9.24   0
  -2   2  26 1212.41   17.01   0
  -1  -4  51    2.84    8.22   0
  -1  -3  59   -5.74    7.92   0
  -1   0  65    7.82    9.11   0
  -1   3  47    1.12    7.50   0
  -2   0  16 3018.09   27.55   0
  -2   1  18 1226.14   17.94   0
  -1  -2  64   42.76    8.27   0
   0   2  64   86.37    9.84   0
  -1   1  64   72.34    9.34   0
  -2  -2  21   -4.46    5.20   0
  -2  -1  56  151.42   10.44   0
  -2   2  23    2.99    6.13   0
  -2   2  50  188.07   10.48   0
  -1  -4  54   48.54    8.74   0
  -1   2  60  121.09    9.89   0
  -1   3  23   -1.21    5.26   0
  -1   3  50  155.00   10.01   0
  -2  -3  37    6.75    7.63   0
  -2   0  58   63.16    9.28   0
  -2  -3  34  404.03   11.69   0
  -2  -3  40  405.58   12.63   0
  -2   1  57    5.72    7.67   0
  -2  -3  31   -1.01    7.15   0
  -2  -3  43    3.97    8.26   0
  -2  -1  59    7.42    9.25   0
  -2   2  53    4.53    8.35   0
  -1   3  53   -3.29    7.96   0
  -2  -3  28  377.87   11.83   0
  -2  -3  46   59.80    8.66   0
  -2   0  61  -10.17    9.09   0
  -1  -4  57    1.43    7.43   0
  -1   2  63   -1.37    8.94   0
  -3   0  36  505.78   12.89   0
  -3   0  39    4.36    8.23   0
  -2  -2  18 1057.24   17.60   0
  -2   1  15    0.13    6.15   0
  -2   1  60  144.98   10.47   0
  -2   2  20 3380.11   29.02   0
  -2   3  37   -1.98    7.15   0
  -2   3  40  457.85   12.52   0
  -3   0  33   -4.43    7.68   0
  -3   0  42  237.83   11.12   0
  -3   1  35   -3.76    7.51   0
  -3   1  38  317.56   10.52   0
  -3   1  41   -5.69    8.06   0
  -2  -3  49    4.19    8.39   0
  -2  -1  14 1557.88   20.95   0
  -2  -1  62   37.77    9.84   0
  -2   0  13   -1.27    5.98   0
  -2   2  56  101.80   10.32   0
  -2   3  34  549.70   12.53   0
  -2   3  43    2.94    7.60   0
  -3   0  30  535.16   12.88   0
  -3   0  45   -2.57    8.71   0
  -3   1  32 1186.19   17.27   0
  -3   1  44  313.67   11.90   0
  -2  -3  25   -3.79    7.26   0
  -2   3  31   -2.16    6.64   0
  -2   3  46  113.47    9.62   0
  -1   3  56  166.97   10.51   0
  -3   0  48  304.14   12.13   0
  -3   1  47    4.56    8.42   0
  -2  -3  52  114.17    9.62   0
  -2   0  64   92.25   10.09   0
  -3   1  29   10.55    6.33   0
  -2   1  63   -8.85    9.42   0
  -2   2  59   -1.95    8.68   0
  -2   3  28 1292.98   18.53   0
  -2   3  49   15.44    8.36   0
  -3   0  27   -0.71    6.13   0
  -9   6  -9   -1.37    6.78   0
  -9   6   0  286.65   10.66   0
  -6   5  10  456.49   11.49   0
  -5   3  28  398.44   11.27   0
  -5   4  18  358.07   10.53   0
  -4   2  30  192.92    8.99   0
 -10   6  -1    0.18    7.52   0
  -9   6 -15    2.66    7.66   0
  -9   6   3    5.35    7.80   0
  -8   6  -8  397.62   11.76   0
  -8   6  -2  188.96    9.61   0
  -4   4   7    1.16    5.25   0
  -3   3  12 2589.19   23.45   0
 -10   6   2   74.10    8.19   0
  -8   6 -11   -2.75    6.56   0
  -8   6   1    1.23    7.66   0
  -6   5 -23    1.53    5.88   0
  -4   3  23   11.11    5.89   0
  -9   6   6  167.20    9.88   0
  -8   6 -14   96.19    8.66   0
  -7   4  28  339.35   11.51   0
  -4   4 -20 1170.99   17.12   0
  -6   5  13    2.29    6.20   0
  -4   4  10  405.53   10.28   0
  -9   4  29    5.90    6.86   0
  -9   5  22   78.80    8.43   0
  -9   6   9   -0.51    7.92   0
  -8   6 -17   -6.18    7.40   0
  -8   6   7   -2.07    7.99   0
  -6   3  33    0.22    6.84   0
  -6   4  26  361.48   10.93   0
  -5   5 -10  708.14   12.93   0
  -5   5  -4 1055.29   14.73   0
  -5   5  -1    8.11    6.08   0
  -3   2  25    3.73    5.15   0
  -9   6 -21    5.91    6.45   0
  -8   4  30   80.31    8.95   0
  -7   6  -7   -3.70    7.18   0
  -5   5   2  330.91    9.98   0
  -9   6  12  137.40    9.59   0
  -8   5  23   -3.08    7.37   0
  -8   6 -20  171.25    8.86   0
  -7   6 -10  215.91    9.56   0
  -7   6  -1   12.49    6.31   0
  -6   5  16  643.02   13.07   0
  -5   5 -13    1.63    5.04   0
  -3   3  15    2.20    4.67   0
  -7   6 -13   -4.81    6.87   0
  -7   6   2  317.40    9.92   0
  -5   5   5    1.50    6.35   0
  -4   4 -23    2.12    5.12   0
  -4   4  13   -2.46    5.73   0
  -7   6   5   -5.75    7.40   0
  -5   3  31    3.30    6.38   0
  -5   5 -16  658.24   12.78   0
  -9   5  25    4.14    7.92   0
  -9   6  15   -1.85    7.75   0
  -8   6  13    2.35    7.88   0
  -7   4  31   -1.87    7.30   0
  -7   6 -16  568.59   12.50   0
  -4   3  26  614.64   12.74   0
  -7   6   8  621.33   12.95   0
  -5   4  24  870.01   14.45   0
  -5   5   8  972.49   14.14   0
  -4   2  33    6.29    5.64   0
  -8   4  33   -2.25    8.37   0
  -8   5  26  166.58   10.08   0
  -7   5  24  295.04   11.28   0
  -7   6 -19    2.78    7.46   0
  -6   4  29   -3.66    5.95   0
  -6   5  19   -1.42    6.23   0
  -5   5 -19   -1.73    5.55   0
  -8   6  16  328.97   11.12   0
  -5   5  11   -4.11    6.78   0
  -4   4  16 1468.13   17.07   0
  -2   2  17   -0.83    4.86   0
  -9   6  18   82.74    8.11   0
  -7   6  11   -7.60    6.65   0
  -9   5  28   75.50    8.10   0
  -3   2  28 1322.51   18.43   0
  -7   6 -22  133.23    8.08   0
  -7   6  14  142.19    9.21   0
  -6   6   0  857.45   14.16   0
  -5   5 -22  218.58    9.18   0
  -9   7  -7   -0.95    7.24   0
  -8   5  29   -2.03    7.41   0
  -8   6  19    6.70    7.12   0
  -7   4  34  157.03    9.36   0
  -7   5  27    3.78    7.94   0
  -6   6  -9   -0.75    5.67   0
  -6   6   3    6.32    7.07   0
  -5   5  14  640.48   11.87   0
  -9   7 -10  151.33    9.27   0
  -9   7   2   60.27    8.88   0
  -6   6 -12  342.84   10.30   0
  -5   3  34  410.63   11.53   0
  -5   4  27   -3.77    6.72   0
  -4   3  29   -3.55    5.88   0
  -4   4  19   -5.43    5.29   0
  -9   7 -13   -5.52    6.99   0
  -9   7   5  -12.02    7.54   0
  -6   4  32  323.41   10.88   0
  -6   6   6  229.53    8.86   0
  -3   4  -4 1266.37   16.50   0
  -9   7   8  192.94   10.27   0
  -7   6  17   -8.92    6.65   0
  -6   6 -15   -6.22    6.32   0
  -3   3  21    5.56    5.31   0
  -3   4  -1   10.96    4.80   0
  -2   3  -2  660.61   13.20   0
  -9   7 -16  126.59    8.22   0
  -8   7  -9    3.97    7.17   0
  -8   7  -6   87.42    7.98   0
  -8   7   0  347.42   11.26   0
  -6   5  25  -10.24    7.25   0
  -6   6   9   -3.52    6.28   0
  -5   5  17   -2.88    5.83   0
  -3   4 -10 1074.72   15.74   0
  -3   4   2  863.63   13.43   0
  -9   6  24  184.08    9.85   0
  -8   7   3   -1.08    6.70   0
  -2   2  20 3320.86   28.37   0
  -2   3   1   14.47    4.76   0
  -9   7  11  -12.22    7.21   0
  -8   5  32  181.28    9.81   0
  -8   7   6  176.67   10.11   0
  -7   5  30   69.49    8.39   0
  -7   6  20  239.57   10.15   0
  -6   6 -18  243.48    9.31   0
  -6   6  12  389.77   11.10   0
  -4   5  -3    2.79    5.51   0
  -3   4   5    7.65    4.90   0
  -8   7 -15    4.38    7.36   0
  -4   5   0 1363.39   16.21   0
  -3   4 -13    3.78    4.88   0
  -2   3   4 3036.40   25.52   0
  -9   7  14  125.59    8.75   0
  -8   6  25    9.59    7.66   0
  -8   7   9   -2.26    7.08   0
  -5   4  30  286.44   10.02   0
  -5   5  20  660.26   12.72   0
  -4   5  -9    5.27    4.80   0
  -4   5   3   10.43    5.35   0
  -3   4   8 2742.61   22.95   0
  -9   6  27    2.57    7.79   0
  -6   4  35    4.11    6.92   0
  -6   6 -21   -2.99    6.64   0
  -6   6  15    5.07    6.94   0
  -4   5 -12 1086.29   15.43   0
  -4   5   6  857.89   13.66   0
  -8   7 -18  180.04    8.91   0
  -6   5  28  377.04   11.34   0
  -4   3  32  845.21   14.84   0
  -3   2  31    0.52    5.06   0
  -3   3  24 1043.19   15.41   0
  -2   3   7   -0.89    4.46   0
  -9   7  17   -9.89    7.71   0
  -7   7  -8  564.70   12.70   0
  -7   7  -5   -2.53    6.15   0
  -7   7   1    0.75    7.45   0
  -3   4 -16 1947.82   21.49   0
  -3   4  11   17.47    5.96   0
  -8   7  15    6.74    7.76   0
  -7   5  33   -3.11    7.71   0
  -7   7   4  169.89    8.69   0
  -4   5 -15    1.68    5.35   0
  -4   5   9   -5.71    5.40   0
  -8   5  35    5.55    7.01   0
  -8   6  28  125.75    9.05   0
  -7   7 -11   -3.42    6.24   0
  -7   7   7    4.36    7.28   0
  -6   6  18  350.54   10.07   0
  -5   6   1    4.63    6.58   0
  -4   4  25    1.97    5.00   0
  -9   7  20  123.35    8.60   0
  -7   7 -14  114.49    8.44   0
  -5   6  -8  765.88   13.40   0
  -5   6   4  723.52   12.88   0
  -4   5  12  937.70   14.22   0
  -2   2  23   -0.90    4.64   0
  -2   3  10 2032.50   20.66   0
  -8   7  18  107.38    8.99   0
  -7   6  26  241.28   10.25   0
  -7   7  10  230.00   10.21   0
  -5   4  33    6.47    6.34   0
  -3   4  14  710.10   12.62   0
  -6   5  31    3.77    7.19   0
  -6   6  21    0.59    7.40   0
  -5   6 -11   -4.32    5.18   0
  -5   6   7   -3.52    5.84   0
  -4   5 -18  674.23   12.99   0
  -3   4 -19    7.07    5.13   0
  -7   7 -17   -6.83    6.71   0
  -7   7  13    2.98    7.39   0
  -9   8  -5    5.58    6.93   0
  -9   8  -2   82.60    8.06   0
  -8   6  31   -7.66    7.94   0
  -5   5  26  210.62    9.27   0
  -5   6 -14  370.85   10.31   0
  -5   6  10  456.22   10.58   0
  -4   5  15    6.52    5.56   0
  -3   3  27   -6.80    5.38   0
  -2   3  13   10.04    5.38   0
  -9   8  -8  115.79    7.96   0
  -9   8   4  157.92    9.08   0
  -8   7  21    3.47    7.36   0
  -7   5  36  232.87   11.06   0
  -4   4  28  617.25   12.53   0
  -9   8 -11   -7.29    7.11   0
  -9   8   7    4.21    7.46   0
  -7   6  29    5.75    7.55   0
  -5   6  13   -7.08    6.59   0
  -4   3  35    6.13    5.84   0
  -3   4  17    4.64    4.89   0
  -7   7 -20  128.37    8.24   0
  -5   6 -17    2.73    5.70   0
  -9   8  10   81.87    7.77   0
  -6   7  -7   12.26    6.84   0
  -6   7  -4  251.24    8.76   0
  -6   7   2  305.95    9.55   0
  -4   5 -21    2.24    5.08   0
  -4   5  18  361.17    9.61   0
  -8   8  -4  177.64    9.12   0
  -8   8   2   74.08    8.58   0
  -7   7  19   -3.60    8.04   0
  -6   5  34  200.81    9.68   0
  -6   7   5   -1.28    6.21   0
  -5   4  36  307.58   10.84   0
  -5   6  16  629.15   12.49   0
  -2   3  16 2054.36   20.79   0
  -9   8  13    4.03    6.63   0
  -8   6  34   82.71    8.70   0
  -8   8  -7    2.70    6.84   0
  -8   8   5   -6.75    7.38   0
  -6   7 -10  208.43    8.32   0
  -6   7   8  622.57   12.91   0
  -5   5  29    1.05    6.77   0
  -3   4 -22  303.34    9.98   0
  -8   8 -10  143.63    8.71   0
  -8   8   8  235.77    9.88   0
  -6   6  27   -0.34    7.29   0
  -5   6 -20  443.02   10.97   0
  -2   2  26 1241.84   17.88   0
  -7   6  32  239.34   10.51   0
  -7   7  22   89.38    9.02   0
  -6   7 -13   -1.04    6.70   0
  -6   7  11    0.56    6.40   0
  -4   4  31    2.71    6.11   0
  -4   5  21    0.96    5.65   0
  -8   7  27    4.94    7.61   0
  -8   8 -13    2.10    6.61   0
  -8   8  11    6.41    7.49   0
  -5   6  19   -0.01    6.06   0
  -3   3  30  299.74    9.64   0
  -6   7 -16  566.72   12.70   0
  -6   7  14  132.76    8.88   0
  -8   8  14  123.21    9.18   0
  -8   8 -16  141.63    8.61   0
  -6   5  37    1.96    6.77   0
  -5   5  32  430.79   11.33   0
  -5   6  22  188.07    9.14   0
  -3   4  23    8.46    5.67   0
  -8   6  37   -0.61    6.46   0
  -8   8  17   -1.55    7.66   0
  -7   8  -3    2.50    7.52   0
  -7   8   3    7.62    7.71   0
  -6   6  30  108.87    7.60   0
  -6   7  17    0.33    6.37   0
  -4   6  -1   -0.02    6.13   0
  -3   5   1    2.24    4.93   0
  -3   5   4  677.73   12.06   0
  -8   7  30   67.45    8.66   0
  -7   6  35    6.85    7.50   0
  -7   8  -6   95.47    8.08   0
  -7   8   6  179.56    9.33   0
  -6   7 -19    3.26    6.21   0
  -4   6   2  580.29   11.21   0
  -4   6   5    0.01    6.48   0
  -7   8  -9   -4.00    7.21   0
  -4   6  -7    1.41    5.80   0
  -3   5  -8 2107.92   20.50   0
  -3   5   7    5.07    5.08   0
  -8   8  20  110.01    8.76   0
  -6   7  20  242.45    9.00   0
  -4   4  34  229.17    9.15   0
  -4   6   8  829.64   13.02   0
  -7   8 -12  178.73    8.96   0
  -7   8  12  153.57    9.11   0
  -4   6 -10  323.29    9.62   0
  -3   5  10  713.77   11.95   0
  -2   2  29   -1.20    4.97   0
  -2   3  22  430.05   10.52   0
  -2   4   0 4181.03   28.30   0
  -6   6  33    0.16    7.26   0
  -5   7   3   -0.05    6.80   0
  -4   5  27    7.22    6.42   0
  -4   6  11   -3.34    5.60   0
  -3   3  33   -1.46    5.24   0
  -3   4  26  613.21   12.04   0
  -3   5 -11    0.34    4.37   0
  -2   4  -3   -0.21    4.37   0
  -2   4   3    2.41    4.59   0
  -8   7  33    1.64    6.96   0
  -7   8  15    3.02    7.53   0
  -6   7  23    8.81    7.44   0
  -5   5  35   -6.64    6.99   0
  -5   7  -6  416.33   10.97   0
  -5   7   6  155.02    7.85   0
  -3   5  13   -1.60    5.98   0
  -2   4   6  793.15   12.71   0
  -8   8  23   -6.33    6.72   0
  -7   6  38   47.48    8.45   0
  -7   8 -15   -5.13    6.22   0
  -5   7   9    5.57    7.08   0
  -4   6 -13    1.40    5.52   0
  -4   6  14  265.77    8.81   0
  -5   6  28  377.59   11.06   0
  -5   7  -9   -2.86    5.51   0
  -3   5 -14  347.99    9.74   0
  -2   4   9   -1.64    4.66   0
  -7   7  31   -8.36    7.11   0
  -7   8  18  128.56    8.42   0
  -5   7  12  483.57   10.96   0
  -3   5  16 1804.75   18.42   0
  -2   4  -9    0.30    4.65   0
  -5   7 -12  374.79   10.27   0
  -4   6 -16  694.48   13.25   0
  -4   6  17   -1.13    5.68   0
  -2   4  12  768.07   12.69   0
  -5   7  15   -4.12    6.19   0
  -4   4  37    4.18    6.73   0
  -4   5  30  278.89    8.93   0
  -2   3  25    2.45    5.10   0
  -8   9  -2   82.28    8.31   0
  -8   9   1    3.48    6.68   0
  -8   9   7   -4.97    7.49   0
  -7   8  21   -0.71    7.07   0
  -6   6  36  189.03    9.60   0
  -6   8  -5   -4.92    7.09   0
  -6   8  -2  191.63    8.41   0
  -6   8   4  211.66    8.63   0
  -6   8   7    7.94    7.60   0
  -3   4  29    3.33    4.97   0
  -8   9  -5    4.48    7.05   0
  -5   5  38  165.04    9.20   0
  -5   7 -15   -2.35    5.92   0
  -5   7  18  371.17   10.88   0
  -4   6  20  614.18   11.73   0
  -3   5 -17    2.36    4.87   0
  -3   5  19   -2.11    5.34   0
  -2   4 -12  727.12   13.36   0
  -2   4  15   -3.67    5.47   0
  -8   9  -8  120.71    7.98   0
  -8   9  10   66.00    7.63   0
  -7   7  34  136.03    8.78   0
  -6   8  -8  404.16   11.01   0
  -6   8  10  180.06    8.44   0
  -5   6  31   -3.05    5.88   0
  -8   9  13  -10.67    7.18   0
  -7   8  24  203.94    9.75   0
  -6   7  29    3.99    6.84   0
  -6   8  13    4.46    7.42   0
  -4   6 -19   -3.40    5.86   0
  -3   3  36  761.60   14.40   0
  -8   9 -11   -6.77    6.02   0
  -6   8 -11    1.16    6.41   0
  -5   7  21    7.78    7.25   0
  -2   2  32  616.54   13.22   0
  -6   8  16  327.95   10.69   0
  -5   7 -18  140.03    7.81   0
  -4   5  33    5.71    6.40   0
  -4   6  23   -5.11    5.79   0
  -3   5  22  275.25    8.60   0
  -2   4  18 1073.73   14.71   0
  -6   6  39   -1.56    7.87   0
  -2   4 -15   -0.43    4.93   0
  -6   7  32  218.78    9.91   0
  -6   8 -14  100.10    7.67   0
  -5   6  34  194.88    9.38   0
  -3   4  32  834.27   13.74   0
  -2   3  28 1314.83   17.22   0
  -1   3  -1   11.74    5.09   0
  -1   3   2  687.16   12.52   0
  -1   3   5    5.20    5.08   0
  -7   7  37    2.54    6.89   0
  -7   9  -1   -3.78    7.33   0
  -6   8  19    8.30    6.78   0
  -5   7  24  296.68   10.26   0
  -3   5 -20  516.04   11.75   0
  -1   2  21    9.23    4.76   0
  -1   3   8 3394.17   26.02   0
  -7   9  11   -3.59    7.21   0
  -4   7   1    2.60    6.29   0
  -4   7   4  596.74   11.98   0
  -3   6   0 1004.60   14.43   0
  -3   6   3    4.20    5.81   0
  -7   8  30   71.32    7.84   0
  -7   9  -7    2.29    7.06   0
  -6   8  22  100.23    8.13   0
  -4   7   7   -5.09    5.83   0
  -3   6   6  418.13    9.92   0
  -1   3  11    5.98    4.55   0
  -7   9  14  125.87    9.11   0
  -4   5  36  278.14    9.86   0
  -4   7  -5   -3.66    6.25   0
  -4   7  10  362.18    9.79   0
  -3   6   9    6.32    5.52   0
  -7   9 -10  146.27    8.45   0
  -6   7  35   11.82    6.89   0
  -4   6  29    0.46    6.80   0
  -4   7  13    3.01    6.94   0
  -3   6  -6  433.00    9.84   0
  -3   6  12  722.60   12.39   0
  -7   9  17   -3.61    7.61   0
  -6   8  25   -4.51    7.55   0
  -5   6  37    1.17    7.26   0
  -5   8  -1   -0.03    7.21   0
  -5   8   5   -0.98    6.06   0
  -5   8   8  432.16   10.97   0
  -4   7  -8  490.86   11.27   0
  -3   4  35    0.72    5.70   0
  -3   5  28  376.12   10.11   0
  -2   4 -18  961.47   16.03   0
  -1   3  14 1654.00   18.41   0
  -7   9 -13    3.35    6.70   0
  -5   8  -4  244.41    9.44   0
  -5   8  11    1.60    7.25   0
  -4   7  16  406.88   10.95   0
  -3   6  -9    3.90    5.71   0
  -3   6  15    0.90    6.03   0
  -2   3  31    4.14    4.98   0
  -2   5   2  771.02   12.67   0
  -2   5   5    4.02    5.86   0
  -7   8  33   -2.04    7.43   0
  -7   9  20  128.42    8.60   0
  -5   7  30   73.59    7.96   0
  -5   8  -7   -1.18    6.82   0
  -4   7 -11    4.26    5.96   0
  -2   5  -1   -5.00    4.63   0
  -2   5   8 2147.71   19.40   0
  -5   8  14  131.02    7.95   0
  -2   5  11    4.34    6.03   0
  -1   2  24 1767.74   20.56   0
  -4   7  19   -3.04    5.98   0
  -3   6 -12  678.75   12.42   0
  -3   6  18  411.29   10.00   0
  -1   3  17    8.99    5.11   0
  -7   9  23   -2.66    6.98   0
  -6   7  38   40.91    7.49   0
  -5   8 -10  185.01    8.08   0
  -5   8  17    4.05    6.35   0
  -4   5  39   -0.42    6.38   0
  -4   6  32  316.69    9.47   0
  -2   5  -7    5.27    5.21   0
  -2   5  14  365.43    9.80   0
  -6   9   0  278.62   10.29   0
  -6   9   6  156.79    8.13   0
  -6   9   9    3.37    7.29   0
  -4   7 -14  339.00    9.81   0
  -3   5  31   -1.61    5.16   0
  -2   4  27   -2.74    5.60   0
  -6   9  -3   -5.70    6.61   0
  -6   9  12  140.80    8.74   0
  -5   6  40  178.58    9.20   0
  -5   7  33   -6.41    7.02   0
  -5   8 -13   -3.62    7.08   0
  -5   8  20  213.61    9.42   0
  -4   7  22  142.76    7.83   0
  -3   6  21    7.09    5.64   0
  -6   8  31   -6.75    7.11   0
  -6   9  -6   68.91    7.28   0
  -3   4  38  151.46    8.54   0
  -2   5  17   -0.77    5.03   0
  -6   9  15   -0.62    7.05   0
  -3   6 -15   -5.42    5.36   0
  -2   5 -10  696.12   12.14   0
  -6   9  -9    2.75    6.29   0
  -5   8  23   -5.10    7.68   0
  -4   6  35   -3.38    6.51   0
  -4   7 -17    2.54    5.62   0
  -4   7  25    0.93    6.98   0
  -3   6  24  552.39   11.72   0
  -2   3  34  560.40   12.03   0
  -6   7  41    8.83    7.49   0
  -6   9  18   83.40    7.88   0
  -5   8 -16  340.25   10.76   0
  -2   5  20  584.58   11.57   0
  -5   7  36  223.16    9.68   0
  -3   5  34  388.32   10.72   0
  -2   4  30  200.20    8.27   0
  -1   2  27   -2.66    4.33   0
  -6   8  34   98.40    8.59   0
  -6   9 -12  138.20    8.32   0
  -6   9  21    3.87    7.26   0
  -5   8  26  167.01    8.89   0
  -2   5 -13   -1.19    5.18   0
  -1   4   1    9.04    5.38   0
  -1   4   4 1300.43   15.59   0
  -1   4   7    8.15    4.72   0
  -3   6 -18  374.39   10.04   0
  -1   3  23   -0.29    4.16   0
  -1   4  10 1112.64   14.44   0
  -1   4  -2  875.40   13.24   0
  -6   9  24  167.03    9.25   0
  -4   6  38   70.88    7.99   0
  -4   8   0  461.77   11.40   0
  -4   8   9  -11.85    7.08   0
  -3   7   2  215.75    8.21   0
  -3   7   5    1.53    5.59   0
  -3   7   8  518.94   10.80   0
  -1   4  13    4.25    4.75   0
  -4   8  -3    2.02    6.93   0
  -4   8  12  237.91    9.65   0
  -3   7  11    6.23    5.95   0
  -6   8  37   -2.09    6.70   0
  -5   7  39    2.00    7.38   0
  -4   7  31   -7.81    7.08   0
  -4   8  15   -6.25    7.25   0
  -3   5  37   -2.37    6.08   0
  -3   7  -4  620.81   12.09   0
  -3   7  14  328.82   10.19   0
  -1   4  16 2130.85   19.77   0
  -6   9  27   -5.53    7.00   0
  -5   9   1    6.55    6.74   0
  -5   9   7   -2.91    7.42   0
  -5   9  10  123.28    8.62   0
  -4   8  -6  192.06    8.64   0
  -3   6  30  165.62    7.77   0
  -2   3  37    2.22    5.44   0
  -2   4  33   -2.75    4.98   0
  -2   5 -16 1698.97   19.43   0
  -5   9  -2  142.63    8.38   0
  -5   9  13    0.94    7.56   0
  -4   8  18  195.41    9.30   0
  -3   7  -7    2.36    5.84   0
  -3   7  17   -4.26    5.97   0
  -2   6   1    4.18    6.03   0
  -2   6   4  819.07   12.72   0
  -2   6   7    2.88    5.33   0
  -2   6  10  337.60    9.57   0
  -1   3  26  517.74   10.65   0
  -5   8  32  177.53    9.04   0
  -4   8  -9   -0.54    6.36   0
  -2   6  13   -3.66    6.42   0
  -1   2  30  577.57   12.47   0
  -1   4  -8 2624.89   22.89   0
  -1   4  19    6.25    5.67   0
  -5   9  -5    7.46    7.20   0
  -4   8  21   -9.35    7.64   0
  -3   7  20  407.31   10.73   0
  -4   6  41    2.58    6.90   0
  -4   7  34  164.53    9.09   0
  -3   6  33    4.56    6.68   0
  -3   7 -10  356.43    9.79   0
  -2   5  29   -0.37    6.10   0
  -2   6  -5   -0.42    5.70   0
  -2   6  16  707.82   12.39   0
  -5   9  -8  310.61   10.01   0
  -5   9  19   -4.11    6.88   0
  -6  10   2   61.61    7.19   0
  -5   7  42  108.66    7.96   0
  -4   8 -12  233.37    9.00   0
  -4   8  24  306.78   10.37   0
  -3   7  23    3.69    6.02   0
  -2   6  19    3.42    6.53   0
  -6  10  -1   -5.59    6.32   0
  -5   8  35   -0.98    7.46   0
  -5   9  22   66.73    8.32   0
  -2   4  36  338.46    9.97   0
  -2   5 -19    0.82    5.04   0
  -2   6  -8  829.49   13.41   0
  -1   3  29    7.12    5.19   0
  -1   4 -11   13.78    4.75   0
  -5   9 -11    4.62    6.71   0
  -3   7 -13    3.32    5.70   0
  -4   7  37    1.96    6.66   0
  -4   8  27   10.76    7.09   0
  -3   7  26  146.41    8.47   0
  -2   5  32  669.87   12.73   0
  -2   6  22  349.37   10.11   0
  -5   9  25   -2.73    6.60   0
  -4   8 -15   -0.97    6.17   0
  -3   6  36  270.73   10.01   0
  -1   4  25    2.75    5.56   0
  -1   5   3   -2.13    4.85   0
  -1   5   6  359.86    9.16   0
  -1   5   9    7.43    5.11   0
  -2   6 -11    0.00    4.55   0
  -1   5   0 1384.20   16.15   0
  -1   5  12 1124.70   14.38   0
  -5   8  38   33.09    7.21   0
  -3   7 -16  386.73   10.74   0
  -2   6  25   -7.39    6.15   0
  -1   2  33   -0.85    4.53   0
  -1   5  15    0.01    5.64   0
  -5   9  28   77.25    8.34   0
  -1   4 -14  668.81   12.85   0
  -3   8   7   -0.19    6.59   0
  -3   8  10  179.17    9.24   0
  -1   3  32 1151.96   16.04   0
  -1   5  18  712.41   12.26   0
  -4   7  40  129.62    8.37   0
  -4   9   2  145.14    8.77   0
  -4   9   8  328.05   10.59   0
  -4   9  11   -0.92    7.03   0
  -3   8  13    3.49    7.22   0
  -2   4  39    3.47    5.45   0
  -2   5  35   -2.46    5.84   0
  -2   6 -14  252.51    8.64   0
  -1   4  28  666.67   11.81   0
   0   3   9    2.43    4.39   0
  -4   9  -1   -1.39    7.09   0
  -3   6  39   -5.41    6.74   0
  -3   8  -2  216.66    9.36   0
  -3   8  16  372.22   11.00   0
  -1   5  -6  821.66   12.81   0
   0   2  19    1.81    3.79   0
   0   3   3    1.63    4.26   0
   0   3  12 2082.85   19.68   0
  -4   8  33   -3.89    6.79   0
  -4   9  17    2.58    7.46   0
  -2   7   3    7.52    6.59   0
  -2   7   6  402.63   10.66   0
  -2   7   9    6.56    6.39   0
  -1   5  21   11.07    5.38   0
   0   3   0 2667.17   23.16   0
  -4   9  -4  115.65    7.85   0
  -3   8  -5   -3.86    6.77   0
  -3   8  19    5.25    7.16   0
  -2   7  12  379.04    9.79   0
   0   3  15    1.13    4.31   0
  -5  10   3   -2.79    6.44   0
  -5  10   6   60.03    7.10   0
  -2   7  15   -0.94    5.99   0
  -1   5  -9    0.71    5.03   0
  -5  10   0  163.86    8.23   0
  -4   9  -7    0.51    6.84   0
  -3   8  22  116.54    8.25   0
  -2   6  31   -3.14    6.70   0
  -2   7  -3   -0.81    5.92   0
  -2   7  18  155.10    8.67   0
  -1   4  31   -0.27    5.64   0
   0   3  -3    0.78    4.74   0
  -5  10  -3   -0.94    6.66   0
  -4   7  43   -1.77    7.48   0
  -4   8  36   97.91    8.64   0
  -4   9  23  -10.07    7.21   0
  -3   7  35   -5.51    6.77   0
  -3   8  -8  408.88   10.77   0
  -2   5  38   81.47    7.36   0
  -2   6 -17   -2.36    5.19   0
   0   3  18  513.14   10.40   0
  -2   7  -6  133.00    7.89   0
  -2   7  21    2.24    7.12   0
  -1   3  35    2.12    4.93   0
  -1   4 -17    2.29    4.39   0
  -3   6  42  142.65    8.42   0
  -3   8  25    0.28    7.49   0
  -5  10  -6   72.39    7.36   0
  -4   9  26  129.16    8.38   0
  -3   8 -11    3.17    6.19   0
  -1   5 -12  888.12   13.90   0
  -1   6   5   -2.88    6.32   0
  -1   6   8  779.29   12.45   0
  -1   6  11    6.39    6.08   0
  -2   6  34  146.57    7.84   0
  -2   7  24  400.97   11.12   0
  -1   6   2  331.14    9.00   0
  -1   6  14  374.61   10.36   0
   0   4   5   -2.28    5.16   0
   0   4   8 1550.23   16.61   0
   0   4  11   -4.61    5.41   0
  -3   7  38  126.23    8.42   0
  -3   8  28  140.33    8.83   0
  -2   7  -9   -4.51    5.30   0
  -1   4  34  483.43   11.17   0
  -1   6  17    4.27    6.67   0
   0   2  25    2.56    4.28   0
   0   4   2 1384.37   16.26   0
   0   4  14  316.58    9.24   0
  -4   8  39   -0.68    7.09   0
  -4   9  29  -12.48    6.94   0
  -3   8 -14  124.75    8.12   0
  -2   5  41    0.96    6.14   0
  -2   7  27    1.31    5.89   0
  -1   5  30  161.58    7.42   0
  -1   6  20  463.24   10.90   0
   0   3  24 1530.55   17.25   0
   0   4  -1   -5.01    5.35   0
   0   4  17    0.95    5.63   0
  -2   7 -12  440.18   10.64   0
  -1   6  -4  689.24   11.84   0
  -2   6  37   -2.02    6.54   0
  -1   3  38  287.55    9.58   0
  -1   5 -15   -0.02    4.92   0
   0   4  20 1277.74   15.60   0
  -3   9   9    7.31    6.91   0
  -3   9  12  146.52    8.93   0
  -1   6  -7    3.13    5.77   0
  -1   6  23   -0.63    5.86   0
   0   3  -9    0.17    3.61   0
  -3   7  41    5.15    6.64   0
  -3   9   3    0.50    7.13   0
  -3   9  15    2.15    6.95   0
  -1   4  37   -4.34    5.61   0
  -1   5  33    0.78    6.28   0
   0   3  27   -1.28    5.00   0
  -3   8  34  116.89    8.06   0
  -3   9   0  268.79    9.52   0
  -3   9  18  168.23    9.04   0
  -2   8  11   -0.67    6.15   0
  -1   4 -20  786.07   15.13   0
   0   2  28 1041.94   15.56   0
  -2   7 -15    2.70    5.74   0
  -2   8  17   -0.22    7.49   0
  -3   9  21    2.79    7.26   0
  -2   6  40  213.40    9.45   0
  -2   7  33    5.37    6.91   0
  -2   8  -1    6.30    6.72   0
  -1   6 -10  424.35   10.44   0
   0   4  -7   -2.40    4.79   0
   0   5   7   -6.90    6.02   0
   0   5  10  680.56   11.92   0
  -2   8  20  184.05    9.34   0
   0   5   4 1125.30   14.76   0
   0   5  13    2.05    5.41   0
  -3   9  -6  142.99    8.00   0
  -3   9  24  153.16    8.59   0
  -1   7  10  214.32    9.18   0
   0   4  26  691.46   11.73   0
   0   5   1   -4.41    5.80   0
  -3   7  44  114.09    8.26   0
  -3   8  37    3.35    7.13   0
  -2   8  23    0.09    7.44   0
  -1   5 -18  359.58   10.06   0
  -1   7   4  233.29    8.99   0
  -1   7   7    5.15    5.88   0
  -1   7  13   -7.82    6.15   0
   0   3 -12 2477.34   24.23   0
  -2   7  36  135.08    8.85   0
  -1   4  40  408.37   10.90   0
  -1   7  16  592.57   11.61   0
   0   5  19   -0.99    5.43   0
  -3   9  -9   -1.52    6.56   0
  -3   9  27    0.68    7.44   0
  -2   8  -7   -2.94    6.58   0
  -2   8  26  158.22    8.72   0
  -1   6 -13   -1.37    5.53   0
  -1   7  19    1.69    7.14   0
   0   2  31   -1.10    4.54   0
   0   4 -10  394.81    9.87   0
  -1   6  32  338.43    9.70   0
  -1   7  -2  302.58    9.36   0
   0   4  29    1.17    4.82   0
   0   5  22  217.05    8.18   0
  -2   6  43   -0.71    6.59   0
  -1   7  22  146.28    8.77   0
   0   5  -5   -1.31    5.46   0
  -2   8 -10  163.90    8.31   0
  -1   5  39    3.07    6.23   0
  -2   7  39   -1.05    7.25   0
  -1   7  -5   -1.81    5.50   0
  -1   7  25    5.99    6.99   0
   0   3  33   -3.33    5.04   0
  -1   6  35    1.49    6.96   0
   0   4  32  453.60   10.75   0
  -2   8  32  151.85    8.91   0
   0   5  -8  951.42   14.03   0
   0   6   9   -3.28    6.31   0
   0   6  12  321.37    9.65   0
  -1   7  -8  594.96   11.91   0
   0   4 -13    4.06    4.69   0
   0   5  28  564.34   11.13   0
   0   6   6  366.49    9.46   0
   0   6  15    5.73    5.83   0
   1   2   8 3400.67   25.62   0
   1   2  11    9.43    4.33   0
   1   3  10 1141.14   14.76   0
  -2   8 -13   -6.03    6.32   0
  -2   9  10  144.21    8.55   0
  -2   9  13    7.17    6.78   0
   0   2  34  245.47    8.89   0
   0   6   3    6.14    5.49   0
   0   6  18  241.96    9.50   0
   1   2   5    2.42    4.24   0
   1   2  14 1599.17   17.68   0
   1   3   7    5.65    4.60   0
   1   3  13    0.49    4.77   0
  -2   9   4  164.05    8.63   0
  -2   9  16  136.27    8.59   0
   1   3   4 1328.50   15.56   0
   1   3  16 2063.81   19.04   0
  -2   7  42   70.86    7.37   0
  -2   8  35    2.73    7.06   0
  -2   9   1   -1.59    6.79   0
  -2   9  19    7.59    6.91   0
  -1   5  42  193.56    8.81   0
  -1   6  38  114.27    8.31   0
  -1   7  31   -0.07    7.09   0
   0   3  36  504.53   11.54   0
   0   5  31    7.67    6.46   0
   0   6  21    7.05    5.98   0
  -1   7 -11   -0.95    5.97   0
  -1   8   9    4.07    6.96   0
  -1   8  12  170.67    8.92   0
   0   4  35   -0.28    5.08   0
   0   5 -11    1.95    5.36   0
   0   6  -3   -3.55    6.13   0
   1   2   2  692.25   12.32   0
   1   3   1    7.59    4.54   0
   1   3  19    5.27    4.72   0
  -2   9  -2   66.18    7.28   0
  -2   9  22   55.79    7.89   0
  -1   8  15    3.30    6.39   0
   0   6  24  548.58   11.36   0
   1   4   9    3.21    4.96   0
   1   4  12 1138.98   14.35   0
  -1   8  18  189.73    8.51   0
   1   4   6  350.17    8.97   0
   1   4  15    3.38    5.17   0
  -2  -5  18  370.19   12.64   0
  -2  -4  20  618.50   14.32   0
  -2  -3  19   -0.54    7.40   0
  -1  -3  29   -6.78    8.13   0
  -1  -2  25    5.10    6.51   0
   0  -6  36  166.21   11.43   0
   1  -2  33   -1.52    6.24   0
   2  -2  34  261.13   11.00   0
   0  -4  37   -5.07    7.92   0
   1  -5  42  150.75   10.40   0
  -1  -7  24  228.28   11.78   0
  -1  -5  31   -2.30    7.89   0
  -1  -1  18 1195.19   18.23   0
   0  -5  38  180.80   10.53   0
   1  -1  26 1104.16   18.70   0
   0  -3  36  808.22   15.71   0
   1  -7  41   -0.81    9.67   0
   2  -7  45    1.42    9.53   0
  -2  -5  21    3.80    8.11   0
  -2  -4  23   -2.98    8.16   0
   0  -2  32  652.61   13.80   0
   1  -6  43   -8.31    9.41   0
   2  -5  46   65.60   10.32   0
   3  -6  48  118.90   11.78   0
   3  -5  47   -9.67    9.92   0
  -2  -6  16  322.91   12.31   0
  -1  -4  33   -5.46    7.83   0
   0  -1  25   -3.40    5.64   0
   2  -3  41   -2.22    8.38   0
   4  -6  49   -0.51    9.86   0
  -1  -3  32  864.14   15.34   0
  -1  -2  28 1298.04   18.05   0
   0  -6  39    8.13    9.93   0
   2  -4  45  -10.36    9.37   0
   2  -1  27    1.07    5.61   0
  -1  -7  27   -1.12    9.42   0
  -1  -5  34  188.48   10.19   0
  -1  -1  21    5.26    6.93   0
   0  -7  37    0.50    9.38   0
   0  -4  40  416.84   13.65   0
   3  -2  35   -1.92    7.18   0
  -2  -6  19    2.10    8.65   0
  -2  -5  24  288.55   11.87   0
  -2  -4  26  329.39   12.15   0
   0  -5  41    4.87    8.81   0
   1  -5  45    1.59    8.42   0
   1  -2  36  855.74   15.74   0
   3  -4  46   63.71   10.28   0
  -2  -2  21   -0.39    7.16   0
   1  -7  44   96.84   10.29   0
   2  -2  37    2.34    7.22   0
   3  -3  42  236.36   11.41   0
  -1  -4  36  272.67   12.37   0
   0  -3  39   -2.88    7.61   0
   1  -6  46   61.09   10.27   0
   1  -1  29   -2.51    6.32   0
  -2  -6  22   88.58   11.09   0
  -1  -7  30   61.22    9.34   0
  -1  -3  35    2.23    8.81   0
   0  -2  35    5.78    6.68   0
  -2  -5  27   -1.83    8.77   0
  -1  -5  37   -5.94    9.48   0
  -1  -2  31   -0.72    6.91   0
   0  -6  42  117.76   10.47   0
   0  -1  28 1291.07   18.62   0
   2  -5  49   -5.84    9.98   0
   3  -6  51    1.07    9.96   0
   3  -5  50  153.27   11.26   0
  -2  -3  28  388.95   12.44   0
  -2  -2  24 1763.71   20.93   0
  -1  -1  24 1822.81   21.28   0
   0  -4  43    2.38    9.11   0
   1  -3  43   -7.16    8.66   0
   2  -6  50   88.22   10.96   0
   2  -3  44  303.47   12.54   0
  -3  -3   9    3.47    7.42   0
  -2  -1  14 1610.48   21.15   0
   0  -5  44  163.71   12.16   0
   1  -5  48  182.88   12.20   0
   2  -4  48  281.64   13.11   0
  -2  -6  25   -5.12    8.59   0
  -1  -7  33   -4.92    9.36   0
  -1  -4  39    3.03    9.50   0
   1  -2  39    1.38    7.75   0
  -3  -4  13   -4.06    7.52   0
  -3  -3  12  680.88   15.08   0
  -2  -5  30   60.94    9.81   0
   0  -3  42  272.74   11.81   0
   2  -1  30  576.77   14.88   0
  -2  -1  17   12.09    6.68   0
  -1  -5  40  189.04   11.59   0
  -1  -3  38  158.37   10.93   0
  -1  -2  34  580.63   13.98   0
   0  -6  45    2.51   10.28   0
   0  -2  38  240.70   10.67   0
   1  -6  49    1.85    9.75   0
   3  -4  49    3.82    8.62   0
  -3  -4  16  400.67   12.65   0
  -3  -3  15   -0.47    6.33   0
  -2  -3  31   -8.34    7.35   0
  -2  -2  27   -2.59    6.76   0
  -1  -1  27   -4.23    6.09   0
   1  -1  32 1723.74   22.54   0
   2  -2  40  794.43   16.72   0
   3  -3  45    3.98    7.99   0
  -2  -6  28  125.45   10.82   0
   2  -5  52  100.93   11.22   0
  -3  -3  18  406.96   12.36   0
  -3  -2   8 2126.51   24.96   0
  -2  -5  33    1.34    9.54   0
  -2  -1  20 1426.66   19.38   0
   0  -5  47    2.32    9.82   0
   1  -3  46  101.53   10.14   0
   2  -6  53   -5.37    9.12   0
  -3  -2   5    4.51    6.05   0
  -3  -2  11    1.91    6.54   0
  -1  -4  42  157.70   11.46   0
   2  -3  47   -2.51    8.75   0
   3  -5  53    6.40    9.89   0
  -3  -3  21    4.52    7.93   0
  -3  -2  14  373.97   11.69   0
  -2  -6  31    8.12    9.20   0
  -2  -4  35    6.88    7.95   0
  -2  -3  34  412.42   12.76   0
  -2  -2  30  204.69    9.35   0
   2  -4  51   -8.44    9.23   0
  -3  -4  22  157.35   10.15   0
  -1  -5  43  -12.72    9.19   0
  -1  -3  41   -7.22    7.90   0
  -1  -2  37    4.90    7.25   0
  -1  -1  30  605.08   13.89   0
   0  -6  48  116.17   11.23   0
   0  -3  45   12.76    7.88   0
   1  -4  50  176.41   10.49   0
   1  -2  42  304.96   10.95   0
  -3  -2  17   -0.08    6.95   0
  -2  -1  23    5.55    6.05   0
  -3  -5  20  194.10   10.98   0
  -3  -3  24  589.22   14.21   0
  -2  -5  36  217.91   12.00   0
   1  -1  35   -5.56    6.90   0
   2  -1  33    5.44    6.58   0
  -3  -4  25    0.88    8.24   0
  -3  -2  20  583.10   13.64   0
  -2  -6  34   74.61   11.20   0
  -2  -4  38   72.35   10.91   0
  -2  -2  33   -3.01    8.32   0
   0  -5  50   51.39   10.56   0
   0  -4  49   -3.29    9.66   0
   2  -2  43   -0.42    7.86   0
   3  -4  52  172.83   11.53   0
  -1  -6  44   96.08   10.15   0
  -1  -4  45    5.98    8.36   0
   1  -3  49    9.36    9.27   0
   2  -5  55    1.01    9.30   0
  -3  -5  23    2.66    8.43   0
  -3  -3  27    1.51    8.15   0
  -2  -1  26  529.43   12.26   0
  -1  -5  46   60.65   10.16   0
  -1  -2  40  470.38   13.27   0
  -1  -1  33    2.75    7.28   0
   1  -5  54   54.80   10.48   0
  -3  -2  23   -3.10    7.55   0
   2  -3  50  161.15   11.02   0
   3  -5  56   71.02   10.60   0
   1  -4  53   -2.58   10.59   0
   1  -2  45    6.17    8.44   0
   2  -4  54   30.20    9.49   0
  -2  -6  37   -0.88    8.35   0
  -2  -4  41    2.57    9.42   0
  -2  -2  36  367.33   12.46   0
   0  -1  37   -8.30    6.48   0
  -3  -4  31   -6.43    9.17   0
  -3  -3  30  162.03   10.56   0
  -2  -3  40  417.41   12.55   0
  -2  -1  29   -0.53    6.66   0
  -1   0  20 1549.84   20.81   0
   0  -4  52  126.43   11.57   0
  -3  -5  29   -0.41    9.24   0
   0  -5  53    6.76    9.89   0
   1  -1  38  250.65   10.04   0
   2  -1  36  871.16   17.87   0
  -3  -1  10 1090.33   18.03   0
  -3  -1  13    3.04    6.33   0
  -1  -5  49   -4.17    9.54   0
  -1  -3  47   12.44    9.41   0
  -1  -2  43    2.82    7.69   0
  -3  -1  16 1974.24   22.25   0
  -2  -1  32 1199.84   17.89   0
  -1   0  23    4.17    6.64   0
   1  -3  52  257.79   12.80   0
   2  -5  58   75.53    9.93   0
   2  -2  46  233.27   11.34   0
  -3  -4  34  161.20   10.85   0
  -3  -1   7    5.43    5.94   0
  -2  -4  44  187.26   11.44   0
  -2  -3  43    7.46    9.94   0
  -2  -2  39    9.50    7.67   0
   0  -2  47  -10.51    8.79   0
   1  -5  57    0.14    8.64   0
  -3  -5  32  181.98   11.22   0
   0  -1  40  677.35   14.21   0
   1  -4  56  106.81   10.86   0
   1  -2  48  325.64   12.35   0
   2  -3  53    1.94   10.20   0
  -3  -2  32  629.54   14.75   0
  -1  -4  51    1.83    9.77   0
  -1  -1  39   -1.97    8.12   0
   0   0  27   -2.26    5.33   0
   2  -4  57   -1.67    9.16   0
  -2  -5  45  -10.03    9.55   0
  -2   0  13    2.76    6.23   0
  -1  -2  46  125.01   10.36   0
  -1   0  26 1189.22   17.65   0
   1  -1  41   -2.32    7.32   0
  -3  -5  35    1.60    8.48   0
  -3  -4  37   -0.02    9.42   0
  -3  -1  25    0.29    7.51   0
  -2  -2  42  368.10   13.00   0
  -2  -1  35   -9.77    7.02   0
  -2   0  16 2932.86   27.70   0
  -1  -3  50  139.09   10.55   0
  -2  -4  47  -15.32    9.54   0
  -2  -3  46   58.16   10.53   0
  -2   0  19   -0.36    5.80   0
   2  -1  39    2.50    7.29   0
  -3  -2  35   -4.33    7.61   0
  -2   0  22 1898.96   21.96   0
  -1   0  29   -2.10    6.84   0
   0  -3  54   51.75   10.51   0
   0   0  30  155.63    9.03   0
   1  -3  55   -5.35    9.39   0
  -4  -3  17   -3.13    7.33   0
  -4  -3  20  370.00   12.55   0
  -3  -3  39   -6.92    9.10   0
  -3  -1  28  661.33   13.67   0
   0  -1  43   -6.32    6.76   0
   2  -2  49  -11.90    8.02   0
  -3  -5  38   47.76    8.98   0
  -3  -4  40  121.52   11.09   0
  -2  -1  38  311.82   10.81   0
  -1  -4  54   49.05    9.91   0
  -1  -1  42  326.32   11.21   0
   1  -4  59   -2.07    9.18   0
   1  -2  51   11.26    8.96   0
  -4  -3  23   -4.32    7.86   0
  -2  -2  45   -1.66    8.91   0
  -2   0  25   -3.97    6.00   0
  -1  -2  49    0.99    9.39   0
   1   0  28 1270.99   20.65   0
  -4  -3  26  134.80   10.11   0
  -4  -2  13    2.47    6.70   0
  -4  -2  16  722.94   15.17   0
  -4  -2  19   -0.44    7.43   0
  -3  -2  38   77.94    8.93   0
  -3  -1  31    0.45    7.07   0
  -2  -4  50  105.62   10.54   0
  -1  -3  53  -15.21    9.14   0
  -1   0  32 1704.54   20.96   0
   0  -4  58   51.33   10.59   0
   1  -1  44  423.20   13.02   0
   2  -4  60   87.15   11.56   0
   2  -3  56  147.51   11.35   0
  -4  -4  24  277.87   11.80   0
  -4  -2  10  308.10   11.66   0
  -4  -2  22  336.96   11.60   0
  -3  -3  42  120.29   10.73   0
  -2  -3  49   -3.45    8.71   0
  -2   0  28 1089.00   16.97   0
   0   0  33   -0.51    6.65   0
  -4  -4  27    1.50    9.41   0
  -2  -1  41    2.07    8.38   0
  -4  -3  29   -7.80    9.06   0
  -4  -2  25   -3.16    6.91   0
  -3  -1  34  496.52   12.51   0
   0  -3  57   -3.13    9.87   0
   0  -2  53   -2.54    9.29   0
   0  -1  46  114.75    8.72   0
   1  -3  58   71.32   10.90   0
  -4  -2  28  419.06   12.85   0
  -3  -2  41   -1.41    7.99   0
  -2   0  31    2.18    7.48   0
  -1  -4  57   -1.79    9.42   0
   1   0  31    0.72    5.96   0
  -4  -4  30   72.53    9.85   0
  -4  -3  32  261.96   11.51   0
  -3  -3  45    7.06    9.23   0
   1  -2  54   97.07   10.68   0
  -3  -1  37   -5.72    8.79   0
  -2  -4  53    3.88    8.59   0
  -2  -3  52  118.38   10.07   0
  -1  -3  56  114.53   10.30   0
   0   0  36  576.50   13.21   0
  -4  -4  33   -2.15    9.12   0
  -4  -2  31    1.44    7.19   0
  -3   0  18  501.36   12.16   0
  -3   0  21   -3.43    5.98   0
  -2  -1  44  321.21   11.40   0
  -2   0  34  275.68   10.68   0
   1  -1  47   -1.41    7.74   0
  -4  -3  35    1.48    9.09   0
  -4  -1  18  693.60   14.60   0
  -4  -1  21   12.34    7.37   0
  -3  -2  44  211.09   10.66   0
  -3   0  24 1555.79   19.34   0
  -4  -2  34  147.85   10.41   0
  -4  -1  15   -1.52    5.78   0
  -4  -1  24  645.22   14.23   0
  -2  -2  51   -7.11    9.54   0
   0  -1  49   -4.19    7.49   0
   1   0  34  911.74   17.31   0
  -4  -4  36  102.83    9.70   0
  -4  -1  12 1093.22   18.08   0
  -4  -1  27    6.23    7.88   0
  -3  -3  48  123.94   11.55   0
  -3  -1  40  427.17   12.36   0
  -3   0  27   -8.97    6.50   0
  -4  -3  38  107.72   10.48   0
  -2  -3  55    0.68    9.63   0
  -2  -1  47   -4.41    8.63   0
  -2   0  37   -7.90    6.78   0
   0   0  39    3.96    5.98   0
   1  -3  61   -0.66    8.85   0
  -3  -2  47    3.93   10.03   0
  -3   0   9    2.48    5.99   0
  -3   0  30  548.93   12.53   0
  -4  -4  39   -2.68    8.38   0
  -4  -1   9    6.66    6.38   0
  -3  -1  43    2.26    8.69   0
   1  -2  57   -4.65    9.26   0
   1  -1  50  255.32   12.45   0
  -4  -3  41    4.10    8.93   0
  -3  -3  51    5.55    9.65   0
  -3   0  33   -3.41    6.93   0
  -2  -2  54   33.03   10.37   0
  -2   0  40  729.14   15.25   0
  -1  -1  51   -3.18    7.67   0
   1   0  37    1.59    6.68   0
   0  -1  52  290.94   12.52   0
   0   0  42  728.28   15.48   0
  -3  -2  50  134.27   11.32   0
  -2  -1  50  144.44   11.03   0
  -1  -2  58   96.49   11.25   0
   0  -2  59  -11.40   10.11   0
  -4  -1  36  450.82   12.25   0
  -3  -1  46   73.68    9.80   0
  -3   0  36  499.43   12.48   0
  -2  -3  58   96.47   10.88   0
  -1   0  44  409.80   12.84   0
   0  -3  63    1.06    9.82   0
  -4  -3  44   98.80   10.85   0
  -2   0  43    5.58    8.13   0
  -4  -1  39    3.91    9.14   0
  -3  -3  54   36.14    9.61   0
  -3   0  39   -1.07    8.63   0
  -1  -1  54   80.85   10.40   0
   1   0  40  694.94   15.51   0
  -4   0  20 1227.73   18.05   0
  -2  -2  57   -0.59    9.81   0
   1  -2  60  123.20   10.94   0
   1  -1  53    4.69    8.18   0
  -4  -3  47    6.60    9.83   0
  -4   0  17   -8.66    6.80   0
  -3  -2  53   -4.36    9.76   0
  -3  -1  49   -8.58    9.91   0
  -2  -1  53    8.92    9.97   0
   0  -1  55    5.93    9.14   0
   0   0  45   -0.30    6.88   0
  -5  -2  21   -0.07    7.99   0
  -4  -2  46   81.63   10.13   0
  -4   0  29   -0.59    6.85   0
  -2   0  46  252.31   11.64   0
  -1   0  47   -3.03    8.39   0
  -5  -2  27   -4.87    8.55   0
  -4   0  32  450.17   12.64   0
  -3   0  42  222.24   10.44   0
  -2   1  21    2.76    7.01   0
  -2   1  24 1854.08   21.48   0
  -1  -2  61  -11.94   10.10   0
  -1   1  22  453.55   12.56   0
  -1   1  25   -1.32    6.72   0
   0  -2  62   47.95    9.79   0
  -5  -3  31   -7.54    7.97   0
  -5  -2  30  164.47   10.71   0
  -4   0  14  299.37   10.09   0
  -2   1  18 1224.49   18.69   0
  -2   1  27   -0.64    6.19   0
  -1   1  19   -0.56    6.11   0
   1   0  43   -4.15    7.65   0
  -5  -2  33    1.63    8.47   0
  -4   0  35    1.71    8.66   0
  -2  -2  60   73.18   10.13   0
  -2   1  30  603.25   13.09   0
  -1  -1  57   -2.08    9.61   0
  -5  -3  34  103.62   10.06   0
  -5  -1  23   -2.88    7.91   0
  -4  -2  49   -2.83    9.58   0
  -4  -1  45    3.30    8.04   0
  -3  -1  52  172.15   11.32   0
  -3   0  45   -6.72    8.73   0
   0   0  48  431.70   13.23   0
  -5  -2  36  134.94   10.40   0
  -5  -1  20  468.66   12.86   0
  -5  -1  26  203.43   10.04   0
  -5  -1  29   -2.94    8.05   0
  -4   0  11    6.53    6.22   0
  -4   0  38  108.81    9.71   0
  -2   1  15    0.13    5.47   0
  -2   1  33    4.45    6.51   0
  -1   0  50  256.89   11.98   0
   0  -1  58  124.71   10.94   0
  -5  -3  37   -0.43    8.89   0
  -5  -1  17   -0.38    7.99   0
  -5  -1  32  341.58   12.87   0
  -3   1  23    3.93    6.15   0
  -3   1  26  527.99   12.49   0
  -3   1  29   -5.24    7.62   0
  -1   1  34  878.05   16.04   0
  -5  -2  39    3.33    9.04   0
  -4  -1  48  123.76   10.81   0
  -3   1  20 1447.95   18.96   0
  -2   1  36  871.67   15.32   0
  -1  -2  64   58.41    9.67   0
  -5  -1  35    5.55    9.24   0
  -4  -2  52   88.91   10.39   0
  -4   0  41    2.77    7.83   0
  -3  -1  55   -2.51    9.42   0
  -3   0  48  306.17   11.52   0
  -3   1  32 1158.92   17.06   0
   0  -2  65    4.16    9.40   0
   1   0  46   91.12    8.84   0
  -5  -1  14  366.08   12.30   0
  -3   1  17    7.29    5.76   0
  -3   1  35   10.41    8.05   0
  -2   1  39   -7.90    8.12   0
  -1  -1  60  125.96   11.74   0
  -1   1  37   -6.01    6.29   0
   0   0  51    3.46    8.22   0
   0   1  26 1104.52   18.95   0
  -5  -2  42   78.96    9.61   0
  -5  -1  38  125.15   10.68   0
  -4   0   8 1497.33   21.31   0
  -1   0  53    4.67    9.31   0
   0   1  29   -2.67    6.04   0
  -4  -1  51    0.61    9.43   0
  -4   0  44  352.08   11.99   0
  -3   1  38  297.60   11.72   0
   0   1  32 1670.65   22.29   0
  -5  -1  41    2.17    8.93   0
  -3   1  14 1560.48   20.31   0
  -1   1  40  703.36   14.45   0
   0  -1  61   -0.05    9.19   0
  -5  -2  45    0.71    8.72   0
  -5   0  22  228.14   10.65   0
  -5   0  25   -0.50    6.64   0
  -5   0  28  584.51   13.34   0
  -5   0  31   -3.95    8.15   0
  -3  -1  58   86.00   10.34   0
   0   1  35    0.38    6.60   0
  -4   0  47   -8.10   10.01   0
  -4   1  22  337.67   11.38   0
  -4   1  25   -0.61    6.63   0
  -4   1  28  672.88   13.69   0
  -4   1  31   -5.33    7.90   0
  -3   1  41   -7.00    7.73   0
  -2   0  55    8.35    9.84   0
  -5   0  19    1.66    6.17   0
  -4  -1  54   42.92   10.23   0
  -4   1  34  507.70   13.20   0
  -2  -1  62   40.25    9.78   0
  -1  -1  63   -0.27    9.18   0
  -1   0  56  179.46   11.31   0
  -1   1  43   -9.38    8.00   0
   0   0  54   34.51    9.15   0
  -3   0  54   80.75   10.41   0
   0   1  38  251.53   10.81   0
  -5   0  16  672.95   14.59   0
  -4   0  50  128.98   11.29   0
  -4   1  37    4.77    7.46   0
  -3   1  11   10.70    5.37   0
  -3   1  44  310.82   11.31   0
  -5   0  40  193.72   10.05   0
  -4   0   5    0.92    5.61   0
  -3  -1  61    4.17    9.28   0
  -4  -1  57   16.39    9.95   0
  -4   1  40  425.26   12.36   0
  -2   0  58   68.61   10.67   0
  -2   1  48  322.35   11.96   0
  -1   1  46   97.15    8.53   0
   0   1  41    0.93    7.12   0
  -5   0  13    1.81    7.52   0
  -5   0  43  -14.43    9.77   0
  -3   0  57   -5.68    9.85   0
  -3   1  47   -0.55    7.99   0
  -1   0  59    6.23   10.81   0
  -4   0  53   13.24    9.48   0
  -4   1  43    2.51    9.23   0
   0   0  57   -3.40    8.63   0
  -5   0  46   70.68   10.54   0
  -1   1  49   -2.71    8.50   0
  -6  -1  31    6.21    8.75   0
  -4   1  13    8.20    5.47   0
  -3   1  50  154.78   10.86   0
  -2   1  51    3.64    9.25   0
  -6  -1  25   -3.97    8.20   0
  -6  -1  34  147.40   10.30   0
  -5   1  33   -5.39    8.16   0
  -4   1  46   80.34    9.03   0
  -2   0  61   -0.07    9.09   0
  -6  -1  37   -0.15    8.68   0
  -5   0  49    8.98    9.59   0
  -5   1  24  645.14   13.56   0
  -5   1  36  438.38   13.37   0
  -5   0  10  664.10   14.93   0
  -5   1  21    3.66    7.48   0
  -5   1  39   -8.34    9.29   0
  -1   0  62   40.26   10.23   0
  -6  -1  40  177.43   11.19   0
  -4   1  49   -6.92    8.80   0
  -2   1  54   90.49   10.54   0
  -1   1  52  296.92   12.34   0
   0   1  47   -1.81    7.29   0
  -6   0  27   -0.17    8.44   0
  -6   0  30  116.12   10.33   0
  -6   0  33   -4.76    8.57   0
  -5   1  18  699.02   14.57   0
  -5   1  42  200.14   11.50   0
  -4   1  10 1068.57   17.62   0
  -3   2  28 1284.59   17.96   0
  -3   2  31    3.72    6.78   0
  -3   2  34  574.66   13.54   0
  -6  -1  43   14.03    9.20   0
  -6   0  24  535.88   14.00   0
  -6   0  36  125.48   10.82   0
  -5   0  52  141.20   10.44   0
  -4   0  59    7.06    9.40   0
  -3   2  25    1.58    6.35   0
  -3   2  37   -3.80    7.95   0
  -2   0  64   90.15   10.94   0
  -2   2  29    3.26    6.09   0
   1   1  30  537.47   14.88   0
  -6   0  39   -4.26    9.01   0
  -5   1  45    9.69    9.39   0
  -4   1  52  188.91   10.86   0
  -3   0  63    0.78    9.08   0
  -2   2  26 1261.49   17.96   0
   1   1  33    1.64    5.85   0
  -6   0  21   -2.42    7.54   0
  -4   2  27   -0.15    7.87   0
  -4   2  30  192.49    9.47   0
  -4   2  33    0.28    8.33   0
  -3   2  22  461.62   11.76   0
  -3   2  40  409.00   11.95   0
  -1   1  55    5.92    9.19   0
   0   1  50  253.74   11.97   0
  -6   0  42  105.50   10.95   0
  -5   0  55    8.45    9.08   0
  -5   1  15   -4.59    7.00   0
  -4   2  36  350.96   11.39   0
  -2   1  57    8.23    9.05   0
  -2   2  23   -5.13    5.93   0
  -1   0  65    4.07   10.33   0
  -5   0   7    1.56    6.35   0
  -5   1  48  114.35   10.61   0
  -4   1  55   11.20    9.44   0
  -4   2  24 1806.96   20.64   0
  -4   2  39    1.63    7.70   0
  -3   2  43   -2.75    7.54   0
  -2   2  41   -5.18    6.75   0
  -6   0  18  241.82   10.82   0
  -6   0  45    6.93    9.47   0
  -4   2  42  362.58   12.98   0
  -3   2  19    3.49    5.85   0
  -2   2  20 3525.98   30.06   0
  -5   1  51   -4.67    9.97   0
  -4   2  21    0.82    6.18   0
  -3   1  59   12.83    9.29   0
  -2   2  44  623.72   14.89   0
  -6   0  48  112.68   10.16   0
  -6   1  29    3.18    8.80   0
  -6   1  35    8.26    9.39   0
  -4   1   7    3.84    5.26   0
  -4   2  45  -11.69    9.80   0
  -2   1  60  138.48   11.79   0
  -1   1  58  131.03   11.03   0
  -1   2  30  565.04   13.05   0
  -1   2  33    8.07    5.74   0
  -1   2  36  862.12   16.45   0
  -6   1  26  207.53    9.95   0
  -6   1  38  120.19    9.41   0
  -5   1  12 1121.74   18.06   0
  -5   2  29    5.09    8.51   0
  -5   2  32  694.16   15.14   0
  -5   2  35   -5.78    8.53   0
  -4   1  58  100.06   10.40   0
  -2   2  47  -11.06    8.72   0
  -1   2  27   -4.02    6.40   0
  -6   1  23   -9.30    8.13   0
  -5   2  26  597.66   13.95   0
  -5   2  38  105.55   10.39   0
  -4   2  18 1038.93   16.38   0
  -3   2  16 2039.21   22.62   0
  -1   2  39    5.26    6.27   0
  -5   1  54   43.74    9.62   0
  -5   2  41   -3.01    8.92   0
  -4   2  48  283.81   11.57   0
  -2   2  17   -0.76    5.73   0
  -1   2  24 1782.28   22.50   0
  -1   2  42  306.04   11.83   0
  -3   1  62   43.94   10.23   0
  -6   1  20  470.37   13.30   0
  -6   1  47   -9.75    9.59   0
  -5   2  44  203.23   10.70   0
  -4   1  61   -9.11   10.16   0
  -4   2  51    2.77    9.98   0
  -3   2  52  250.78   12.53   0
  -2   1  63    1.61   10.52   0
  -2   2  50  179.37   10.18   0
  -5   1  57   -2.94    9.42   0
  -4   2  15   -3.23    5.92   0
  -1   1  61   -0.71    9.30   0
  -1   2  45    6.70    7.84   0
  -5   1   9    9.43    6.49   0
  -5   2  47   -2.87    8.39   0
  -3   2  13   14.69    6.92   0
  -6   1  17    3.89    7.36   0
  -6   1  50   58.96   10.15   0
  -3   2  55   -2.20   10.03   0
  -2   2  53   -4.58    8.77   0
  -7   0  35    3.35    8.08   0
  -5   2  50  156.29   11.68   0
  -4   2  54   33.37    9.10   0
  -2   2  14  340.86   10.99   0
  -1   2  48  317.53   12.31   0
  -7   0  38   19.52    9.29   0
  -6   2  37    8.36    9.38   0
  -5   2  17    4.16    7.22   0
  -4   1   4 1274.54   20.60   0
  -6   2  28  415.22   13.14   0
  -6   2  40  242.20   10.93   0
  -6   1  14  380.76   12.75   0
  -6   2  25    1.73    8.52   0
  -6   2  43   -8.48   10.12   0
  -5   2  53   10.22   10.07   0
  -2   2  56   95.14   10.45   0
  -1   2  51    4.14    8.27   0
  -6   2  46   75.10   10.98   0
  -7   1  31   -3.48    8.36   0
  -7   1  34  153.85   11.16   0
  -7   1  37   -3.16    9.42   0
  -7   1  40  191.80   11.40   0
  -4   3  32  849.36   15.37   0
  -4   3  35   -2.89    7.62   0
  -4   3  38  169.05    9.83   0
  -3   3  33    6.59    8.12   0
  -7   1  28  133.31   10.15   0
  -7   1  43    3.92    9.40   0
  -6   2  22  337.82   11.30   0
  -6   2  49  -11.46    9.94   0
  -5   2  14  356.28   10.85   0
  -5   2  56  102.36   10.75   0
  -4   3  29   -3.39    7.05   0
  -4   3  41   -3.20    7.97   0
  -3   2  10 1968.77   23.24   0
  -3   3  30  299.35   11.05   0
   0   2  31   -2.34    7.00   0
   0   2  34  257.84   10.74   0
   0   2  37    2.82    6.63   0
  -5   3  34  403.71   12.88   0
  -5   3  37   11.92    8.87   0
  -4   2  60   79.94   10.95   0
  -4   3  44  259.82   12.23   0
  -3   2  61    2.17   10.04   0
  -2   2  59    1.62    9.13   0
  -1   2  54   91.34    9.65   0
  -7   1  25    4.60    8.49   0
  -5   3  31    4.02    7.50   0
  -3   3  27   -0.79    6.68   0
  -3   3  45   -4.79    9.24   0
  -2   2  11    2.94    6.83   0
   0   2  28 1046.83   19.03   0
  -6   1  11    3.46    7.69   0
  -6   2  19    6.22    6.56   0
  -6   2  52   99.67   11.03   0
  -5   3  28  402.60   11.82   0
  -5   3  43   -0.68   10.06   0
  -4   3  47   11.87    8.29   0
  -7   1  22  131.24   10.29   0
  -5   3  46   47.55   10.26   0
  -3   3  24 1070.78   16.71   0
  -5   2  11    5.63    6.91   0
  -5   3  25   -2.36    7.03   0
  -2   3  34  578.03   14.05   0
  -2   3  37   -1.10    6.77   0
  -2   3  40  452.63   13.41   0
  -7   2  33    2.54    9.02   0
  -7   2  36  127.81   11.23   0
  -7   2  39   16.67    9.03   0
  -5   3  49    4.28    9.77   0
  -3   2  64   41.34    9.59   0
  -2   2  62   51.20    9.29   0
  -2   3  31    0.04    6.22   0
   0   2  25   -1.53    5.98   0
  -7   2  30  176.67   11.27   0
  -7   2  42   84.89   10.38   0
  -6   2  16  692.17   14.37   0
  -6   3  33    2.10    8.72   0
  -6   3  36  291.67   12.99   0
  -6   3  39    5.02    9.73   0
  -5   3  22  273.26   11.39   0
  -4   3  20  875.85   15.28   0
  -3   3  21    2.95    7.05   0
  -2   3  43   -2.25    7.33   0
  -7   2  27   -8.54    9.16   0
  -7   2  45    5.31    9.13   0
  -6   3  30  173.48   10.92   0
  -6   3  42  138.79   10.49   0
  -5   3  52  131.39   11.40   0
  -2   3  46  122.62   10.19   0
  -6   3  45   -4.01   10.29   0
  -3   2   7    0.91    6.64   0
  -7   2  24  418.67   13.37   0
  -6   3  48  131.00   11.53   0
  -5   3  19    4.93    7.90   0
  -4   3  56  122.44   11.42   0
  -3   3  54   64.71   10.45   0
  -2   3  49    0.64    8.81   0
  -5   3  55  -12.45    9.92   0
  -4   3  17   -0.49    6.40   0
  -6   2  13    6.70    7.43   0
  -6   3  51   -3.46    9.91   0
  -5   1   3    0.54    6.30   0
  -3   3  18 1268.41   18.15   0
  -7   2  21    2.10    8.57   0
  -5   2   8 2170.63   24.58   0
  -4   2   6  774.24   15.81   0
  -3   3  57   -5.46    9.01   0
  -2   3  22  460.15   12.67   0
  -2   3  52  236.32   12.06   0
  -6   3  21   11.12    8.25   0
  -4   3  59    0.51   10.05   0
  -6   3  54   35.43    9.83   0
  -7   3  32  256.23   12.60   0
  -7   3  44  109.93   10.69   0
  -4   3  14  699.50   14.67   0
  -2   3  55    8.50   10.51   0
  -1   3  38  305.06   11.75   0
  -7   2  18  146.07    9.69   0
  -7   3  29   -0.41    9.15   0
  -3   3  15   -3.09    7.27   0
  -3   3  60  119.03   10.77   0
  -1   3  35    1.67    7.24   0
  -1   3  41   -0.03    7.62   0
  -7   3  47    7.16    8.63   0
  -6   2  10  332.56   11.83   0
  -6   3  18  395.75   12.57   0
  -5   4  33   -0.37    8.86   0
  -5   4  36  289.24   11.52   0
  -5   4  39    2.79    8.34   0
  -5   4  42  173.25   11.23   0
  -4   4  37    3.59    9.23   0
  -4   4  40  429.93   13.45   0
  -2   3  19    4.54    6.87   0
  -1   3  32 1095.06   18.41   0
  -1   3  44  302.58   12.14   0
  -7   3  26  142.06   11.09   0
  -5   4  30  267.76   12.05   0
  -5   4  45    1.53    9.97   0
  -4   4  31    6.23    8.84   0
  -8   2  35   -0.35    8.52   0
  -1   3  29    1.43    6.91   0
  -1   3  47   -3.62    7.89   0
  -8   2  32  145.02   11.04   0
  -7   3  23   -8.38    8.68   0
  -6   4  35   -3.96    8.20   0
  -6   4  38   95.68    9.57   0
  -6   4  41    6.10   10.51   0
  -5   4  27   -3.34    8.48   0
  -5   4  48  201.90   11.31   0
  -4   4  28  601.95   14.49   0
  -3   3  63    3.44    9.43   0
  -8   2  29    0.90    8.31   0
  -7   2  15    0.00    7.95   0
  -6   3  15   10.36    7.94   0
  -6   4  32  313.00   11.75   0
  -6   4  44  215.26   11.66   0
  -5   2   5    6.61    6.75   0
  -5   4  51   13.51   10.24   0
  -4   4  49    3.62    8.37   0
  -3   4  38  147.20   10.02   0
  -3   4  41   -0.97    9.09   0
  -6   4  29  -12.59    9.38   0
  -6   4  47    0.83    9.34   0
  -4   3  11    5.43    6.36   0
  -4   4  25   -4.16    8.38   0
  -3   4  35   -7.50    7.46   0
  -3   4  44  251.59   11.92   0
  -1   3  26  517.11   13.51   0
  -6   4  50  103.54   10.74   0
  -5   4  24  854.58   15.74   0
  -4   4  52  133.37   10.91   0
  -3   3  12 2625.70   25.98   0
  -3   4  47    0.23    9.65   0
  -2   3  16 2056.96   23.81   0
  -7   3  20  409.92   13.26   0
  -6   4  26  373.42   12.15   0
  -4   2   3   -1.12    5.44   0
  -8   3  37    9.52    8.96   0
  -8   3  40  114.65   10.16   0
  -7   4  37   -0.44   10.17   0
  -7   4  40  143.41   11.78   0
  -6   2   7   -1.96    7.07   0
  -6   4  53    6.24    9.65   0
  -4   4  55    3.55    9.40   0
  -3   4  50  169.10   11.69   0
  -5   4  21    3.28    7.23   0
  -4   4  22  689.84   14.15   0
  -4  -5  10  119.05   10.07   0
  -2  -1  26  534.45   12.25   0
  -1  -6  44   81.50    8.51   0
  -1  -2  37   -4.43    6.17   0
   1  -1  29    0.90    5.12   0
  -4  -4  18  183.21   10.47   0
  -4  -3  17   -0.22    7.73   0
  -4  -2   4  843.99   15.19   0
  -4  -2   7   -2.73    6.63   0
  -4  -2  10  350.39   10.82   0
   0  -1  31   -6.07    6.00   0
   1  -2  39   -3.98    7.05   0
  -4  -5  13   -0.35    8.24   0
  -4  -2   1   -0.47    6.08   0
  -3  -5  32  175.24   10.59   0
  -3  -1  19   12.07    5.83   0
  -1  -4  45   -2.76    8.54   0
   1  -5  51  -10.24    9.33   0
  -4  -5  16  282.92   11.21   0
  -4  -2  -2  549.44   13.27   0
  -4  -2  13   -1.41    5.95   0
  -3  -4  34  163.67   10.63   0
  -2  -4  41   -8.95    8.53   0
   0  -3  45   -0.56    7.72   0
  -4  -4  21   -1.69    7.35   0
  -3  -3  33   -3.34    7.35   0
  -3  -2  29    0.94    6.66   0
   0  -5  50   67.40    8.76   0
  -4  -5  19    2.05    7.69   0
  -3  -1  22  359.00   10.01   0
  -2  -5  42  111.15    9.29   0
  -2  -3  40  408.28   11.61   0
  -2  -2  36  351.59   10.59   0
  -2  -1  29   -8.16    6.80   0
  -1  -3  44  255.92   10.99   0
   1  -3  46  119.39    8.95   0
  -4  -4  24  294.90   11.57   0
  -3  -5  35   -4.78    8.06   0
  -1  -2  40  468.47   12.27   0
   0  -4  49    7.18    8.68   0
   0  -2  41    1.15    6.84   0
  -4  -5  22   62.90    9.01   0
  -2   0  13    0.19    5.82   0
  -1  -1  33   -5.07    6.37   0
  -3  -4  37   -2.07    8.94   0
  -3  -3  36  290.12   11.34   0
  -3  -2  32  655.52   13.09   0
  -4  -3  26  135.66    8.53   0
  -4  -2  22  335.27   11.11   0
  -3  -1  25   -2.81    6.04   0
  -2  -4  44  189.87   10.80   0
  -1  -5  49   -4.88    8.11   0
  -1  -4  48  171.41   10.65   0
   0  -1  34  916.64   16.22   0
  -4  -5  25    4.09    7.74   0
  -3  -5  38   38.68    9.15   0
  -2  -5  45    0.81    8.23   0
  -2  -2  39   -0.22    7.84   0
  -2  -1  32 1205.91   16.82   0
  -2   0  16 3043.92   26.43   0
   1  -1  32 1584.91   22.45   0
  -4  -1   9    8.33    6.28   0
   0  -3  48  183.60   10.42   0
   1  -2  42  294.44   10.94   0
  -4  -3  29   11.12    8.08   0
  -4  -2  25   -1.13    6.55   0
  -4  -1   6  362.05   10.09   0
  -4  -1  12 1068.63   15.48   0
  -3  -2  35   -6.00    7.68   0
  -3  -1  28  683.38   13.24   0
  -1  -3  47   -1.18    8.38   0
   0  -5  53   -2.14    7.67   0
  -4  -5  28   82.60    8.55   0
  -4  -4  30   84.16    8.67   0
  -4  -1   3    6.57    5.69   0
  -3  -4  40  133.58    9.64   0
  -3  -3  39   -6.14    8.38   0
  -2   0  19    3.46    5.17   0
  -1  -2  43    3.39    7.12   0
  -1  -1  36  851.42   14.49   0
   0  -2  44  659.30   14.37   0
  -4  -2  28  414.21   11.17   0
  -4  -1   0 1361.72   18.86   0
  -4  -1  18  698.92   12.84   0
  -2  -1  35   -1.96    7.03   0
  -4  -4  33    0.27    8.13   0
  -4  -3  32  271.73   10.36   0
  -3  -1  31   -4.26    7.02   0
  -3   0   9   -1.34    5.66   0
  -3   0  12 2010.14   21.32   0
  -2   0  22 1962.55   20.68   0
  -1  -4  51    0.97    8.41   0
  -4  -1  21   -0.55    5.97   0
  -3  -2  38   90.43    9.14   0
  -3   0  15    1.47    6.05   0
   0  -1  37   -1.85    6.04   0
  -5  -3   7    4.99    6.98   0
  -5  -3  10  193.65    9.42   0
  -5  -3  13   -3.51    7.43   0
  -4  -2  31   -2.39    7.64   0
  -3  -4  43    6.41    7.72   0
  -3  -3  42  135.13    9.85   0
  -5  -4  14   69.13    9.26   0
  -5  -3  16  364.97   11.51   0
  -4  -3  35    8.36    8.39   0
  -4  -1  -3    9.07    5.76   0
  -4  -1  24  633.51   13.06   0
  -3   0   3    1.79    4.96   0
  -3   0  18  521.79   11.40   0
  -2   0  25    4.46    6.17   0
  -1  -3  50  162.97   10.28   0
   0  -3  51   -5.42    8.10   0
  -5  -4  17    1.04    7.90   0
  -5  -3  19    1.03    7.66   0
  -4  -4  36  103.79    9.46   0
  -1  -2  46  130.75    8.93   0
  -1  -1  39    1.16    6.90   0
   1  -1  35   -2.16    5.25   0
  -5  -2   9    2.16    6.28   0
  -5  -2  12  391.76   11.36   0
  -5  -2  15   10.18    7.31   0
  -3  -1  34  503.31   11.62   0
  -3   0  21    2.92    6.32   0
  -2  -4  50   73.38    9.28   0
  -5  -4  20  110.77    9.15   0
  -5  -3  22  103.05    9.24   0
  -5  -2   6  400.99   11.51   0
  -5  -2  18  142.56    9.28   0
  -4  -2  34  143.30    8.88   0
  -4  -1  27    2.12    6.26   0
  -3  -2  41   -9.67    8.60   0
  -2  -2  45    3.13    7.94   0
   0  -4  55   -0.53    7.53   0
   0  -2  47   -0.13    6.95   0
  -5  -4  23   -1.66    8.06   0
  -4  -3  38  122.95    9.61   0
  -3  -4  46   46.48    9.00   0
  -3  -3  45   -2.64    8.36   0
  -2  -3  49    3.03    7.72   0
  -2   0  28 1164.46   16.44   0
  -1  -4  54   43.79    8.69   0
  -5  -3  25   14.71    8.14   0
  -5  -2   3    5.19    6.21   0
  -5  -2  21   -6.76    7.90   0
  -4  -4  39   -4.21    7.96   0
  -3   0  24 1626.81   18.25   0
   0  -1  40  725.61   15.10   0
  -4  -1  30  161.45    8.48   0
  -3  -1  37   -1.64    7.65   0
  -1   0  29    0.56    5.49   0
  -5  -4  26  115.56    9.33   0
  -5  -3  28  143.79    9.32   0
  -4  -2  37   10.08    7.05   0
  -2  -1  41   -0.59    6.99   0
  -4  -3  41    0.07    8.66   0
  -3  -2  44  207.11   10.53   0
  -3   0  27   -0.76    5.63   0
  -2  -4  53   -2.14    7.64   0
  -1  -3  53   -4.96    8.41   0
  -1  -2  49    3.81    7.15   0
  -1  -1  42  294.67    9.89   0
  -5  -4  29    3.49    7.40   0
  -5  -1  11   -3.66    6.73   0
  -4  -1  33    8.15    7.41   0
  -4   0  17    2.00    6.10   0
  -2  -2  48  283.78   11.11   0
  -2   0  31    5.03    5.39   0
  -5  -1   8  757.26   14.08   0
  -5  -1  17   -1.68    5.98   0
  -4   0   8 1452.63   17.93   0
  -4   0  20 1229.81   16.43   0
  -3  -3  48  130.64    9.09   0
  -2  -3  52  120.50    9.43   0
   0   0  27   -1.79    5.22   0
  -5  -2  30  165.77    9.91   0
  -4  -2  40  235.88   11.16   0
  -3  -1  40  425.01   11.40   0
  -1   0  32 1644.60   19.93   0
   0  -2  50  171.58   10.23   0
  -5  -1   5   -2.35    6.02   0
  -4   0   5    0.74    5.29   0
  -4   0  23   -6.15    7.03   0
  -1  -4  57    6.16    8.07   0
  -5  -3  34  117.15    9.18   0
  -4  -3  44  121.60    9.34   0
  -4  -1  36  453.66   11.38   0
   0  -1  43    0.64    6.21   0
  -5  -2  33   -4.57    8.24   0
  -5  -1  26  212.02    9.87   0
  -4   0  26  703.04   13.06   0
  -1  -1  45    6.81    6.96   0
  -5  -1   2  313.52   10.16   0
  -4  -2  43    3.19    8.19   0
  -4   0   2 1344.53   18.30   0
  -3   0  33    3.30    5.94   0
  -2  -2  51   -2.43    8.27   0
  -1  -3  56  126.84    9.52   0
  -1  -2  52  251.62   11.08   0
  -5  -3  37    3.93    7.88   0
  -5  -1  29   -1.27    7.46   0
  -1   0  35   -4.20    6.08   0
   0   0  30  163.49    8.41   0
  -5  -2  36  135.15    9.94   0
  -4  -1  39    5.27    7.00   0
  -4   0  29   -5.77    6.10   0
  -2  -3  55    2.97    8.45   0
  -4  -3  47  -13.96    8.33   0
  -2   0  37    5.19    5.56   0
  -5  -1  32  355.04   10.56   0
  -3  -2  50  148.85   10.22   0
  -3   0  36  491.33   11.41   0
  -2  -1  47    0.56    7.60   0
  -6  -3  18  149.90    9.35   0
  -5  -3  40  122.36    9.04   0
  -4   0  32  451.12   11.01   0
  -6  -3  21    3.22    7.03   0
  -6  -2  14   92.48    8.09   0
  -6  -2  17    5.06    7.25   0
  -6  -2  20  169.33    9.75   0
  -5  -2  39    2.64    8.31   0
  -5   0  13    5.50    6.33   0
  -4  -1  42  202.97    9.33   0
  -4   0  -1    0.70    4.87   0
  -3  -3  54   39.49    8.09   0
  -1  -1  48  297.38   10.86   0
   0  -1  46  103.05    8.08   0
  -6  -3  24  137.71    8.89   0
  -6  -2  11    2.56    7.15   0
  -6  -2  23   -1.76    7.77   0
  -5  -1  35    6.76    6.92   0
  -5   0  10  688.88   13.07   0
  -5   0  22  235.18    8.75   0
  -2  -2  54   32.97    8.19   0
  -1   0  38  238.66    9.37   0
   0   0  33    1.28    5.25   0
  -5   0  25    7.13    6.88   0
  -4   0  35   -6.39    6.46   0
  -3   0  39   -7.15    6.31   0
  -2   0  40  736.74   13.48   0
  -1  -2  55    9.27    7.41   0
  -6  -3  27   -0.75    7.60   0
  -6  -2  26  156.18    9.91   0
  -5   0   7   -3.49    6.00   0
  -2  -3  58   73.62    9.11   0
  -6  -2  29   -1.37    8.01   0
  -6  -1  16  559.69   12.77   0
  -6  -1  19   -8.38    7.40   0
  -5  -2  42   81.41    8.48   0
  -5  -1  38  125.69    9.81   0
  -5   0  28  590.31   12.24   0
  -4  -2  49    2.64    7.52   0
  -4  -1  45   -2.60    8.10   0
  -3  -2  53    4.41    7.70   0
  -3   1  17   10.03    5.98   0
  -2  -1  50  153.28    9.74   0
  -6  -1  13   -0.65    6.90   0
  -6  -1  22  136.01    9.30   0
  -4   0  38  131.65    8.84   0
  -3  -1  49   -4.46    8.43   0
  -3   1  14 1603.27   18.73   0
  -3   1  20 1463.34   17.53   0
  -6  -1  25    1.13    7.72   0
  -5   0   4 1100.54   16.44   0
  -5   0  31    2.45    7.74   0
  -3   1  23    0.89    5.40   0
  -2   1  15   -0.98    5.54   0
  -2   1  18 1180.41   16.79   0
  -2   1  21   14.05    5.80   0
  -6  -2  32  146.72    9.10   0
  -5  -1  41   -3.47    8.47   0
  -3   1  11    6.57    4.93   0
  -3   1  26  540.05   12.01   0
  -2   0  43    1.29    7.04   0
  -1  -1  51   -3.72    7.24   0
  -1   0  41    0.13    6.26   0
   0   0  36  580.66   13.34   0
  -6  -1   7    4.38    7.07   0
  -5  -2  45   -9.56    7.33   0
  -4   1  16 2030.79   20.51   0
  -4   1  19    4.39    5.57   0
  -2  -2  57   -0.51    7.73   0
  -2   1  24 1787.12   19.80   0
  -5   0  34  264.88    9.60   0
  -4  -1  48  113.58    9.63   0
  -4   0  41    9.33    7.96   0
  -4   1  13    3.89    5.88   0
  -4   1  22  351.84    9.70   0
  -3   1  29   -3.50    6.57   0
  -4   1  25   -2.72    5.94   0
  -3  -2  56   82.29    9.50   0
  -3  -1  52  191.21   10.40   0
  -3   1   8 3232.86   27.32   0
  -2  -1  53    1.98    8.11   0
  -5  -1  44  143.65    9.74   0
  -5   0   1   -2.11    5.66   0
  -5   0  37   -1.62    8.03   0
  -4   1  28  679.74   12.94   0
  -3   0  45   -6.02    6.39   0
  -6  -1  34  133.30    9.05   0
  -6   0  18  241.34   10.01   0
  -3   1  32 1190.58   16.53   0
  -2   0  46  248.37   10.37   0
  -6   0  15   -6.20    6.96   0
  -6   0  21    0.65    6.26   0
  -4   1  31    4.71    7.23   0
  -1   0  44  396.05   11.66   0
   0   0  39    1.10    5.92   0
  -6  -1  37    1.96    7.88   0
  -6   0  12  317.69   10.47   0
  -3   1   5    0.32    5.15   0
  -5  -1  47    6.35    7.93   0
  -5   1  18  690.93   12.59   0
  -5   1  21    4.07    6.07   0
  -5   1  24  622.46   12.82   0
  -2  -2  60   76.70    9.03   0
  -2   1  33   -0.55    6.06   0
  -6   0   9   -0.92    6.35   0
  -6   0  30  109.41    8.26   0
  -5   1  27   -2.80    7.30   0
  -4   1  34  493.37   11.39   0
  -3  -1  55    1.49    7.96   0
  -3   0  48  300.42   10.20   0
  -6  -1  40  187.29    9.90   0
  -5   1  12 1065.11   15.66   0
  -2  -1  56  152.67    9.52   0
  -6   0  33    4.29    6.83   0
  -5   0  43    1.19    8.66   0
  -5   1  30  160.82    9.32   0
  -2   0  49    4.27    7.21   0
  -1   1  25    2.71    5.04   0
  -7  -2  22   36.24    7.79   0
  -6   0   6  343.74   10.68   0
  -4  -1  54   47.27    8.54   0
  -4   1   4 1299.88   17.77   0
  -4   1  37  -11.35    6.47   0
  -2   1  36  898.68   14.92   0
  -1   0  47    2.23    6.50   0
  -6  -1  43    1.22    8.29   0
  -6   0  36  128.53    9.92   0
  -5  -1  50   75.43    8.02   0
  -5   1   9    2.39    5.19   0
  -5   1  33    6.19    6.64   0
  -1   1  28 1268.07   18.02   0
  -7  -1  18  171.84    9.67   0
  -7  -1  21    5.02    7.29   0
  -7  -1  24  205.89   10.09   0
  -3   0  51   -0.94    7.90   0
  -7  -1  15    1.97    7.49   0
  -7  -1  27   -1.36    7.45   0
  -6   0  39    1.04    8.37   0
  -5   0  46   76.66    8.66   0
  -5   1  36  460.79   11.88   0
  -4   1  40  443.28   11.27   0
  -3   1  41    5.48    6.67   0
  -7  -1  30   40.56    8.48   0
  -5   1   6  362.37   10.45   0
  -3  -1  58   94.17    9.36   0
  -2   1  39   -0.55    6.57   0
  -1   1  31   -0.26    5.20   0
  -6   0   3   -3.01    5.84   0
  -6   1  17    0.11    6.84   0
  -6   1  26  206.47    9.88   0
  -2  -1  59   -0.27    7.89   0
  -2   0  52  178.80    9.66   0
  -7  -1  33   -6.14    7.21   0
  -6   0  42  110.03    9.40   0
  -6   1  29   -5.42    7.51   0
  -5   1  39   -0.18    6.96   0
  -4  -1  57    1.71    7.22   0
  -7   0  20  131.42    9.34   0
  -7   0  23    4.96    7.78   0
  -6   1  14  386.68   11.00   0
  -5   0  49    4.95    8.31   0
  -4   1   1    5.09    4.52   0
  -3   1  44  314.73   10.68   0
  -1   0  50  229.19   10.08   0
  -1   1  34  920.10   15.56   0
  -7   0  17   -4.16    7.42   0
  -7   0  26  181.78   10.11   0
  -6   1  32  360.62   10.59   0
  -4   0  53   -1.25    8.24   0
  -3   0  54   74.98    8.49   0
  -2   1  42  309.85   10.54   0
  -7   0  29   -2.95    7.47   0
  -6   1  11    7.05    6.51   0
  -6   1  35   -5.61    8.33   0
  -5   1   3    1.96    5.77   0
  -5   1  42  199.70   10.46   0
  -7   0  14  124.79    8.87   0
  -7   0  32  210.28   10.34   0
  -6   0  45    1.93    7.43   0
  -3  -1  61   -1.22    7.85   0
  -2   0  55   -1.32    7.60   0
  -1   1  37    0.39    5.71   0
  -7   0  11    1.17    7.02   0
  -6   1   8  780.07   13.98   0
  -6   1  38  125.23    8.49   0
  -5   1  45   -7.12    8.16   0
  -4   2  21    2.89    5.54   0
  -4   2  24 1808.23   19.00   0
  -4   2  27   -2.84    6.45   0
  -3   1  47    1.98    6.59   0
  -6   0  48  132.33    9.27   0
  -4   0  56   53.25    8.62   0
  -4   2  18 1076.61   15.09   0
  -4   2  30  201.86    9.09   0
  -3   0  57    4.01    9.07   0
  -2   1  45    8.96    6.95   0
  -7   0  38   21.92    8.32   0
  -6   1  41   12.15    8.07   0
  -5   2  20  570.59   12.28   0
  -5   2  23    0.04    6.07   0
  -5   2  26  584.47   11.96   0
  -4   1  49    2.39    8.37   0
  -3   2  25   -0.69    6.30   0
  -5   2  17   -1.72    6.55   0
  -5   2  29    2.80    6.26   0
  -4   2  15    1.68    5.28   0
  -4   2  33    0.34    6.19   0
  -3   2  19   -3.77    5.95   0
  -3   2  22  461.28   10.75   0
  -3   2  28 1323.34   17.20   0
  -1   1  40  712.69   14.06   0
  -7   1  19    0.40    7.33   0
  -7   1  22  142.76    8.58   0
  -7   1  25   -2.20    6.48   0
  -6   1   5    0.13    6.02   0
  -5   1   0 1373.11   18.80   0
  -5   1  48  136.62    9.87   0
  -5   2  32  674.22   12.95   0
  -4   1  -2  830.64   15.49   0
  -3   1  50  160.61    9.81   0
  -7   1  16  589.01   13.09   0
  -6   1  44  144.55    9.75   0
  -5   2  14  353.46   10.42   0
  -5   2  35   -5.05    7.77   0
  -4   2  12  782.79   13.65   0
  -4   2  36  343.39   10.08   0
  -3   2  16 2113.51   21.46   0
  -7   1  34  135.66    9.52   0
  -2   1  48  311.06   10.98   0
  -7   1  13   -0.10    7.06   0
  -6   2  22  342.64   10.11   0
  -6   2  25   -0.19    6.48   0
  -5   2  38   96.06    9.09   0
  -4   0  59    6.16    7.44   0
  -4   1  52  168.43   10.35   0
  -7   1  37   -8.97    7.76   0
  -6   1  47   -1.11    8.38   0
  -6   2  31   -6.62    6.84   0
  -3   0  60   92.21    8.74   0
  -3   2  13   10.32    5.98   0
  -1   1  43   -0.56    5.90   0
  -6   2  34  156.82    9.78   0
  -4   2   9   -6.36    5.72   0
  -3   1  53   -3.35    7.99   0
  -3   2  37   -8.57    5.74   0
  -7   1  40  166.20    9.58   0
  -6   1   2  319.14   10.23   0
  -5   2  41   -0.40    8.08   0
  -8   0  22   55.49    8.13   0
  -8   0  25   -1.26    6.85   0
  -6   2  13    1.80    6.58   0
  -6   2  37    4.39    6.90   0
  -3   2  40  452.90   11.96   0
  -2   1  51    3.46    7.23   0
  -6   1  50   54.61    8.58   0
  -5   1  54   48.82    8.91   0
  -5   2   8 2145.94   21.15   0
  -4   1  55   -3.91    8.23   0
  -2   2  29    0.14    5.76   0
  -7   1  43    1.77    7.34   0
  -6   2  40  235.04   11.04   0
  -5   1  -3    4.80    5.58   0
  -5   2  44  210.13    9.46   0
  -4   2  45    3.03    8.01   0
  -3   2  10 2036.92   21.37   0
  -2   2  20 3451.41   27.78   0
  -2   2  32  633.29   12.95   0
  -1   1  46   99.90    7.76   0
  -7   1   7    7.35    6.54   0
  -6   2  10  338.58   10.38   0
  -3   2  43    0.68    7.27   0
  -7   2  21   -6.17    7.65   0
  -7   2  30  167.98    8.79   0
  -6   2  43   -0.59    8.66   0
  -3   1  56  144.11    9.51   0
  -2   2  35    0.97    6.08   0
   0   1  32 1615.51   22.13   0
  -8   1  24  189.09   10.00   0
  -8   1  27    3.04    7.47   0
  -7   2  18  148.61    9.14   0
  -7   2  33   -5.54    6.90   0
  -2   2  17   -0.80    4.76   0
  -8   1  21    3.47    7.12   0
  -8   1  30   34.71    8.52   0
  -8   1  33    5.54    8.15   0
  -7   2  36  146.21    9.94   0
  -6   1  -1    3.50    5.47   0
  -5   1  57    6.47    7.51   0
  -5   2   5    6.68    5.78   0
  -4   1  58  108.53    9.19   0
  -4   2  48  271.59   11.08   0
  -8   1  18  164.88    9.77   0
  -7   2  15   -1.41    6.86   0
  -6   2  46   86.26    9.19   0
  -3   2  46  119.88    8.87   0
  -2   2  38  230.00    9.39   0
   0   1  35    0.31    5.10   0
  -7   2  39    2.40    7.78   0
  -6   2   7   -1.12    5.23   0
  -3   2   7    0.08    4.77   0
  -8   1  15    0.60    8.05   0
  -5   2  50  155.95    9.35   0
  -2   2  14  339.31    9.92   0
  -7   2  12  370.14   11.06   0
  -7   2  42   80.74    9.04   0
  -6   2  49    0.75    8.68   0
  -5   3  25   -1.16    6.86   0
  -4   2  51    5.53    7.87   0
  -3   1  59    0.98    7.40   0
  -2   2  41   -1.74    6.38   0
  -5   3  22  281.27    9.36   0
  -5   3  31   -8.21    6.55   0
  -3   2  49    2.00    7.69   0
  -7   2  45    2.49    8.09   0
  -6   3  24  609.95   13.08   0
  -6   3  27    8.33    6.67   0
  -6   3  30  181.81    8.86   0
  -6   3  33   -3.16    8.19   0
  -5   3  19    9.41    6.93   0
  -5   3  34  414.10   11.11   0
  -4   1  61   -2.28    7.30   0
  -8   2  26  180.37    9.97   0
  -8   2  29    4.13    7.85   0
  -7   2   9   -1.77    6.68   0
  -6   2   4  826.31   14.59   0
  -6   3  21   -4.35    6.31   0
  -5   2   2  801.38   14.42   0
  -5   2  53   -3.40    8.83   0
  -5   3  37   -0.06    7.91   0
  -4   3  23    3.23    6.82   0
  -4   3  26  638.15   12.36   0
  -4   3  29    4.40    5.96   0
  -4   3  32  863.02   14.73   0
  -2   2  44  637.73   13.75   0
  -8   2  23    4.35    7.79   0
  -8   2  32  167.42    9.83   0
  -6   3  18  409.41   11.28   0
  -6   3  36  284.84   10.20   0
  -8   2  20  165.48    9.41   0
  -6   3  39    3.56    8.33   0
  -5   3  16 1723.31   18.76   0
  -5   3  40  403.42   11.15   0
  -4   2  54   37.93    9.09   0
  -4   3  20  911.79   14.10   0
  -7   3  26  134.38    9.36   0
  -7   3  29   11.07    8.10   0
  -3   2   4 2981.69   27.09   0
  -3   2  52  252.89   10.78   0
  -8   2  17   -2.97    7.62   0
  -7   3  32  266.18    9.96   0
  -7   3  35    2.48    8.62   0
  -6   3  42  149.46    9.89   0
  -4   3  17   -0.10    5.43   0
  -7   2   6  402.99   11.46   0
  -5   3  13   -0.99    5.41   0
  -4   3  41    8.69    7.45   0
  -2   2  47   -2.21    6.68   0
  -8   2  14  103.24    8.57   0
  -7   3  38  107.36    8.88   0
  -7   3  17   -6.56    7.41   0
  -7   3  41    3.88    8.63   0
  -6   2   1    2.37    5.77   0
  -6   3  45    1.26    7.75   0
  -4   2   0 4095.38   31.64   0
  -4   2  57   -3.22    8.23   0
  -4   3  14  663.96   12.40   0
  -3   3  27    0.61    5.50   0
  -1   2  27   -1.39    5.07   0
  -1   2  30  573.70   12.92   0
  -5   2  -1   -0.74    5.44   0
  -4   3  44  253.85    9.64   0
  -3   2  55   -2.01    7.43   0
  -3   3  24 1058.40   15.29   0
  -3   3  33    0.27    5.63   0
  -1   2  24 1690.66   20.94   0
  -1   2  33   -0.41    5.36   0
  -8   2  11    8.48    7.68   0
  -7   3  14  362.99   11.12   0
  -6   3  48  123.78   10.16   0
  -5   3  10  676.33   12.57   0
  -3   3  21    2.02    6.33   0
  -3   3  36  767.79   13.79   0
  -2   2  50  171.71    9.38   0
  -1   2  36  850.38   15.51   0
  -7   3  44  128.71    9.16   0
  -5   3  49   10.31    8.20   0
  -1   2  21    6.86    5.10   0
  -8   3  25    6.43    8.27   0
  -8   3  34  113.88    9.40   0
  -7   2   3   -0.54    6.31   0
  -6   3   9    4.10    5.50   0
  -4   3  11    5.96    6.31   0
  -4   3  47   -0.37    6.63   0
  -3   3  39    7.06    5.91   0
  -8   3  22   92.36    9.32   0
  -8   3  37   -4.00    8.19   0
  -7   3  47    1.12    8.05   0
  -4   2  60   88.33    8.59   0
  -3   3  18 1350.29   17.01   0
  -1   2  39   -4.73    6.18   0
  -8   3  19   -3.92    7.87   0
  -8   3  40  117.97    9.90   0
  -7   3  11   -8.62    7.16   0
  -3   3  42  277.89   10.50   0
  -9   2  22   36.34    8.78   0
  -5   3  52  107.62    9.30   0
  -4   3  50  174.82    9.97   0
  -6   2  -2  571.07   13.49   0
  -3   3  15    2.20    6.02   0
  -1   2  42  281.98   10.39   0
  -8   3  16  379.98   11.92   0
  -6   3   6  451.95   11.57   0
  -6   4  26  383.56   11.69   0
  -6   4  29   -5.97    8.03   0
  -6   4  32  322.11   11.26   0
  -3   3  45   -0.50    7.23   0
  -7   3   8  524.71   12.57   0
  -6   4  23   -1.16    7.79   0
  -6   4  35  -10.55    7.37   0
  -4   3   8 2660.17   23.59   0
  -7   4  25    3.94    8.46   0
  -7   4  31    3.26    7.19   0
  -7   4  34  158.29   10.14   0
  -6   4  38   94.55    8.24   0
  -5   3  55    1.19    8.52   0
  -5   4  27    0.97    6.49   0
  -5   4  30  296.76   10.01   0
  -5   4  33    4.57    6.83   0
  -4   3  53   -0.80    8.11   0
  -8   3  13    2.60    7.62   0
  -7   4  37    2.98    8.46   0
  -6   4  20  633.73   12.72   0
  -6   4  41    1.84    8.29   0
  -5   2  -4  654.68   13.96   0
  -5   4  24  870.58   14.41   0
  -5   4  36  293.16   10.34   0
  -4   2  -3   -2.39    5.07   0
  -3   3  48  192.68   10.09   0
  -7   4  22  145.49    8.73   0
  -7   4  40  124.01    9.92   0
  -5   3   4  706.21   13.44   0
  -5   4  21   15.54    7.06   0
  -3   3  12 2643.60   23.64   0
  -9   3  27    2.54    7.99   0
  -6   4  17   -0.84    6.99   0
  -6   4  44  203.50   10.59   0
  -2   3  28 1325.53   17.87   0
  -2   3  31    1.26    6.11   0
  -2   3  34  579.49   12.90   0
  -9   3  24  138.93    9.35   0
  -8   3  10  179.88    9.70   0
  -7   3   5   -0.71    6.78   0
  -7   4  43    1.41    8.10   0
  -6   3   3   -3.60    6.37   0
  -5   3  58   82.31    8.73   0
  -5   4  18  361.66   10.87   0
  -2   3  25   -2.21    5.78   0
  -9   3  21    2.64    7.32   0
  -8   4  33   -3.73    7.62   0
  -8   4  36  107.16    9.48   0
  -4   3   5    2.43    5.86   0
  -4   3  56  126.50    9.71   0
  -4   4  31   -0.75    7.05   0
  -3   3  51   -4.22    7.40   0
  -2   3  37   -0.80    6.37   0
  -8   4  39   -0.96    8.22   0
  -7   4  46   56.05    8.73   0
  -6   4  14  276.24   10.18   0
  -5   4  45   -2.72    8.67   0
  -4   4  25   -1.98    7.06   0
  -4   4  37   -0.09    7.41   0
  -9   3  18  153.03    9.18   0
  -8   4  21    7.28    7.91   0
  -5   4  15    6.47    6.61   0
  -2   3  40  426.16   11.79   0
  -4   4  22  678.29   12.76   0
  -4   4  40  430.38   12.42   0
  -3   3   9   -0.28    5.10   0
  -8   3   7   -4.57    7.31   0
  -8   4  18  173.14    9.94   0
  -7   4  13    7.40    6.42   0
  -6   4  50   78.76    8.95   0
  -2   3  43    1.80    6.52   0
  -5   3   1    2.64    5.04   0
  -4   4  19    3.24    6.81   0
  -4   4  43   -2.99    8.16   0
  -7   3   2  219.55    9.49   0
  -5   4  12  892.25   14.67   0
  -9   4  29   -3.43    7.62   0
  -8   4  15   -1.24    6.66   0
  -6   3   0 1029.72   15.99   0
  -6   4  53   -1.46    7.84   0
  -5   4  51   -0.91    8.80   0
  -4   4  46  129.48    9.77   0
  -2   3  46  118.96    9.09   0
  -9   4  26  125.25    9.10   0
  -7   4  10  372.99   10.53   0
  -4   4  16 1470.05   17.87   0
  -9   4  23   -8.25    7.83   0
  -2   3  16 1972.15   21.11   0
  -8   4  12  236.61   10.33   0
  -5   2  -7    3.42    5.53   0
  -5   4  54   47.89    9.02   0
  -4   4  49    2.89    8.18   0
  -3   3   6  533.33   12.19   0
  -9   4  20  112.62    9.24   0
  -7   5  27   10.50    8.42   0
  -7   5  30   68.10    8.23   0
  -7   5  33   -6.14    7.39   0
  -7   5  36  233.74   11.09   0
  -6   5  31    2.41    7.90   0
  -6   5  34  204.01   10.52   0
  -5   4   9    0.82    5.70   0
  -3   4  29   -0.09    6.67   0
  -3   4  32  869.13   14.97   0
  -3   4  35   -3.90    7.18   0
  -7   4   7    3.19    7.19   0
  -7   5  24  278.18   11.20   0
  -7   5  39   -8.55    8.48   0
  -6   5  25    0.11    8.13   0
  -6   5  28  379.27   11.11   0
  -6   5  37    9.35    8.82   0
  -4   4  13    1.46    6.47   0
  -3   4  38  151.10    9.31   0
  -9   4  17    5.46    7.57   0
  -8   5  29    4.33    8.33   0
  -8   5  32  198.88   10.34   0
  -8   5  35   -0.89    8.60   0
  -7   3  -1    3.42    7.00   0
  -7   5  42  126.82    9.62   0
  -6   5  40  183.77   10.38   0
  -8   4   9    0.49    7.19   0
  -8   5  26  161.37   10.19   0
  -8   5  38   30.97    8.74   0
  -7   5  21   -1.81    7.00   0
  -6   5  22  202.22    9.17   0
  -5   3  -2  814.35   14.73   0
  -4   4  52  133.01    9.42   0
  -3   4  23    8.59    5.72   0
  -3   4  41    1.44    6.85   0
  -2   3  13    9.33    5.88   0
  -7   5  45   11.89    8.18   0
  -6   4   5    1.53    5.70   0
  -5   4  57    3.25    8.10   0
  -5   5  32  453.34   12.32   0
  -9   4  14   74.32    8.59   0
  -7   5  18  365.05   11.08   0
  -6   3  -3    4.36    6.06   0
  -6   5  19    8.77    6.72   0
  -5   4   6  848.58   14.25   0
  -5   5  26  221.66   10.21   0
  -3   4  20  906.64   14.81   0
  -3   4  44  259.82   10.53   0
  -6   5  46   60.93    8.53   0
  -4   4  10  397.71   10.22   0
  -7   4   4  622.54   13.59   0
  -5   5  23   -6.65    6.61   0
   0   2  31   -0.97    5.26   0
  -9   5  28   69.71    8.69   0
  -8   4   6  191.89    9.39   0
  -8   5  17   -0.99    7.87   0
  -6   5  16  589.08   12.64   0
  -6   5  49    2.19    8.10   0
  -5   5  44  184.68   10.59   0
  -3   3   3   -1.03    5.72   0
  -3   4  47   -0.45    7.59   0
   0   2  28 1021.01   18.46   0
  -9   4  11   -2.00    7.09   0
  -9   5  25   -3.58    8.50   0
  -5   5  20  671.18   12.94   0
  -3   4  17    3.47    5.46   0
  -9   5  22   68.82    8.60   0
  -6   4   2  592.26   13.01   0
  -2   3  10 2054.74   21.81   0
  -8   5  14  134.49    9.35   0
  -5   5  17    3.99    7.43   0
  -5   5  47    0.73    8.33   0
  -1   3  29    3.39    5.45   0
  -1   3  32 1107.47   17.48   0
  -1   3  35   -1.82    6.07   0
  -9   5  19   -1.30    7.83   0
  -4   4   7    1.09    5.40   0
  -7   4   1    0.96    6.89   0
  -4   5  33    3.12    6.45   0
  -4   5  36  291.32   11.05   0
  -3   4  14  698.74   12.88   0
  -1   3  26  502.05   12.27   0
  -4   5  27    1.19    6.41   0
   2   6  17   -1.22    7.38   0
   4   0  10  407.98    9.69   0
   5   0   8  973.02   13.70   0
   7  -1  -7    6.82    6.24   0
   7   0  -2  207.88    9.42   0
   8   0 -16  142.75    8.58   0
   1   3  19    6.10    5.42   0
   6   1   8  624.67   12.71   0
   8   0 -13    0.26    6.47   0
   8   1 -11   -6.34    7.02   0
   2   3  20  557.23   11.37   0
   3   6  15    7.23    7.70   0
   5  -2  -5    1.68    4.89   0
   6  -1   1    1.10    5.93   0
   6   0   6  221.43    8.73   0
   7   2   2   71.06    8.31   0
   1   2  17    7.83    4.14   0
   1   4  21    3.33    5.71   0
   4   1  15    6.35    5.60   0
   4   2  17    1.03    5.82   0
   5   1  13    0.50    6.41   0
   5   4  13    5.08    8.12   0
   6  -2  -7    2.59    5.83   0
   6   3   9    4.17    7.49   0
   3   4  20  378.29   11.06   0
   5   2  15    5.10    7.31   0
   6   2  10  173.50    8.69   0
   7  -1  -4  252.71    8.72   0
   7   0   1    0.97    7.02   0
   8   0 -10  132.45    8.26   0
   2   5  21   -4.37    7.02   0
   3   0  12 2679.90   22.93   0
   3   2  19    4.85    5.41   0
   3   5  19    3.37    7.39   0
   4   4  18  188.62    9.51   0
   5   0  11   -1.54    5.51   0
   2   1  16 2092.09   20.75   0
   3   1  17   -3.02    5.84   0
   3   3  21    1.27    5.78   0
   6   1  11    0.02    7.03   0
   7   2   5    6.82    7.17   0
   8   0  -7   -6.24    6.71   0
   8   1  -5    7.93    7.44   0
   2   6  20  168.00    9.48   0
   4  -2  -3   -3.55    4.43   0
   4   0  13    5.65    5.05   0
   4   5  17   -8.96    7.56   0
   6  -1   4  713.43   12.73   0
   6   0   9   -5.13    6.82   0
   7  -1  -1    5.18    6.53   0
   2   0  11   -0.40    5.02   0
   3   6  18  166.03    9.70   0
   5  -2  -2  798.77   13.74   0
   5   3  17   -7.09    7.54   0
   6  -2  -4  861.39   14.19   0
   6   2  13  -13.29    7.88   0
   6   3  12  124.23    9.15   0
   7   0   4  166.13    9.15   0
   7   1   6  159.02    8.28   0
   5   1  16  585.49   12.10   0
   7  -2  -9   -3.27    5.97   0
   1   5  23    3.59    6.10   0
   4  -1   8 2708.56   22.74   0
   4   1  18  353.44    9.93   0
   4   2  20  621.25   11.89   0
   8  -1  -9    2.30    6.64   0
   8   1  -2   81.48    7.72   0
   2   3  23    1.20    5.96   0
   5   2  18  380.82   10.17   0
   7   2   8  193.49    9.48   0
   1   3  22  346.37    9.97   0
   3  -1   7    1.12    4.94   0
   3   4  23   -5.10    6.20   0
   3   5  22  107.02    8.40   0
   4   4  21   10.19    7.85   0
   5   0  14  631.43   12.22   0
   6   1  14  132.63    8.75   0
   7  -1   2  336.14   10.26   0
   5  -1   9    2.68    5.69   0
   6  -2  -1    2.49    5.54   0
   7  -2  -6  426.49   10.86   0
   7   1   9   -4.05    6.73   0
   8  -1  -6   96.04    7.96   0
   8   0  -1   -1.65    6.72   0
   2   5  24  396.11   11.30   0
   4   5  20   99.57    8.57   0
   6   0  12  385.76    9.95   0
   6   2  16  331.30   11.02   0
   6   3  15    3.36    7.12   0
   8   1   1   -4.78    7.73   0
   3   0  15   -2.37    4.77   0
   3   3  24  571.59   12.40   0
   5  -2   1    2.36    4.98   0
   5   3  20  209.78    9.94   0
   2   4  25   -5.93    6.49   0
   3   6  21   -3.98    8.31   0
   4  -2   0 4245.18   31.66   0
   4   0  16 1472.80   16.61   0
   8  -1  -3    3.31    6.94   0
   5   1  19    0.32    6.15   0
   7  -2  -3   -0.16    5.85   0
   7  -1   5    5.40    6.77   0
   8   0   2  102.48    8.14   0
   2   1  19    3.75    5.36   0
   4   2  23    6.57    7.04   0
   5   2  21   -0.37    6.44   0
   7   1  12  151.84    8.99   0
   8   1   4  153.98    9.09   0
   0   4  23    0.89    5.31   0
   4  -1  11   13.11    4.89   0
   4   1  21    2.76    5.64   0
   6  -2   2  584.50   11.95   0
   6   1  17   -3.69    6.21   0
   3   4  26  132.55    8.98   0
   4   4  24  299.67   10.49   0
   5   0  17   11.70    5.59   0
   6   0  15   -1.30    7.05   0
   6   3  18   86.52    8.07   0
   8  -1   0  356.39   10.44   0
   0   3  21   -0.02    4.66   0
   3   5  25   -3.13    7.54   0
   4   3  25   -7.76    7.36   0
   5  -1  12  917.17   13.45   0
   6   2  19    1.88    6.89   0
   7   2  14  118.83    8.83   0
   8   0   5    5.99    7.04   0
   2   0  14  331.50    9.27   0
   2   3  26  581.23   12.36   0
   4   5  23   -3.65    7.73   0
   5  -2   4  712.13   12.75   0
   5   4  22   59.92    8.23   0
   7  -2   0  576.89   12.16   0
   7  -1   8  603.25   12.38   0
   2   2  24 1726.23   18.91   0
   3  -1  10 2062.51   20.71   0
   7   1  15    4.32    7.77   0
   2   5  27    2.46    6.70   0
   3   3  27   -4.37    6.52   0
   4   0  19   -3.05    6.25   0
   5   1  22  204.21    9.08   0
   7   0  13   -0.51    6.29   0
   8  -1   3   -6.98    6.79   0
   1   3  25    8.34    5.50   0
   3   0  18 1331.49   16.48   0
   4  -2   3   -0.65    3.96   0
   5   2  24  287.94   10.65   0
   6  -2   5    1.69    5.80   0
   6   1  20  246.49   10.09   0
   8  -2  -5    0.98    6.42   0
   2   4  28  384.94   10.99   0
   3   1  23    6.65    5.22   0
   4   2  26  358.16   10.58   0
   6  -1  13   -0.75    5.68   0
   6   0  18  332.27   10.39   0
   7  -2   3   -4.20    6.19   0
   8   0   8  232.34    9.37   0
   1   4  27    3.35    5.77   0
   4  -1  14  693.11   12.40   0
   4   1  24  882.38   14.19   0
   4   4  27   -3.68    7.93   0
   5   0  20  673.43   12.43   0
   6   2  22  110.29    8.66   0
   7   2  17   10.01    6.83   0
   5  -1  15    4.80    5.43   0
   7  -1  11   -4.03    5.89   0
   8  -2  -2  205.92    9.32   0
   8  -1   6  184.21    9.19   0
   3   4  29    6.35    7.29   0
   3   5  28  155.60   10.16   0
   4   3  28  328.09   10.90   0
   4   5  26  127.94    9.16   0
   5  -2   7    6.51    5.36   0
   5   4  25    2.86    7.47   0
   7   0  16  467.18   11.66   0
   7   1  18  117.18    8.66   0
   1   2  23    2.68    4.18   0
   2   1  22  446.45   10.16   0
   5   1  25    8.60    7.39   0
   6  -2   8  858.04   13.92   0
   7  -2   6  145.23    8.23   0
   8   1  13   -0.01    7.10   0
   9  -1  -2   80.19    7.78   0
   5   2  27    5.21    7.37   0
   6  -1  16  640.40   11.81   0
   6   1  23    7.66    6.39   0
   6   3  24  196.27    9.39   0
   7   2  20  124.12    8.67   0
   8  -2   1   -0.27    6.50   0
   2   0  17   -2.52    5.21   0
   2   3  29    1.60    6.22   0
   3  -1  13   13.45    4.65   0
   3   3  30  162.59    9.15   0
   4  -2   6  805.55   13.48   0
   4   0  22  692.35   12.10   0
   6   0  21   -7.09    6.19   0
   8  -1   9   -3.75    7.25   0
   2   2  27    0.20    4.86   0
   6   2  25   -1.48    7.23   0
   9  -1   1   10.78    6.80   0
   3   0  21    2.36    4.98   0
   3   1  26  628.76   12.20   0
   4   1  27   -2.86    6.87   0
   5  -1  18  379.31    9.60   0
   5   0  23    2.04    5.75   0
   7   0  19   -9.52    7.82   0
   7   1  21    2.29    7.79   0
   2   4  31   -0.53    6.58   0
   4  -1  17    1.24    4.95   0
   4   4  30   67.32    8.07   0
   5  -2  10  704.65   12.22   0
   5   3  29   -1.84    7.83   0
   5   4  28   76.91    8.77   0
   7  -2   9    0.16    6.18   0
   8  -2   4  206.03    9.32   0
   4   3  31   -5.43    7.72   0
   4   5  29    7.87    7.41   0
   6  -3  -3    2.11    5.32   0
   6  -2  11    2.88    5.22   0
   8  -1  12  146.00    8.98   0
   3   4  32  239.57   11.08   0
   3   5  31    5.29    8.07   0
   6  -1  19   -0.30    6.50   0
   6   1  26  239.96   10.04   0
   7   2  23   -2.65    7.22   0
   9  -1   4  150.28    8.74   0
   1   4  30  151.95    8.12   0
   5   1  28  391.70   10.25   0
   6   0  24  451.26   11.76   0
   7  -3  -2  210.93    9.10   0
   5   2  30   65.18    7.42   0
   6   2  28  143.97    8.97   0
   8  -2   7   -5.07    6.86   0
   3   2  31   -6.92    6.62   0
   4   0  25    4.54    5.56   0
   5  -3  -4  639.33   13.95   0
   6  -3   0 1066.28   16.06   0
   7  -2  12  476.75   11.47   0
   7   0  22   88.86    7.48   0
   7   1  24  239.84   10.06   0
   9  -1   7    2.09    7.15   0
   1   2  26  500.53   11.23   0
   3  -1  16 2099.06   20.43   0
   3   3  33   -0.83    7.00   0
   5  -1  21    1.12    6.55   0
   5   0  26  203.91    8.52   0
   6  -2  14  271.86    9.30   0
   8  -1  15   -2.13    7.17   0
   2   3  32  634.93   12.75   0
   4  -1  20  902.77   13.79   0
   7  -3   1   -0.58    6.06   0
   2   0  20 3530.68   26.33   0
   2   2  30  178.65    8.20   0
   3   0  24 1074.14   14.53   0
   3   1  29    0.41    6.29   0
   4   1  30  271.70    9.23   0
   4   4  33    0.05    7.54   0
   5   3  32  172.61    9.44   0
   6  -1  22  202.11    9.06   0
   7  -1  20  235.32    9.73   0
   8  -2  10  164.55    8.68   0
   6  -3   3    3.13    5.32   0
   6   1  29  -10.25    7.92   0
   8   0  20  131.52    8.67   0
   9  -1  10   73.69    7.40   0
   4   3  34  149.77    9.19   0
   5  -3  -1    2.84    4.73   0
   5   1  31   -8.89    7.42   0
   6   0  27   -1.96    7.55   0
   7  -2  15   -0.11    6.85   0
   2   4  34  135.63    8.62   0
   6   2  31    1.54    7.69   0
   7  -3   4  627.24   12.67   0
   7   0  25   -2.20    6.85   0
   7   1  27   -3.31    7.77   0
   9  -2   5   -1.19    6.29   0
   3   4  35    6.22    7.40   0
   8  -2  13   -4.45    7.34   0
   1   3  31    3.41    5.71   0
   4   0  28  604.83   11.65   0
   5  -1  24  888.21   13.47   0
   5   0  29   -7.69    7.16   0
   9  -1  13    0.01    6.54   0
   3   2  34  381.78   10.91   0
   5  -3   2  809.65   14.23   0
   6  -3   6  441.35   11.05   0
   7  -1  23   -4.72    6.56   0
   8   0  23   -4.05    7.54   0
   9  -2   8  184.42    9.54   0
   0   3  27    0.22    5.14   0
   3  -1  19   -0.72    4.68   0
   4  -1  23   11.98    5.31   0
   4   2  35    4.71    7.53   0
   5   3  35    4.57    8.02   0
   6  -1  25    5.59    6.11   0
   7  -3   7    5.02    6.05   0
   3   3  36  267.21   10.35   0
   4   1  33    6.84    6.02   0
   4   4  36  103.15    9.04   0
   6   1  32  239.13    9.95   0
   7  -2  18  355.81   10.00   0
   8  -3   5    1.57    6.36   0
   2   3  35    6.36    6.20   0
   3   0  27    2.31    5.08   0
   6   0  30   96.46    7.74   0
   7   0  28  114.16    8.47   0
   7   1  30   60.27    8.16   0
   8  -2  16  330.20   10.55   0
   1   1  24 1748.15   19.39   0
   1   2  29    0.29    4.48   0
   2   0  23    1.41    4.53   0
   2   2  33    6.87    5.91   0
   4  -2  15    2.35    5.30   0
   4   3  37    3.76    7.32   0
   5   1  34  196.32    8.86   0
   9  -2  11   -2.52    7.15   0
   5  -3   5    7.58    5.28   0
   5  -2  19    4.45    5.32   0
   6  -3   9    0.52    5.57   0
   7  -3  10  355.85   10.27   0
   4   0  31    6.40    6.38   0
   5  -1  27    6.07    5.86   0
   5   0  32  462.48   11.48   0
   7  -1  26  228.42    8.98   0
   8  -3   8  428.37   11.30   0
   8   0  26   92.62    8.11   0
   2   4  37    0.34    6.73   0
   3   4  38  114.90    8.38   0
   6  -1  28  392.41   10.82   0
   4  -1  26  646.00   12.28   0
   6   1  35    5.32    7.84   0
   8  -2  19    1.86    7.30   0
   9  -2  14  119.74    8.08   0
   3  -1  22  463.44   10.20   0
   3   2  37    0.61    6.48   0
   4   2  38   70.37    8.38   0
   5   3  38   38.43    7.67   0
   6  -3  12  726.90   12.97   0
   6   0  33    8.44    7.43   0
   7   0  31    4.26    7.09   0
   7   1  33   -2.99    7.33   0
   2  -1  15    1.35    4.35   0
   2   1  31   -3.22    5.75   0
   5  -3   8 2227.47   21.79   0
   6  -2  23  -12.62    5.78   0
   7  -3  13    0.17    5.46   0
   8  -3  11   -2.93    6.69   0
   3   0  30  284.56    8.67   0
   3   3  39   -0.10    7.19   0
   4  -2  18 1027.27   14.21   0
   4   4  39   -3.43    6.83   0
   5  -2  22  286.68    9.40   0
   5   1  37    5.40    7.55   0
   7  -1  29   -2.00    7.85   0
   4   3  40  125.13    9.37   0
   5   2  39    0.03    7.38   0
   9  -2  17   -3.31    7.27   0
   0   2  25    2.18    4.43   0
   2   0  26 1272.71   16.08   0
   2   3  38   84.39    7.30   0
   3  -2  11    6.58    4.27   0
   5  -1  30  256.77    8.89   0
   6  -1  31    5.63    7.34   0
   8  -2  22   94.28    7.71   0
   8  -1  27    2.70    7.55   0
   1   2  32 1100.48   15.84   0
   6  -3  15    1.10    5.68   0
   7  -3  16  411.60   10.77   0
   8  -3  14  119.31    7.71   0
   1   1  27   -1.41    4.94   0
   4  -1  29    6.38    6.52   0
   5  -3  11   -1.71    4.54   0
   6   1  38   50.52    8.23   0
   1   0  19    1.54    4.75   0
   3  -1  25    5.26    5.80   0
   6  -2  26  341.78    9.68   0
   6   0  36  176.09    9.89   0
   4  -2  21   -0.15    5.84   0
   4   2  41    0.93    7.36   0
   5  -2  25    4.40    6.14   0
   7  -1  32  230.96    9.96   0
   9  -3  12  119.78    7.94   0
   9  -2  20  115.62    8.44   0
   2  -1  18 1214.00   15.95   0
   3   2  40  386.80   11.22   0
   7  -2  27   -1.36    6.29   0
   8  -3  17    4.05    7.10   0
   8  -2  25   -2.67    6.72   0
   8  -1  30   63.00    7.99   0
   3  -2  14 1556.65   17.88   0
   3   0  33    3.85    5.38   0
   5  -3  14  374.59    9.89   0
   5  -1  33   -0.68    6.92   0
   6  -3  18  414.36   10.61   0
   7  -3  19   -4.86    5.55   0
   3   1  38  159.12    8.20   0
   3   3  42  138.97    8.90   0
   4  -3   4 1317.85   18.52   0
   5   0  38  184.31    9.58   0
   5   2  42  101.58    8.67   0
   6  -1  34  194.86    8.85   0
   1   3  37    1.23    5.72   0
   4   0  37    2.71    7.15   0
   4   3  43   10.95    7.18   0
   6  -2  29    2.33    7.01   0
   7   0  37   -5.91    7.60   0
   9  -3  15    3.71    7.00   0
   9  -2  23   -2.32    6.46   0
   2   0  29    0.12    4.81   0
   4  -1  32  844.79   13.85   0
   8  -3  20  205.97    9.45   0
   2   2  39   -8.05    6.16   0
   2   3  41    0.21    6.38   0
   5  -2  28  393.50   10.40   0
   6   0  39   -6.35    6.96   0
   7  -3  22  169.63    8.76   0
   7  -2  30   67.49    8.19   0
   7  -1  35   -0.10    7.36   0
   3  -1  28 1305.03   15.69   0
   4  -3   7    5.77    4.99   0
   4  -2  24 1793.63   18.11   0
   5  -3  17    0.29    5.73   0
   6  -3  21   -2.84    5.46   0
   8  -1  33    7.94    7.00   0
   9  -3  18   81.68    7.99   0
   1   0  22  457.90   10.86   0
   1   1  30  538.14   11.02   0
   1   2  35    3.59    5.46   0
   2  -1  21    9.79    5.43   0
   3  -2  17    6.82    4.48   0
   4   1  42  169.38    9.14   0
   4   2  44  178.41    9.73   0
   5  -1  36  299.55    9.60   0
   6  -1  37   -4.21    7.55   0
   7  -4   8  533.01   12.43   0
   8  -3  23   10.79    7.26   0
   0   3  33    2.72    5.00   0
   3   0  36  765.36   12.84   0
   3   2  43   -2.34    6.22   0
   5   0  41    4.00    7.97   0
   6  -2  32  323.58   10.32   0
   2   1  37   -0.81    5.90   0
   3   1  41    2.32    6.65   0
   4  -3  10 1105.80   15.78   0
   5   2  45    3.35    7.23   0
   7  -3  25    7.19    7.13   0
   7   0  40  138.30    8.19   0
   9  -3  21    0.06    7.19   0
   3   3  45   -0.10    6.73   0
   4  -1  35    0.14    6.48   0
   4   0  40  374.46   10.27   0
   4   3  46   45.31    8.51   0
   5  -2  31    0.52    6.62   0
   6   0  42  122.83    8.84   0
   7  -4  11   -5.55    5.85   0
   7  -2  33    3.68    6.37   0
   7  -1  38   44.25    8.28   0
   4  -2  27    4.86    5.33   0
   6  -4   4  820.81   14.67   0
   8  -4  12  234.67    9.39   0
   3  -2  20 1421.84   16.47   0
   3  -1  31    0.72    5.19   0
   8  -3  26  155.85    9.08   0
   2  -1  24 1876.64   19.12   0
   2   2  42  341.05   10.44   0
   4  -3  13    0.91    4.40   0
   5  -1  39   -2.02    7.43   0
   6  -4   7   -1.60    5.38   0
   6  -1  40  187.75    9.97   0
   7  -4  14  346.25   10.25   0
   9  -3  24  176.88    8.99   0
   4   1  45   -2.85    7.31   0
   5   1  46   52.30    8.36   0
   6  -2  35    8.33    7.46   0
   8  -4  15    0.36    6.55   0
   8  -2  34  103.60    8.42   0
   1   0  25   -3.01    4.32   0
   1   1  33    1.72    5.29   0
   1   2  38  297.99    9.60   0
   4   2  47    0.33    7.85   0
   5   0  44  174.03    9.51   0
   6  -4  10  323.39    9.97   0
   7  -2  36  221.80    9.70   0
   0   2  31    4.38    5.33   0
   3   2  46   40.90    7.70   0
   4  -2  30  195.75    8.63   0
   5  -2  34  400.80   11.07   0
   7  -1  41    6.25    7.70   0
   8  -3  29  -14.70    7.60   0
   2   1  40  440.24   10.96   0
   3  -2  23    1.80    5.35   0
   4  -1  38  169.06    8.74   0
   6   0  45    1.46    7.58   0
   7  -4  17    9.29    5.70   0
   8  -4  18  188.15    8.92   0
   3  -1  34  566.17   11.65   0
   6  -4  13    3.74    5.72   0
   9  -3  27    4.56    6.54   0
   5  -3  26  603.89   12.05   0
   2  -1  27    1.64    4.77   0
   5  -1  42  150.26    9.58   0
   6  -3  30  165.82    8.14   0
   6  -2  38   90.52    7.59   0
   6  -1  43    0.36    7.00   0
   7  -4  20  420.64   10.84   0
   8  -4  21    3.19    7.06   0
   8  -2  37   -2.62    6.52   0
   7  -2  39   -0.15    7.39   0
   8  -3  32  175.66    9.13   0
   9  -4  19    0.27    6.27   0
   2   2  45    4.61    6.25   0
   4  -2  33    4.97    6.21   0
   4   1  48  166.06    9.40   0
   5  -2  37    5.49    7.24   0
   5   1  49   -5.45    7.31   0
   1   1  36  834.39   13.91   0
   3  -2  26  532.29   10.62   0
   4   2  50   92.14    8.22   0
   7  -1  44   95.65    8.89   0
   0   1  26 1081.98   16.28   0
   4  -1  41    1.57    6.15   0
   5  -3  29    1.55    6.65   0
   6  -4  19   -2.46    5.97   0
   7  -4  23   -4.17    6.84   0
   7  -3  34  164.18    8.39   0
   8  -4  24  302.59   10.10   0
   9  -4  22   63.62    7.63   0
   1   2  41   -2.75    5.81   0
   2   1  43   -2.42    6.39   0
   3  -1  37   -0.08    6.43   0
   3   1  47   -0.91    6.94   0
   3   2  49    5.54    7.05   0
   4  -3  22  363.51    9.67   0
   6  -3  33    2.20    6.18   0
   0   2  34  261.27    9.40   0
   5  -4   3    0.79    4.88   0
   5  -4   6  365.34   10.38   0
   5  -1  45    7.14    7.86   0
   6  -2  41    4.13    6.50   0
   6  -1  46   54.41    8.08   0
   5  -4   9    6.69    5.44   0
   7  -2  42  122.96    9.18   0
   2  -2  13   -1.80    4.07   0
   3  -2  29    2.29    5.94   0
   4  -2  36  355.02   10.33   0
   5  -2  40  400.65   10.57   0
   6  -4  22  343.34    9.55   0
   7  -4  26  147.19    7.92   0
   8  -4  27    7.99    6.79   0
   9  -4  25    0.29    6.37   0
   4  -3  25    0.12    5.90   0
   5  -4  12 1143.39   16.10   0
   5  -3  32  692.21   12.79   0
   3   0  45   -8.62    6.75   0
   4  -1  44  266.88    9.75   0
   4   1  51   -1.25    7.76   0
   6  -3  36  284.15    9.49   0
   1   1  39    4.26    5.65   0
   2  -2  16 2945.52   24.56   0
   3  -1  40  433.07   10.93   0
   4   0  49    4.40    7.62   0
   5  -4  15    0.59    5.55   0
   6  -4  25   -3.51    6.41   0
   0   1  29   -2.54    4.98   0
   2  -1  33   -0.62    5.76   0
   4   2  53    4.63    7.19   0
   6  -2  44  215.56    9.43   0
   7  -4  29   -5.66    6.05   0
   8  -4  30   80.85    7.87   0
   9  -4  28   71.68    7.89   0
   2   0  41    6.70    6.09   0
   2   1  46  112.49    8.12   0
   3  -2  32 1189.83   15.42   0
   3   1  50  168.30    9.16   0
   3   2  52  111.97    9.24   0
   5  -4  18  714.59   12.79   0
   5  -1  48  182.81    9.66   0
   6  -1  49   -5.44    7.59   0
   7  -2  45    0.60    7.01   0
   1   2  44  292.73    9.87   0
   3  -3   9    0.01    4.57   0
   4  -3  28  678.22   11.78   0
   4  -2  39   -4.47    5.97   0
   5  -3  35    5.71    6.78   0
   5  -2  43   -2.85    6.36   0
   7  -3  40  145.52    8.78   0
   1  -1  20 1553.77   18.40   0
   2  -2  19   -0.26    4.41   0
   6  -4  28  415.71   11.09   0
   6  -3  39   -6.48    6.72   0
   0   2  37    0.74    4.89   0
   1   0  34  865.61   13.72   0
   5  -4  21   -1.90    6.00   0
   7  -4  32  264.27   10.39   0
   8  -4  33   -3.10    6.91   0
   3   0  48  179.05    9.08   0
   4  -1  47   -1.92    6.29   0
   5   0  53   -5.26    7.19   0
   2  -2  22 1942.07   19.40   0
   2  -1  36  865.46   13.59   0
   3  -1  43    4.30    5.77   0
   4  -3  31    2.46    6.15   0
   4   1  54   29.57    7.91   0
   6  -2  47   -0.25    7.26   0
   8  -5  19    4.02    7.34   0
   3  -2  35   -5.88    5.28   0
   4  -2  42  367.37   10.68   0
   4   0  52  115.96    8.85   0
   5  -4  24  633.71   12.23   0
   5  -3  38   92.65    7.84   0
   7  -3  43   -0.73    7.61   0
   0   1  32 1619.36   19.08   0
   1  -1  23   -1.16    4.38   0
   2   0  44  605.88   12.32   0
   2   2  51   -4.96    6.70   0
   3  -3  18  523.07   10.67   0
   5  -2  46   53.53    7.14   0
   5  -1  51    3.59    7.91   0
   6  -3  42  148.87    9.25   0
   7  -5  15    2.91    6.09   0
   7  -4  35   -6.12    7.34   0
   2   1  49    2.27    6.57   0
   3   1  53   -2.21    7.50   0
   7  -5  18  155.44    8.38   0
   8  -5  22  105.72    7.79   0
   8  -4  36   99.89    7.99   0
   1   2  47    0.70    6.59   0
   2  -2  25   -2.86    5.27   0
   3  -3  21   -1.83    5.58   0
   1   0  37   -4.13    4.74   0
   4  -3  34  499.36   10.81   0
   7  -5  21   -1.31    6.46   0
   1  -1  26 1202.50   15.72   0
   2  -1  39    4.56    5.84   0
   3  -2  38  298.58    8.93   0
   3   0  51   -9.23    6.99   0
   5  -3  41   -2.53    7.15   0
   8  -5  25    0.69    7.02   0
   4  -2  45    0.99    6.86   0
   6  -3  45   -1.72    7.86   0
   7  -3  46   53.44    8.27   0
   8  -4  39    0.93    6.97   0
   2  -2  28 1112.94   14.78   0
   3  -3  24 1548.48   16.81   0
   4   0  55   -0.21    6.82   0
   4   1  57    4.36    6.53   0
   5  -2  49    0.33    7.09   0
   7  -5  24  406.89   11.20   0
   0   1  35    4.09    4.95   0
   1   1  45    1.85    5.91   0
   2   0  47   -1.96    6.61   0
   4  -3  37   -5.03    6.52   0
   6  -4  37    1.81    7.23   0
   8  -5  28  154.73    8.79   0
   4  -4  11    0.69    4.95   0
   4  -4  14  301.17    9.33   0
   6  -5  11    4.38    5.39   0
   6  -5  14  393.80   10.57   0
   9  -5  29  -10.67    7.33   0
   1  -1  29   -3.93    4.55   0
   1   0  40  702.22   12.84   0
   2   1  52  232.97    9.57   0
   3  -3  27    8.37    4.96   0
   3  -2  41   -7.13    6.38   0
   4  -4   8 1491.03   18.78   0
   4  -4  17   -3.11    5.44   0
   5  -3  44  202.45    9.79   0
   6  -5  17   -0.78    5.74   0
   7  -5  27   -0.74    6.05   0
   2  -2  31   -3.63    5.89   0
   5  -4  33    5.73    5.93   0
   6  -5  20  486.09   11.38   0
   6  -2  53   10.80    7.25   0
   8  -5  31    0.23    6.82   0
   3   0  54   71.87    8.16   0
   4  -4   5   -0.28    4.63   0
   4  -4  20 1220.98   15.36   0
   4  -2  48  263.76   10.37   0
   6  -3  48  117.11    9.10   0
   3  -3  30  527.25   11.00   0
   4  -3  40  423.05   10.35   0
   5  -2  52  120.33    8.40   0
   6  -5  23    1.84    6.28   0
   6  -4  40  226.02    8.99   0
   7  -5  30  182.36    8.33   0
   0   0  27    0.47    4.83   0
   0   2  43    2.09    5.51   0
   1  -1  32 1698.24   18.18   0
   5  -1  57    1.18    7.57   0
   8  -5  34  111.13    8.50   0
  -1   2  30  548.21   12.98   0
   1   1  48  295.67   10.33   0
   2   0  50  175.42    8.77   0
   4   0  58   50.70    8.17   0
   5  -4  36  444.00   10.49   0
   5  -3  47    1.38    7.80   0
   6  -5  26  219.49    8.99   0
   7  -4  44  108.75    8.66   0
   1   0  43   -0.25    6.02   0
   2  -2  34  260.68    8.35   0
   3  -2  44  292.01    9.17   0
   7  -5  33   -0.99    7.21   0
   3  -3  33   -2.91    5.34   0
   6  -4  43    3.37    7.21   0
   6  -3  51   -9.38    7.63   0
   2   1  55    4.49    6.93   0
   4  -3  43   -2.86    6.24   0
   4  -2  51    5.15    7.51   0
   4  -1  56  107.08    9.01   0
   6  -5  29    5.14    6.40   0
   8  -5  37    0.95    6.59   0
   0   0  30  157.48    6.89   0
   3   1  59   -8.24    6.97   0
   4  -4  29    2.09    5.31   0
   5  -4  39   -4.88    6.18   0
   5  -2  55   -3.11    7.31   0
   7  -5  36  154.00    8.95   0
   2  -2  37   -4.93    6.20   0
   3   0  57    4.17    7.05   0
   7  -4  47   -2.13    7.82   0
   0   1  41   -2.82    5.17   0
   3  -3  36  498.89   10.49   0
   3  -2  47    5.32    6.94   0
   5  -3  50  154.34    9.48   0
   6  -5  32  359.56   10.86   0
  -1   2  33    3.46    4.91   0
   2   0  53    8.28    6.95   0
   4  -4  32  442.54   10.20   0
   6  -4  46   76.89    8.50   0
   8  -5  40  113.44    7.99   0
   0   0  33    1.53    4.98   0
   1   0  46   98.00    7.54   0
   1   1  51   -0.37    6.27   0
   2  -1  48  303.98    9.88   0
   4  -3  46   79.04    7.12   0
   5  -5  19    1.88    5.84   0
   5  -4  42  193.36    8.66   0
   6  -3  54   47.70    7.51   0
   7  -5  39   -3.05    7.05   0
   2  -2  40  715.74   12.70   0
   3  -1  55    1.99    7.39   0
   4  -2  54   29.16    6.87   0
   5  -5  13    1.96    5.48   0
   5  -5  22  233.16    8.85   0
   6  -5  35    9.46    7.04   0
   3  -3  39    6.78    5.71   0
   4  -4  35    7.73    5.85   0
   4  -1  59   -3.16    6.70   0
   5  -5  10  682.81   13.27   0
   5  -2  58   81.25    7.99   0
   5  -5  25   -3.46    5.28   0
   2  -1  18 1230.36   16.24   0
   8  -6  14  102.02    8.41   0
   6  -5  17    5.52    6.57   0
   9  -6  15    3.12    7.08   0
   9  -4  25    3.30    7.91   0
   9  -3  27    2.11    7.34   0
   2  -2  13   -2.77    4.98   0
   3  -4   4 1240.51   17.91   0
   4   1  30  278.06   10.31   0
   5   1  31   -6.52    7.65   0
   7  -4  26  141.56    8.72   0
   7   0  31   -1.83    6.99   0
   8  -5  22  110.81    8.64   0
   8  -3  29   -7.82    7.63   0
   8  -1  30   70.30    8.50   0
   3  -3  15   -2.26    4.43   0
   3  -1  25    5.87    4.89   0
   3   0  27   -1.92    4.84   0
   4  -3  22  353.05    9.79   0
   5  -3  26  574.46   11.35   0
   5   0  32  441.01   11.72   0
   7  -6  13   -2.32    6.56   0
   7  -1  32  220.50   10.32   0
   8  -4  27   -7.31    8.12   0
   5  -5  13    0.21    5.77   0
   5  -4  21    3.04    5.42   0
   6  -4  25   -0.68    6.65   0
   2   2  24 1775.47   21.79   0
   4  -5   3   -2.48    4.60   0
   4  -2  27   -1.24    5.29   0
   4   0  31    9.08    6.36   0
   6  -2  32  330.72   10.65   0
   6   0  33   -0.86    7.16   0
   9  -5  23   -2.55    7.20   0
   6  -6   9    1.24    5.40   0
   6  -3  30  178.71    9.49   0
   7  -3  31    8.72    7.77   0
   8  -6  17    3.41    7.42   0
   9  -6  18  181.04    9.48   0
   3   2  28  376.14   11.16   0
   5  -2  31    3.69    6.62   0
   6  -1  34  213.45    9.90   0
   3  -2  23   -0.74    5.71   0
   3   1  29    4.07    5.70   0
   8  -5  25    1.41    7.40   0
   9  -4  28   79.31    7.72   0
   2   1  25    2.93    4.91   0
   7  -6  16  583.30   12.66   0
   7  -4  29    8.53    7.66   0
   8  -3  32  178.26    9.36   0
   8  -1  33    5.72    7.53   0
   9  -7  10  141.45    8.16   0
   3  -4   7    5.29    4.82   0
   5  -3  29    3.74    6.85   0
   7   0  34  149.16    9.27   0
   8  -4  30   94.24    8.60   0
   2  -1  21    7.64    4.62   0
   3  -3  18  527.54   11.11   0
   4  -5   6  354.99   10.05   0
   4  -3  25    6.71    6.18   0
   5  -5  16  654.33   11.95   0
   5  -4  24  640.90   11.77   0
   6  -6  12  326.40    9.98   0
   6  -4  28  412.63   11.01   0
   7  -1  35  -10.90    8.27   0
   8  -7   9   -3.75    6.22   0
   8  -6  20  174.22    9.10   0
   8  -2  34   83.41    8.43   0
   9  -5  26  125.72    8.88   0
   2  -2  16 3038.24   25.09   0
   5   0  35   -4.45    7.01   0
   5   1  34  198.74    9.79   0
   9  -6  21   -1.61    7.57   0
   3  -1  28 1282.70   15.95   0
   3   0  30  300.34    9.51   0
   4  -2  30  186.86    8.58   0
   4   1  33   -5.78    6.24   0
   6  -2  35    7.85    7.61   0
   7  -3  34  170.54    9.60   0
   9  -7  13    1.33    7.01   0
   6  -3  33    1.75    6.48   0
   6   0  36  168.78    9.40   0
   7  -6  19    0.97    7.19   0
   8  -5  28  149.10    9.63   0
   4   0  34  222.09    9.24   0
   5  -2  34  384.78   10.74   0
   7  -5  27   -5.09    7.38   0
   8  -7  12  187.83    9.20   0
   4  -5   9    8.96    5.23   0
   6  -1  37   -6.95    7.93   0
   7  -4  32  271.38    9.67   0
   8  -3  35    2.68    7.70   0
   3  -4  10 1096.17   15.90   0
   3  -2  26  528.92   11.31   0
   5  -6   5   -0.51    5.60   0
   5  -5  19   -5.61    6.12   0
   6  -6  15   -1.68    6.33   0
   8  -6  23    8.11    7.45   0
   8  -4  33    5.13    7.21   0
   9  -6  24  150.75    8.63   0
   9  -5  29   -2.78    7.81   0
   5  -4  27    0.93    5.75   0
   5  -3  32  642.74   12.12   0
   6  -4  31   10.22    6.93   0
   9  -7  16  137.30    8.19   0
   2   2  27    0.31    4.77   0
   3  -3  21    0.31    5.56   0
   3   1  32  829.47   14.49   0
   4  -3  28  691.93   12.67   0
   7  -1  38   33.91    7.97   0
   7   0  37    0.49    6.88   0
   8  -2  37    3.03    7.56   0
   2  -1  24 1869.22   19.38   0
   2   1  28 1284.19   17.42   0
   7  -6  22  149.14    8.88   0
   7  -3  37    7.49    8.22   0
   8  -7  15    0.32    6.53   0
   2  -2  19   -2.55    4.52   0
   5   0  38  178.42    9.32   0
   6  -3  36  274.02   10.52   0
   8  -5  31   -0.29    7.19   0
   3  -1  31   -3.46    5.17   0
   4  -5  12 1106.41   15.76   0
   4  -4  23   -2.07    5.94   0
   4  -2  33    3.00    5.67   0
   5  -6   8  749.80   13.74   0
   5   1  37   -0.59    6.68   0
   6  -6  18  249.40    9.12   0
   7  -5  30  164.69    8.37   0
   7  -4  35    2.97    8.09   0
   7  -2  39    3.23    8.05   0
   8  -6  26  171.91    9.40   0
   3  -4  13   -0.73    4.98   0
   3   0  33   -0.25    5.05   0
   4   1  36  294.41   10.19   0
   5  -5  22  226.11    8.91   0
   5  -2  37    5.47    6.83   0
   6   0  39   -1.74    7.64   0
   8  -4  36  104.15    8.79   0
   8  -3  38   36.43    8.06   0
   9  -7  19    5.28    7.10   0
   9  -6  27    2.98    7.61   0
   4   0  37    4.88    6.66   0
   5  -4  30  174.47    8.77   0
   6  -1  40  181.96    9.58   0
   3  -2  29    3.04    5.70   0
   5  -3  35   -1.51    6.77   0
   5  -1  39    3.05    6.00   0
   6  -4  34  144.04    9.16   0
   7  -6  25    9.43    7.44   0
   8  -7  18  179.79    9.46   0
   5  -6  11    0.99    5.42   0
   6  -5  29    4.98    6.67   0
   7  -7  14  118.46    8.57   0
   2   0  29   -4.22    5.34   0
   3  -3  24 1567.67   17.13   0
   4  -5  15    0.75    5.45   0
   4  -3  31    8.25    5.67   0
   6  -6  21    2.77    6.64   0
   7  -1  41    4.57    7.38   0
   8  -5  34  115.33    9.05   0
   9  -7  22   46.23    8.22   0
   6  -3  39   -6.89    8.04   0
   7  -5  33    9.81    7.78   0
   7  -3  40  129.35    8.72   0
   8  -6  29   -1.61    7.31   0
   2  -2  22 1944.07   19.63   0
   2  -1  27    1.00    5.56   0
   3  -4  16 1981.36   20.18   0
   3   1  35    1.42    5.90   0
   4  -4  26  691.73   12.69   0
   4  -2  36  340.03   10.52   0
   4  -1  38  146.87    8.22   0
   7  -2  42  113.56    9.41   0
   8  -7  21   -5.40    7.33   0
   5   0  41    4.20    7.55   0
   8  -4  39   -3.79    7.59   0
   2   1  31    3.45    5.56   0
   2   2  30  184.39    8.37   0
   5  -6  14  372.65   10.26   0
   5  -4  33    2.20    6.65   0
   5  -2  40  378.96   11.20   0
   6   0  42  123.23    9.78   0
   7  -7  17    5.91    6.65   0
   7  -6  28  145.61    8.72   0
   3   0  36  760.04   13.06   0
   6  -5  32  363.61   10.75   0
   6  -4  37   -2.83    6.50   0
   6  -1  43   -3.58    7.66   0
   1   1  24 1777.24   20.88   0
   3  -2  32 1165.87   15.62   0
   4  -5  18  717.95   12.99   0
   4   0  40  388.72   11.09   0
   4   1  39   -2.40    6.41   0
   5  -3  38   90.15    7.44   0
   5  -1  42  153.47    9.39   0
   6  -6  24  553.50   11.71   0
   8  -5  37    1.86    7.49   0
   3  -3  27    0.94    5.13   0
   4  -3  34  494.03   10.86   0
   7  -5  36  159.60    9.19   0
   8  -7  24  194.30    9.44   0
   8  -6  32  149.35    9.23   0
   4  -4  29   -7.71    6.42   0
   5  -6  17    4.72    5.81   0
   7  -7  20  140.14    8.61   0
   7  -3  43   -0.95    7.93   0
   7  -1  44   88.18    8.19   0
   2   0  32  606.72   12.15   0
   6  -3  42  134.87    8.34   0
   6  -2  44  203.73    9.80   0
   7  -4  41   -6.89    7.57   0
   2  -2  25    1.89    4.88   0
   2  -1  30  592.68   11.79   0
   4  -2  39    2.61    6.65   0
   4  -1  41   -7.13    7.02   0
   7  -6  31   -2.34    6.89   0
   7  -2  45   -9.51    7.34   0
   2  -3  17    1.98    4.48   0
   3   1  38  161.86    9.04   0
   4  -5  21    6.15    5.90   0
   5  -4  36  446.94   10.81   0
   6  -6  27    1.70    7.20   0
   6  -5  35    4.09    7.25   0
   6  -4  40  215.72   10.17   0
   5   0  44  160.70    9.28   0
   8  -7  27    2.18    6.84   0
   8  -5  40  112.55    9.16   0
   1  -1  20 1593.08   18.67   0
   3  -3  30  547.21   11.38   0
   3  -2  35   -4.61    6.36   0
   5  -6  20  464.18   11.21   0
   5  -3  41   -5.53    6.45   0
   6  -1  46   60.72    8.63   0
   7  -7  23   -1.77    6.62   0
   7  -5  39   -3.29    7.44   0
   1   2  26  505.99   12.52   0
   2   1  34  584.15   12.39   0
   3   0  39   -4.13    5.54   0
   4  -3  37    1.54    6.09   0
   5  -1  45   -2.27    7.21   0
   4  -4  32  462.04   10.50   0
   4   0  43    6.84    7.23   0
   4   1  42  139.32    8.88   0
   7  -6  34  125.92    8.94   0
   1   1  27    0.46    4.68   0
   2  -3  20 1465.68   17.22   0
   4  -5  24  630.85   12.12   0
   6  -6  30  120.47    8.53   0
   6  -3  45    5.37    8.04   0
   7  -4  44  109.49    9.13   0
   2  -2  28 1110.62   14.69   0
   5  -4  39    0.15    6.97   0
   6  -5  38  125.78    9.07   0
   6  -2  47   -3.34    7.41   0
   8  -7  30   27.65    7.83   0
   2  -1  33    2.35    5.80   0
   2   0  35    0.16    5.74   0
   4  -1  44  252.20    9.98   0
   5  -6  23    2.67    5.45   0
   6  -4  43    1.10    7.68   0
   7  -7  26  176.44    9.43   0
   3  -5   5    3.81    4.85   0
   3  -4  25    3.56    5.54   0
   5  -5  34  242.52    9.71   0
   6  -7  19    8.40    6.31   0
   1  -1  23    3.98    5.22   0
   3  -3  33   -1.37    5.55   0
   4  -3  40  427.20   11.26   0
   5  -3  44  196.40    8.83   0
   7  -5  42   78.06    8.06   0
   3  -5   8 2077.62   22.73   0
   3  -2  38  301.94    9.16   0
   3   1  41   -1.86    6.06   0
   4  -5  27    3.51    6.16   0
   4  -4  35   -4.04    5.98   0
   5   0  47    2.15    6.99   0
   2  -3  23   -0.73    4.79   0
   3   0  42  290.37   10.08   0
   5  -6  26  218.77    9.14   0
   5  -1  48  177.72    9.35   0
   6  -6  33    1.57    5.93   0
   6  -1  49   -8.40    7.76   0
   7  -7  29   -1.02    7.38   0
   8  -7  33  -10.59    7.30   0
   1  -2  15    2.05    4.15   0
   2  -2  31    0.83    5.85   0
   2   1  37    4.98    5.86   0
   3  -5  11    1.94    4.96   0
   4  -6  10  311.75   10.10   0
   4   0  46  125.21    8.86   0
   6  -7  22  136.23    8.23   0
   6  -3  48  114.47    8.80   0
   7  -4  47    3.21    6.91   0
   5  -4  42  199.93    8.70   0
   6  -5  41    2.38    6.77   0
   1   1  30  579.42   12.16   0
   1   2  29    0.67    4.74   0
   2  -1  36  855.11   13.70   0
   3  -4  28  653.21   11.82   0
   4  -2  45    0.04    6.15   0
   5  -5  37   -8.68    7.20   0
   6  -4  46   74.80    7.84   0
   6  -2  50   98.81    9.03   0
   2   0  38  243.08    8.95   0
   3  -3  36  503.33   10.89   0
   4  -6  13    1.38    5.60   0
   4  -1  47   -0.15    7.53   0
   7  -5  45   -2.78    7.47   0
   1  -2  18 1210.65   16.37   0
   1  -1  26 1206.31   15.54   0
   2  -3  26  523.34   11.02   0
   3  -2  41    2.91    6.87   0
   3  -1  43   -8.77    5.69   0
   4  -4  38  128.12    7.65   0
   4  -3  43    3.21    7.20   0
   5  -6  29   -3.60    6.57   0
   5  -3  47   12.04    6.49   0
   5  -2  49   -4.98    7.09   0
   6  -7  25   -3.84    6.65   0
   6  -6  36  121.67    8.75   0
   7  -7  32  234.01    9.53   0
   2  -4   9    0.30    4.55   0
   2  -2  34  272.39    9.27   0
   3  -5  17    0.10    5.40   0
   4  -6  16  694.44   13.18   0
   2  -4  12  748.16   13.56   0
   3  -4  31    4.70    5.55   0
   3   0  45   -6.90    6.55   0
   3   1  44  257.63    9.73   0
   5  -4  45   -2.78    7.95   0
   5  -1  51   -2.70    7.45   0
   5   0  50   60.18    8.20   0
   5  -5  40  169.16    8.61   0
   6  -7  28  129.08    8.54   0
   6  -4  49    5.39    7.78   0
   1  -2  21    5.51    4.64   0
   2  -3  29    3.47    5.86   0
   2   1  40  418.88   11.12   0
   3  -3  39   -8.97    6.91   0
   4  -6  19    1.48    5.62   0
   4   0  49    1.41    6.69   0
   5  -6  32  353.03   10.58   0
   6  -2  53    4.46    7.70   0
   7  -7  35   -1.45    6.82   0
   1  -1  29   -3.38    4.67   0
   1   1  33    2.53    5.14   0
   2  -4  15    0.98    4.84   0
   3  -5  20  574.93   11.92   0
   4  -4  41    7.35    6.23   0
   1   2  32 1114.39   17.34   0
   2   0  41    0.54    5.28   0
   3  -2  44  304.84    9.97   0
   4  -3  46   73.48    7.27   0
   4  -1  50  155.12    9.05   0
   5  -3  50  138.24    8.50   0
   5  -2  52   97.38    8.71   0
   2  -2  37   -5.16    6.35   0
   4  -6  22  339.42   10.14   0
   2  -4  18 1054.06   15.18   0
   3  -5  23    1.01    5.81   0
   5  -4  48  110.74    8.77   0
   6  -7  31    0.97    7.16   0
   6  -5  47    6.44    7.69   0
   1  -2  24 1813.56   18.63   0
   1   0  34  908.31   14.17   0
   5  -6  35   -4.42    6.01   0
   7  -7  38   29.09    7.04   0
   2  -3  32 1126.58   14.88   0
   3  -3  42  219.59    9.45   0
   4  -4  44  356.90   11.21   0
   5  -1  54   47.19    8.15   0
   6  -4  52  101.08    8.48   0
   1  -1  32 1752.06   18.15   0
   2  -4  21    2.21    5.40   0
   4  -6  25    5.03    6.29   0
   5  -7  21    1.31    5.95   0
   1   1  36  852.46   14.37   0
   2   1  43   -1.27    5.79   0
   3  -5  26  594.69   11.94   0
   3  -4  37   -1.59    6.83   0
   4  -3  49   -8.01    7.53   0
   4   0  52  133.06    9.04   0
   5  -3  53   -0.14    7.66   0
   6  -7  34  148.91    8.81   0
   1  -2  27   -1.36    4.81   0
   2  -2  40  786.34   13.49   0
   2   0  44  614.93   12.86   0
   3  -2  47    8.70    6.14   0
   3  -1  49   -3.46    7.49   0
   5  -6  38  115.60    8.82   0
   4  -6  28  400.38   10.71   0
   4  -5  39    6.86    6.10   0
   4  -1  53    1.83    7.42   0
   5  -7  24  384.65   10.99   0
   5  -5  46   70.34    8.10   0
   5  -2  55  -11.37    7.97   0
   6  -5  50   54.99    8.13   0
   1   0  37    5.50    5.63   0
   1   2  35   -1.07    5.09   0
   2  -3  35   -2.48    5.54   0
   5  -4  51    6.15    7.07   0
   0   0  21    0.81    4.71   0
   3  -5  29   -2.03    5.23   0
   3  -3  45    2.34    6.18   0
   4  -4  47    2.97    7.57   0
   1  -1  35   -4.40    5.04   0
   3  -4  40  410.20   10.92   0
   5  -7  27    5.64    6.42   0
   6  -7  37    0.25    7.16   0
   1  -2  30  584.63   11.21   0
   3   0  51    0.25    6.73   0
   4  -6  31   -4.35    6.31   0
   4  -2  54   26.71    7.70   0
   5  -6  41   -2.94    7.43   0
   2  -2  43   -5.16    6.46   0
   4  -5  42  181.20    8.35   0
   4  -3  52  174.80    8.82   0
   5  -1  57   -2.50    7.37   0
   0   0  24 4688.68   31.36   0
   0   1  26 1117.12   16.54   0
   1   1  39    2.13    5.56   0
   2  -3  38  295.37    9.21   0
   2   0  47   -2.33    6.62   0
   2   1  46  123.09    7.98   0
   3  -5  32  657.47   12.20   0
   5  -7  30  171.74    8.88   0
   5  -5  49    5.42    7.42   0
   1  -3  19    1.86    4.42   0
   3  -1  52  227.70    9.18   0
   4  -1  56  102.86    9.03   0
   5  -4  54   44.98    8.09   0
   5  -2  58   90.40    7.98   0
   6  -7  40  175.85    9.27   0
   1  -2  33   -3.37    5.18   0
   1  -1  38  260.87    9.05   0
   1   0  40  730.24   12.68   0
   2  -4  30  179.41    7.67   0
   3  -4  43   -5.61    6.96   0
   3  -3  48  294.03    9.66   0
   4  -6  34  153.45    8.60   0
   4  -4  50  141.84    9.17   0
   1  -3  22  457.28   10.10   0
   2  -1  48  290.19    9.97   0
   4  -5  45    4.40    7.70   0
   5  -7  33    4.87    6.52   0
   0  -1  19    4.05    5.18   0
   0   1  29   -0.86    4.67   0
   2  -4  33    0.08    5.94   0
   2  -3  41    5.94    5.88   0
   2  -2  46  249.80    9.78   0
   4  -3  55    1.82    7.30   0
   4  -2  57   -2.46    7.60   0
   1  -3  25    2.57    4.93   0
   3   0  54   61.16    8.08   0
   4  -6  37    7.65    6.97   0
   5  -5  52  147.87    8.94   0
   6  -7  43    6.82    7.26   0
   1  -2  36  853.54   13.27   0
   1  -1  41    3.62    6.29   0
   1   1  42  309.78    9.75   0
   2   0  50  173.94    8.95   0
   0   2  28 1048.18   17.25   0
   1  -3  28 1286.67   16.02   0
   1   0  43    2.86    6.19   0
   2   1  49    3.10    6.43   0
   3  -3  51   -2.05    6.55   0
   3  -1  55   -3.43    7.72   0
   4  -4  53   -7.58    7.42   0
   5  -7  36  141.20    8.40   0
   5  -4  57    1.64    6.70   0
   2  -4  36  359.66   10.06   0
   3  -6  15    1.80    5.54   0
   3  -6  18  401.14   10.71   0
   4  -5  48  121.15    8.76   0
   4  -1  59    0.45    7.64   0
   0  -1  25    2.01    4.62   0
   0   1  32 1720.11   19.55   0
   2  -3  44  300.26    9.48   0
   3  -6  21    1.77    5.77   0
   4  -6  40  221.24    9.62   0
   1  -2  39    3.22    6.44   0
   2  -2  49   -0.73    6.07   0
   2  -1  51    1.85    6.00   0
   1  -3  31   -9.89    5.22   0
   2  -5  16 1731.03   20.09   0
   3  -6  24  563.91   12.13   0
   4  -3  58   90.02    8.77   0
   4  -2  60   89.10    8.69   0
   5  -7  39    2.78    6.63   0
   5  -5  55    8.39    7.78   0
   1   1  45    4.81    5.99   0
   2  -5  13    0.82    5.13   0
   2  -5  19   -0.29    5.48   0
   2  -4  39    0.91    6.54   0
   3  -4  49   10.25    6.46   0
   0   2  31   -2.84    4.70   0
   1   0  46  112.10    7.96   0
   2  -5  22  281.87    9.39   0
   2   0  53   -6.51    7.19   0
   3  -6  27    4.39    6.18   0
   3  -3  54   80.41    8.19   0
   3   0  57    2.38    7.30   0
   4  -5  51    5.56    7.31   0
   4  -4  56   57.99    8.37   0
   0   1  35    2.95    5.33   0
   1  -3  34  560.39   11.09   0
   2  -5  10  670.56   13.67   0
   2  -5  25    0.52    5.87   0
   2  -3  47    4.86    6.27   0
   3  -1  58   89.52    8.43   0
   4  -7  26  127.42    7.85   0
   4  -6  43    7.69    6.75   0
   0  -1  31    4.80    5.69   0
   1  -2  42  296.43    9.35   0
   3  -6  30  175.01    8.66   0
   3  -5  44  213.24    9.57   0
   5  -7  42   67.03    7.64   0
   2  -5  28  383.37   10.43   0
   2  -4  42  373.22   10.59   0
   2  -2  52  164.08    8.35   0
   2  -1  54   93.64    8.26   0
   4  -7  29   -2.26    6.65   0
   1  -3  37    7.02    6.58   0
   3  -4  52  173.85    9.44   0
   0   2  34  257.58    9.55   0
   2  -5   7    3.74    4.63   0
   3  -6  33    2.07    6.51   0
   3  -2  59   -2.46    7.31   0
   4  -6  46   86.66    8.13   0
   0  -2  17   -2.82    4.41   0
   0  -2  20 3524.58   26.31   0
   0  -1  34  910.03   13.59   0
   0   1  38  257.08    9.07   0
   1  -2  45    2.32    7.02   0
   1   0  49    1.72    6.32   0
   1   1  48  300.73   10.02   0
   2  -5  31    1.34    5.40   0
   2  -3  50  151.59    8.32   0
   3  -3  57   -0.26    7.12   0
   4  -7  32  246.94    9.88   0
   4  -5  54   43.82    8.38   0
   4  -4  59    6.12    7.44   0
   5  -7  45   -3.91    7.42   0
   0  -2  14  345.71   10.06   0
   0  -2  23    0.32    4.74   0
   2   0  56   83.94    8.46   0
   3  -5  47    1.47    7.63   0
   0  -2  26 1288.63   15.80   0
   0   0  39    4.46    5.07   0
   1  -4  17    1.63    5.00   0
   1  -4  20  899.14   13.81   0
   1  -4  23    4.21    5.73   0
   1  -3  40  447.78   11.02   0
   2  -5  34  381.60   10.74   0
   2  -4  45   -2.31    6.30   0
   3  -6  36  283.45   10.02   0
   3  -1  61    3.66    7.07   0
   4  -7  35   -1.54    7.02   0
   0  -1  37    1.87    6.10   0
   1  -4  14  663.77   12.96   0
   2  -1  57   -3.99    7.49   0
   3  -4  55    0.65    7.95   0
   0  -2  29    2.00    4.96   0
   1  -1  50  243.46    8.99   0
   0   1  41   -4.02    5.76   0
   0   2  37   -2.96    5.35   0
   1  -2  48  298.68   10.17   0
   2  -3  53   -2.45    8.02   0
   3  -6  39    4.01    7.15   0
   3  -5  50  156.46    9.32   0
   0  -2  32  636.13   12.16   0
   0   0  42  721.01   13.16   0
   1  -4  11    8.96    5.18   0
   1  -3  43    2.90    7.16   0
   1   0  52  287.19   10.07   0
   2  -4  48  262.78   10.60   0
   3  -3  60   82.93    8.84   0
   3  -2  62   30.92    8.16   0
   4  -7  38  102.73    8.61   0
   0  -1  40  702.83   12.36   0
   1   1  51    2.21    6.57   0
   0  -2  35   -0.82    5.44   0
   1  -4  35    0.63    6.72   0
   1  -1  53   -5.98    7.22   0
   2   0  59   -1.31    7.33   0
   3  -6  42  133.52    8.60   0
   3  -4  58   96.23    8.50   0
   4  -7  41   -3.51    6.87   0
   0   1  44  401.65   10.82   0
   0   2  40  726.47   13.96   0
   1  -3  46  131.80    8.67   0
   1  -2  51   -2.24    7.66   0
   2  -4  51   -3.33    8.10   0
   2  -3  56  169.56    9.50   0
   2  -1  60  137.21    8.89   0
   3  -5  53   -7.49    7.27   0
   0  -1  43   -5.09    5.69   0
   0   0  45   -2.14    6.40   0
   0  -2  38  229.37    8.44   0
   1  -4  38  157.88    8.75   0
   1   0  55    5.75    7.18   0
   3  -6  45   -1.18    7.19   0
   4  -7  44  100.67    8.66   0
   1   1  54   89.17    8.43   0
   1  -3  49   -1.86    7.56   0
   2  -2  61    4.85    7.75   0
   0  -3  24 1044.68   15.02   0
   0  -2  41    2.07    6.02   0
   1  -4  41   -1.56    7.17   0
   1  -2  54   97.17    8.99   0
   1  -1  56  183.15    8.69   0
   2  -5  46   55.40    8.02   0
   2  -4  54   36.36    7.91   0
   3  -5  56   84.12    8.40   0
   3  -4  61   -4.74    6.79   0
   0  -3  27    1.06    5.13   0
   0   0  48  404.16   10.50   0
   0   1  47   -1.12    6.28   0
   2  -3  59    0.32    7.17   0
   2   0  62   43.84    7.32   0
   3  -6  48  121.92    8.64   0
   4  -7  47   -3.42    7.43   0
  -1   0  26 1187.40   16.12   0
  -1   1  22  445.35   11.26   0
  -1   1  25    1.26    4.68   0
   0  -3  30  293.02    8.95   0
   2  -6  23    3.14    6.68   0
   2  -6  26  361.96   10.58   0
   2  -1  63   -2.05    7.65   0
  -1   0  23   -1.29    4.46   0
  -1   0  29   -4.98    5.17   0
  -1   1  28 1272.63   16.86   0
   0  -3  33   -0.29    5.54   0
   0  -2  44  676.37   13.18   0
   1  -4  44  249.11   10.07   0
   1  -3  52  256.74   10.51   0
   2  -6  20  593.49   12.77   0
   2  -6  29   -2.30    6.44   0
  -1   0  20 1510.72   18.51   0
  -1   1  31    1.83    5.40   0
   0  -3  15    2.80    5.09   0
   2  -6  32  319.17   10.59   0
   2  -5  49   -3.09    7.42   0
   3  -7  31   -2.78    6.83   0
  -1   0  32 1697.36   18.33   0
   0  -3  36  776.90   13.09   0
   0   0  51   -1.70    6.95   0
   1  -1  59    2.51    7.77   0
   2  -6  17    1.41    5.40   0
   2  -4  57    3.99    7.58   0
   3  -7  34  152.96    8.91   0
   3  -6  51   -6.54    7.34   0
  -1   1  34  933.92   14.85   0
   0   1  50  257.36    9.69   0
   1  -4  47    4.02    7.84   0
   2  -6  35   -4.64    7.22   0
   2  -3  62   49.58    8.03   0
   2  -2  64   92.19    8.04   0
   0  -3  39   -6.03    7.06   0
   0  -2  47   -3.58    6.26   0
   1  -5  24  863.05   14.51   0
   1  -5  27    0.83    6.36   0
   3  -7  37    0.90    7.27   0
  -1  -1  24 1923.97   19.51   0
  -1  -1  27   -5.95    5.07   0
  -1  -1  30  612.26   12.11   0
   1  -5  21    4.12    5.73   0
   1  -5  30  289.98    9.18   0
   1  -3  55   -3.38    8.25   0
   2  -6  38   85.39    8.44   0
  -1  -1  21    2.85    5.74   0
  -1   1  37   -4.55    4.82   0
   0  -3  12 2498.74   24.06   0
   1  -5  33    6.80    5.70   0
  -1  -1  33    7.87    5.38   0
  -1   2  27    2.54    4.65   0
   0  -3  42  276.67    9.59   0
   0  -2  50  191.11    9.64   0
   0   0  54   42.12    7.81   0
   1  -5  18  356.85   10.39   0
   1  -4  50  151.41    9.35   0
   1   0  61    2.78    7.30   0
   2  -6  41   -6.78    7.60   0
   2  -4  60   78.91    8.68   0
   3  -7  40  142.07    8.99   0
  -1  -1  36  894.74   14.38   0
  -1   2  30  565.84   12.76   0
   0   1  53    2.21    6.66   0
   1  -1  62   36.18    8.17   0
  -1  -1  18 1209.07   16.34   0
  -1   1  40  696.36   12.63   0
  -1   2  33    0.01    5.03   0
   0  -3  45    4.62    7.47   0
   1  -5  39   12.52    7.18   0
   2  -5  55    4.70    7.33   0
   3  -7  43    7.86    7.58   0
  -1  -1  39    0.31    6.41   0
   0  -1  55    4.87    7.54   0
   1  -5  15    1.27    5.53   0
   1  -3  58   89.24    8.33   0
   2  -6  44  204.71    9.53   0
  -1   2  36  836.87   15.17   0
   0  -2  53   -2.45    8.13   0
   1  -4  53   -1.88    8.17   0
  -1   0  44  394.29   10.34   0
  -1   1  43    2.21    6.21   0
   0  -4  28  586.06   12.29   0
   3  -7  46   54.48    7.46   0
  -1  -1  15   -1.25    4.66   0
  -1  -1  42  319.07    9.56   0
   0  -4  25   -6.68    6.17   0
   0  -3  48  168.54    8.67   0
   0   0  57    8.97    7.67   0
   1  -2  63    1.20    7.98   0
   1   0  64   64.87    8.82   0
   2  -6  47   -3.47    7.22   0
  -1  -2  25    5.47    5.15   0
  -1  -2  31   -4.42    5.57   0
  -1  -2  34  581.92   12.04   0
  -1   2  39    0.75    5.36   0
   0  -4  22  652.90   12.78   0
   0   1  56  182.44    9.09   0
   1  -3  61   10.17    7.81   0
   1  -1  65   -0.62    7.85   0
   2  -5  58   84.99    8.89   0
  -1  -2  22  474.33   10.97   0
  -1  -1  45   -6.54    7.14   0
  -1   0  47   -3.06    6.60   0
  -1   1  46  105.73    7.91   0
   0  -4  37   -2.51    6.22   0
   0  -1  58  135.29    9.18   0
   1  -4  56  112.41    9.07   0
  -1  -2  37    0.67    6.06   0
   0  -4  19   -2.65    5.67   0
   0  -4  40  367.98   11.22   0
   0  -3  51    6.40    8.15   0
   0  -2  56  104.48    7.91   0
   2  -6  50   78.53    8.38   0
  -1  -2  40  459.81   11.40   0
  -1   2  42  310.15   10.52   0
  -1  -2  19   -0.15    4.95   0
  -1  -1  48  316.19   10.85   0
   0  -4  43    1.29    7.65   0
   0   0  60  141.66    8.97   0
  -1  -2  43    0.20    6.94   0
  -1   0  50  233.09    9.18   0
  -1   1  49    2.88    6.55   0
   1  -4  59   -0.94    7.89   0
   0  -4  16 1473.79   18.61   0
   0  -3  54   63.01    8.05   0
   0  -2  59    7.70    7.55   0
   0  -1  61    1.25    7.53   0
   1  -3  64   48.01    7.49   0
   2  -6  53    7.31    7.89   0
  -1   2  45    4.39    6.18   0
   0  -4  46  134.07    8.28   0
  -1  -2  16 2008.62   20.75   0
  -1  -2  46  120.39    8.01   0
  -1   0  53    3.11    6.66   0
   2  -4  21   -3.50    5.99   0
   3  -7   7   -0.61    6.43   0
   5  -8  19   -2.98    7.35   0
   6  -7  31  -10.12    8.17   0
   3   0  27    0.04    5.35   0
   4  -7  20  395.00   10.26   0
   5  -7  27    0.64    6.29   0
   5  -6  32  337.74   10.17   0
   7  -9  22   43.95    7.34   0
   7  -6  37    0.66    7.52   0
   1  -4   8 2652.47   24.82   0
   2  -5  16 1764.63   19.14   0
   2   0  23   -2.76    4.70   0
   4  -8   9   -1.30    6.81   0
   6  -6  36  127.65    9.50   0
   7  -8  30   35.32    7.99   0
   7  -5  39   -6.71    7.70   0
   1  -2  18 1258.76   16.83   0
   3  -5  26  567.11   11.45   0
   4  -6  28  405.96   11.10   0
   7  -7  35   11.97    7.56   0
   2  -6   5   -1.42    5.48   0
   3  -7  10  363.78   10.93   0
   3  -2  32 1129.83   16.00   0
   4  -4  35    9.41    6.81   0
   5  -3  38   78.73    7.41   0
   5  -2  37    0.12    6.76   0
   6  -9  18  172.28    8.83   0
   6  -3  39   -3.69    7.54   0
   1  -3  16 2074.54   20.84   0
   2  -3  26  547.60   10.99   0
   3  -6  21   -0.64    5.48   0
   3  -1  31    4.00    5.71   0
   4  -5  33   -0.02    7.46   0
   5  -8  22  111.47    8.78   0
   5  -5  37   -3.01    7.56   0
   6  -4  40  234.09   10.13   0
   3  -4  31    6.61    6.39   0
   4  -8  12  233.14    9.87   0
   4  -7  23   12.35    7.05   0
   4  -2  36  361.73   10.85   0
   6  -7  34  155.09    9.36   0
   1  -4  11   13.55    5.12   0
   2  -4  24 1784.45   18.68   0
   2  -1  27   -1.78    5.23   0
   3  -3  33    7.26    6.15   0
   4  -3  37    9.14    6.76   0
   5  -7  30  148.77    8.09   0
   5  -6  35    4.34    7.62   0
   7  -4  41   -8.68    7.95   0
   2  -6   8  803.35   14.17   0
   2  -5  19    1.04    6.03   0
   2  -2  28 1115.78   15.13   0
   6  -9  21   -2.83    7.25   0
   7  -8  33   -5.85    7.40   0
   1  -1  20 1523.06   18.61   0
   3  -7  13   -0.13    6.27   0
   3  -5  29    1.11    6.59   0
   4  -6  31   -3.94    6.91   0
   6  -6  39    5.89    8.06   0
   4  -8  15    1.40    7.28   0
   4  -1  35    3.16    5.95   0
   7  -7  38   33.08    7.44   0
   7  -5  42   73.37    8.47   0
   1  -2  21   12.56    5.61   0
   4  -7  26  118.31    8.85   0
   5  -8  25    2.21    7.01   0
   1  -3  19    0.08    4.67   0
   2  -6  11    0.13    5.55   0
   4  -4  38  109.09    7.64   0
   5  -3  41    3.05    7.55   0
   1  -4  14  648.67   12.50   0
   2  -3  29    3.57    5.38   0
   3  -7  16  399.64   10.71   0
   3  -4  34  504.57   11.68   0
   3  -2  35    2.46    6.15   0
   5  -7  33   -0.25    6.41   0
   5  -5  40  171.97    8.71   0
   6  -9  24  138.35    8.39   0
   6  -7  37    1.33    7.20   0
   6  -4  43    0.92    7.96   0
   6  -3  42  143.22    9.29   0
   2  -4  27    3.18    5.33   0
   2   0  26 1206.63   17.57   0
   3   0  30  291.88   10.03   0
   5  -6  38  115.89    9.36   0
   5  -2  40  392.31   11.70   0
   3  -3  36  512.82   11.88   0
   3  -1  34  581.06   12.43   0
   4  -8  18  179.53    9.10   0
   4  -6  34  164.63    9.56   0
   4  -2  39   -3.99    6.87   0
   5  -4  42  197.83    8.72   0
   2  -6  14  256.74    9.16   0
   2  -2  31    1.24    5.14   0
   3  -5  32  647.54   12.37   0
   4  -3  40  425.08   10.80   0
   5  -9  17    0.20    6.37   0
   5  -8  28  154.34    9.06   0
   6  -6  42  105.29    9.21   0
   7  -4  44  100.28    8.58   0
   1  -5   3    4.34    5.21   0
   2  -1  30  551.54   11.35   0
   3  -7  19   -3.39    6.45   0
   6  -5  44  144.31    9.18   0
   1  -3  22  472.07   10.83   0
   1  -1  23   -1.00    4.36   0
   6  -9  27    2.15    6.63   0
   7  -5  45   -2.52    7.28   0
   1  -2  24 1893.83   19.26   0
   4  -8  21    6.01    6.59   0
   4  -5  39    5.58    6.66   0
   4  -4  41   -3.54    6.86   0
   5  -7  36  130.98    8.57   0
   6  -8  35    4.22    7.75   0
   6  -7  40  192.07    9.59   0
   2  -6  17    4.32    5.65   0
   2  -4  30  177.65    8.41   0
   2  -3  32 1177.76   15.34   0
   3  -4  37   -8.16    7.23   0
   4  -1  38  157.21    8.44   0
   5  -9  20   94.99    7.74   0
   5  -5  43   -2.69    8.00   0
   3  -2  38  314.69   10.16   0
   5  -8  31   -1.35    7.17   0
   5  -6  41    6.90    7.38   0
   5  -3  44  200.73    9.69   0
   1  -5   9    1.36    5.67   0
   3  -7  22  164.10    8.68   0
   3  -5  35    1.84    7.28   0
   4  -6  37    3.01    6.50   0
   6  -4  46   71.88    8.85   0
   6  -3  45    3.86    7.12   0
   3  -3  39    6.09    5.87   0
   4  -8  24  295.65   10.50   0
   5  -4  45   -5.98    6.45   0
   5  -2  43   -7.05    7.12   0
   6  -6  45   -3.78    8.10   0
   2  -6  20  621.46   12.55   0
   2  -2  34  274.53    8.79   0
   2   0  29   -0.15    4.94   0
   4  -3  43   -5.73    7.21   0
   4  -2  42  367.13   11.14   0
   5  -9  23    1.31    7.20   0
   1  -3  25    2.51    5.02   0
   2  -5  28  372.82    9.86   0
   2  -1  33    2.93    5.55   0
   3  -1  37    4.55    5.91   0
   3   0  33   -2.27    5.38   0
   5  -7  39    4.52    7.11   0
   6  -8  38   37.38    6.99   0
   6  -7  43    3.07    7.81   0
   6  -5  47   -2.67    7.59   0
   7  -4  47    3.60    7.44   0
   1  -5  12  913.82   14.72   0
   1  -2  27    6.54    4.93   0
   1  -1  26 1167.29   15.72   0
   2  -4  33   -8.41    6.71   0
   3  -7  25    2.34    7.18   0
   4  -5  42  196.56    8.93   0
   5  -8  34  113.34    8.50   0
   2  -3  35    5.73    5.66   0
   3  -6  33    1.71    7.28   0
   3  -4  40  413.27   11.23   0
   5  -5  46   56.35    8.29   0
   1  -4  23    9.11    5.60   0
   3  -5  38   85.77    8.14   0
   4  -8  27   -4.44    6.77   0
   4  -6  40  223.86   10.37   0
   1  -5  15    0.06    5.86   0
   2  -6  23    2.67    5.47   0
   5  -9  26  121.61    8.49   0
   5  -3  47   -6.41    7.61   0
   1  -3  28 1335.01   16.53   0
   2  -5  31    2.40    6.39   0
   3  -2  41   -4.64    5.68   0
   4  -1  41   -3.51    6.05   0
   5  -4  48  118.78    9.21   0
   6  -4  49    2.74    7.33   0
   0  -2  14  334.24    9.55   0
   5  -7  42   78.00    8.81   0
   0  -3   9    0.74    4.77   0
   1  -2  30  615.61   12.05   0
   4  -5  45   -4.41    7.70   0
   4  -3  46   76.90    8.27   0
   1  -5  18  352.62    9.50   0
   1  -4  26  601.22   12.01   0
   1   0  25    1.55    4.86   0
   2  -6  26  341.74   10.21   0
   2  -3  38  311.76   10.24   0
   3  -6  36  264.94    9.34   0
   4  -8  30   80.08    8.45   0
   4  -7  38  115.48    8.90   0
   4  -2  45   -6.38    6.78   0
   5  -9  29    2.18    6.52   0
   6  -5  50   61.32    8.64   0
   2  -1  36  875.02   13.86   0
   2   0  32  637.31   13.09   0
   3  -5  41    5.52    7.54   0
   3  -4  43    0.46    7.13   0
   3  -1  40  434.70   11.38   0
   4  -6  43   13.24    7.55   0
   5  -6  47    1.18    7.54   0
   0  -3  12 2523.27   23.64   0
   0  -2  17   -1.05    4.45   0
   1  -5  21    0.68    5.77   0
   1  -3  31    6.28    6.29   0
   2  -5  34  410.59   10.41   0
   3  -7  31    0.18    6.39   0
   2  -7  15   -3.14    5.83   0
   3  -8  20  187.57    8.95   0
   4  -8  33   -1.10    7.16   0
   5  -7  45   -4.29    7.50   0
   1  -4  29   -2.99    6.32   0
   2  -6  29   -2.81    5.70   0
   3  -6  39   10.43    7.43   0
   3  -2  44  297.54    9.63   0
   5  -4  51    9.28    7.40   0
   5  -3  50  147.64    9.06   0
   6  -4  52   91.46    9.23   0
   0  -2  20 3538.46   26.48   0
   0  -1  19    0.37    5.13   0
   1  -2  33    5.65    5.19   0
   2  -4  39   -3.38    6.26   0
   4  -7  41   -7.86    7.40   0
   4  -5  48  129.00    9.08   0
   2  -3  41   -0.42    7.04   0
   3  -7  34  157.41    9.47   0
   4  -6  46   93.40    8.63   0
   4  -3  49    1.77    6.56   0
   1   0  28 1313.75   17.52   0
   2  -5  37    4.26    7.29   0
   2  -1  39   -1.64    6.15   0
   3  -8  23   -4.46    6.62   0
   3  -5  44  201.47    8.96   0
   3  -4  46   69.83    7.29   0
   4  -4  50  124.04    9.13   0
   5  -6  50   70.17    8.63   0
   1  -3  34  594.98   11.56   0
   2  -7  21    4.46    6.64   0
   2  -6  32  310.68    9.99   0
   3  -1  43   -0.59    6.21   0
   4  -8  36  108.49    8.34   0
   4  -2  48  266.92   10.51   0
   1  -4  32  845.18   13.93   0
   2   0  35    1.44    5.18   0
   0  -2  23    5.30    4.75   0
   0  -1  22  478.23   10.71   0
   1  -5  27    3.02    6.06   0
   3  -8  26  148.61    8.84   0
   3  -6  42  136.56    8.19   0
   0  -4   7   -0.93    5.27   0
   0  -3  21   -3.05    4.64   0
   1  -6  13    0.76    5.49   0
   2  -7  24  278.01    9.96   0
   2  -4  42  347.48   10.27   0
   3  -7  37    3.42    7.33   0
   3  -3  48  304.05    9.97   0
   3  -2  47    5.17    7.03   0
   4  -7  44  106.45    8.33   0
   0  -4  10  403.05   10.77   0
   2  -5  40  393.48   11.05   0
   2  -3  44  313.69   10.66   0
   2  -2  43    2.72    5.70   0
   4  -6  49    2.50    8.20   0
   4  -5  51    7.93    7.92   0
   5  -4  54   44.41    7.84   0
   5  -3  53   -3.37    8.35   0
   0  -4  13    1.15    5.03   0
   1  -3  37    0.22    6.41   0
   3  -5  47   -5.17    6.48   0
   3  -4  49   -5.55    8.03   0
   4  -8  39   -0.16    7.01   0
   4  -3  52  162.70    9.73   0
   0  -3  24 1057.18   14.96   0
   0  -2  26 1242.30   15.65   0
   1  -4  35   -2.91    5.96   0
   1   0  31   -1.86    4.97   0
   3  -8  29    0.82    6.80   0
   0  -4  16 1460.39   17.66   0
   0  -1  25   -0.38    4.66   0
   1  -6  19    2.48    5.91   0
   2  -7  27    4.63    6.87   0
   2  -1  42  297.12    9.97   0
   3  -6  45    3.07    7.62   0
   4  -4  53    6.46    7.44   0
   5  -5  55    0.88    7.14   0
   2  -4  45    3.48    7.48   0
   4  -7  47    1.20    7.84   0
   4  -2  51    1.65    7.41   0
   0  -4  19   -3.81    4.83   0
   1  -6  22  198.64    8.81   0
   1  -2  39   -2.69    5.67   0
   2   0  38  224.00    8.96   0
   3  -1  46  122.18    8.26   0
   0  -3  27    0.63    5.09   0
   0  -2  29   -9.36    5.96   0
   2  -7  30   68.81    8.17   0
   2  -5  43    1.83    6.58   0
   2  -2  46  228.21    9.67   0
   3  -8  32  165.47    8.70   0
   3  -3  51   -5.46    7.93   0
   0  -4  22  672.99   12.59   0
   0   0  21   -2.25    4.11   0
   1  -4  38  156.05    8.04   0
   1  -3  40  435.90   10.67   0
   1  -1  38  249.91    9.05   0
   2  -3  47   -8.23    6.39   0
   3  -5  50  155.57    9.71   0
   3  -2  50  150.50    8.91   0
   4  -6  52   87.40    8.63   0
   4  -5  54   36.20    7.65   0
   0  -1  28 1340.23   16.28   0
   1  -6  25   10.84    6.47   0
   3  -4  52  169.12    9.60   0
   5  -4  57   -1.43    7.10   0
   1   0  34  908.96   14.28   0
   3  -6  48  132.76    8.91   0
   4  -3  55    5.04    7.92   0
   0  -3  30  308.32    9.00   0
   2  -7  33    0.01    7.17   0
   2  -4  48  265.75   10.48   0
   2  -1  45   -2.18    6.44   0
   3  -8  35   -1.34    6.82   0
   4  -4  56   51.29    8.13   0
   0  -2  32  668.91   11.90   0
   1  -6  28  373.14   10.86   0
   1  -2  42  306.39    9.29   0
   2  -5  46   40.04    8.19   0
   0  -1  31   -4.63    5.74   0
   1  -4  41    6.68    6.21   0
   1  -3  43    1.37    6.91   0
   1  -1  41   -1.02    5.96   0
   2  -2  49    3.50    6.87   0
   2   0  41   -3.78    5.55   0
   3  -5  53   -0.48    7.63   0
   3  -3  54   83.07    8.40   0
   3  -1  49    5.48    6.67   0
   0  -3  33    0.73    5.49   0
   2  -7  36  207.30    9.41   0
   3  -8  38   45.90    7.37   0
   0  -5  14  602.70   13.00   0
   0  -2  35   -3.64    6.02   0
   1  -6  31    6.37    5.91   0
   1  -5  39   -6.61    7.20   0
   1   0  37   -5.64    5.78   0
   2  -6  44  185.92    9.49   0
   3  -6  51   -9.14    7.83   0
   3  -2  53    2.27    7.48   0
   0  -5  11    3.12    5.36   0
   0  -5  17    0.39    5.83   0
   1  -2  45   -8.54    7.06   0
   2  -4  51   -8.84    7.71   0
   0  -1  34  936.34   13.80   0
   1  -4  44  238.93    9.32   0
   2  -5  49   -1.09    7.01   0
   2  -1  48  304.18   10.42   0
   4  -4  59    4.21    7.85   0
   4  -3  58   85.93    9.10   0
   0  -3  36  786.99   13.07   0
   1  -6  34  201.95    9.31   0
   1  -3  46  129.42    7.99   0
   2  -7  39   -1.71    7.41   0
   0  -5  23   -1.07    6.35   0
   1  -5  42  144.95    9.36   0
   1  -1  44  419.72   11.04   0
   3  -5  56  101.41    8.92   0
   0  -4  34  229.70    9.32   0
   0  -2  38  233.41    8.56   0
   2  -6  47   -7.86    7.40   0
   2  -2  52  177.50    9.71   0
   2   0  44  621.34   13.66   0
   3  -3  57   -3.59    7.57   0
   0  -5  26  207.72    9.07   0
   1   0  40  704.19   13.30   0
   1   1  30  557.70   13.01   0
   3  -6  54   29.73    7.22   0
   0  -3  39   -2.10    7.04   0
   0  -1  37    0.66    5.24   0
   1  -6  37   -2.14    7.62   0
   1  -4  47   -2.01    6.68   0
   2  -5  52  127.24    9.08   0
   2  -4  54   29.35    8.10   0
   3  -4  58   75.91    8.11   0
   3  -2  56  170.32    9.52   0
   0  -5  29    1.06    6.60   0
   1  -3  49    5.42    7.66   0
  -1  -2  16 2031.93   20.65   0
  -1  -2  19    2.31    4.52   0
   0  -4  37    3.86    5.96   0
   0  -2  41    8.50    6.88   0
   0   0  33   -1.69    5.33   0
   1  -5  45    2.06    7.53   0
  -1  -2  22  457.82   10.31   0
   1  -1  47    1.20    6.73   0
   2  -6  50   84.95    8.47   0
   2  -1  51    0.12    6.82   0
   4  -3  61    2.76    8.43   0
  -1  -1  15    3.42    4.41   0
  -1  -1  18 1199.30   16.23   0
   0  -5  32  435.65   11.32   0
   0  -3  42  293.06   10.44   0
   0  -1  40  703.61   12.91   0
   1  -6  40  167.95    8.90   0
  -1  -3  17   -5.49    5.30   0
  -1  -2  25    2.57    5.12   0
  -1  -1  21    6.33    4.80   0
   0  -4  40  399.63   11.32   0
   1  -7  29    4.83    6.93   0
   1  -4  50  154.03    9.79   0
   1   0  43    4.98    6.05   0
   1   1  33    1.77    4.74   0
   2  -7  45   -4.71    7.02   0
   2  -2  55    3.53    7.84   0
   3  -3  60  100.58    9.25   0
  -1  -3  14  686.88   13.00   0
  -1  -3  20  855.30   13.56   0
  -1  -1  24 1888.73   19.21   0
   0   0  36  586.64   12.04   0
   2  -5  55    2.14    7.84   0
   2  -4  57    4.01    7.93   0
   2   0  47    2.99    6.12   0
   3  -4  61    1.21    7.98   0
  -1  -2  28 1296.47   15.94   0
   0  -5  35    0.34    7.09   0
   0  -2  44  674.38   13.36   0
   1  -5  48  175.11    9.24   0
   1  -3  52  241.04    9.63   0
  -1  -3  11    9.41    4.98   0
  -1  -1  27    1.75    5.11   0
   1  -7  32  219.14    9.78   0
   1  -6  43    6.76    6.92   0
   2  -8  37    2.37    7.71   0
   2  -6  53   -1.33    8.09   0
   3  -2  59   -1.89    6.97   0
  -1  -2  31   -0.40    6.28   0
   0  -4  43    5.22    7.81   0
   0  -3  45   -0.96    6.42   0
   1  -1  50  245.22   10.08   0
  -1  -3  29    4.92    5.46   0
  -1  -1  30  601.86   11.75   0
   0  -6  21   -0.73    6.72   0
   0  -5  38  177.24    9.29   0
   1  -7  35   -1.46    7.24   0
   1  -4  53   -5.59    7.83   0
   2  -3  59   -6.35    7.99   0
   2  -1  54   84.29    8.48   0
  -1  -3   8 2612.62   25.92   0
   0   0  39   -2.94    5.88   0
   1   1  36  832.90   15.18   0
   2  -2  58   78.17    9.11   0
  -1  -3  32  863.79   14.13   0
  -1  -2  34  567.17   11.45   0
   0  -6  27   -0.92    7.25   0
   0  -2  47    0.54    6.32   0
   0   1  26 1136.06   17.30   0
   1  -6  46   53.66    8.35   0
   1  -5  51   -1.98    7.40   0
   1  -3  55    0.67    7.88   0
   1  -2  54   97.25    9.01   0
   1   0  46  116.52    7.39   0
   2  -5  58   86.65    7.98   0
  -1  -4  18  347.82   10.19   0
  -1  -4  21    5.96    6.02   0
  -1  -1  33    7.48    5.37   0
   0  -3  48  180.77    9.82   0
   2  -4  60   74.63    7.96   0
   3  -3  63    4.01    7.09   0
  -1  -4  15    3.40    6.25   0
  -1  -4  24  855.23   14.44   0
  -1   0  20 1542.58   18.58   0
  -1   0  23   -1.64    5.36   0
   0  -6  30  103.98    8.24   0
   0  -4  46  124.42    8.00   0
   1  -7  38   39.40    8.03   0
  -1  -4  27    5.56    6.67   0
  -1  -3  35   -1.76    5.92   0
  -1  -2  37    4.51    5.79   0
  -1   0  26 1220.00   16.30   0
   0   1  29   -1.68    4.79   0
   1  -1  53   -2.84    7.25   0
  -1  -4  30  288.66   10.01   0
  -1  -1  36  882.40   13.58   0
   0  -6  33   -2.01    7.20   0
   0   0  42  715.53   12.74   0
   1  -4  56  116.32    8.54   0
   1   1  39    0.15    5.90   0
  -1  -4  12  878.81   15.17   0
  -1   0  29    5.89    5.67   0
   0  -2  50  181.56    8.80   0
   1  -7  41   -4.78    6.95   0
   1  -5  54   44.66    7.79   0
   2  -3  62   47.84    8.03   0
   2  -1  57   -7.92    7.36   0
  -1  -4  33    0.74    6.94   0
  -1  -3  38  143.61    7.98   0
  -1  -2  40  418.61   10.94   0
   0  -4  49   -0.08    8.17   0
   0  -3  51   -6.24    8.19   0
   0   1  32 1665.40   19.85   0
   1  -2  57    0.06    7.56   0
   1   0  49   -6.43    6.52   0
   2  -2  61  -11.56    7.93   0
  -1  -1  39   -2.88    6.38   0
  -1   0  32 1763.32   19.03   0
   0  -6  36  181.41    9.41   0
   0  -1  49    4.01    6.17   0
   0   0  45   -3.78    6.55   0
  -1  -4   9    1.28    5.12   0
  -1  -3  41    0.75    6.36   0
   0   1  35   -2.28    5.23   0
   1  -7  44   86.59    8.39   0
   1  -4  59   -2.17    7.88   0
  -1  -2  43    6.80    6.27   0
  -1   0  35    2.02    6.12   0
   0  -6  39    5.01    6.90   0
   0  -4  52  120.68    9.06   0
   0  -2  53   -2.58    6.60   0
   1  -5  57    4.98    8.21   0
   1  -1  56  182.51    8.97   0
  -1  -1  42  302.48    9.58   0
   0  -3  54   81.54    9.24   0
  -1  -3  44  242.15   10.37   0
   0  -1  52  276.89   10.65   0
   1  -2  60  136.38    9.24   0
   1   0  52  278.59   10.46   0
  -1  -5  19    5.00    6.67   0
  -1  -5  22  183.89    8.93   0
  -1  -5  25    3.81    6.62   0
  -1  -5  28  385.28   11.15   0
  -1  -2  46  121.86    8.77   0
   0  -6  42  109.41    9.30   0
   0  -5  50   59.66    8.44   0
   0   0  48  405.07   11.47   0
   0   1  38  249.93    9.20   0
  -1  -5  31   -2.80    7.22   0
  -1  -1  45    8.78    7.30   0
   2  -2  64   86.06    8.83   0
   0  -4  55    4.47    7.83   0
  -1  -5  34  184.57    9.66   0
  -1  -3  47    4.58    6.86   0
   0  -6  45   -0.04    7.18   0
   0  -3  57   -7.55    8.26   0
   1  -1  59   -5.17    7.12   0
  -1  -4  45   -5.71    8.06   0
  -1  -2  49   -6.79    7.47   0
   0  -5  53    8.99    7.96   0
   0  -1  55    7.01    7.38   0
   0   1  41   -0.03    5.69   0
  -2  -2  24 1756.76   18.65   0
  -2  -2  27   -1.68    5.38   0
  -1  -5  37    5.28    7.53   0
  -1  -1  48  307.40   10.86   0
   0   0  51   -0.72    7.00   0
   1  -3  64   41.50    8.05   0
   1  -2  63    5.77    8.25   0
   1   0  55   -1.30    7.19   0
  -2  -2  30  189.43    8.10   0
  -2  -1  23   -2.19    5.74   0
  -2  -1  26  530.30   11.11   0
  -2  -1  29   11.02    6.35   0
  -1  -3  50  165.69    9.71   0
   0  -6  48  102.99    8.98   0
  -2  -2  33    6.22    5.88   0
  -2  -1  20 1438.82   17.58   0
  -2  -1  32 1208.66   16.09   0
  -1  -5  40  181.48    9.44   0
  -1   0  44  400.67   10.55   0
  -1   1  28 1274.28   17.20   0
   0  -4  58   51.90    8.79   0
  -2  -3  25    2.54    6.23   0
  -2  -3  28  385.64   10.74   0
  -2  -2  36  359.82   10.82   0
  -1  -4  48  185.84    9.17   0
  -1  -2  52  229.77   10.39   0
  -1   1  31   -2.11    5.44   0
   0  -3  60  112.14    9.20   0
  -2  -3  22  279.89    9.05   0
  -2  -1  35   -4.78    5.89   0
   0  -1  58  130.19    9.59   0
   0   1  44  402.64   11.12   0
   1  -1  62   36.25    8.21   0
  -2  -3  19   -0.31    6.03   0
  -2  -2  15   -1.77    5.32   0
  -2  -2  39   -3.29    7.25   0
  -2  -1  17    4.70    4.86   0
  -1  -5  43    3.48    7.77   0
  -1  -3  53   11.08    7.99   0
  -1   0  47   -5.77    6.99   0
  -1   1  34  916.99   14.35   0
  -2  -1  38  304.36    9.56   0
  -1  -4  51    7.23    8.13   0
   0   0  54   37.45    7.79   0
  -2   0  25    2.33    6.04   0
  -2   0  28 1128.44   15.71   0
  -1   1  37   -0.13    4.99   0
  -2  -3  16 1802.13   20.39   0
  -2  -3  40  411.79   11.72   0
  -2  -2  42  350.01   10.29   0
  -2  -1  14 1582.15   19.08   0
  -2  -1  41    1.58    7.35   0
  -2   0  31    3.26    5.36   0
  -1  -5  46   48.43    8.75   0
  -1  -2  55   11.74    7.39   0
   0  -3  63    1.34    8.23   0
   0  -2  62   42.63    8.09   0
   0   1  47    2.85    6.25   0
  -2  -2  12  742.97   13.84   0
  -2   0  22 1918.25   19.86   0
  -2   0  34  279.54    8.91   0
  -1  -3  56  118.95   10.00   0
  -1   0  50  244.52   10.26   0
  -1   1  40  705.66   13.57   0
  -2  -4  26  335.38   10.69   0
  -2  -4  29    6.70    6.55   0
  -2  -4  32  318.89   10.97   0
  -2  -2  45    6.31    7.87   0
  -2   0  37   -2.67    6.37   0
  -1  -6  35    5.17    8.12   0
  -1  -4  54   46.86    8.58   0
   0  -1  61    2.96    7.36   0
  -2  -4  23   -1.95    6.18   0
  -2  -4  35    2.00    7.42   0
  -2  -3  43   -7.28    6.64   0
  -2  -1  44  308.19    9.96   0
  -2   0  19    1.45    4.94   0
  -1  -5  49    1.23    7.48   0
   0   0  57    1.24    7.19   0
   1  -1  65    6.46    7.67   0
  -2  -3  13   -1.83    5.41   0
  -2   0  40  756.19   13.56   0
  -1  -6  38   38.99    7.42   0
  -1  -2  58   81.68    8.98   0
  -1   1  43    0.18    6.37   0
  -2  -4  20  587.60   12.93   0
  -2  -4  38   91.04    9.00   0
  -2  -3  46   51.52    8.88   0
  -2  -2  48  258.00   10.90   0
  -1  -1  57   -0.52    7.98   0
   0  -2  65    8.66    8.23   0
   0   1  50  239.24    9.65   0
  -2  -1  47   -2.30    6.75   0
  -1  -6  41    5.97    6.79   0
  -1  -4  57    4.63    8.44   0
  -1  -3  59    3.41    8.04   0
  -1   0  53    2.81    7.74   0
  -2  -4  41   -4.31    8.08   0
  -2   0  16 2975.34   25.54   0
  -2   0  43   -0.42    6.35   0
   1  -4  44  269.23   10.91   0
   2  -2  37    0.83    6.50   0
  -2  -6  19   -6.85    7.71   0
  -2  -4  26  346.97   10.57   0
  -2  -3  25   -0.92    6.08   0
  -2  -2  21   -4.99    6.08   0
   1  -7  44  108.56    8.91   0
  -2  -1   8 3244.35   28.05   0
  -1  -4  36  296.02   11.13   0
   0  -2  35    0.88    6.44   0
   1  -1  29   -2.54    5.17   0
  -1  -3  35   -3.87    7.52   0
  -1  -2  31   -0.56    6.78   0
   2  -5  49   -2.78    8.47   0
   3  -6  51    0.43    8.86   0
  -2  -6  22   95.05    9.14   0
  -2  -1  11    7.04    4.76   0
  -1  -5  37   -0.75    8.18   0
   0  -6  42  115.51    9.13   0
  -2  -4  29   12.08    7.75   0
  -2  -3  28  391.04   11.01   0
  -1  -1  24 1815.52   19.74   0
   2  -6  50   78.60    9.22   0
   2  -3  44  301.76   11.18   0
  -3  -4   4  583.60   13.04   0
  -3  -4   7   -3.61    6.33   0
  -3  -3   3    4.07    5.58   0
  -3  -3   6  435.58   11.41   0
  -3  -3   9    4.57    6.21   0
  -2  -1  14 1698.03   19.64   0
   0  -5  44  148.73   10.46   0
   2  -4  48  269.48   11.49   0
  -3  -4  10  365.01   10.97   0
  -3  -3   0  966.07   16.59   0
  -2  -6  25    0.05    7.59   0
   1  -5  48  174.36    9.91   0
   1  -2  39    4.98    6.33   0
  -3  -4  13    3.06    6.57   0
  -3  -3  12  702.58   12.97   0
  -2  -7  17   -2.08    8.06   0
  -2  -5  30   78.93    8.74   0
  -1  -4  39    5.48    6.95   0
   0  -3  42  300.70   10.71   0
   1  -4  47    3.00    6.84   0
  -3  -3  15   -3.61    6.46   0
  -2  -4  32  312.31   10.76   0
  -2  -1  17    6.28    5.87   0
  -1  -6  38   44.50    8.44   0
  -1  -5  40  169.47   10.06   0
  -1  -3  38  167.84    9.18   0
  -1  -2  34  588.08   12.47   0
   0  -2  38  226.57    9.50   0
   1  -6  49    5.58    7.83   0
  -3  -4  16  387.88   11.35   0
  -2  -6  28  137.81    9.53   0
  -2  -3  31    4.18    6.51   0
  -2  -2  27    6.54    5.75   0
  -1  -1  27   -1.06    5.98   0
   0  -6  45   -3.33    7.43   0
  -3  -5  11   -0.80    7.10   0
  -3  -3  18  403.46   11.13   0
  -2  -7  20  109.16    8.86   0
   0  -1  31    0.14    4.80   0
   1  -1  32 1655.11   21.13   0
  -3  -5  14  129.10    8.98   0
  -3  -4  19   -9.53    7.23   0
  -3  -2   5    0.44    5.38   0
  -3  -2   8 2141.00   21.56   0
  -3  -2  11    1.90    5.85   0
  -2  -5  33  -10.69    8.03   0
  -2  -1  20 1478.26   17.86   0
   0  -4  46  135.42    9.78   0
   2  -5  52  105.65    9.24   0
  -3  -2   2  782.16   14.68   0
  -1  -4  42  169.79    9.95   0
   1  -3  46  115.83    8.93   0
   2  -6  53   -1.35    7.96   0
  -3  -5  17    0.39    7.09   0
  -3  -4  22  168.72    9.44   0
  -3  -2  14  377.46    9.87   0
  -2  -4  35   -7.32    6.78   0
  -2  -2  30  199.42    8.42   0
  -1  -6  41    9.27    8.07   0
   1  -5  51    2.58    7.70   0
  -1  -5  43   -5.63    7.46   0
  -1  -3  41  -13.11    7.74   0
  -1  -2  37   -0.41    7.10   0
   0  -3  45    5.88    7.70   0
   1  -4  50  159.68    9.97   0
   2  -4  51   -2.37    7.88   0
  -3  -5  20  209.39    9.70   0
  -3  -2  -1    1.26    5.14   0
  -2  -5  36  217.62   10.73   0
  -2  -1  23    1.86    5.28   0
  -1  -1  30  576.03   11.77   0
   0  -6  48   95.55    9.44   0
   0  -2  41    3.02    6.89   0
   1  -2  42  318.96   10.71   0
  -3  -4  25    0.74    7.10   0
  -3  -5  23    1.46    7.78   0
  -3  -2  20  559.39   11.56   0
  -2  -4  38   96.70    9.25   0
   0  -1  34  893.00   14.61   0
  -2  -3  37    0.82    6.76   0
  -2  -2  33    0.03    6.06   0
  -1  -6  44  105.13    8.81   0
  -1  -4  45    1.28    8.55   0
   0  -5  50   70.96    9.16   0
   0  -4  49    7.99    6.71   0
   1  -1  35   -6.59    5.50   0
  -3  -3  27    5.24    6.32   0
  -3  -2  23    8.58    6.36   0
  -2  -1  26  542.23   11.25   0
  -1  -5  46   50.95    8.78   0
  -3  -5  26  154.76    9.39   0
  -2  -5  39    5.98    8.33   0
  -1  -3  44  254.63    9.78   0
   1  -5  54   52.28    8.86   0
   1  -3  49   -9.25    7.48   0
  -3  -6  18   74.99    8.38   0
  -2  -6  37    7.78    7.50   0
   0  -3  48  192.52   10.22   0
  -3  -6  21    2.26    8.04   0
  -3  -3  30  172.38    9.09   0
  -3  -2  26  614.95   12.53   0
  -2  -4  41    4.71    8.17   0
  -2  -2  36  369.24   10.94   0
   0  -2  44  640.19   13.62   0
   1  -4  53    7.31    7.47   0
  -3  -5  29   -0.76    7.72   0
  -2  -3  40  415.37   11.19   0
  -2  -1  29    2.97    5.47   0
   0  -1  37   -1.66    5.98   0
   1  -2  45    2.62    6.48   0
  -3  -6  24  168.69   10.03   0
  -3  -1   7    4.51    5.29   0
  -3  -1  16 2072.05   20.71   0
  -2  -5  42  118.66    9.91   0
  -1  -4  48  205.30   10.46   0
  -1   0  20 1470.45   18.88   0
   0  -5  53   -4.33    8.47   0
  -3  -2  29    1.59    6.93   0
  -1  -5  49   -2.53    7.96   0
   0  -4  52  117.65    9.04   0
  -3  -5  32  176.38    9.58   0
  -3  -4  34  145.39    9.57   0
  -3  -3  33    1.34    6.68   0
  -3  -1   4 1292.93   18.20   0
  -3  -1  19    3.28    5.34   0
  -3  -6  27    6.98    7.10   0
  -2  -4  44  181.39   10.35   0
  -2  -2  39    7.11    7.66   0
  -2  -1  32 1193.24   15.77   0
   1  -1  38  239.87    9.48   0
  -3  -1  22  344.58    9.54   0
  -2  -3  43    4.50    6.98   0
  -1   0  23    0.21    4.61   0
   0  -3  51   -0.18    7.94   0
   1  -5  57    0.18    7.87   0
   1  -3  52  233.82   10.37   0
  -3  -3  36  274.80   10.77   0
  -3  -2  32  655.40   12.55   0
  -2  -5  45    4.74    8.29   0
   0  -2  47   -4.25    7.13   0
  -4  -3  11   -0.33    6.50   0
  -4  -3  14  337.58   10.66   0
  -4  -3  17    2.95    6.87   0
  -3  -4  37   -4.49    7.18   0
  -3  -1   1    7.89    5.00   0
  -3  -1  25   -7.86    6.28   0
  -2   0  13   -1.50    4.68   0
  -2   0  16 3041.90   25.92   0
   0  -1  40  706.00   13.96   0
   1  -4  56  108.59    9.02   0
  -4  -4  15    3.09    7.04   0
  -4  -4  18  174.26    9.49   0
  -4  -3  20  416.32   11.55   0
  -2  -1  35    3.70    6.48   0
  -1  -1  39    7.05    6.58   0
   1  -2  48  308.27   10.99   0
  -3  -2  35    3.70    7.53   0
  -2  -4  47   -3.79    7.87   0
  -2  -2  42  368.51   10.67   0
  -2   0  19   -2.38    4.88   0
  -1  -3  50  153.41   10.14   0
  -1  -2  46  128.03    8.08   0
   0  -4  55   -1.75    8.43   0
   0   0  27    1.83    5.12   0
  -4  -4  21   -2.09    7.53   0
  -4  -3  23   -9.80    7.38   0
  -4  -2  13   -1.45    6.15   0
  -4  -2  16  705.40   13.44   0
  -3  -3  39    5.94    8.03   0
  -3  -1  28  685.85   12.91   0
  -2  -3  46   49.20    7.86   0
  -4  -4  24  289.04   10.88   0
  -4  -2  10  321.84   10.03   0
  -4  -2  19   -2.32    6.25   0
  -3  -4  40  131.24    8.81   0
  -2   0  22 1915.53   19.91   0
  -4  -3  26  130.30    9.33   0
  -4  -2   7    0.83    5.65   0
  -4  -2  22  354.53   10.72   0
   1  -1  41   -2.27    6.07   0
  -4  -4  27   -1.69    7.38   0
  -3  -2  38   82.20    8.43   0
  -3  -1  31    2.04    7.07   0
  -2  -1  38  299.79    9.59   0
  -2   0  25    4.34    5.93   0
  -1  -4  54   36.62    8.40   0
   0  -3  54   55.85    9.08   0
  -3  -3  42  150.39   10.10   0
  -2  -4  50   88.93    9.39   0
  -2  -2  45    2.69    7.88   0
  -1  -1  42  307.28    9.72   0
   0  -2  50  190.68    9.84   0
   0  -1  43   -8.84    6.55   0
   0   0  30  158.77    8.01   0
  -4  -5  22   75.55    8.15   0
  -4  -2   4  811.08   14.74   0
  -3  -4  43   -1.03    7.85   0
  -2  -3  49    1.49    7.94   0
  -1  -3  53   -6.98    7.84   0
  -1  -2  49  -10.48    7.98   0
  -4  -5  25   -5.41    6.93   0
  -4  -4  30   75.43    8.22   0
  -4  -2  28  394.37   11.08   0
  -3  -1  34  514.18   12.04   0
  -2   0  28 1130.13   15.78   0
   0  -4  58   47.62    8.28   0
  -3  -2  41    2.56    7.92   0
  -2  -1  41   -6.57    7.28   0
  -1   0  32 1621.53   18.76   0
  -4  -5  28   75.18    7.86   0
  -4  -4  33    4.23    7.73   0
  -4  -1  15   -3.36    6.19   0
  -4  -2  31    2.31    6.47   0
  -4  -1  12 1106.20   15.90   0
  -3  -4  46   52.37    8.71   0
  -3  -3  45    1.46    8.57   0
  -3   0  15   -0.20    4.79   0
  -3   0  18  525.05   11.07   0
  -2   0  31    2.64    6.04   0
  -4  -3  35   -4.75    7.44   0
  -3  -1  37   -0.37    7.51   0
  -3   0  12 1941.30   20.34   0
  -3   0  21    0.41    5.22   0
  -2  -4  53   -1.10    7.76   0
  -1  -4  57   -0.37    8.22   0
  -1  -1  45    3.69    5.92   0
   0  -3  57   -1.27    7.35   0
   0   0  33    1.17    5.22   0
  -4  -4  36  114.87    8.81   0
  -4  -2  34  154.19    9.45   0
  -4  -1   9   12.62    4.95   0
  -4  -1  24  629.64   12.19   0
  -3   0  24 1626.08   18.17   0
  -1   0  35   -3.81    6.00   0
   0  -2  53   -2.55    7.07   0
   0  -1  46  105.44    8.20   0
  -4  -1  27   -5.74    6.67   0
  -3  -2  44  203.03    9.35   0
  -1  -3  56  129.80    9.58   0
  -4  -3  38  112.52    9.57   0
  -4  -1   6  349.15   10.24   0
  -3   0  27   -7.44    6.46   0
  -2   0  34  278.14    8.94   0
  -4  -2  37    0.47    7.89   0
  -4  -1  30  168.91    8.80   0
  -3  -3  48  119.48    9.12   0
  -3  -1  40  437.43   10.96   0
  -1  -1  48  305.83   10.86   0
   0   0  36  580.02   12.88   0
  -4  -3  41    2.52    7.82   0
  -3  -2  47    4.30    8.03   0
  -3   0  30  537.76   11.39   0
  -1   0  38  259.96    9.49   0
  -4  -1  33    7.15    6.47   0
  -2  -1  47   -1.10    7.48   0
  -4  -2  40  218.96    9.39   0
  -4  -1   3    1.43    5.07   0
  -3  -3  51   -1.54    7.97   0
  -3  -1  43   -5.07    7.81   0
  -3   0  33    6.71    6.44   0
  -1  -2  55    3.14    8.00   0
   0  -3  60  103.79    8.86   0
   0  -2  56   78.20    9.79   0
   0  -1  49    1.14    6.68   0
  -5  -3  19   -7.75    7.25   0
  -5  -3  22  100.73    8.59   0
  -4  -1  36  448.70   11.99   0
  -1  -3  59   -2.92    8.15   0
  -5  -3  25   -1.39    7.66   0
  -5  -2  18  153.89    8.70   0
  -5  -2  21    0.92    6.77   0
  -4  -3  44  104.73    9.03   0
  -2  -2  54   41.74    8.57   0
  -5  -3  28  131.93    8.96   0
  -5  -2  24  422.15   11.07   0
  -4  -2  43   -6.79    7.96   0
  -4   0  20 1213.64   16.15   0
  -3  -2  50  161.07   10.14   0
  -3   0  36  517.04   11.77   0
  -1   0  41   -0.00    6.50   0
   0   0  39   -0.44    5.81   0
  -5  -2  12  373.58   10.90   0
  -5  -2  27   -4.02    7.63   0
  -4   0  17    3.51    5.21   0
  -4   0  23   -1.31    5.63   0
  -3  -1  46   74.10    8.44   0
  -1  -1  51   -0.56    6.66   0
  -5  -4  26  117.57    8.86   0
  -5  -3  31   -0.72    7.58   0
  -5  -2  30  163.47    9.45   0
  -4  -1  39    7.51    6.81   0
  -4   0  26  675.66   12.42   0
  -2  -1  50  152.43    8.62   0
  -5  -4  29    3.58    6.76   0
  -5  -2   9   -1.39    6.08   0
  -4  -3  47    6.45    7.91   0
  -4  -1   0 1327.96   19.12   0
  -4   0  29    8.33    6.70   0
  -1  -2  58   90.34    9.24   0
  -5  -3  34  105.28    8.70   0
  -5  -1  20  467.31   11.68   0
  -5  -1  23    2.67    7.08   0
  -4  -2  46   96.52    9.18   0
  -4   0  11    1.26    4.84   0
  -3   0  39    5.71    6.27   0
  -2   0  43   -0.78    7.14   0
   0  -1  52  279.27   10.82   0
  -5  -1  17   -2.53    5.63   0
  -4  -1  42  178.82    9.22   0
  -4   0  32  444.91   11.45   0
  -3  -2  53   -1.02    8.06   0
  -2  -2  57   -3.14    8.01   0
  -1   0  44  404.37   11.45   0
  -5  -3  37    4.92    8.08   0
  -3  -1  49   -3.97    6.70   0
   0   0  42  715.88   14.24   0
  -4   0   8 1486.33   18.40   0
  -4   0  35   -6.29    6.97   0
  -3   0  42  243.69    9.82   0
  -2  -1  53   -5.57    7.70   0
  -1  -1  54  100.42    8.81   0
  -5  -1  11    0.76    6.12   0
  -5  -1  32  337.41   11.26   0
  -4  -2  49    0.65    7.95   0
  -4  -1  45   -9.13    8.59   0
  -2   1  21    6.98    4.99   0
  -2   1  24 1863.16   20.25   0
  -5  -3  40  104.53    8.74   0
  -5  -2  39   -1.76    7.75   0
  -2   0  46  223.76   10.10   0
  -2   1  18 1175.70   16.59   0
  -2   1  27   -2.51    5.94   0
  -5  -1  35    8.61    8.16   0
  -4   0  38  118.70    9.03   0
  -1  -2  61    4.04    8.65   0
  -5  -1   8  756.91   14.17   0
  -3   1  20 1434.19   17.25   0
  -3   1  23   -0.82    5.45   0
  -3   1  26  525.14   11.57   0
  -2   1  15    1.09    4.75   0
  -1   0  47   -2.23    6.88   0
  -5  -2  42   66.00    8.58   0
  -5  -1  38  116.11    9.31   0
  -4  -1  48  102.28    9.39   0
  -4   0   5    2.29    4.43   0
  -3   1  17    5.59    5.02   0
  -3   1  29    1.50    6.46   0
  -2  -2  60   92.79    9.30   0
  -1   1  25   -5.46    4.43   0
   0   0  45    2.15    6.36   0
  -5   0  25   -8.52    6.90   0
  -4  -2  52   83.56    8.55   0
  -4   0  41   -2.32    8.00   0
  -2  -1  56  166.04   10.02   0
  -1   1  28 1269.26   17.69   0
  -5   0  19   -6.93    5.72   0
  -5   0  28  615.24   12.98   0
  -3   1  14 1634.93   19.12   0
  -3   1  32 1170.18   16.19   0
  -2   0  49    2.63    7.52   0
  -1  -1  57    3.46    7.60   0
  -5  -2  45    7.58    7.99   0
  -5  -1   5   -0.84    5.63   0
  -5   0  16  648.00   12.32   0
  -5   0  31   -1.01    7.10   0
  -1   1  31    0.81    5.59   0
  -4  -1  51   -0.90    8.35   0
  -3  -1  55    1.31    7.52   0
  -3   1  35   -5.45    6.51   0
  -2   1  36  856.80   14.53   0
  -5   0  13   -0.94    6.27   0
  -4   1  22  348.24   10.27   0
  -4   1  25   -0.10    5.69   0
  -6  -2  23    5.08    7.39   0
  -6  -2  26  160.20    9.54   0
  -5  -1  44  132.86    9.75   0
  -4   0   2 1342.37   18.61   0
  -4   1  19    8.87    5.45   0
  -4   1  28  657.68   12.38   0
  -3   1  11    8.39    4.79   0
  -1   1  34  898.58   15.11   0
  -6  -2  20  166.54    9.71   0
  -6  -2  29   -7.47    7.34   0
  -5   0  37    8.56    6.67   0
  -4   1  16 2014.46   20.44   0
  -4   1  31    2.24    6.10   0
  -3   1  38  284.53    9.52   0
  -2  -1  59    5.24    7.57   0
  -2   0  52  179.90   10.13   0
  -2   1  39   -1.31    6.51   0
  -6  -2  32  165.19    9.34   0
  -5   0  10  675.16   13.18   0
  -4   0  47    1.08    6.93   0
  -4   1  34  507.96   12.03   0
  -3   0  51   -7.26    6.71   0
  -6  -1  22  139.74    9.11   0
  -6  -1  25    1.18    7.92   0
  -6  -1  28  148.56    9.12   0
  -5  -1  47  -14.06    8.27   0
  -5   0  40  195.64   10.05   0
  -4  -1  54   43.01    8.45   0
  -3  -1  58   85.48    8.89   0
  -1   1  37   -2.77    5.96   0
  -6  -2  35   -3.75    7.79   0
  -6  -1  19    2.37    7.21   0
  -6  -1  31    1.70    7.64   0
  -4   1  13    4.14    4.96   0
  -4   1  37   -4.43    7.04   0
  -1   0  53   -7.67    7.41   0
  -6  -1  16  590.37   13.17   0
  -6  -1  34  146.22    9.41   0
  -3   1   8 3266.44   27.52   0
  -2   1  42  302.05    9.74   0
  -5   0   7    1.49    6.01   0
  -5   0  43    4.27    6.92   0
  -4   0  50  147.82    9.47   0
  -3   0  54   93.92    9.12   0
  -2   0  55   -6.19    7.88   0
  -1   1  40  720.39   14.14   0
  -6  -1  13    0.66    7.28   0
  -5  -1  50   60.19    9.08   0
  -5   1  27    3.57    7.28   0
  -4   1  40  440.40   11.12   0
  -3   1  44  299.30   10.69   0
  -2  -1  62   43.20    9.18   0
  -5   1  21    5.60    6.83   0
  -5   1  24  644.37   12.44   0
  -5   1  30  175.55    9.31   0
  -2   1  45   -0.28    6.96   0
  -6   0  21    6.55    7.13   0
  -6   0  24  522.18   12.54   0
  -6   0  27    2.70    6.52   0
  -5   0  46   85.26    8.64   0
  -5   1  33    7.91    7.64   0
  -4   1  43    7.70    7.85   0
   0   1  29    1.82    4.81   0
  -5   1  36  439.22   11.98   0
  -4   0  -1    1.29    4.93   0
  -6  -1  43   -2.63    8.56   0
  -6   0  18  261.09    9.88   0
  -6   0  36  126.10    9.73   0
  -3   1  47   -2.60    6.51   0
  -1   1  43    7.15    6.26   0
   0   1  32 1631.10   21.63   0
  -5   0   4 1109.20   16.99   0
  -5   0  49   -3.18    7.95   0
  -5   1  39    1.93    8.15   0
  -3   0  57    6.44    8.46   0
  -2   0  58   74.49    8.90   0
  -6   0  15   -2.61    6.66   0
  -6   0  39    3.32    7.97   0
  -4   1   7    7.85    5.52   0
  -4   1  46   67.36    7.73   0
  -2   1  48  302.03   10.87   0
   0   1  35    0.19    5.64   0
  -4   0  56   61.22    8.73   0
  -6   0  42  120.62    9.43   0
  -5   1  12 1102.46   15.50   0
  -3   1  50  158.42    9.82   0
  -1   1  46  107.30    8.17   0
  -6   0  12  335.39   10.68   0
  -5   0  52  132.42    9.27   0
  -5   1  45    4.63    8.22   0
  -3   0  60   98.84    8.88   0
  -2   1  51   -6.29    7.56   0
   0   1  38  237.17    9.67   0
  -6   0  45   -6.34    7.84   0
  -6   1  29   -1.39    6.66   0
  -6   1  32  351.10   11.11   0
  -4   2  27    3.03    6.51   0
  -4   2  30  202.19    9.26   0
  -3   2  25   -1.84    5.48   0
  -3   2  28 1305.40   16.70   0
  -3   2  31    4.29    6.59   0
  -2   0  61   -3.61    8.71   0
  -6   1  35   -6.66    8.07   0
  -5   1   9    3.78    6.12   0
  -4   0  59   -5.16    7.79   0
  -4   2  33    2.87    6.90   0
  -3   1  53    3.76    7.80   0
  -3   2  22  485.01   10.98   0
  -7  -1  27  -11.23    7.85   0
  -7  -1  30   38.91    8.38   0
  -6   0   9   -1.39    6.07   0
  -5   0   1   -0.98    5.61   0
  -5   0  55   -7.48    8.64   0
  -5   1  48  128.09    9.55   0
  -4   1   4 1269.82   17.95   0
  -4   1  52  182.25   10.58   0
  -4   2  21    2.62    5.62   0
  -4   2  36  377.30   11.24   0
  -1   1  49    1.75    6.54   0
  -7  -1  24  176.43    9.69   0
  -7  -1  33   -5.96    7.11   0
  -6   0  48  134.28   10.09   0
  -6   1  17    6.12    7.02   0
  -6   1  38  122.48    8.73   0
  -3   2  19    0.62    5.23   0
  -6   1  41   -6.92    8.23   0
  -4   2  18 1060.01   15.50   0
  -4   2  39   -3.93    7.49   0
  -2   1  54   98.53    9.11   0
  -2   2  29    2.80    5.90   0
  -7   0  29    5.65    8.36   0
  -5   2  26  601.48   12.11   0
  -5   2  29   -2.21    6.47   0
  -5   2  32  611.68   12.48   0
  -3   0  63    5.08    7.45   0
  -3   2  40  435.48   11.12   0
  -7   0  23    5.42    7.69   0
  -7   0  32  241.67   10.86   0
  -7   0  35   10.04    8.43   0
  -6   1  14  376.95   11.06   0
  -6   1  44  138.75   10.10   0
  -5   1  51    3.68    7.66   0
  -5   2  23   -0.43    6.07   0
  -5   2  35    0.13    6.62   0
  -4   1  55   12.21    7.95   0
  -3   2  16 2100.44   21.48   0
  -2   2  35   -5.01    6.09   0
  -6   0   6  344.15   10.78   0
  -5   1   6  366.01   10.08   0
  -5   2  20  567.64   12.29   0
  -5   2  38   90.42    8.91   0
  -4   2  15   -5.34    6.13   0
  -3   2  43    9.51    6.93   0
  -7   0  20  119.41    9.06   0
  -7   0  38   23.07    8.65   0
  -2   2  20 3368.39   27.43   0
  -2   2  38  223.43    8.82   0
  -6   1  47   -1.43    7.99   0
  -5   2  17    1.40    6.60   0
  -5   2  41   -4.24    6.86   0
  -7   0  17   -3.51    6.84   0
  -6   1  11    5.91    6.42   0
  -3   2  46  123.24    8.74   0
  -2   1  57    1.49    7.68   0
  -2   2  41    0.18    6.70   0
  -6   2  31  -12.97    7.77   0
  -4   1  58  100.03    9.63   0
  -4   2  12  771.57   13.71   0
  -3   1  59    3.11    7.35   0
  -3   2  13    7.59    5.20   0
  -7   1  25    6.88    7.86   0
  -7   1  28  136.21    8.67   0
  -7   1  31    5.04    7.31   0
  -6   1  50   70.42    8.91   0
  -6   2  25   -2.36    7.48   0
  -6   2  34  148.26    8.78   0
  -4   1   1    9.88    5.26   0
  -4   2  48  274.74   10.27   0
  -2   2  17    1.05    4.80   0
  -7   1  22  144.02    9.32   0
  -6   2  22  343.87   10.67   0
  -6   2  37   -2.72    7.01   0
  -5   2  14  368.76    9.95   0
  -5   2  47  -12.72    8.52   0
  -2   2  44  649.52   13.82   0
  -6   2  40  241.67   10.59   0
  -5   1   3    0.07    5.78   0
  -3   2  49    5.43    6.81   0
  -7   1  19   -4.27    7.69   0
  -6   1   8  779.57   14.38   0
  -4   2  51   -4.44    8.07   0
  -7   1  43    8.79    7.94   0
  -6   2  43   -2.93    8.69   0
  -4   1  61    1.82    8.13   0
  -2   2  47    1.30    7.06   0
  -4   2   9   -1.27    4.88   0
  -3   1  62   32.81    8.54   0
  -3   2  10 2069.31   21.66   0
  -3   2  52  248.46   11.15   0
  -2   2  14  316.77    9.78   0
  -1   2  27    4.39    5.14   0
  -1   2  30  569.71   12.83   0
  -1   2  33   -1.07    5.76   0
  -7   1  16  582.33   13.36   0
  -6   2  16  691.78   12.90   0
  -6   2  46  100.97    9.33   0
  -1   2  36  843.30   15.45   0
  -4   2  54   31.65    8.70   0
  -1   2  24 1710.49   21.22   0
  -7   2  33    7.55    8.36   0
  -2   2  50  194.08    9.77   0
  -1   2  39   -2.64    6.01   0
  -7   1  13   -0.21    6.97   0
  -7   2  36  149.86    9.78   0
  -6   1   5    3.49    5.89   0
  -6   2  13    3.38    6.71   0
  -6   2  49   -5.50    7.61   0
  -4   3  32  887.34   15.08   0
  -7   2  24  408.29   12.29   0
  -7   2  39   -4.33    8.11   0
  -5   2   8 2138.30   21.65   0
  -5   3  28  384.98   11.35   0
  -5   3  31    2.03    6.56   0
  -5   3  34  404.60   11.12   0
  -4   3  26  642.90   12.96   0
  -4   3  29    3.44    5.96   0
  -4   3  35    3.14    6.30   0
  -3   2  55    0.28    7.94   0
  -5   3  25   -1.11    6.10   0
  -5   3  37   -4.05    6.71   0
   4  -2   9   -2.64    4.63   0
   7  -4  -4  634.01   12.84   0
   8  -4  -6  187.68    8.91   0
   8  -2   7   -3.46    7.67   0
   9  -3  -3   -6.09    6.92   0
   9  -1   4  160.10    9.39   0
   4  -3   1    6.70    4.89   0
   5   4  16  291.55   10.64   0
   6  -3   6  448.62   10.93   0
   7   1  15   -1.93    7.18   0
   8   0  11   -7.02    7.56   0
   8   1  10   71.56    7.50   0
   3   3  21   -4.44    6.33   0
   5  -3   5    4.25    5.48   0
   6  -1  16  602.73   12.31   0
   6   0  18  336.67   10.79   0
   7  -1  14  131.51    7.95   0
   7   2  14  113.14    8.43   0
   4   0  19    3.85    6.38   0
   7   0  16  489.25   12.49   0
   2   0  14  332.03    9.40   0
   3  -1  13    9.80    4.85   0
   5   2  21    9.13    7.39   0
   6   2  19   -3.38    7.94   0
   7  -3   7    0.83    6.65   0
   7  -2  12  453.22   11.41   0
   9  -3   0  274.54    9.92   0
   5  -4  -6  776.64   14.91   0
   5   0  20  641.83   12.17   0
   5   3  20  198.42   10.22   0
   6  -4  -2  599.05   12.47   0
   7  -4  -1    3.02    6.22   0
   8  -4  -3   -1.95    6.61   0
   8  -3   5    1.16    7.40   0
   8  -1  12  172.96    9.22   0
   9  -1   7   -1.07    7.37   0
   1   2  17    4.58    4.54   0
   3   0  18 1331.44   16.71   0
   3   2  22  266.26    9.61   0
   4   3  22  159.69    9.28   0
   5  -2  13   -1.27    5.26   0
   8   1  13   -7.60    7.89   0
   5  -1  18  375.48   10.48   0
   6  -2  14  269.15    8.94   0
   6   3  18   78.38    8.43   0
   8   0  14  110.60    8.72   0
   4  -1  17    3.87    6.04   0
   4   2  23   -1.71    5.67   0
   7  -1  17   -3.25    7.94   0
   7   2  17    4.47    7.42   0
   9  -4  -5    4.24    7.65   0
   1   3  19    4.58    5.23   0
   2   2  21    0.87    5.23   0
   6  -3   9    5.98    5.19   0
   9  -3   3   -6.76    7.83   0
   4  -2  12  764.17   12.74   0
   6  -1  19   -1.03    6.30   0
   6   0  21   -0.48    6.43   0
   7   0  19    1.96    6.66   0
   8  -3   8  433.17   11.80   0
   9  -1  10   77.69    8.79   0
   3  -2   8 3246.76   26.89   0
   4  -3   4 1297.98   17.49   0
   5  -3   8 2141.30   20.46   0
   7  -2  15    0.87    6.26   0
   8  -2  13    3.97    7.77   0
   8  -1  15   -6.39    6.97   0
   5  -4  -3   11.48    5.47   0
   5   2  24  287.66   10.79   0
   6  -4   1    0.86    5.51   0
   6   2  22  102.21    8.65   0
   9  -4  -2  150.23    9.04   0
   3   3  24  563.81   12.89   0
   4   0  22  694.19   12.34   0
   5   3  23  -10.07    7.58   0
   8   0  17   -7.63    7.42   0
   9  -3   6  162.07    9.26   0
   5  -2  16 1774.70   18.29   0
   5   0  23    0.65    6.10   0
   6  -2  17   -4.35    6.85   0
   8  -4   3   -1.59    6.91   0
   2   3  23    2.19    5.47   0
   3  -1  16 2094.55   20.56   0
   3   1  23    4.80    5.02   0
   6   3  21   -0.15    7.64   0
   7  -1  20  253.42   10.21   0
   7   2  20  116.38    8.57   0
   9  -2  11   -8.76    7.25   0
   4   3  25   -2.63    6.83   0
   5  -1  21    6.68    5.74   0
   8  -3  11    4.34    7.16   0
   9  -4   1   -7.40    7.17   0
   9  -1  13   -4.15    6.82   0
   3   0  21   -5.85    5.74   0
   3   2  25    2.64    6.05   0
   4   2  26  356.11   11.04   0
   6  -1  22  208.49    9.63   0
   6   0  24  465.86   11.72   0
   7  -4   5    6.63    6.24   0
   7  -2  18  381.38   11.06   0
   7   0  22   86.11    7.81   0
   8  -2  16  331.20   10.89   0
   8  -1  18  121.68    8.67   0
   2   0  17    2.41    4.34   0
   4  -1  20  909.07   13.59   0
   9  -3   9    3.56    7.46   0
   4  -2  15    1.51    4.84   0
   8   0  20  120.33    8.77   0
   4  -3   7    2.61    5.00   0
   5  -4   0 1401.95   18.59   0
   8  -4   6  199.61    8.51   0
   5   2  27    2.10    7.30   0
   6  -2  20  648.53   12.76   0
   6   1  26  232.80   10.52   0
   7   1  24  211.24   10.01   0
   9  -4   4  106.37    8.42   0
   9  -2  14  115.12    8.25   0
   2   2  24 1719.78   19.82   0
   4   0  25   -1.59    6.33   0
   5  -2  19    3.98    6.34   0
   5   0  26  221.21    9.59   0
   5   3  26  162.40    9.45   0
   6   3  24  190.86   10.20   0
   7  -1  23    2.67    7.35   0
   7   2  23   -7.60    7.11   0
   1   2  20 1388.26   19.00   0
   3  -2  11    6.37    4.52   0
   4   1  27    2.12    5.64   0
   8  -2  19    6.61    7.99   0
   8  -1  21   -1.39    8.09   0
   9  -3  12  131.27    9.00   0
   3   3  27    2.21    6.33   0
   5  -1  24  890.62   13.84   0
   5   1  28  378.92   11.42   0
   7  -2  21   -9.34    7.28   0
   7   0  25    2.26    7.32   0
   3   1  26  582.49   12.08   0
   6  -4   7    1.43    4.78   0
   6  -1  25    1.83    7.44   0
   6   0  27    3.97    7.72   0
   8  -4   9    4.03    7.21   0
   9  -4   7    9.60    7.37   0
   1   3  22  344.28   10.57   0
   3  -1  19    5.25    4.80   0
   4   3  28  338.76   11.19   0
   5  -4   3    2.87    5.69   0
   8   0  23    6.10    6.92   0
   9  -2  17    4.51    7.46   0
   4  -1  23    5.40    5.43   0
   4   2  29    3.59    7.00   0
   2   3  26  579.26   12.95   0
   3   0  24 1049.65   14.57   0
   3   2  28  361.38   10.57   0
   4  -2  18 1046.77   14.27   0
   6   2  28  138.70    9.24   0
   7  -4  11   -0.49    6.54   0
   7   1  27  -11.78    8.18   0
   4  -3  10 1070.68   15.29   0
   6  -2  23   -0.24    6.07   0
   6   1  29    2.91    7.03   0
   7  -1  26  242.41   10.32   0
   8  -1  24  230.09   10.07   0
   2   0  20 3478.86   26.51   0
   5  -2  22  294.58    9.68   0
   5   0  29    7.69    7.20   0
   5   2  30   71.61    8.67   0
   6  -3  18  405.51   10.16   0
   7  -3  19    2.94    7.07   0
   8  -4  12  247.30    9.83   0
   8  -2  22   89.35    8.04   0
   9  -4  10  124.32    8.36   0
   5   3  29   -2.31    6.94   0
   6  -4  10  342.90   10.04   0
   6   3  27    1.46    7.33   0
   7  -2  24  298.65    9.76   0
   4   0  28  591.50   11.68   0
   4   1  30  259.04    9.81   0
   5  -1  27    4.03    7.14   0
   8   0  26   84.47    8.25   0
   9  -2  20  128.38    8.27   0
   3  -2  14 1651.06   18.33   0
   5  -4   6  380.15   10.27   0
   5   1  31    0.77    6.41   0
   6  -1  28  364.31   10.41   0
   6   0  30  111.14    8.13   0
   8  -3  20  194.89    9.50   0
   2  -1  15    0.64    4.48   0
   5  -3  17   -0.89    5.12   0
   7  -4  14  356.30   10.41   0
   2   1  25    2.66    4.55   0
   2   2  27   -2.70    4.64   0
   3   3  30  173.41    8.89   0
   8  -5   4  250.46    9.72   0
   8  -4  15    1.84    7.44   0
   9  -4  13    2.38    6.85   0
   3  -1  22  473.18   10.31   0
   3   1  29   -2.81    5.16   0
   4  -2  21    2.19    5.95   0
   4  -1  26  643.10   11.79   0
   4   2  32  303.48   10.70   0
   4   3  31   -1.01    7.17   0
   6  -2  26  354.68   10.11   0
   6   2  31   -3.83    7.48   0
   7  -5   3    2.76    6.38   0
   7  -3  22  155.94    8.79   0
   7  -1  29   -3.34    7.90   0
   7   1  30   69.78    8.16   0
   8  -2  25   -4.17    7.00   0
   8  -1  27    0.08    7.07   0
   6  -4  13   -8.20    6.26   0
   6  -3  21   -0.83    5.76   0
   6   1  32  214.57    9.84   0
   9  -2  23    7.31    7.21   0
   1   2  23    4.56    4.71   0
   3   0  27   -0.64    4.94   0
   3   2  31    5.27    6.23   0
   5  -2  25    5.04    5.74   0
   7  -2  27   -7.07    6.64   0
   5   2  33    4.11    7.86   0
   8  -5   7    0.99    6.72   0
   8  -3  23    4.99    7.41   0
   1   3  25   -3.38    5.10   0
   2   3  29   -3.58    5.60   0
   5  -4   9    5.84    4.60   0
   5  -1  30  298.93   10.20   0
   6  -1  31   -4.12    7.71   0
   7  -4  17    8.63    6.94   0
   9  -4  16  301.14   10.31   0
   2   0  23    4.94    5.26   0
   4   1  33   -1.46    6.55   0
   5  -3  20  579.59   11.76   0
   5   1  34  187.46    9.60   0
   7  -5   6  413.78   11.09   0
   8  -4  18  192.48    9.57   0
   9  -5   8  317.19   11.21   0
   3  -2  17    2.94    4.72   0
   8  -2  28  145.64    9.20   0
   8  -1  30   55.25    8.36   0
   1   1  21    8.20    4.13   0
   6  -4  16  734.79   13.07   0
   6  -3  24  593.30   12.20   0
   6  -2  29   -5.14    7.50   0
   7  -3  25   -2.02    6.47   0
   7  -1  32  214.12   10.20   0
   7   1  33   -6.38    7.73   0
   4  -1  29    0.85    6.52   0
   6   2  34   93.45    8.46   0
   7  -2  30   65.72    8.48   0
   8  -5  10  185.77    9.04   0
   2  -1  18 1192.38   15.96   0
   3  -1  25    4.57    5.78   0
   3   1  32  808.03   13.89   0
   4  -2  24 1798.03   18.25   0
   5  -2  28  390.26   10.51   0
   6   1  35    3.91    7.33   0
   8  -3  26  166.85    9.38   0
   9  -4  19    9.49    7.23   0
   9  -3  24  182.43    9.35   0
   2   2  30  190.80    8.41   0
   3   3  33    4.30    6.70   0
   4   2  35   -1.08    6.97   0
   5  -4  12 1144.59   15.87   0
   7  -5   9    0.14    6.24   0
   7  -4  20  403.93   10.99   0
   8  -4  21   -7.03    7.54   0
   9  -5  11    1.63    6.93   0
   5   2  36  243.18   11.20   0
   6  -1  34  210.09   10.32   0
   3   2  34  398.30   11.02   0
   4  -4   2 1325.55   18.94   0
   5  -3  23    1.51    6.34   0
   5  -1  33   -2.61    6.29   0
   8  -5  13    1.70    6.82   0
   6  -5   5    0.64    5.32   0
   6  -4  19    0.22    6.03   0
   7  -3  28  366.57   11.13   0
   8  -1  33    3.95    7.33   0
   3  -2  20 1419.64   16.57   0
   4   1  36  268.47    9.83   0
   5   1  37    2.98    6.67   0
   6  -3  27    4.27    6.06   0
   6  -2  32  336.98   10.63   0
   7  -5  12  383.13   10.77   0
   7  -1  35   -3.77    7.59   0
   9  -5  14   71.30    7.69   0
   9  -4  22   65.61    7.91   0
   1   2  26  496.03   11.73   0
   2   0  26 1215.17   15.97   0
   7  -2  33   -8.72    7.68   0
   8  -3  29    3.04    7.40   0
   9  -3  27   -0.63    7.71   0
   3  -3   9    1.53    3.94   0
   4  -3  19    5.49    4.97   0
   4  -2  27    1.80    6.00   0
   5  -4  15    3.14    5.68   0
   7  -4  23    1.38    6.00   0
   8  -4  24  292.25   10.54   0
   4  -4   5    1.80    4.78   0
   5  -2  31    7.69    6.01   0
   6  -5   8  775.88   14.22   0
   6   1  38   37.04    8.57   0
   6   2  37   -0.77    7.54   0
   7   0  37   -0.11    7.95   0
   8  -5  16  388.39   10.95   0
   2  -1  21    3.71    4.76   0
   3  -1  28 1313.60   15.85   0
   1   1  24 1703.83   19.49   0
   3   1  35   -2.95    6.39   0
   4   2  38   85.82    8.22   0
   6  -4  22  354.32   10.39   0
   6  -1  37   -3.63    7.08   0
   7  -5  15    2.16    6.37   0
   7  -3  31    2.75    7.58   0
   8  -2  34  107.09    8.97   0
   9  -5  17    1.51    6.94   0
   1   0  19    0.15    4.77   0
   2   1  31   -1.36    5.50   0
   5  -1  36  272.06    9.45   0
   5   2  39   -5.22    7.63   0
   6   0  39    4.50    7.58   0
   9  -4  25   -2.40    6.74   0
   2   2  33   -4.74    5.54   0
   6  -2  35   13.01    7.65   0
   7  -1  38   39.04    8.03   0
   8  -3  32  193.81    9.85   0
   3  -2  23    4.45    4.84   0
   3   2  37    1.08    6.52   0
   4  -4   8 1515.15   18.74   0
   5  -4  18  705.12   12.31   0
   5   1  40  185.63    9.57   0
   6  -5  11   -1.01    5.60   0
   7  -2  36  226.33   10.56   0
   8  -5  19    4.95    7.03   0
   4  -3  22  355.90    9.18   0
   4   1  39    5.75    7.30   0
   9  -5  20   98.10    8.45   0
   2  -2  13    1.10    4.17   0
   4  -2  30  188.94    7.83   0
   4  -1  35   -7.59    6.34   0
   5  -2  34  413.64   10.53   0
   7  -5  18  150.64    8.41   0
   7   0  40  149.10    8.92   0
   6   1  41   -3.96    7.87   0
   8  -2  37    0.27    8.16   0
   9  -4  28   87.61    7.85   0
   1   2  29    1.12    4.90   0
   3  -1  31    1.36    5.26   0
   5  -3  29   -0.03    5.76   0
   6  -1  40  170.80    9.70   0
   7  -3  34  155.03    8.53   0
   2  -1  24 1840.60   18.85   0
   4  -4  11    2.92    4.95   0
   5  -4  21    0.18    6.03   0
   5  -1  39   -5.01    7.17   0
   5   0  41    6.54    7.45   0
   6  -5  14  384.80   10.58   0
   6  -3  33    8.70    7.50   0
   8  -5  22  102.54    8.52   0
   3   1  38  144.69    8.21   0
   4   2  41   -1.33    8.17   0
   6  -2  38   78.51    8.58   0
   6   0  42  118.73    9.18   0
   7  -1  41   10.21    7.85   0
   8  -3  35   -3.49    7.07   0
   9  -5  23   -0.36    6.97   0
   1   1  27    0.39    4.88   0
   3  -2  26  524.73   10.96   0
   4  -3  25   -4.30    6.00   0
   5   2  42  102.98    9.62   0
   7  -5  21   -5.01    6.65   0
   1   0  22  452.61   11.01   0
   4   0  40  386.78   11.08   0
   5   1  43    2.36    7.98   0
   2  -2  16 3026.46   25.22   0
   2   2  36  347.94   10.33   0
   4  -2  33   -4.66    5.56   0
   5  -2  37    5.55    7.23   0
   6  -5  17   -0.81    6.13   0
   4  -4  14  319.65    9.43   0
   4  -1  38  155.44    7.82   0
   4   1  42  155.92    8.31   0
   5  -3  32  678.40   12.81   0
   7  -3  37    2.65    7.75   0
   8  -5  25    4.14    7.09   0
   6  -3  36  293.57   10.48   0
   6   1  44   89.09    8.18   0
   7  -4  32  262.41   10.15   0
   9  -5  26  126.48    8.22   0
   3  -1  34  577.76   11.32   0
   5  -5   7   -1.58    5.30   0
   6  -1  43  -11.58    7.26   0
   8  -3  38   40.48    7.99   0
   2  -1  27    3.79    4.72   0
   3  -3  18  502.18   10.56   0
   5  -1  42  146.16    8.22   0
   5   0  44  148.01    9.60   0
   6  -2  41    0.03    7.69   0
   7  -2  42  113.25    9.30   0
   3  -2  29    5.74    5.84   0
   6  -4  31   -5.24    7.18   0
   6   0  45    3.84    7.13   0
   1   2  32 1136.15   16.67   0
   3   0  39    8.31    6.44   0
   3   1  41   -1.70    6.50   0
   4  -4  17   -1.95    5.33   0
   5  -5  10  678.29   12.96   0
   8  -5  28  143.47    8.97   0
   2  -2  19    2.87    4.58   0
   4  -2  36  353.78    9.79   0
   4   0  43    0.75    7.53   0
   5  -3  35    0.48    7.04   0
   5  -2  40  399.14   11.38   0
   7  -3  40  134.54    9.58   0
   9  -5  29    4.44    6.74   0
   1   0  25    0.16    4.35   0
   1   1  30  554.87   11.80   0
   2   1  37    4.63    5.03   0
   4  -1  41    8.33    6.91   0
   5   1  46   50.20    7.97   0
   7  -5  27   -0.31    6.99   0
   7  -4  35    0.72    7.80   0
   8  -6  17    1.32    6.58   0
   3  -3  21    1.23    5.40   0
   4   1  45   -1.62    7.13   0
   6  -3  39   -0.80    6.60   0
   2   2  39    1.00    5.98   0
   3  -1  37    8.96    6.19   0
   3   2  43    0.48    6.62   0
   5  -5  13    2.77    5.22   0
   6  -5  23   -2.09    5.63   0
   2  -1  30  592.96   11.30   0
   4  -4  20 1268.57   16.19   0
   4  -3  31    1.41    5.49   0
   6  -4  34  143.64    8.85   0
   6  -2  44  198.36    9.99   0
   7  -2  45   -1.81    7.55   0
   8  -6  20  165.43    9.55   0
   8  -5  31   -4.34    7.02   0
   3  -2  32 1164.69   14.94   0
   5   0  47   -0.42    7.77   0
   2  -2  22 1927.80   19.17   0
   5  -5  16  661.28   12.65   0
   5  -4  30  165.75    8.66   0
   7  -6  16  565.52   12.79   0
   7  -5  30  163.05    9.10   0
   3   0  42  274.05    9.73   0
   3   1  44  271.63    9.86   0
   4  -2  39  -10.07    5.89   0
   5  -3  38   76.69    7.19   0
   5  -2  43   -1.92    6.42   0
   6  -5  26  217.27    9.21   0
   7  -4  38  106.69    8.37   0
   7  -3  43   -6.72    7.80   0
   8  -4  39   -7.29    7.62   0
   0   2  25    2.14    4.71   0
   3  -3  24 1572.88   17.14   0
   4   0  46  122.11    9.08   0
   6  -3  42  137.72    9.22   0
   8  -6  23    7.74    7.69   0
   9  -6  24  132.83    8.42   0
   1   2  35    0.33    5.35   0
   2   1  40  412.11   10.86   0
   5   1  49    2.07    8.08   0
   8  -5  34  112.52    8.46   0
   1   1  33    1.77    5.18   0
   3  -1  40  415.79   10.87   0
   4  -3  34  505.61   10.87   0
   5  -5  19    4.93    5.79   0
   6  -4  37    5.59    7.35   0
   6  -1  49   -2.41    7.87   0
   7  -6  19    5.93    6.07   0
   1  -1  20 1532.75   18.10   0
   2  -1  33   -5.85    5.97   0
   2   0  38  223.75    8.79   0
   3  -2  35   -7.25    6.39   0
   4   1  48  161.89    9.38   0
   6  -2  47    6.66    7.90   0
   7  -5  33   -7.31    7.13   0
   2  -2  25   -0.33    4.75   0
   2   2  42  341.78   10.59   0
   5  -4  33   -6.90    5.84   0
   6  -5  29   -0.46    6.61   0
   9  -6  27    3.95    6.22   0
   3  -3  27   -1.40    5.86   0
   4  -2  42  337.18   10.39   0
   5  -3  41   -1.29    7.70   0
   5   0  50   75.95    8.31   0
   7  -4  41    1.94    7.21   0
   7  -3  46   64.40    8.23   0
   8  -6  26  178.65    9.23   0
   5  -2  46   40.37    7.20   0
   7  -6  22  150.69    8.66   0
   3   0  45    2.37    5.94   0
   4  -3  37    5.98    6.85   0
   6  -3  45   13.77    6.91   0
   8  -5  37   -2.35    6.86   0
   3   1  47    2.77    6.57   0
   4   0  49    1.76    7.62   0
   6  -4  40  240.86    9.27   0
   7  -5  36  136.79    9.15   0
   1  -1  23   -1.76    4.48   0
   2  -2  28 1138.49   15.12   0
   5  -4  36  444.00   11.31   0
   7  -6  25    8.78    6.90   0
   8  -6  29    2.77    6.84   0
   0   2  28 1047.92   16.79   0
   1   1  36  842.80   14.10   0
   1   2  38  290.71    9.51   0
   2  -1  36  877.77   13.25   0
   2   1  43    2.13    6.37   0
   3  -4   7    7.48    4.77   0
   3  -3  30  536.27   11.32   0
   3  -2  38  313.31    9.19   0
   4  -4  29    2.73    6.18   0
   5  -5  25   -1.91    6.32   0
   6  -6  15   -1.12    5.62   0
   6  -2  50   82.90    8.80   0
   2   0  41    2.06    6.17   0
   3  -4  10 1089.87   16.34   0
   4   1  51    1.78    7.42   0
   5  -3  44  215.27    9.67   0
   5  -1  51    1.50    7.29   0
   7  -4  44  121.58    8.36   0
   4  -2  45   -0.76    7.23   0
   5  -2  49    1.56    7.77   0
   8  -5  40  120.68    8.23   0
   2  -3  11    6.74    4.10   0
   2   2  45    6.78    6.05   0
   3  -4  13    4.25    5.14   0
   4  -3  40  436.43   11.04   0
   5   0  53   -3.49    7.06   0
   6  -6  18  245.72    9.19   0
   6  -4  43    0.81    7.91   0
   6  -3  48  110.86    8.84   0
   7  -6  28  144.90    8.75   0
   8  -6  32  152.02    9.58   0
   1  -1  26 1216.23   15.87   0
   3   0  48  170.37    9.21   0
   5  -5  28  598.54   12.30   0
   5  -4  39    1.16    7.38   0
   6  -5  35    1.18    6.11   0
   7  -5  39   -7.52    6.71   0
   2  -2  31    0.26    5.09   0
   3  -4  16 2048.84   20.64   0
   4  -4  32  445.83   10.80   0
   6  -6  21    3.67    6.96   0
   0   1  26 1090.90   16.25   0
   2  -1  39    5.78    5.91   0
   3  -3  33    1.03    5.38   0
   3  -2  41   -1.50    5.81   0
   3   1  50  152.72    8.96   0
   4   0  52  122.10    8.42   0
   4  -5   9    5.79    5.18   0
   5  -3  47    6.76    7.45   0
   6  -2  53   -1.78    7.19   0
   7  -4  47    1.92    6.66   0
   0   2  31   -0.33    5.20   0
   1   1  39   -4.28    5.70   0
   2  -3  17    2.79    4.30   0
   2   0  44  614.77   12.39   0
   2   1  46  108.98    7.99   0
   3  -4  19    8.76    5.56   0
   4  -5  12 1091.99   16.15   0
   4  -2  48  272.03   10.28   0
   5  -1  54   43.88    8.11   0
   7  -6  31   -8.81    7.14   0
   8  -6  35   -1.95    6.74   0
   1   2  41    1.35    5.99   0
   4  -5  15    3.15    5.21   0
   4  -3  43   -0.93    6.87   0
   5  -5  31   -0.95    5.69   0
   5  -2  52  115.97    8.75   0
   6  -6  24  542.26   12.11   0
   6  -4  46   85.40    8.43   0
   6  -3  51   -3.28    7.98   0
   1  -1  29    3.75    4.66   0
   2  -2  34  275.87    8.92   0
   4  -4  35    8.09    6.65   0
   4   1  54   46.86    7.14   0
   5  -4  42  194.22    8.61   0
   2  -3  20 1402.39   16.62   0
   3  -3  36  506.21   10.83   0
   4  -5  18  698.46   12.80   0
   0   1  29   -3.33    4.64   0
   1   0  37    1.66    4.88   0
   3  -2  44  313.21   10.15   0
   3   0  51    1.33    6.89   0
   4  -1  53    2.74    7.74   0
   6  -6  27    6.99    6.31   0
   7  -6  34  137.12    8.68   0
   2  -1  42  301.94    9.16   0
   4   0  55   -2.15    7.51   0
   5  -5  34  242.04    9.48   0
   5  -3  50  148.14    9.43   0
   0   0  21    2.45    4.06   0
   2  -3  23    3.59    4.79   0
   4  -5  21    3.66    4.85   0
   1  -2  15    2.04    4.18   0
   1  -1  32 1726.17   17.94   0
   1   1  42  307.71    9.78   0
   2  -2  37   -0.01    6.24   0
   2   0  47    3.61    6.55   0
   3   1  53   -3.95    7.13   0
   4  -4  38  126.76    7.33   0
   4  -3  46   74.41    8.40   0
   4  -2  51   -7.32    7.30   0
   5  -4  45   -4.60    7.31   0
   6  -4  49   -0.61    7.71   0
   0   2  34  255.13    9.43   0
   2   1  49   -4.57    6.48   0
   3  -3  39   -4.21    5.67   0
   4  -5  24  630.72   12.29   0
   5  -1  57   -4.39    6.99   0
   6  -6  30  133.22    7.66   0
   6  -3  54   43.06    7.59   0
   7  -6  37    7.34    6.93   0
   1  -2  18 1206.55   16.01   0
   1   2  44  291.34   10.19   0
   2  -3  26  510.97   10.94   0
   1   0  40  707.98   12.87   0
   3  -4  28  667.97   11.74   0
   3  -2  47   10.17    7.21   0
   0   1  32 1676.46   18.86   0
   1  -2  21    9.59    5.31   0
   3   0  54   66.03    8.40   0
   4  -5  27   -3.17    6.07   0
   5  -6  17    0.25    5.54   0
   6  -6  33   -3.57    7.01   0
   1  -1  35    5.16    4.97   0
   3  -1  52  238.69    9.94   0
   4  -4  41    3.80    6.09   0
   4  -1  56  115.51    8.94   0
   5  -3  53   -1.31    7.74   0
   2  -3  29    4.45    4.94   0
   2  -2  40  738.08   12.49   0
   4  -3  49   -4.08    6.46   0
   5  -4  48  114.09    8.18   0
   3   3   9   -2.63    6.04   0
   3   4   8  499.67   10.94   0
   4   3   4  628.60   12.16   0
   5   2  -3    1.86    5.76   0
   5   3  -4  234.95    9.14   0
   2   6   8  419.62   10.83   0
   4   5  -1  -12.85    7.87   0
   5   0  -7   -0.71    4.69   0
   6   0 -18  247.59    8.94   0
   6   2 -14  100.98    7.95   0
   6   3 -18  162.21    8.58   0
   1   7   9   -0.67    7.42   0
   2   7   4  172.63    9.14   0
   3   5   7   -7.64    7.75   0
   4   1   3   13.67    6.01   0
   4   4   3    8.42    6.42   0
   0   5  16  641.52   13.01   0
   1   4  15    2.86    4.93   0
   4  -1  -7    4.91    4.54   0
   4   2   5    1.42    5.52   0
   5   4  -5    3.17    7.51   0
   6   1 -13   -4.96    5.75   0
   6   3 -15    0.79    7.61   0
   0   6  15    5.73    6.28   0
   1   6  13   -2.69    6.90   0
   2   5  12  365.25   10.14   0
   1   8   5    0.27    7.57   0
   2   2  12  762.39   13.04   0
   3   0   3   -2.29    4.96   0
   5  -1 -12 1100.96   16.07   0
   5   2   0  590.76   11.94   0
   5   3  -1    2.53    6.21   0
   6   0 -15    3.09    5.95   0
   6   2 -11   -0.22    5.90   0
   0   3  15    1.90    4.70   0
   3   2  10  704.88   12.09   0
   4   5   2  157.21    8.71   0
   6   1 -10  203.27    9.01   0
   6   3 -12  127.20    8.64   0
   3   1   8 2751.72   22.67   0
   3   4  11    0.25    7.04   0
   4   3   7    9.93    6.13   0
   4   4   6  199.40    9.63   0
   5   4  -2  157.65    9.42   0
   2   6  11   -0.46    7.82   0
   2   7   7   -2.54    7.73   0
   3   3  12  724.55   12.91   0
   4   6  -2   65.03    7.90   0
   6   0 -12  314.30    9.85   0
   6   2  -8  412.49   11.18   0
   0   4  17    0.19    5.27   0
   5   5  -6   83.11    8.20   0
   1   7  12  177.50    9.43   0
   2   1  10 2143.81   21.35   0
   4   1   6  868.64   12.99   0
   4   2   8  843.35   13.07   0
   5   1   1    0.92    5.56   0
   5   3   2  220.61    8.82   0
   6   1  -7    4.07    6.74   0
   1   5  17    2.89    6.51   0
   4   5   5    9.99    7.66   0
   5  -1  -9    4.35    5.13   0
   5   2   3    1.00    5.94   0
   2   4  16  677.94   12.75   0
   2   5  15   -1.14    7.22   0
   5   4   1   10.43    7.54   0
   4  -1  -4 1293.52   17.20   0
   4   3  10  380.89   10.96   0
   4   4   9    8.75    7.84   0
   5   0  -1    2.65    5.46   0
   5   5  -3   -5.90    7.33   0
   6   0  -9   -4.87    6.25   0
   1   4  18  694.85   13.18   0
   3   6   9    9.77    7.59   0
   7   2 -22   28.89    7.98   0
   2   6  14  102.60    9.01   0
   2   7  10  154.62    9.14   0
   3   2  13   -4.21    5.35   0
   3   4  14  335.31    9.91   0
   5   3   5    2.55    7.43   0
   0   5  19    0.48    5.89   0
   4   0   4 1592.02   17.50   0
   5   1   4  737.63   13.06   0
   7   1 -18  193.76    9.09   0
   7   2 -19   -2.37    6.43   0
   2   2  15   -3.59    4.87   0
   3   0   6  544.23   11.22   0
   3   1  11   15.04    5.54   0
   3   3  15    0.11    5.68   0
   4   2  11   -7.34    6.36   0
   4   5   8  340.78   10.80   0
   5  -1  -6  370.90   10.06   0
   5   2   6  153.25    7.96   0
   5   4   4  122.78    9.16   0
   6  -1 -14  411.07   10.84   0
   6   0  -6  377.87   10.37   0
   6   3  -3    2.70    7.72   0
   1   7  15    3.69    8.41   0
   4   1   9    7.56    5.28   0
   7   1 -15   -4.19    7.82   0
   7   2 -16  131.12    8.34   0
   6   1  -1    6.68    6.72   0
   2   5  18  141.51    8.96   0
   3   6  12  157.80    9.89   0
   4   3  13    0.04    7.27   0
   4   4  12  249.31    9.38   0
   7   2 -13    5.40    6.68   0
   2   4  19    1.24    6.58   0
   5   3   8  442.44   10.90   0
   5   5   3  -14.20    8.08   0
   6  -1 -11   -0.84    5.55   0
   6   2   1   -1.72    7.61   0
   6   3   0  279.94   10.31   0
   7   1 -12  192.21    8.95   0
   1   6  19    3.06    7.25   0
   2   7  13    6.92    7.19   0
   4  -1  -1   12.19    4.31   0
   5   1   7   10.25    6.70   0
   5   4   7    4.53    7.66   0
   6   0  -3    1.60    6.39   0
   1   3  19   11.86    5.55   0
   2   1  13    9.20    4.83   0
   2   6  17   -2.53    7.24   0
   3   5  16  378.60   11.41   0
   4   5  11   -1.77    6.89   0
   5   2   9    1.40    6.12   0
   7   0 -14  108.10    8.00   0
   7   2 -10  141.29    8.64   0
   3   2  16 1777.14   18.18   0
   4   0   7    0.22    5.51   0
   5  -1  -3    2.90    5.30   0
   6   4  -1    1.44    7.21   0
   7   1  -9   -6.82    6.81   0
   1   4  21    7.91    5.98   0
   3   3  18  409.59   10.88   0
   4   2  14  268.14    8.78   0
   6   3   3   -1.90    7.88   0
   4   1  12  879.99   13.28   0
   4   4  15   -9.55    7.91   0
   5   5   6   59.17    8.04   0
   6  -1  -8  784.27   13.65   0
   6   2   4  208.25    8.50   0
   7   0 -11    6.49    6.48   0
   7   2  -7    0.32    7.06   0
   3   0   9   -1.05    5.30   0
   3   1  14  715.44   12.65   0
   3   6  15    4.96    7.69   0
   5   3  11    3.98    6.41   0
   5   4  10  127.45    9.22   0
   6   0   0  874.13   13.91   0
   7   1  -6   97.27    8.37   0
  -1   4  19    4.16    4.84   0
   2   2  18 1038.38   14.54   0
   6   4   2   67.80    7.95   0
   0   5  22  206.08    8.83   0
   2   5  21    5.04    6.72   0
   2   7  16  131.33    9.22   0
   5   1  10  464.24   11.07   0
   5   2  12  477.41   11.34   0
   7   0  -8  588.48   12.38   0
   7   2  -4  164.26    8.94   0
   3   4  20  391.75   11.19   0
   4  -1   2  858.52   13.95   0
   5  -1   0 1443.54   17.25   0
   6  -1  -5    2.95    5.79   0
   6   3   6  162.84    9.18   0
   2   4  22  339.07   10.54   0
   2   6  20  163.54    9.60   0
   3   5  19   -1.35    6.66   0
   6   2   7   -1.01    6.74   0
   7   1  -3    3.68    6.88   0
   1   5  23    2.30    6.02   0
   1   6  22  133.98    8.53   0
   4   2  17   -3.81    6.77   0
   6   0   3    1.61    6.31   0
   3   2  19   -7.81    6.41   0
   4   0  10  404.87    9.62   0
   4   4  18  175.48    9.35   0
   5   0   8  951.13   13.89   0
   5   3  14  143.17    8.17   0
   5   4  13    8.08    7.49   0
   7   0  -5   -1.02    6.47   0
   7   2  -1   -4.95    7.14   0
   3   6  18  174.90    9.22   0
   4   1  15    7.59    5.42   0
   2   1  16 2116.95   20.75   0
   4   3  19   -1.88    6.13   0
   6  -1  -2  319.74    9.60   0
   6   1   8  626.49   12.47   0
   6   3   9    6.33    7.37   0
   7   1   0  362.49   10.68   0
   5  -2 -11    2.40    4.55   0
   5   1  13   11.11    5.81   0
   5   2  15   -8.20    6.15   0
   6   2  10  183.60    9.19   0
   1   4  24  616.24   12.66   0
   2   3  23    5.23    6.16   0
   2   7  19   -1.88    6.55   0
   3   1  17    0.62    5.01   0
   5  -1   3    9.71    5.47   0
   7  -1 -10  204.87    8.75   0
   7   0  -2  207.75    9.33   0
   0   4  23    3.79    5.19   0
   2   5  24  385.26   11.33   0
   3   0  12 2619.80   22.29   0
   3   4  23    7.11    6.97   0
   3   5  22  113.75    8.57   0
   5   3  17    8.07    7.87   0
   5   4  16  299.75   10.46   0
   7   1   3    5.65    7.16   0
   0   3  21   -3.21    4.63   0
   2   6  23   11.17    7.54   0
   4   2  20  653.85   12.32   0
   5   0  11   -0.87    6.20   0
   6   3  12  131.96    8.84   0
   8   1 -11    3.84    5.86   0
   2   0  11   -4.89    4.41   0
   2   4  25   -5.40    5.73   0
   3   6  21   -1.60    8.38   0
   4   0  13    0.90    4.95   0
   5  -2  -8 2001.21   22.67   0
   6  -1   1    3.69    5.10   0
   6   1  11   -0.57    6.03   0
   7   0   1   -3.73    6.59   0
   0   5  25    2.21    5.38   0
   3   2  22  280.06    9.41   0
   4   1  18  364.49    9.43   0
   4   3  22  149.14    8.61   0
   4   5  20  115.59    8.78   0
   5   1  16  636.49   12.36   0
   5   2  18  361.83   10.61   0
   6   2  13   -5.71    6.80   0
   8   1  -8  108.59    8.18   0
   1   5  26  194.67    9.10   0
   5  -1   6  829.87   12.95   0
   7  -1  -4  249.43    9.22   0
   7   1   6  167.89    8.61   0
   5   3  20  206.95    9.66   0
   5   4  19   -7.69    7.54   0
   7   0   4  169.72    9.03   0
   7   2   8  201.63    9.06   0
   8   1  -5    6.45    6.41   0
   3   1  20  921.72   13.97   0
   3   5  25   -9.82    7.27   0
   6  -1   4  743.39   13.05   0
   6   1  14  136.07    8.72   0
   6   3  15    1.83    7.11   0
   8   0  -7    8.29    7.34   0
   2   1  19    7.49    4.57   0
   2   5  27    0.13    7.12   0
   3   4  26  138.83    9.06   0
   4  -1   8 2746.10   23.22   0
   5  -2  -5    4.42    4.74   0
   5   0  14  610.60   11.39   0
   6   2  16  346.42   10.85   0
   1   3  25   -2.25    5.36   0
   1   4  27    7.22    6.03   0
   2   3  26  587.03   11.78   0
   2   6  26  173.74   10.21   0
   3   0  15    0.62    4.64   0
   4   2  23   -1.86    6.02   0
   6  -2  -7    1.49    5.02   0
   7  -1  -1    0.13    5.54   0
   8   1  -2   84.12    7.51   0
   3   6  24  139.42    8.80   0
   4   0  16 1467.30   16.54   0
   4   5  23   -0.94    7.98   0
   5   1  19   -7.99    6.59   0
   5   2  21    5.13    6.46   0
   6   0  12  383.79   10.49   0
   8   0  -4  178.70    8.74   0
   2   4  28  396.58   11.22   0
   3  -1   7   -1.64    4.21   0
   4   1  21    1.40    5.70   0
   4   3  25    3.61    6.33   0
   7   0   7    8.78    7.22   0
   7   2  11   -8.45    6.99   0
   0   4  26  658.22   13.57   0
   3   2  25   -1.38    6.46   0
   3   3  27   -2.22    6.71   0
   5   4  22   68.17    8.49   0
   6  -1   7   -4.61    6.19   0
   6   3  18   84.97    8.27   0
   8   1   1    9.43    6.59   0
   5  -2  -2  827.79   14.33   0
   5   3  23    3.61    8.03   0
   6  -2  -4  846.02   14.34   0
   6   1  17   -4.17    7.44   0
   7  -1   2  318.88   10.18   0
   8   0  -1    5.40    6.43   0
   1   2  23    2.52    4.97   0
   1   5  29   -4.94    7.23   0
   6   2  19    6.16    7.74   0
   7   1  12  140.08    8.93   0
   3   5  28  140.66    9.55   0
   5   0  17    3.62    5.81   0
   0   3  24 1512.93   19.32   0
   3   4  29    6.25    7.26   0
   4  -1  11    8.05    5.70   0
   4   4  27    6.06    7.87   0
   6   0  15   -6.42    7.02   0
   7   0  10  206.99    8.63   0
   7   2  14  131.23    8.80   0
   8   1   4  157.66    9.04   0
   3   1  23   12.08    5.45   0
   4   2  26  374.49   10.23   0
   5   2  24  292.09    9.75   0
   1   2  41    0.79    5.62   0
   2   2  45   -1.91    6.49   0
   3   1  44  256.36    9.67   0
   4  -2  24 1790.18   17.86   0
   4  -1  35    1.42    6.44   0
   7   0  40  145.78    8.57   0
   8  -3  14  124.57    8.88   0
   9  -2  20  111.77    7.64   0
   3  -1  31   -2.98    5.27   0
   5  -3  11   -0.15    5.22   0
   1   1  36  823.98   13.47   0
   2  -1  24 1851.65   18.75   0
   6  -3  18  400.51   10.36   0
   7  -3  19   -7.19    6.17   0
   8  -2  28  139.79    8.47   0
   3  -2  17    4.73    4.45   0
   5   0  44  158.84    9.42   0
   6  -2  32  313.05    9.99   0
   7  -1  38   46.83    8.12   0
   8  -3  17   -3.65    6.16   0
   4  -2  27   -0.89    6.14   0
   4   0  43   -5.18    6.04   0
   5  -3  14  375.38    9.42   0
   5  -2  31   -2.13    6.44   0
   5  -1  39    3.70    6.23   0
   3   2  49   -6.51    6.75   0
   4   2  50   96.32    8.06   0
   6  -3  21    0.59    6.42   0
   6  -1  40  187.90    9.78   0
   7  -3  22  161.33    8.56   0
   7  -2  33    7.57    7.56   0
   2   1  43   -3.66    6.28   0
   3   3  51    2.80    6.48   0
   4  -1  38  168.42    8.29   0
   4   1  48  184.89    9.28   0
   6   0  45   -1.83    7.12   0
   8  -3  20  197.87    9.30   0
   8  -2  31    0.44    7.27   0
   0   1  29   -1.87    4.62   0
   3  -2  20 1421.01   16.29   0
   3  -1  34  580.15   11.09   0
   5  -3  17    6.95    4.73   0
   5   1  49   -0.35    7.75   0
   0   2  37   -0.73    4.93   0
   2  -1  27   -6.61    4.68   0
   3   1  47   12.75    7.24   0
   6  -2  35   -2.23    7.18   0
   2   2  48  254.29    9.56   0
   4  -2  30  197.75    8.39   0
   5  -2  34  410.49   10.76   0
   7  -3  25    7.04    6.89   0
   7  -1  41   -1.60    7.25   0
   8  -3  23   -2.80    6.76   0
   1   1  39   -3.68    5.53   0
   2   0  38  218.89    7.97   0
   5  -1  42  167.45    8.34   0
   5   0  47    3.28    7.40   0
   7  -2  36  217.62    9.77   0
   9  -3  18   67.78    8.24   0
   3  -2  23    4.49    4.79   0
   6  -1  43    0.58    7.15   0
   1   0  31   -0.83    4.32   0
   4  -1  41   -3.68    6.76   0
   7  -3  28  332.94   10.51   0
   8  -3  26  157.71    8.98   0
   3  -1  37    5.28    5.47   0
   3   2  52   97.33    8.70   0
   4   1  51    9.91    7.79   0
   4   2  53   -3.17    6.71   0
   5  -3  23   -4.11    6.16   0
   6  -2  38   77.45    8.43   0
   6   0  48   93.06    7.81   0
   9  -3  21    4.96    6.37   0
   2  -1  30  612.71   11.35   0
   2   1  46  111.74    7.81   0
   4  -3   4 1306.30   18.32   0
   4  -3   7    8.19    4.21   0
   4  -3  10 1123.67   15.99   0
   4  -2  33    1.94    6.31   0
   5  -2  37   -0.91    6.87   0
   7  -1  44  101.09    8.97   0
   3  -2  26  554.49   11.16   0
   3   0  45   -5.49    5.68   0
   7  -2  39    1.38    7.39   0
   0   1  32 1594.77   19.16   0
   3   1  50  158.60    9.21   0
   5  -1  45    2.31    6.51   0
   6  -3  30  178.82    9.00   0
   6  -1  46   50.81    8.80   0
   8  -3  29   -2.06    7.16   0
   9  -3  24  176.33    8.50   0
   0   2  40  715.86   13.68   0
   2   0  41    6.41    5.17   0
   4   0  49   -2.73    7.34   0
   5  -3  26  613.89   11.55   0
   1   1  42  302.23    9.65   0
   1   2  47    0.77    6.68   0
   2   2  51    4.15    6.81   0
   4  -1  44  269.56    9.76   0
   6  -2  41    4.52    7.52   0
   1   0  34  863.80   13.45   0
   2  -1  33    3.87    5.87   0
   3  -1  40  400.94    9.97   0
   4  -2  36  358.49   10.26   0
   5  -2  40  424.93   11.54   0
   7  -4   8  490.90   11.84   0
   7  -4  11   -2.69    5.96   0
   9  -3  27   -5.95    6.43   0
  -1   2  30  537.63   13.10   0
   3  -2  29    0.58    5.24   0
   4  -3  19    1.69    4.93   0
   5  -3  29    1.50    6.30   0
   6  -3  33    2.03    7.38   0
   7  -4  14  352.40   10.39   0
   7  -2  42  118.54    8.74   0
   8  -3  32  193.68    8.95   0
   4   1  54   46.29    7.84   0
   7  -4  17    0.13    6.36   0
   8  -4  15    0.73    6.48   0
   2   1  49   -6.69    6.68   0
   3   0  48  176.47    8.37   0
   3   2  55   -2.21    6.64   0
   4  -3  22  362.21    9.97   0
   5  -1  48  197.22   10.09   0
   8  -4  18  177.58    8.95   0
   0   1  35   -1.57    5.66   0
   1  -1  20 1514.86   18.21   0
   2   0  44  623.41   12.68   0
   3   1  53   -4.83    7.29   0
   5   0  53   -2.53    7.87   0
   6  -2  44  198.29   10.14   0
   6  -1  49    1.22    6.90   0
   7  -4  20  417.89   11.13   0
   2  -2  13    3.57    5.04   0
   3  -2  32 1230.67   15.58   0
   4  -2  39    1.71    6.70   0
   4  -1  47   -5.21    7.74   0
   4   0  52  137.65    8.97   0
   5  -3  32  690.17   12.86   0
   6  -4   7    1.29    5.67   0
   6  -4  10  343.70   10.21   0
   6  -4  13   -0.93    5.94   0
   8  -4  21    6.97    6.59   0
   8  -3  35   -3.90    7.02   0
   1   0  37   -3.45    5.54   0
   2  -1  36  863.08   13.75   0
   4  -3  25    5.58    6.07   0
   5  -2  43    5.97    6.42   0
   6  -4   4  817.81   15.15   0
   6  -4  16  737.37   13.45   0
   6  -3  36  280.81    9.48   0
   7  -4  23    4.79    6.70   0
   7  -3  37    1.82    7.08   0
   7  -2  45   -7.69    7.81   0
   1   1  45   -1.86    5.89   0
   2  -2  16 3043.11   25.04   0
   6  -4  19    1.83    6.46   0
   8  -4  24  301.32   10.48   0
   1  -1  23    3.09    4.37   0
   2  -2  19    0.02    4.54   0
   5  -3  35   -6.11    6.77   0
   5  -1  51   -5.04    7.21   0
   6  -4  22  364.02   10.59   0
   7  -4  26  152.04    8.98   0
   8  -3  38   37.21    8.00   0
   3  -2  35    3.33    5.47   0
   3   0  51    1.31    6.26   0
   4  -2  42  373.39   10.82   0
   4   1  57    2.90    6.75   0
   6  -3  39   -9.07    7.40   0
   6  -2  47   -6.35    7.45   0
   7  -3  40  141.20    8.97   0
   8  -4  27   -0.88    6.85   0
   2  -2  22 1979.55   19.70   0
   2   0  47    1.23    6.50   0
   2   1  52  234.60    9.33   0
   5  -2  46   53.90    8.23   0
   0   1  38  237.32    8.74   0
   1  -1  26 1156.99   15.33   0
   3   1  56   94.52    8.50   0
   4   0  55    4.20    7.46   0
   6  -4  25    5.17    5.74   0
   7  -4  29   -1.58    7.47   0
   9  -4  25    4.85    6.20   0
   1   0  40  673.33   12.17   0
   4  -3  31   -2.11    6.48   0
   5  -3  38   84.76    8.25   0
   8  -4  30   81.18    7.85   0
   2  -2  25   -1.90    5.49   0
   0   0  27   -0.08    4.52   0
   1   1  48  290.31    9.70   0
   3  -2  38  292.98    8.86   0
   5  -4  12 1138.07   15.91   0
   5  -4  15   -2.48    5.72   0
   6  -3  42  145.99    8.45   0
   6  -2  50   91.97    8.80   0
   7  -4  32  269.75   10.39   0
   7  -3  43   -2.46    6.91   0
   9  -4  28   75.17    7.65   0
   1  -1  29   -1.84    4.44   0
   4  -2  45    4.05    6.11   0
   5  -4   9    1.87    5.25   0
   5  -4  18  701.34   12.22   0
   8  -4  33    0.30    6.92   0
   4  -3  34  495.96   10.63   0
   5  -2  49   -0.10    7.18   0
  -8   3   1   -1.64    6.69   0
  -8   3  25   -2.60    7.93   0
  -7   3  29    1.27    7.37   0
  -6   3  -3   -0.03    5.62   0
  -5   2  41    8.23    8.13   0
  -5   3   1    0.21    5.84   0
  -5   3  25   -6.36    6.17   0
  -7   3  -4  615.61   13.95   0
  -6   3  30  163.94    8.82   0
  -3   1  44  301.63   10.89   0
  -3   2  31    3.33    5.51   0
  -7   2  42   73.13    9.29   0
  -9   3  12  151.50    9.52   0
  -9   3  15   -0.46    7.84   0
  -7   3  32  245.55   10.23   0
  -6   1  50   62.17    9.59   0
  -4   2  39    4.76    6.46   0
  -1   1  25    0.86    5.05   0
  -9   3   9    1.90    8.06   0
  -9   3  18  154.13    9.57   0
  -9   3  21    4.22    8.55   0
  -6   3  33   -3.30    7.35   0
  -5   3  -2  788.24   14.56   0
  -4   1  49    5.63    8.08   0
  -4   3  11    4.12    6.56   0
  -4   3  14  656.17   12.57   0
  -4   3  17    1.82    6.58   0
  -2   1  39    4.99    7.01   0
  -9   3   6   69.78    8.16   0
  -8   3  31  -13.51    8.13   0
  -6   3  -6  428.67   11.79   0
  -5   1  51    2.14    8.02   0
  -5   2  44  207.33   11.12   0
  -5   3  31    9.67    7.50   0
  -4   3   8 2688.97   24.21   0
  -4   3  20  894.19   14.80   0
  -3   2  34  570.81   12.85   0
  -7   3  35    0.15    7.53   0
  -8   3  34  108.00   10.17   0
  -6   2  46   91.94    9.69   0
  -6   3  36  289.56   11.31   0
  -4   3  23    5.93    6.03   0
  -2   2  14  327.51   10.56   0
  -9   3  27   -4.18    7.18   0
  -4   2  42  351.17   11.08   0
  -4   3   5    0.10    5.16   0
  -2   2  11   -1.71    4.93   0
  -2   2  17   -0.12    4.93   0
;
_shelx_hkl_checksum              73187
loop_
_space_group_symop_operation_xyz
'x, y, z'
'-y, x-y, z'
'-x+y, -x, z'
'y, x, -z+1/2'
'x-y, -y, -z+1/2'
'-x, -x+y, -z+1/2'
'x+2/3, y+1/3, z+1/3'
'-y+2/3, x-y+1/3, z+1/3'
'-x+y+2/3, -x+1/3, z+1/3'
'y+2/3, x+1/3, -z+5/6'
'x-y+2/3, -y+1/3, -z+5/6'
'-x+2/3, -x+y+1/3, -z+5/6'
'x+1/3, y+2/3, z+2/3'
'-y+1/3, x-y+2/3, z+2/3'
'-x+y+1/3, -x+2/3, z+2/3'
'y+1/3, x+2/3, -z+7/6'
'x-y+1/3, -y+2/3, -z+7/6'
'-x+1/3, -x+y+2/3, -z+7/6'
'-x, -y, -z'
'y, -x+y, -z'
'x-y, x, -z'
'-y, -x, z-1/2'
'-x+y, y, z-1/2'
'x, x-y, z-1/2'
'-x+2/3, -y+1/3, -z+1/3'
'y+2/3, -x+y+1/3, -z+1/3'
'x-y+2/3, x+1/3, -z+1/3'
'-y+2/3, -x+1/3, z-1/6'
'-x+y+2/3, y+1/3, z-1/6'
'x+2/3, x-y+1/3, z-1/6'
'-x+1/3, -y+2/3, -z+2/3'
'y+1/3, -x+y+2/3, -z+2/3'
'x-y+1/3, x+2/3, -z+2/3'
'-y+1/3, -x+2/3, z+1/6'
'-x+y+1/3, y+2/3, z+1/6'
'x+1/3, x-y+2/3, z+1/6'
loop_
_atom_site_label
_atom_site_type_symbol
_atom_site_fract_x
_atom_site_fract_y
_atom_site_fract_z
_atom_site_U_iso_or_equiv
_atom_site_adp_type
_atom_site_occupancy
_atom_site_site_symmetry_order
_atom_site_calc_flag
_atom_site_refinement_flags_posn
_atom_site_refinement_flags_adp
_atom_site_refinement_flags_occupancy
Ba1 Ba 0.0000 0.0000 0.2500 0.01230(2) Uani 1 6 d S T P
Mg2 Mg 0.0000 0.0000 0.0000 0.00981(8) Uani 1 6 d S T P
O3 O 0.1288(3) 0.8363(3) 0.12909(2) 0.02438(18) Uani 1 1 d . . .
C4 C 0.0000 0.0000 0.13033(3) 0.01030(12) Uani 1 3 d S T P
loop_
_atom_site_aniso_label
_atom_site_aniso_U_11
_atom_site_aniso_U_22
_atom_site_aniso_U_33
_atom_site_aniso_U_23
_atom_site_aniso_U_13
_atom_site_aniso_U_12
Ba1 0.01078(3) 0.01078(3) 0.01534(4) 0.000 0.000 0.00539(1)
Mg2 0.00841(11) 0.00841(11) 0.01260(19) 0.000 0.000 0.00420(6)
O3 0.0347(6) 0.0286(5) 0.0248(2) -0.0070(4) -0.0110(5) 0.0270(4)
C4 0.00994(19) 0.00994(19) 0.0110(3) 0.000 0.000 0.00497(9)
loop_
_atom_type_symbol
_atom_type_description
_atom_type_scat_dispersion_real
_atom_type_scat_dispersion_imag
_atom_type_scat_source
C C 0.0033 0.0016 'International Tables Vol C Tables 4.2.6.8 and 6.1.1.4'
O O 0.0106 0.0060 'International Tables Vol C Tables 4.2.6.8 and 6.1.1.4'
Mg Mg 0.0486 0.0363 'International Tables Vol C Tables 4.2.6.8 and 6.1.1.4'
Ba Ba -0.3244 2.2819 'International Tables Vol C Tables 4.2.6.8 and 6.1.1.4'
loop_
_geom_angle_atom_site_label_1
_geom_angle_atom_site_label_2
_geom_angle_atom_site_label_3
_geom_angle
_geom_angle_site_symmetry_1
_geom_angle_site_symmetry_3
O3 Ba1 O3 136.79(3) 25_455 35_445
O3 Ba1 O3 123.27(3) 25_455 36
O3 Ba1 O3 94.16(3) 35_445 36
O3 Ba1 O3 65.02(4) 25_455 34_545
O3 Ba1 O3 94.16(3) 35_445 34_545
O3 Ba1 O3 94.16(3) 36 34_545
O3 Ba1 O3 94.16(3) 25_455 26_445
O3 Ba1 O3 123.27(3) 35_445 26_445
O3 Ba1 O3 65.02(4) 36 26_445
O3 Ba1 O3 136.79(3) 34_545 26_445
O3 Ba1 O3 94.16(3) 25_455 27
O3 Ba1 O3 65.02(4) 35_445 27
O3 Ba1 O3 136.79(3) 36 27
O3 Ba1 O3 123.27(3) 34_545 27
O3 Ba1 O3 94.16(3) 26_445 27
O3 Ba1 O3 178.21(3) 25_455 34_655
O3 Ba1 O3 43.92(3) 35_445 34_655
O3 Ba1 O3 57.12(3) 36 34_655
O3 Ba1 O3 116.77(3) 34_545 34_655
O3 Ba1 O3 84.467(17) 26_445 34_655
O3 Ba1 O3 84.823(18) 27 34_655
O3 Ba1 O3 43.92(3) 25_455 27_545
O3 Ba1 O3 178.21(3) 35_445 27_545
O3 Ba1 O3 84.467(17) 36 27_545
O3 Ba1 O3 84.823(17) 34_545 27_545
O3 Ba1 O3 57.12(3) 26_445 27_545
O3 Ba1 O3 116.77(3) 27 27_545
O3 Ba1 O3 135.45(3) 34_655 27_545
O3 Ba1 O3 57.12(3) 25_455 26_345
O3 Ba1 O3 84.823(17) 35_445 26_345
O3 Ba1 O3 178.21(3) 36 26_345
O3 Ba1 O3 84.467(17) 34_545 26_345
O3 Ba1 O3 116.77(3) 26_445 26_345
O3 Ba1 O3 43.92(3) 27 26_345
O3 Ba1 O3 122.55(3) 34_655 26_345
O3 Ba1 O3 96.53(2) 27_545 26_345
O3 Ba1 O3 116.77(3) 25_455 25_565
O3 Ba1 O3 84.467(17) 35_445 25_565
O3 Ba1 O3 84.823(17) 36 25_565
O3 Ba1 O3 178.21(3) 34_545 25_565
O3 Ba1 O3 43.92(3) 26_445 25_565
O3 Ba1 O3 57.12(3) 27 25_565
O3 Ba1 O3 61.45(4) 34_655 25_565
O3 Ba1 O3 96.53(2) 27_545 25_565
O3 Ba1 O3 96.53(2) 26_345 25_565
O3 Ba1 O3 84.823(17) 25_455 36_455
O3 Ba1 O3 57.12(3) 35_445 36_455
O3 Ba1 O3 116.77(3) 36 36_455
O3 Ba1 O3 43.92(3) 34_545 36_455
O3 Ba1 O3 178.21(3) 26_445 36_455
O3 Ba1 O3 84.467(17) 27 36_455
O3 Ba1 O3 96.53(2) 34_655 36_455
O3 Ba1 O3 122.55(3) 27_545 36_455
O3 Ba1 O3 61.45(4) 26_345 36_455
O3 Ba1 O3 135.45(3) 25_565 36_455
O3 Ba1 O3 84.467(17) 25_455 35_435
O3 Ba1 O3 116.77(3) 35_445 35_435
O3 Ba1 O3 43.92(3) 36 35_435
O3 Ba1 O3 57.12(3) 34_545 35_435
O3 Ba1 O3 84.823(17) 26_445 35_435
O3 Ba1 O3 178.21(3) 27 35_435
O3 Ba1 O3 96.53(2) 34_655 35_435
O3 Ba1 O3 61.45(4) 27_545 35_435
O3 Ba1 O3 135.45(3) 26_345 35_435
O3 Ba1 O3 122.55(3) 25_565 35_435
O3 Ba1 O3 96.53(2) 36_455 35_435
O3 Mg2 O3 180.00(9) 29_445 17_554
O3 Mg2 O3 86.49(3) 29_445 30_455
O3 Mg2 O3 93.51(3) 17_554 30_455
O3 Mg2 O3 93.51(3) 29_445 18_544
O3 Mg2 O3 86.49(3) 17_554 18_544
O3 Mg2 O3 180.00(9) 30_455 18_544
O3 Mg2 O3 86.48(3) 29_445 28
O3 Mg2 O3 93.52(3) 17_554 28
O3 Mg2 O3 86.48(3) 30_455 28
O3 Mg2 O3 93.52(3) 18_544 28
O3 Mg2 O3 93.52(3) 29_445 16_444
O3 Mg2 O3 86.48(3) 17_554 16_444
O3 Mg2 O3 93.52(3) 30_455 16_444
O3 Mg2 O3 86.48(3) 18_544 16_444
O3 Mg2 O3 180.00(7) 28 16_444
O3 Mg2 Ba1 98.29(2) 29_445 13_444
O3 Mg2 Ba1 81.71(2) 17_554 13_444
O3 Mg2 Ba1 42.66(4) 30_455 13_444
O3 Mg2 Ba1 137.34(4) 18_544 13_444
O3 Mg2 Ba1 46.97(4) 28 13_444
O3 Mg2 Ba1 133.03(4) 16_444 13_444
O3 Mg2 Ba1 81.71(2) 29_445 25
O3 Mg2 Ba1 98.29(2) 17_554 25
O3 Mg2 Ba1 137.34(4) 30_455 25
O3 Mg2 Ba1 42.66(4) 18_544 25
O3 Mg2 Ba1 133.03(4) 28 25
O3 Mg2 Ba1 46.97(4) 16_444 25
Ba1 Mg2 Ba1 180.0 13_444 25
O3 Mg2 Ba1 46.97(4) 29_445 13_554
O3 Mg2 Ba1 133.03(4) 17_554 13_554
O3 Mg2 Ba1 98.29(2) 30_455 13_554
O3 Mg2 Ba1 81.71(2) 18_544 13_554
O3 Mg2 Ba1 42.66(4) 28 13_554
O3 Mg2 Ba1 137.34(4) 16_444 13_554
Ba1 Mg2 Ba1 77.154(1) 13_444 13_554
Ba1 Mg2 Ba1 102.846(1) 25 13_554
O3 Mg2 Ba1 133.03(4) 29_445 25_445
O3 Mg2 Ba1 46.97(4) 17_554 25_445
O3 Mg2 Ba1 81.71(2) 30_455 25_445
O3 Mg2 Ba1 98.29(2) 18_544 25_445
O3 Mg2 Ba1 137.34(4) 28 25_445
O3 Mg2 Ba1 42.66(4) 16_444 25_445
Ba1 Mg2 Ba1 102.846(1) 13_444 25_445
Ba1 Mg2 Ba1 77.154(1) 25 25_445
Ba1 Mg2 Ba1 180.0 13_554 25_445
O3 Mg2 Ba1 42.66(4) 29_445 13_544
O3 Mg2 Ba1 137.34(4) 17_554 13_544
O3 Mg2 Ba1 46.97(4) 30_455 13_544
O3 Mg2 Ba1 133.03(4) 18_544 13_544
O3 Mg2 Ba1 98.30(2) 28 13_544
O3 Mg2 Ba1 81.70(2) 16_444 13_544
Ba1 Mg2 Ba1 77.154(2) 13_444 13_544
Ba1 Mg2 Ba1 102.846(2) 25 13_544
Ba1 Mg2 Ba1 77.154(2) 13_554 13_544
Ba1 Mg2 Ba1 102.846(1) 25_445 13_544
O3 Mg2 Ba1 137.34(4) 29_445 25_455
O3 Mg2 Ba1 42.66(4) 17_554 25_455
O3 Mg2 Ba1 133.03(4) 30_455 25_455
O3 Mg2 Ba1 46.97(4) 18_544 25_455
O3 Mg2 Ba1 81.70(2) 28 25_455
O3 Mg2 Ba1 98.30(2) 16_444 25_455
Ba1 Mg2 Ba1 102.846(2) 13_444 25_455
Ba1 Mg2 Ba1 77.154(2) 25 25_455
Ba1 Mg2 Ba1 102.846(1) 13_554 25_455
Ba1 Mg2 Ba1 77.154(2) 25_445 25_455
Ba1 Mg2 Ba1 180.0 13_544 25_455
C4 O3 Mg2 139.89(7) 1_565 16_554
C4 O3 Ba1 97.86(7) 1_565 25_455
Mg2 O3 Ba1 108.29(5) 16_554 25_455
C4 O3 Ba1 90.91(7) 1_565 25_565
Mg2 O3 Ba1 103.15(5) 16_554 25_565
Ba1 O3 Ba1 116.77(3) 25_455 25_565
O3 C4 O3 119.896(7) 1_545 2_665
O3 C4 O3 119.896(7) 1_545 3_455
O3 C4 O3 119.893(7) 2_665 3_455
O3 C4 Ba1 59.61(6) 1_545 25_445
O3 C4 Ba1 149.38(7) 2_665 25_445
O3 C4 Ba1 66.34(6) 3_455 25_445
O3 C4 Ba1 66.34(7) 1_545 25
O3 C4 Ba1 59.61(6) 2_665 25
O3 C4 Ba1 149.38(7) 3_455 25
Ba1 C4 Ba1 99.090(19) 25_445 25
O3 C4 Ba1 149.38(7) 1_545 25_455
O3 C4 Ba1 66.34(6) 2_665 25_455
O3 C4 Ba1 59.61(6) 3_455 25_455
Ba1 C4 Ba1 99.090(19) 25_445 25_455
Ba1 C4 Ba1 99.090(19) 25 25_455
loop_
_geom_bond_atom_site_label_1
_geom_bond_atom_site_label_2
_geom_bond_distance
_geom_bond_site_symmetry_2
Ba1 O3 2.8724(13) 25_455
Ba1 O3 2.8724(13) 35_445
Ba1 O3 2.8724(13) 36
Ba1 O3 2.8724(13) 34_545
Ba1 O3 2.8724(13) 26_445
Ba1 O3 2.8724(13) 27
Ba1 O3 3.0216(14) 34_655
Ba1 O3 3.0216(14) 27_545
Ba1 O3 3.0216(14) 26_345
Ba1 O3 3.0216(14) 25_565
Ba1 O3 3.0216(14) 36_455
Ba1 O3 3.0216(14) 35_435
Mg2 O3 2.0587(7) 29_445
Mg2 O3 2.0587(7) 17_554
Mg2 O3 2.0587(7) 30_455
Mg2 O3 2.0587(7) 18_544
Mg2 O3 2.0588(7) 28
Mg2 O3 2.0588(7) 16_444
Mg2 Ba1 4.02507(7) 13_444
Mg2 Ba1 4.02507(7) 25
Mg2 Ba1 4.02506(7) 13_554
Mg2 Ba1 4.02506(7) 25_445
Mg2 Ba1 4.02509(7) 13_544
Mg2 Ba1 4.02509(7) 25_455
O3 C4 1.2756(7) 1_565
O3 Mg2 2.0588(7) 16_554
O3 Ba1 2.8724(13) 25_455
O3 Ba1 3.0216(14) 25_565
C4 O3 1.2756(7) 1_545
C4 O3 1.2756(7) 2_665
C4 O3 1.2756(7) 3_455
C4 Ba1 3.2985(5) 25_445
C4 Ba1 3.2985(5) 25
C4 Ba1 3.2985(5) 25_455
