#------------------------------------------------------------------------------
#$Date: 2019-12-25 22:26:10 +0200 (Wed, 25 Dec 2019) $
#$Revision: 245890 $
#$URL: file:///home/coder/svn-repositories/cod/cif/2/31/14/2311444.cif $
#------------------------------------------------------------------------------
#
# This file is available in the Crystallography Open Database (COD),
# http://www.crystallography.net/. The original data for this entry
# were provided by IUCr Journals, http://journals.iucr.org/.
#
# The file may be used within the scientific community so long as
# proper attribution is given to the journal article from which the
# data were obtained.
#
data_2311444
loop_
_publ_author_name
'Gotoh, Kazuma'
'Ishida, Hiroyuki'
_publ_section_title
;
 Crystal structures of three hydrogen-bonded 1:2 compounds of chloranilic
 acid with 2-pyridone, 3-hy-droxy-pyridine and 4-hyroxypyridine.
;
_journal_coeditor_code           LH5855
_journal_issue                   'Pt 10'
_journal_name_full
'Acta crystallographica. Section E, Crystallographic communications'
_journal_page_first              1546
_journal_page_last               1550
_journal_paper_doi               10.1107/S2056989017013536
_journal_volume                  73
_journal_year                    2017
_chemical_formula_iupac          '2C5 H6 N O +, C6 Cl2 O4 2-'
_chemical_formula_moiety         '2(C5 H6 N O 1+), C6 Cl2 O4 2-'
_chemical_formula_sum            'C16 H12 Cl2 N2 O6'
_chemical_formula_weight         399.19
_chemical_name_common            'bis(4-hyroxypyridinium) chloranilate'
_chemical_name_systematic
'Bis(4-hyroxypyridinium) 2,5-dichloro-3,6-dioxocyclohexa-1,4-diene-1,4-diolate'
_space_group_crystal_system      triclinic
_space_group_IT_number           2
_space_group_name_Hall           '-P 1'
_space_group_name_H-M_alt        'P -1'
_atom_sites_solution_hydrogens   mixed
_atom_sites_solution_primary     direct
_atom_sites_solution_secondary   difmap
_audit_creation_method           SHELXL-2016/6
_cell_angle_alpha                102.177(3)
_cell_angle_beta                 93.952(3)
_cell_angle_gamma                95.316(4)
_cell_formula_units_Z            2
_cell_length_a                   5.49136(13)
_cell_length_b                   8.2195(4)
_cell_length_c                   18.1382(9)
_cell_measurement_reflns_used    11077
_cell_measurement_temperature    120.0(10)
_cell_measurement_theta_max      30.09
_cell_measurement_theta_min      3.02
_cell_volume                     793.53(6)
_computing_cell_refinement
;
RAPID-AUTO (Rigaku, 2006)
;
_computing_data_collection
;
RAPID-AUTO (Rigaku, 2006)
;
_computing_data_reduction
;
RAPID-AUTO (Rigaku, 2006)
;
_computing_molecular_graphics
;
<i>ORTEP-3 for Windows</i> (Farrugia, 2012)
;
_computing_publication_material
;
CrystalStructure (Rigaku, 2010) and PLATON (Spek, 2009)
;
_computing_structure_refinement
;
SHELXL2016 (Sheldrick, 2015)
;
_computing_structure_solution
;
SHELXS97 (Sheldrick, 2008)
;
_diffrn_ambient_temperature      120(2)
_diffrn_detector_area_resol_mean 10.000
_diffrn_measured_fraction_theta_full 0.999
_diffrn_measured_fraction_theta_max 0.992
_diffrn_measurement_device_type  'Rigaku R-AXIS RAPIDII'
_diffrn_measurement_method       \w
_diffrn_radiation_type           'Mo K\a'
_diffrn_radiation_wavelength     0.71075
_diffrn_reflns_av_R_equivalents  0.0356
_diffrn_reflns_limit_h_max       7
_diffrn_reflns_limit_h_min       -7
_diffrn_reflns_limit_k_max       11
_diffrn_reflns_limit_k_min       -11
_diffrn_reflns_limit_l_max       25
_diffrn_reflns_limit_l_min       -25
_diffrn_reflns_number            12373
_diffrn_reflns_theta_full        25.242
_diffrn_reflns_theta_max         29.983
_diffrn_reflns_theta_min         3.021
_diffrn_standards_number         0
_exptl_absorpt_coefficient_mu    0.448
_exptl_absorpt_correction_T_max  0.948
_exptl_absorpt_correction_T_min  0.890
_exptl_absorpt_correction_type   numerical
_exptl_absorpt_process_details
;
(<i>NUMABS</i>; Higashi, 1999)
;
_exptl_crystal_colour            brown
_exptl_crystal_density_diffrn    1.671
_exptl_crystal_density_method    'not measured'
_exptl_crystal_description       platelet
_exptl_crystal_F_000             408.00
_exptl_crystal_size_max          0.350
_exptl_crystal_size_mid          0.250
_exptl_crystal_size_min          0.120
_refine_diff_density_max         0.752
_refine_diff_density_min         -0.341
_refine_ls_extinction_method     none
_refine_ls_goodness_of_fit_ref   1.071
_refine_ls_hydrogen_treatment    mixed
_refine_ls_matrix_type           full
_refine_ls_number_parameters     247
_refine_ls_number_reflns         4597
_refine_ls_number_restraints     0
_refine_ls_restrained_S_all      1.071
_refine_ls_R_factor_all          0.0399
_refine_ls_R_factor_gt           0.0304
_refine_ls_shift/su_max          0.001
_refine_ls_shift/su_mean         0.000
_refine_ls_structure_factor_coef Fsqd
_refine_ls_weighting_details
'w = 1/[\s^2^(Fo^2^)+(0.0406P)^2^+0.3136P] where P=(Fo^2^+2Fc^2^)/3'
_refine_ls_weighting_scheme      calc
_refine_ls_wR_factor_gt          0.0770
_refine_ls_wR_factor_ref         0.0798
_reflns_number_gt                4124
_reflns_number_total             4597
_reflns_threshold_expression     I>2\s(I)
_cod_data_source_file            lh5855sup1.cif
_cod_data_source_block           III
_cod_original_cell_volume        793.52(6)
_cod_database_code               2311444
_shelx_space_group_comment
;
The symmetry employed for this shelxl refinement is uniquely defined
by the following loop, which should always be used as a source of
symmetry information in preference to the above space-group names.
They are only intended as comments.
;
_shelx_hkl_file
;
   0   1   1 6032.64   65.01
   0  -1  -1 5968.59   61.13
   0  -1  -1 6029.64   62.08
   0   1   1 5956.75   61.33
   0   1  -216034.38  172.54
   0   1  -216050.27  171.24
   0  -1   215861.63  168.71
   0  -1   215883.32  168.26
   0   0  -3  713.98   13.46
   0   0   3  734.41   14.86
  -1   0   0  148.14    4.94
   1   0   0  150.08    5.09
   1   0   0  146.71    6.87
  -1   0   0  154.75    5.14
   0  -1  -226552.87  315.57
   0   1   227293.78  326.10
  -1   0   1  868.66    9.76
   1   0  -1  858.47   11.60
  -1   0   1  847.76   11.78
  -1   0   1  830.87    9.27
   0   1  -3  489.74   10.83
   0  -1   3  508.51    7.49
   0   1  -3  497.51    8.07
   0   1  -3  520.01    7.65
   1   0   1 6102.83   62.10
  -1   0  -1 5952.62   63.28
  -1   0  -1 6155.64   63.62
   1   0   1 6085.85   65.09
   1   0  -2   -1.00    1.00
  -1   0   2 4938.69   46.20
  -1   1   0 3935.10   42.90
   1  -1   0 3975.65   43.02
   1  -1   1 2241.57   32.54
  -1   1  -1 2256.54   27.19
   1  -1  -1 9024.70   97.60
  -1   1   1 9131.22   99.03
   1   0   2  246.62    7.70
  -1   0  -2  235.53    9.37
   1   0   2  229.03   15.37
  -1   0  -2  231.22    5.75
   0   0  -4  360.00    9.49
   0   0   4  369.97   10.06
   1   1  -1 1004.11   14.88
  -1  -1   1 1018.75   14.44
   1   1  -1  997.04   15.80
  -1  -1   1 1045.03   16.61
   0  -1  -316599.16  201.16
   0   1   316266.42  188.41
  -1  -1   028630.50  347.25
   1   1   027923.44  337.99
  -1  -1   028432.99  338.59
   1   1   028544.52  344.92
   0   1  -4 9485.29  107.62
   0  -1   4 9821.00  112.49
   0  -1   4 9905.34  105.40
  -1   1  -230801.16  383.58
  -1   1  -230749.40  379.01
  -1   1  -232172.84  358.86
   1  -1   229826.70  364.75
   1   0  -3   -0.63    0.71
  -1   0   354928.71  707.55
  -1  -1   2 1260.56   12.91
  -1  -1   2 1228.63   19.04
   1   1  -2 1225.11   12.84
   1   1  -2 1196.32   25.34
   1  -1  -2 1505.56   26.49
  -1   1   2 1498.49   20.39
   0   2  -133189.90  410.30
   0  -2   133573.53  418.28
   0  -2   133554.33  416.90
   0   2  -132774.72  406.61
   0  -2   025256.37  306.62
   0   2   025857.78  314.85
   0   2   026060.99  318.02
   1   1   1  615.26   13.32
   1   1   1  623.64   12.92
  -1  -1  -1  600.57   14.04
  -1  -1  -1  630.56   12.77
   0  -2   025746.73  312.36
   0  -2   2 3116.33   36.04
   0   2  -2 3190.42   37.35
   0  -2   2 3065.51   35.56
   0   2  -2 3078.98   35.55
   1   0   3 3375.20   35.42
   1   0   3 3391.45   42.69
   1   1  -3 123641.   1896.
  -1  -1   3 126569.   1962.
  -1   0  -3 3480.16   42.59
  -1   0  -3 3380.12   42.80
  -1   1  -3 1777.74   35.78
   1  -1   3 1843.17   27.83
  -1   1  -3 1752.17   25.54
   1  -1   3 1868.73   14.12
   0   2   1  926.51   19.62
   0  -2  -1  981.65   29.07
   0  -2  -1  895.74   20.17
   0   2  -334318.52  424.03
   0   2  -334787.09  431.92
   0  -2   334653.94  429.32
   0  -2   334777.39  440.32
   1  -1  -3 2789.56   40.64
  -1   1   3 2957.74   36.42
  -1  -1  -217549.88  208.17
   1   1   217501.40  205.54
   1   1   217562.53  208.15
  -1  -1  -217666.67  207.66
   1   0  -4   11.56    2.31
  -1   0   4 1038.41   16.90
   0  -1  -421673.13  273.02
   0   1   421991.40  278.54
   0   0   515940.72  186.78
   0   0  -515704.10  183.49
   0  -1   5 5081.26   57.80
   0   1  -5 4723.46   53.73
  -1   2  -1 213299.   3638.
  -1   2  -1 213763.   3604.
   1  -2   1 209615.   3563.
  -1  -1   491013.97 1329.49
   1   1  -495110.57 1308.64
   1   1  -492881.21 1366.39
   1   1  -492734.61 1276.01
  -1   2   012326.34  156.48
   1  -2   012177.81  143.36
   0   2   2  759.53   19.45
   0  -2  -2  717.52   18.01
   0   2   2  751.54   18.79
   0   2  -436307.50  460.56
   0   2  -436262.97  454.48
   0  -2   436092.42  449.67
   0  -2   436238.25  453.01
  -1   2  -2 198570.   3268.
  -1   2  -2 196703.   3309.
   1  -2   2 193730.   3245.
   1  -1   440185.51  525.67
  -1   1  -440656.11  533.94
  -1   0  -411336.67  135.45
   1   0   411513.74  126.04
   1   0   411539.85  138.05
  -1   2   1  134.05   11.38
   1  -2  -1  144.77   18.49
  -1  -1  -3 5563.81   66.98
   1   1   3 5491.77   77.36
  -1  -1  -3 5489.45   67.58
   1   1   3 5455.12   65.09
  -1   1   4 1841.62   25.90
   1  -1  -4 1831.83   33.79
  -1  -2   1  232.14   13.69
  -1  -2   1  393.94   12.12
   1   2  -1  213.80    8.69
   1   2  -1  248.20   20.25
  -1   2  -332601.89  381.88
   1  -2   330999.47  404.17
  -1   2  -331964.78  407.25
   1  -2   331334.61  366.92
   1   2  -256831.78  760.41
  -1  -2   259099.61  825.73
   1   2  -257366.69  784.25
  -1  -2   258570.12  780.97
   1   0  -5 1828.01   25.34
  -1   0   5 1946.30   22.68
   1   2   0 4810.17   64.04
  -1  -2   0 4893.50   57.40
   1   2   0 4797.43   70.54
  -1  -2   0 4897.39   62.01
   1  -2  -2  551.65   24.95
  -1   2   2  546.75   16.86
  -1  -1   552216.98  719.50
  -1  -1   553328.02  677.92
   0   2   314977.90  182.36
   0  -2  -315046.71  183.90
   0   2   314946.22  183.68
   1   2  -3 173825.   2850.
  -1  -2   3 177452.   2951.
   1   2  -3 167983.   2701.
  -1  -2   3 177402.   2870.
   0  -1  -5 5171.00   64.23
   0   1   5 5296.65   76.25
   0  -2   5   93.68    7.38
   0   2  -5  103.90    8.17
   0   2  -5   98.75   12.34
   0  -2   5  103.70   11.75
   0   2  -5  112.37   12.07
   0   1  -6  274.56   16.88
   0  -1   6  317.33   11.98
   0   0  -639607.07  525.42
   0   0   640869.39  545.01
   1   2   1 8395.28  107.82
  -1  -2  -1 8451.12   99.31
  -1  -2  -1 8359.80  102.09
   1   2   1 8284.90  110.44
  -1   1  -521943.12  272.59
   1  -1   522340.61  279.14
   1  -2   410935.01  141.07
  -1   2  -412058.91  120.37
   1  -2   411530.31  116.00
  -1   2  -411078.79  135.33
  -1   2  -411065.45  132.60
  -1   0  -5  177.59   12.58
   1   0   5  180.62   14.01
   1   0   5  179.02   12.98
   1   2  -456067.38  767.85
  -1  -2   458487.30  765.19
  -1  -2   457416.99  789.71
   1   2  -456504.74  738.56
  -1  -1  -435238.11  460.33
   1   1   435652.85  469.20
  -1  -1  -436397.50  468.20
   1   1   435942.75  469.45
  -1   2   3   12.52    8.70
   1  -2  -3   13.45    8.30
  -1   1   5  401.22   12.38
   1  -1  -5  389.25   19.37
  -2   0   1 2329.07   33.92
   2   0  -1 2364.11   37.94
  -2   0   1 2352.41   30.56
  -2   0   1 2317.60   32.52
   2   0   0 1912.48   26.07
  -2   0   0 1972.51   26.15
  -2   0   0 1941.79   24.92
  -2   0   0 1979.55   31.12
   2   0   0 1965.86   25.10
   0  -3   1 7513.42  101.84
   0   3  -1 7602.65  100.88
   0   3  -1 7637.07   92.38
   0  -3   1 7643.34  102.01
   0   3  -2 6386.10   76.71
   0  -3   2 6459.76   78.03
   0  -3   2 6636.00   88.01
   0   3  -2 6478.51   77.17
   1   2   2 1597.59   27.36
   1   2   2 1598.13   26.69
  -1  -2  -2 1648.95   27.24
  -1  -2  -2 1603.58   28.16
  -1   0   615382.69  174.32
   1   0  -615076.47  170.41
   0   2   4   -5.74    6.96
   0  -2  -4    2.89    7.86
   0   2   4    5.23    6.57
  -1  -1   653385.36  693.08
  -1  -1   652722.56  719.71
   1   1  -6   -3.58    1.51
  -2   0   2  144.91    6.06
  -2   0   2  141.22   10.18
  -2   0   2  132.91    9.15
  -2   1   0 5284.82   69.05
   2  -1   0 5135.07   60.17
  -2   1   0 5283.06   62.01
   0   2  -6 4653.07   61.76
   0   2  -6 4446.22   51.29
   0  -2   6 4310.59   54.56
   0   3   0  531.40   16.69
   0  -3   0  526.41   25.58
   0  -3   0  482.93   26.42
   0   3   0  504.16   25.15
  -2   0  -1  149.56    7.12
   2   0   1  143.74   11.06
  -2   0  -1  147.20    9.40
   2   0   1  151.34   15.07
   0   3  -3  221.69   10.40
   0   3  -3  234.92   10.95
   0  -3   3  211.47   10.57
   0  -3   3  223.16   10.66
  -2   1   1  427.68   11.12
   2  -1  -1  428.10   11.10
  -2   1  -120452.67  251.91
  -2   1  -120833.37  242.54
  -2   1  -120411.88  256.40
  -1   2  -5    5.76   12.63
   1  -2   5    7.01    2.72
  -1   2  -5    2.48    6.99
   1   2  -5  912.65   12.85
   1   2  -5  944.53   19.09
  -1  -2   5  887.08   19.08
  -1  -2   5  873.99   11.88
   0  -1  -6 9842.38  118.76
   0   1   610231.44  133.78
   0   1  -7 5902.48   69.84
   0  -1   7 5996.42   70.87
   2  -1  -2 1018.25   16.38
  -2   1   2 1112.10   22.86
  -2   0   3 2957.71   30.70
  -2   0   3 2762.05   37.01
   2   0  -3 2717.12   27.92
   1  -1   6 5015.17   64.61
  -1   1  -6 4947.55   63.37
   0  -3  -150694.66  694.03
   0  -3  -150175.58  686.92
   0   3   149675.20  676.84
   0   3   149260.37  672.97
  -2   1  -2 7173.85   97.29
  -2   1  -2 7158.52   85.52
  -2   1  -2 7483.10   79.29
   1  -2  -491907.04 1367.40
  -1   2   493441.48 1394.86
   0   3  -4 5865.90   73.88
  -2   0  -2 5979.93   69.96
   2   0   2 5752.23   78.43
   0  -3   4 5931.36   76.02
  -2   0  -2 5933.29   80.95
   2   0   2 5763.40   66.82
   0  -3   4 5710.72   66.15
   0   3  -4 5699.87   66.99
  -1   3  -1 9112.31  111.33
   1  -3   1 8925.17  108.88
  -1   3  -1 8969.79  110.00
  -2  -1   135517.87  466.58
  -2  -1   135217.22  439.45
   2   1  -134629.06  445.99
   2   1  -135164.22  444.18
   0   0  -725113.53  313.74
   0   0   726257.86  329.83
  -1   3  -2  202.57   12.70
  -1   3  -2  208.32    8.07
   1  -3   2  187.97   12.11
   1   2   331640.55  408.72
   1   2   331739.08  421.45
   2   1  -2 6917.54   71.97
   1  -3   015119.80  185.59
   1   1   566343.49  941.09
  -1  -2  -332273.64  417.58
  -1  -2  -331711.65  410.42
  -1   3   015587.40  185.21
   1   1   564902.26  909.42
  -1  -1  -564881.75  919.33
  -2  -1   2 7236.18   78.53
  -1   3   014822.78  182.40
  -2  -1   2 6877.64   91.34
   2   1  -2 6745.14   80.50
  -1   0  -6 3867.21   61.54
   1   0   6 4000.54   53.28
   1   0   6 3927.09   45.92
   2   1   0 7103.34   80.42
  -2  -1   0 7571.05   97.31
   2   1   0 7141.58   90.77
  -2  -1   0 7378.55   83.51
  -1   3  -3 1107.08   18.87
   1  -3   3 1077.00   29.69
  -1   3  -3 1122.02   21.85
   1  -3   3 1098.97   15.25
   1  -1  -6  238.56   16.25
  -1   1   6  265.90   10.32
  -2   1   3 3966.10   51.01
   2  -1  -3 4408.73   49.65
   2   1  -313020.36  164.95
  -2  -1   313162.81  159.74
  -2  -1   314291.63  151.82
  -2  -1   314076.12  151.08
  -1   3   1 7121.81   99.73
   1  -3  -1 6907.69   85.53
  -1   3   1 7233.07   96.90
  -2  -1  -186593.45 1265.76
  -2  -1  -187150.65 1283.79
   2   1   185156.31 1250.89
   2   1   185889.15 1262.04
  -2   0   4 4418.51   63.65
   2   0  -4 2705.31   26.54
  -2   0   4 4460.27   47.98
  -2   1  -343797.84  585.67
  -2   1  -344152.44  596.55
  -2   1  -344911.46  560.71
   2  -1   3   -0.61    1.22
   0  -3  -2   80.22   11.20
   0   3   2   71.79   11.16
   0  -3  -2  101.76   12.03
   0   3   2   63.29   18.99
   1   2  -6 8566.18  111.74
  -1  -2   6 8387.56  100.10
   1   2  -6 8611.71   89.33
   0   2   530783.21  399.43
   0  -2  -531006.30  402.61
   0   3  -5 3166.80   39.09
   0   3  -5 3205.37   38.33
   0  -3   5 3142.61   38.31
   0  -3   5 3242.65   39.31
   2   0   3  172.80   17.54
  -2   0  -3  121.30   10.74
  -2   0  -3  148.09   10.05
   2   0   3  141.34    5.90
  -1   2  -6 6501.12   81.30
   1  -2   6 6694.72   67.24
  -1   2  -6 6465.82   86.81
   0   2  -720108.38  249.97
   0   2  -719909.86  244.76
   0  -2   719967.36  237.65
   1   1  -7  385.29    6.58
  -1  -1   7  448.70   10.81
   2  -2   017722.32  223.72
  -2   2   018505.36  226.25
   1   0  -7    1.90    4.03
  -1   0   7    6.00    7.48
  -2   2  -1  744.53   25.33
   2  -2   1  648.14   15.93
   1   3  -214095.24  171.96
  -1  -3   214171.83  174.03
   1   3  -214113.83  164.82
  -1  -3   214585.18  176.22
  -1   3  -4 4038.59   44.61
   1  -3   4 3857.12   58.33
   1  -3   4 3756.40   43.03
  -1   3  -4 3877.57   50.58
  -1  -3   124776.69  316.01
   1   3  -124441.54  309.94
   1   3  -124280.39  300.04
  -1  -3   125631.25  326.05
  -2   2   1 2359.95   33.65
   2  -2  -1 2185.76   30.96
  -2  -1   421808.79  237.23
  -2  -1   422147.11  241.16
  -2  -1   420634.90  268.24
   2   1  -420453.34  254.89
  -1  -3   3  370.08   14.88
   1   3  -3  385.35    9.94
  -2   2  -220902.06  260.27
   1   3  -3  443.31   21.42
   2  -2   220381.70  262.05
  -1  -3   3  526.87   10.94
  -2  -1  -2 2224.72   39.88
   2   1   2 2191.96   31.17
  -2  -1  -2 2294.09   31.40
   2   1   2 2205.61   29.66
   1  -3  -2 3901.01   52.40
  -1   3   2 2258.05   34.88
  -1   2   5  128.65   11.17
   1  -2  -5  126.26   10.94
  -2   1   452595.72  711.87
   2  -1  -451960.21  693.40
  -1  -3   041401.84  556.40
   1   3   040297.87  537.27
  -1  -3   041235.24  546.18
   1   3   039917.56  536.83
  -1  -2  -4 5834.98   73.80
   1   2   4 5701.81   72.63
  -1  -2  -4 5717.13   84.31
   1   2   4 5683.74   72.15
  -1   1  -7 4925.51   63.78
   1  -1   7 5184.49   76.93
  -2   1  -4 4205.74   42.60
   2  -1   4 4143.84   55.34
  -2   1  -4 4127.94   53.11
  -2   1  -4 4076.05   54.79
   0   1   7 4890.81   71.97
   0  -1  -7 4706.80   69.00
  -2   2   242542.08  566.74
   2  -2  -240406.68  532.81
  -2   0   5  131.03   10.71
   0  -1   8 6005.87   72.16
   2   0  -5   42.47    3.80
  -2   0   5  119.21    7.02
   0   1  -8 5797.19   69.67
   1   3  -4  189.29   11.27
   1   3  -4  174.45   11.09
  -1  -3   4  183.79    6.84
  -1  -3   4  184.12   18.84
   0  -3  -3   68.40   11.38
   0   3   3   55.13   10.91
   0   3   3   55.38   11.40
  -2   2  -3 1650.23   36.86
  -2   2  -3 1708.02   29.70
   2  -2   3 1705.65   27.55
  -1  -1  -6  120.68   11.79
   1   1   6   86.05   11.59
   1   1   6   98.51    9.96
   0   3  -6   57.13   10.75
   0  -3   6   45.17    6.89
   0   3  -6   67.47    7.25
   0  -3   6   59.89    6.45
  -2   0  -419523.12  228.07
   2   0   419338.64  229.23
  -2   0  -418998.32  239.14
   2   0   418896.13  238.23
  -1   3  -542519.95  571.48
   1  -3   542862.83  544.63
  -1   3  -543624.96  548.14
   1  -3   542408.48  568.48
  -1   0  -739804.85  534.73
   1   0   7  202.25   10.61
   1   3   110873.02  134.22
  -1  -3  -110954.84  149.22
  -1  -3  -111250.14  137.32
   1   3   110677.15  138.58
   0   0  -8 3819.08   49.72
   0   0   8 3858.64   58.74
  -2  -1   517190.40  222.47
   1   2  -7 1636.30   19.53
  -1  -2   7 1647.19   26.07
   1  -1  -7  515.66   21.40
  -1   1   7  569.17   21.07
  -2  -1  -3   26.92    7.37
  -2  -1  -3   21.46    8.53
   2   1   3   14.94   13.37
   2   1   3   21.54    6.56
  -2  -2   2 2927.57   41.93
   1  -3  -3 1000.18   21.99
  -1   3   3 1008.48   22.90
   2   2  -2 2804.51   31.00
   2   2  -2 2816.25   39.32
  -2  -2   2 2935.06   36.67
   2   2  -1   36.45   14.48
  -2  -2   1   35.91   15.36
   2   2  -1   32.88    8.92
  -2  -2   1   37.98    9.33
  -1   2  -715429.85  202.66
  -1   2  -715388.62  188.60
   1  -2   715797.92  174.76
  -2   2   312748.49  154.15
   2  -2  -312677.90  160.24
   1   3  -522777.72  287.42
  -1  -3   522849.30  289.00
  -1  -3   523701.45  283.05
   1   3  -522995.62  271.87
   0  -2  -611701.60  157.37
   0   2   611873.45  148.03
   2   2  -3 8650.02  116.02
  -2  -2   3 8855.61  119.15
  -2  -2   3 9327.83   97.48
   2   2  -3 8916.05   92.99
   2  -1  -5 9388.08  106.28
  -2   1   5 9684.53  111.41
  -2  -2   0  529.73   18.17
   2   2   0  531.94   15.06
  -2  -2   0  492.34   16.02
   2   2   0  510.45   17.49
   0  -2   8  405.55   12.25
   0   2  -8  360.74   10.68
   0   2  -8  361.72   17.11
   0  -2   8  384.59   10.25
  -2   2  -4 1418.34   36.76
  -2   2  -4 1422.81   34.98
   1   1  -8  261.46   10.45
  -1  -1   8  276.14    7.27
  -1   0   821407.97  265.62
   1   0  -820903.82  258.07
   2  -1   5  324.90   15.40
  -2   1  -5  325.12   15.16
   1   3   2  119.03   12.64
  -1  -3  -2  124.22   12.98
  -1  -3  -2  104.77   11.82
   1   3   2  141.39   18.49
  -1  -2  -5    9.31   14.79
   1   2   5    4.48    8.21
   1   2   5    3.65    7.93
   2   0  -6 2479.92   26.92
  -2   0   6 4126.05   46.19
   1  -2  -611156.55  137.80
  -1   2   610991.15  144.91
  -2  -2   4  225.46   13.07
   2   2  -4  211.23    5.18
  -2  -2   4  227.53    5.58
   2   2  -4  249.41   12.58
   0   3   412627.40  160.61
   0   3   412484.50  158.23
   0  -3  -412409.66  156.67
  -1   3  -633746.79  455.65
   1  -3   633211.56  434.45
   1  -3   633548.98  410.82
  -1   3  -634666.60  423.83
  -1   3  -633557.01  446.20
  -2  -2  -1  787.15   16.66
   2   2   1  739.23   25.17
   2   2   1  692.88   22.13
  -2  -2  -1  776.85   19.24
   0   3  -716896.76  199.69
   0   3  -715953.00  193.82
   0  -3   715859.10  194.25
   0   3  -715869.31  197.59
   0  -3   716251.42  193.12
  -2   0  -5  600.61   18.37
   2   0   5  600.48   27.46
   2   0   5  592.80   14.82
  -2   0  -5  637.29   17.71
  -2  -1   625563.91  338.24
   1   3  -642473.72  548.73
  -1  -3   642772.38  576.92
   1   3  -643062.47  590.00
  -1  -3   643941.70  565.49
   2  -2  -4 1150.98   20.31
  -2   2   4 1136.58   29.40
   0  -4   2 2635.53   38.01
   0   4  -2 2535.50   46.82
   0  -4   2 2561.86   46.91
   0   4  -2 2608.24   37.17
  -2  -1  -4 2174.90   34.14
   2   1   4 2128.30   35.87
   2   1   4 2079.90   42.97
  -2  -1  -4 2177.26   31.12
  -1   1  -8   35.34   10.31
   1  -1   8   65.22   11.21
   1  -3  -4 4204.81   57.12
  -1   3   4 4342.47   59.72
   0   4  -1 1805.19   31.05
   0  -4   1 1748.21   29.90
   0  -4   1 1804.50   40.25
   0   4  -1 1792.96   29.53
   0   4  -3   24.44    7.91
   0  -4   3   31.73    8.49
   0   4  -3   20.53    8.31
   0  -4   3   24.88    8.18
  -2   3  -115434.57  203.97
   2  -3   114881.28  185.54
  -2   2  -5 5552.78   81.97
  -2   2  -5 5544.53   74.50
  -2   3   0 9031.87  113.34
   2  -3   0 8852.02  120.16
   0   1   825648.50  331.52
   0  -1  -824584.06  326.62
   1   1   7   73.68   19.13
   1   1   7   61.41   16.35
  -1  -1  -7   56.18   18.58
  -1  -2   8  421.02   13.79
   1   2  -8  407.38    9.80
   1   2  -8  405.08    9.58
   0  -1   9 3507.99   46.28
   0   1  -9 3414.42   44.95
  -2   3  -2 2663.82   40.62
   2  -3   2 2637.45   39.10
  -2   3  -2 2732.18   30.32
   2   2  -5 6858.38   86.36
  -2  -2   5 6935.72   87.39
   2   2   2 1606.18   26.92
  -2  -2  -2 1644.56   26.86
  -2  -2  -2 1628.42   38.43
   2   2   2 1553.53   33.68
   0  -4   0  618.61   19.37
   0   4   0  614.61   27.96
   0   4   0  660.47   19.94
   0  -4   0  645.99   18.67
   2  -1  -6  176.36    8.02
  -2   1   6  210.83   14.61
   1   3   3 7833.94   99.50
  -1  -3  -3 7928.53  103.29
   1   3   3 7739.62   99.72
  -1  -3  -3 8013.02  102.04
   0   4  -4  306.27   11.60
   0  -4   4  279.13   18.94
   0   4  -4  265.71   18.83
   0  -4   4  306.34   11.77
   1   0   8 1965.84   33.33
  -1   0  -8 1823.64   41.89
  -2   3   1 4636.66   72.47
   2  -3  -1 4399.86   58.24
  -1   4  -223651.43  293.46
   1  -4   222146.41  293.97
  -1   4  -223231.94  300.89
   1  -4   221404.61  264.61
   1  -2   8 5157.33   56.51
   1  -4   139214.06  530.17
  -1   2  -8 5053.75   66.50
  -1   2  -8 5034.33   64.30
   1  -2   8 5364.71   70.82
  -1   4  -139560.52  537.77
  -1   4  -140838.62  552.54
  -2   3  -321298.15  273.84
  -2   3  -322532.66  258.71
   2  -3   320980.78  278.57
   1  -1  -8  158.09   10.34
  -1   1   8  179.40   10.61
   0   0   932984.66  433.31
   0   0  -931138.51  416.14
   2  -1   6 1846.05   32.51
  -2   1  -6 1761.62   31.87
  -1   4  -3 6778.99   97.89
   1  -4   3 6805.51   86.73
   1  -4   3 6594.10   77.90
  -1   4  -3 6875.12   79.53
   0   2   7 8421.06  108.16
   0  -2  -7 8336.30  106.47
  -1   4   0 9898.98  121.95
   1  -4   0 9766.99  124.73
  -1   4   0 9730.09  136.19
   1  -3   7  204.45    7.72
  -1   3  -7  201.08   12.90
  -1   3  -7  169.41   18.86
   2   0  -7 3376.92   38.21
  -2   0   7 3523.84   40.90
   0  -4  -123938.31  310.84
   0   4   124358.34  331.18
   0   4   123994.15  312.21
   0  -4  -123951.63  312.65
   0  -2   921460.79  275.39
   0   2  -920915.49  259.71
   0  -2   921668.45  265.24
   0  -3  -5  901.45   23.51
   0   3   5  929.48   36.07
   0   3   5  893.72   23.02
   1   3  -7 7763.60   96.02
  -1  -3   7 8068.26   85.88
  -1  -3   7 7656.32   95.16
   1   3  -7 7773.01   87.19
   1   3  -7 7780.08   84.31
   0   4  -5  150.65   10.03
   0  -4   5  137.82    9.49
   0  -4   5  170.41   15.71
   0   4  -5  140.28    9.13
  -1  -1   916480.42  197.81
   1   1  -915292.68  181.88
   2  -2  -5   10.18    6.88
  -2   2   5   -0.23    5.79
  -2   3   217531.94  221.93
  -2  -1   7  725.87    6.15
   2  -3  -217427.30  219.47
  -2  -1   7  728.19   19.34
   2   1  -7  723.26    6.42
   1   2   6    5.94    9.53
  -1  -2  -6   12.41   15.86
   1   2   6   15.04   14.67
   0   3  -8 1609.65   23.45
   0   3  -8 1661.85   25.27
   0  -3   8 1640.76   23.35
   2   0   617866.27  214.25
  -2   0  -617845.14  240.39
   2   0   617517.68  225.42
  -2  -2   6 5633.30   73.42
   2   2  -6 5589.88   83.43
  -1   2   7 7579.25   95.74
   1  -4   4  169.67   20.50
  -1   4  -4  144.92    7.30
   1  -4   4  171.34   13.19
   1  -2  -7 7449.07   94.40
  -1   4  -4  164.07   12.90
  -2   3  -4 3224.15   57.96
  -2   3  -4 3309.02   30.86
   2  -3   4 3135.01   45.57
  -2  -1  -5 1017.09   19.95
  -2  -1  -5  940.38   22.64
   2   1   5  901.29   17.27
   2   1   5  906.40   21.86
   1   0  -9 3327.17   41.28
  -1   0   9 3433.90   42.91
  -2  -2  -3 5216.94   68.43
   2   2   3 5019.11   74.77
   2   2   3 5050.82   65.06
  -2  -2  -3 5217.31   67.75
   1  -3  -5 1991.40   34.12
  -1   3   5 2009.37   46.92
  -1   4   1    6.71    8.90
   1  -4  -1    5.19   14.72
  -1   4   1    0.90    7.64
  -2   2  -6 3575.12   60.91
  -2   2  -6 3652.29   53.42
   1   3   4 6858.79   90.42
  -1  -3  -4 6939.67   90.86
  -1  -3  -4 6814.50  105.02
   1   3   4 6802.53   89.38
   0   4   2  794.24   22.10
   0   4   2  791.68   33.35
   0  -4  -2  761.07   22.61
   0  -4  -2  814.14   22.03
   1   4  -2  140.57   16.53
   1   4  -2  148.98   12.74
  -1  -4   2  109.89   12.95
  -1  -4   2  120.85   15.46
  -1  -4   3  532.47   27.95
   1   4  -3  581.40   21.15
  -1  -4   3  589.46   20.40
   1   4  -3  583.67   17.69
  -2   3   3 6198.86   81.11
   2  -3  -3 6154.28   89.40
  -1   4  -519989.82  240.70
   1  -4   519214.45  244.07
   0   4  -6    0.71    6.69
   0   4  -6   18.53    6.18
   1  -4   519158.21  226.87
   0  -4   6    6.69   10.14
  -1   4  -519476.67  248.99
   0  -4   6    6.25   10.26
   2  -1  -7 8473.08  103.92
  -2  -3   2  206.80   23.47
   2   3  -2  200.61   13.13
  -2   1   7 9101.66  112.88
  -2  -3   2  238.12    9.06
   2   3  -2  186.24    7.99
   1  -1   913382.46  170.48
  -1   1  -912760.16  162.02
   1   2  -9 1561.80   22.58
  -1  -2   9 1586.80   26.53
   1   2  -9 1615.25   18.88
   1   4  -1   29.26   10.02
  -1  -4   1   43.83   11.63
   1   4  -1   23.99    8.43
  -1  -4   1   27.98    8.79
   2   3  -311721.96  159.00
   2   3  -311868.31  138.44
  -2  -3   313042.51  148.01
  -2  -3   312226.00  156.19
  -2  -3   1   89.20   13.48
   2   3  -1   98.05   11.49
   2   3  -1   83.35    7.66
  -2  -3   1  108.67   12.64
   2  -3   5 3440.83   49.45
  -2   3  -5 3584.63   62.10
  -1   4   2  367.81   18.09
   1  -4  -2  366.06   26.59
  -1   4   2  360.44   16.72
  -2   3  -5 3561.44   53.09
  -1  -4   4 1743.92   30.95
   1   4  -4 1647.89   24.32
   1   4  -4 1723.45   29.42
  -1  -4   4 1702.65   30.12
   1   1   8  569.11   17.39
  -1  -1  -8  611.66   20.01
   1   1   8  619.71   19.86
  -3   0   113190.74  154.72
   3   0  -112792.72  154.84
  -3   0   113026.55  156.72
  -3   0   112985.50  160.89
   2  -1   7   -1.67    2.66
  -2   1  -7 8175.64  106.79
   0   1   9  347.23   15.61
   0  -1  -9  327.29   23.66
  -3   0   0 8925.45  111.00
  -3   0   0 8834.21  104.31
  -3   0   0 8774.22  112.22
   3   0   0 8550.17  101.35
  -3   1   0 6095.20   76.61
  -3   1   0 6254.90   71.86
  -3   1   0 6179.19   75.13
  -3   1   1 7180.35   87.20
  -1  -4   0   51.52   12.41
   1   4   0   29.21    9.14
  -3   1   1 7091.70   84.47
   1   4   0   33.40   17.80
  -1  -4   0   52.38   10.02
  -3   1   1 7056.41   88.88
  -2  -2   7 3424.04   48.73
  -3   0   213607.49  162.78
  -3   0   213224.69  170.40
  -3   0   213471.05  163.97
  -2  -3   414606.10  163.12
   2   3  -413777.22  175.60
  -2  -3   414293.52  183.29
   0   1 -10 2449.49   43.67
   0  -1  10 2536.16   45.00
   2   3  -414130.52  161.17
   1   3  -8 5781.61   62.96
  -1  -3   8 5650.43   71.80
  -1   3  -8 1636.94   36.20
   1   3  -8 5732.85   61.51
   1  -3   8 1568.69   17.67
  -1   3  -8 1645.46   39.08
   1   3  -8 6053.09   85.43
  -2  -3   0 1276.05   26.96
   2   3   0 1193.08   28.17
  -2  -3   0 1256.22   29.67
   2   3   0 1205.98   25.32
  -1   2  -915375.05  196.27
   1  -2   915965.47  214.66
  -2   2   6 5132.63   66.21
   2  -2  -6 4923.73   69.91
   2   2   4 1389.91   26.94
  -2  -2  -4 1451.99   38.01
   2   2   4 1410.47   25.48
  -2  -2  -4 1477.53   27.35
  -3   1  -1 6472.61   78.02
  -2   0   811263.99  129.73
   2   0  -810132.00  114.89
  -3   1  -1 6502.40   82.74
  -3   1  -1 6346.59   78.91
   1   0   9 1771.20   32.33
  -1   0  -9 1792.90   32.18
  -2  -1   814551.79  152.55
   2   1  -814426.20  152.53
  -2  -1   813718.34  175.87
  -3   1   2 2311.49   32.12
  -3   1   2 2234.83   31.20
  -3   1   2 2307.08   30.85
   3  -1  -2 2167.70   35.55
   3   0   1  266.43   11.99
  -3   0  -1  325.38   12.33
   3   0   1  265.53    9.48
  -3   0  -1  298.23   15.51
  -3   0  -1  316.89   16.84
   0   3   6 1442.21   29.55
   0   3   6 1437.23   30.83
   0  -3  -6 1448.20   30.18
   1   4  -5  370.48   14.72
   1   4  -5  364.04   10.71
  -1  -4   5  400.13   10.41
  -1  -4   5  371.22   15.58
  -1   1   9  147.61   10.52
   1  -1  -9  137.92   17.07
  -3   0   3 5440.61   77.36
  -3   0   3 5490.22   65.60
  -3   0   3 5502.67   67.30
  -1   4  -6 2930.58   37.37
   1  -4   6 2873.76   51.91
  -1   4  -6 2850.38   42.50
   1  -4   6 2834.35   37.51
   0   4   3 4879.03   81.59
   0   4   3 4730.34   79.25
   0  -4  -3 4853.68   68.30
   0   3  -9 3373.06   44.51
   0   3  -9 3257.66   41.65
   0  -3   9 3174.13   39.96
  -2  -1  -6 5190.49   65.95
  -2  -1  -6 5084.27   70.03
   2   1   6 5087.58   69.96
   2   1   6 5048.02   62.83
  -2   2  -7   -2.58    8.03
   0  -2  -8 6298.15   83.98
   0   2   8 6385.92   85.43
  -2   2  -7    2.82    7.18
  -2   0  -7 8383.97  109.83
   2   0   7 8313.26  109.20
   2   0   7 8155.27   93.01
  -2   3   4 2987.82   44.57
   2  -3  -4 2837.46   51.83
   1  -3  -6   18.63   10.41
  -1   3   6   15.44   10.38
   1   2   7  129.14   22.35
   1   2   7   98.78   12.57
  -1  -2  -7  109.41   22.11
   0   0 -10 4704.14   63.09
   0   0  10 4819.40   64.98
  -2  -3   511806.99  152.14
   2   3  -511472.69  146.54
  -2  -3   512543.11  133.55
   2   3  -511827.25  126.11
   0  -4   712422.10  157.25
   0   4  -712235.38  146.09
   0   4  -711924.46  152.84
   0  -4   711991.02  144.41
   0  -2  10 1116.39   25.75
   0   2 -10 1019.89   19.55
   0  -2  10 1072.27   20.38
  -3   1  -217383.71  227.83
  -3   1  -217998.10  209.60
  -3   1  -217338.27  222.31
  -1  -4  -1  458.32   31.13
  -1  -4  -1  526.94   17.56
   1   4   1  461.44   16.41
   1   4   1  468.76   28.60
  -2  -3  -126453.77  340.94
   2   3   125493.01  346.03
   2   3   125268.20  324.92
  -2  -3  -126002.35  356.51
   1  -4  -3 5707.46   91.44
  -1   4   3 5931.82   81.10
  -1   4   3 5721.70   79.16
   1   1 -10  272.76    8.91
  -3   1   349174.20  664.49
   3  -1  -345100.40  609.40
  -3   1   348103.40  661.19
  -1  -1  10  306.53   14.03
  -1  -3  -530279.29  406.08
   1  -2  -8 5342.76   70.97
   1   3   530068.19  402.85
   1   3   530019.86  402.37
  -1   2   8 5668.64   74.83
   3   0   2 4340.92   56.24
  -3   0  -2 4596.26   60.91
  -3   0  -2 4699.30   55.88
   3   0   2 4382.03   66.85
  -2   3  -6   64.64   11.77
  -2   3  -6   76.36   12.65
  -3  -1   1  154.90   11.45
  -3  -1   1  172.89    8.11
   3   1  -1  150.48   10.69
   3   1  -1  164.76    8.06
  -3  -1   226784.10  359.02
  -3  -1   227300.82  334.17
  -3  -1   227151.56  340.84
   3   1  -225400.50  327.39
  -3   0   4 1741.96   21.90
  -3   0   4 1813.19   25.87
  -3   0   4 1718.61   28.91
  -1  -4   6 5096.86   68.07
   3   1   0  364.29   11.70
  -3  -1   0  356.65   11.49
   1   4  -6 5278.32   79.11
  -1  -4   6 5288.53   65.55
  -3  -1   0  375.72   21.58
   3   1   0  389.30   13.04
   1   4  -6 5015.82   64.50
  -1   0  10  195.22   10.07
   1   0 -10  169.70    9.72
  -3   2   0 3464.12   40.82
  -3   2   0 3240.56   45.41
   3  -2   0 3162.40   43.84
   3   1  -3  533.73   16.74
  -3  -1   3  580.64   13.67
  -3  -1   3  574.03   13.03
  -3  -1   3  550.54   26.31
  -3   2  -1   73.45   11.11
  -3   2  -1   54.35    5.19
  -3   2  -1   80.97   10.23
   3  -2   1   53.84    9.87
  -3   2   1 3996.04   48.73
  -3   2   1 3932.78   61.15
   3  -2  -1 3727.02   49.80
  -2   4  -1  612.64   20.90
  -2   4  -1  594.39   14.52
   2  -4   1  570.94   19.60
   2  -1  -8    7.20    9.27
  -2   1   8    7.81    9.76
  -3   1  -3 8075.58  104.90
  -3   1  -3 8133.06  113.14
  -3   1  -3 8239.52   90.38
  -2   4  -222677.66  315.04
  -2   4  -223671.70  295.59
  -2  -2   8 2124.91   35.95
   2   3  -652579.72  745.28
   2   3  -653904.18  696.18
  -2  -3   654181.61  773.41
  -2  -3   657086.49  740.16
  -3   1   4  269.98    9.61
   3  -1  -4  256.86    8.87
  -3   1   4  281.31   13.58
  -2   4   0 1944.18   38.00
   2   3   2 7430.12   94.84
   2   3   2 7456.99  109.87
  -2  -3  -2 7756.49   99.22
  -2  -3  -2 7563.54  100.87
  -2   4   0 1878.01   35.02
   2  -4   0 1805.62   32.92
  -1  -4  -2  -14.71   18.69
   1   4   2  -13.38   16.73
   1   2 -10 6048.51   72.24
   1   2 -10 6096.50   66.83
   1   4   2   22.96   15.10
  -1  -2  10 6673.65   74.91
  -1  -2  10 6105.97   78.82
  -1  -4  -2   13.20    9.51
   3   1   1  323.44   12.57
  -3  -1  -1  377.41   20.15
  -3  -1  -1  372.77   13.65
   3   1   1  360.91   19.06
  -3   2  -2 2148.56   36.60
  -3   2  -2 2248.81   28.53
  -3   2  -2 2183.74   45.38
  -2  -2  -5 9468.35  121.73
  -1   4  -7 2300.45   30.29
   1  -4   7 2211.23   35.12
   2   2   5 9216.36  119.92
   2   2   5 9002.84  113.80
  -1   4  -7 2225.22   35.70
   1  -4   7 2154.44   30.15
  -2  -2  -5 9317.96  133.46
  -2   4  -364696.05  965.33
   2  -4   362620.44  908.01
  -2   4  -366858.92  933.89
   1   3  -9 8912.44  103.30
   1   3  -9 8976.73   98.73
  -1  -3   9 8984.49  112.68
  -3   0  -3 1293.75   35.41
   3   0   3 1200.86   18.10
  -3   0  -3 1233.66   19.17
   3   0   3 1198.88   33.57
   3  -2  -2  320.64   18.83
  -3   2   2  350.62   13.63
  -3  -1   4 1429.85   19.54
   3   1  -4 1361.86   26.62
  -3  -1   4 1417.86   18.72
  -3  -1   4 1377.06   26.44
   2  -1   8 2127.20   26.99
   2  -1   8 2136.64   51.16
  -2   1  -8 2161.57   50.66
   2  -2  -7 9605.30  127.66
  -2   2   710437.34  140.24
   0   4   4 6204.06   99.45
   0   4   4 6253.08   87.30
   0  -4  -4 6374.63  102.04
   1  -3   9  697.23   10.27
  -1   3  -9  660.98   18.22
  -1   3  -9  743.64   20.58
  -1   1 -10   49.21   11.52
   1  -1  10   20.66   11.03
  -2   3   5 1455.30   28.66
   2  -3  -5 1426.33   37.50
  -3   0   512999.14  145.36
  -3   0   512445.98  168.87
  -3   0   513073.07  150.92
   0   4  -8 1414.52   23.62
   0  -4   8 1434.85   23.57
   0   4  -8 1458.32   29.83
   0  -4   8 1436.50   23.24
   2  -4  -1 4464.81   63.28
  -2   4   1 4425.28   64.19
  -1   4   425540.89  360.85
  -1   4   426739.84  373.13
   1  -4  -425312.37  337.96
  -2  -1   9  250.07    6.67
  -2  -1   9  194.93   14.85
   2   1  -9   -3.53    1.63
  -1  -1  -9 1995.87   37.01
   1   1   9 1993.69   43.73
   1   1   9 1951.69   36.29
   2   0  -9 5947.66   66.31
  -2   0   9 6382.36   76.14
   1   4  -7 9460.83  114.39
  -1  -4   7 9582.19  122.94
   1   4  -7 9630.71  121.58
  -1  -4   7 9993.31  113.76
  -2   4  -436869.38  508.26
  -2   4  -437685.58  471.37
   2  -4   435584.48  486.89
  -3   2  -3 6822.99   73.17
  -3   2  -3 6533.36   88.84
  -3   2  -3 6534.70   96.91
   2  -2   8 4103.77   37.48
   2  -2   8 4146.54   37.68
   0  -3  -7   50.03   13.08
  -2   2  -8 4099.73   70.06
   0   3   7   29.10   11.68
  -2   2  -8 4035.86   60.07
   2  -2   8 4188.84   62.49
   0   3   7    3.75   21.15
   1  -2  10  118.47   13.24
  -1   2 -10  118.42   12.69
  -2   3  -7 4896.56   68.35
  -2   3  -7 4863.74   82.88
  -3  -1  -2   21.37    7.53
   3   1   2   -0.21   10.55
   3   1   2   -8.96    7.45
  -3  -1  -2   -3.30    7.99
  -3   1  -4 1654.63   31.83
  -3   1  -4 1607.48   29.46
  -3   1  -4 1656.28   23.79
   3  -1   4 1544.10   21.21
   2   1   7 5161.57   72.88
  -2  -1  -7 5195.02   73.57
   2   1   7 5065.59   64.48
  -3   2   3 1574.08   27.10
   3  -2  -3 1441.51   24.04
   0   1  10 2652.03   53.50
   0  -1 -10 2608.60   53.04
   0   3 -1010385.01  125.58
   0  -3  1010463.59  125.45
  -1   3   723394.58  311.19
   0   3 -1010208.00  133.45
   1  -3  -722698.32  313.73
   0   1 -11 2632.29   39.19
   0  -1  11 2786.72   50.45
   2   0   8  331.34   10.50
  -2   0  -8  313.74   28.40
   2   0   8  316.74   17.82
  -3  -1   5  218.99    6.25
  -3  -1   5  214.36    6.44
  -3  -1   5  232.54   14.48
   3  -1  -534177.24  445.13
  -3   1   535527.90  467.69
   2   3  -742789.82  611.41
  -2  -3   744158.39  615.30
   2   3  -744382.75  540.92
   2   3  -743797.55  535.46
   1   3   6 4913.73   84.51
  -1  -3  -6 4919.20   71.50
   1   3   6 4833.10   70.29
  -1   0 -1011719.06  166.31
   1   0  1012179.39  159.62
   0   5  -213341.21  183.28
   0  -5   213458.88  172.56
   0  -5   212982.62  168.41
   0   5  -213199.76  172.24
   2   3   3   35.15   18.40
   0  -5   327205.86  371.38
   0   5  -327062.49  359.68
   2   3   3   23.28   17.06
  -2  -3  -3   24.71   11.47
   0   5  -327438.73  360.87
   0  -5   327064.27  371.07
  -2  -3  -3   14.22   10.02
  -2   4   2  860.02   36.34
   2  -4  -2  816.58   22.83
  -1  -4  -3  985.79   28.77
  -1  -4  -3 1000.10   37.39
   1   4   3 1012.59   39.46
  -1  -2  -824470.77  341.15
   1   2   825065.75  345.95
   1   4   3  949.36   24.60
   1   2   824763.19  332.67
   1  -1 -10  132.77   11.27
  -1   1  10  143.11   11.76
  -3   0  -4 2440.06   38.19
  -3   0  -4 2360.97   39.79
   3   0   4 2332.36   38.31
   3   0   4 2245.56   33.68
   0   2   9 3786.89   57.45
   0  -2  -9 3668.28   55.54
   0  -5   1   82.82   13.23
   0   5  -1   72.49   13.15
   0  -5   1   69.15   14.17
   0   5  -1   85.67   12.79
   0  -5   4 2387.40   49.80
   0   5  -4 2394.59   50.56
   0  -5   4 2420.57   38.47
   0   5  -4 2474.11   38.56
  -2   4  -5  133.52   14.86
  -2   4  -5  121.75    5.98
   2  -4   5  123.45   14.77
   0  -2  11 1614.12   25.70
   0   2 -11 1551.45   26.68
   0  -2  11 1658.34   36.44
  -1   2   9   16.52    9.95
  -3   0   6 4310.79   60.62
  -3   2  -4 6319.65   97.97
  -3   2  -4 6789.01   69.73
  -3   2  -4 6492.04   90.04
   1  -2  -9    0.68   12.89
  -3   0   6 4474.50   51.37
   3   0  -6 4027.15   44.49
   1  -4   8 3875.91   54.76
  -1   4  -8 3782.81   54.07
   1  -4   8 3880.33   47.52
  -1   4  -8 3876.51   57.18
  -1   4  -8 4120.18   49.08
  -3  -2   215823.36  205.29
   3   2  -215179.38  178.99
   3   2  -215035.48  192.64
  -3  -2   216046.23  195.26
   1  -5   2    1.13    9.60
   1  -5   2   81.69   12.13
  -1   5  -2   82.72   23.34
  -1   5  -2   91.02   10.58
   1   1 -11 7942.32   93.71
  -1  -1  11 8296.96   98.55
  -2  -2   9 6074.85   81.94
   0   0 -1110256.34  132.10
  -3  -2   1 4103.75   50.57
   3   2  -1 3817.31   47.29
   0   0  1110833.37  150.60
  -3  -2   1 3952.08   57.09
   3   2  -1 3909.50   55.45
  -1   5  -3 9442.75  125.00
   1  -5   3 8757.05  115.88
  -1   5  -3 9153.30  136.00
   1  -5   3 8963.19  121.32
  -3   2   4  260.59   12.28
   3  -2  -4  222.18   11.09
  -3  -1  -311291.90  145.03
   3   1   310984.83  151.21
  -3  -1  -311471.79  141.96
   3   1   310818.63  131.83
   3   2  -3    8.67    9.67
   3   2  -3   16.10    6.57
  -3  -2   3    2.48    8.29
  -3  -2   3   -0.02    5.30
   1  -5   1 4963.18   70.73
  -1   5  -1 5210.00   80.37
  -1   5  -1 5135.06   74.81
   0   5   0 6913.51   93.73
   0   5   0 6700.79   93.35
   0  -5   0 6723.92   93.60
   0  -5   0 6834.95   92.82
  -2  -2  -6  473.55   20.47
  -2  -2  -6  528.95   19.52
   2   2   6  504.05   20.28
   0  -4  -5 3666.51   58.63
   0   4   5 3647.95   58.40
   0   4   5 3609.30   70.89
   2   2   6  494.95   17.44
  -2   1   9 3482.06   45.71
   2  -1  -9 3269.30   49.92
  -2   3   6  958.14   24.34
   2  -3  -6  880.36   32.31
   0   5  -5 5610.70   82.33
   0  -5   5 5366.36   83.18
   0  -5   5 5639.42   83.34
   0   5  -5 5366.46   81.99
  -1  -4   8  112.13   11.85
   1   4  -8   94.77   18.41
   1   4  -8   86.11    6.69
  -1  -4   8   97.75   10.16
   3   2   0   71.02   18.08
   3   2   0   66.88    8.36
  -3  -2   0   76.55   20.06
  -3  -2   0   83.40    9.18
  -1   4   5  156.63   17.27
  -3   1  -511059.05  143.39
   3  -1   510851.31  117.72
   1  -4  -5  133.34   15.64
  -1   4   5  131.83   27.57
  -3   1  -511383.03  129.42
  -3   1  -511024.80  146.23
   3  -1   510889.15  144.55
  -1   5  -4  130.67   23.71
  -3  -1   6    2.56    2.14
   1  -5   4  155.83   20.33
  -3  -1   6   12.06   14.20
   1  -5   4    1.19   14.95
  -3  -1   6    0.87    2.73
  -1   5  -4  125.45   15.02
   1   3 -10 1889.07   28.14
  -1  -3  10 1891.32   31.99
   3  -3   1  689.36   20.12
  -3   3  -1  711.43   21.19
   0   4  -9 5698.01   73.33
   0   4  -9 5715.52   71.76
   0   4  -9 6025.49   81.11
   1   3 -10 1907.25   27.70
   0  -4   9 5655.89   70.06
  -3   3   0 1495.81   41.61
   3  -3   0 1388.19   27.72
   2  -4  -315129.47  199.49
  -2   4   315516.15  206.09
  -3  -2   4 9693.62  105.05
  -3  -2   4 9768.75  106.86
   3   2  -4 9265.22   98.51
  -3  -2   4 9244.81  122.43
   1  -5   0 3035.21   49.74
  -1   5   0 3025.82   50.65
  -1   5   0 3068.78   58.16
   3   2  -4 8988.61  117.64
   1   0 -1113288.00  164.31
  -1   0  1114050.85  183.34
  -2   2   813914.26  176.65
   2  -2  -812494.31  166.01
   3  -1  -6 2311.41   29.47
  -3   1   6 2449.66   32.35
   3  -3   2 1087.22   25.43
  -3   3  -2 1118.90   26.09
  -3   3  -2 1217.88   15.44
   1   2 -11 3926.00   51.85
  -1  -2  11 3933.62   55.60
  -1  -2  11 4221.34   55.07
  -1   3 -10  277.25   14.64
   3  -3  -1 5147.95   80.77
  -1   3 -10  319.84   15.90
   1  -3  10  315.10   10.94
  -3   3   1 5451.16   74.36
   2  -1   9  170.55   16.06
   2   4  -315862.64  192.08
  -2   1  -9  127.05   25.43
  -2  -4   317430.82  211.56
   2  -1   9  113.59    9.66
   2   4  -315851.72  207.81
  -2  -4   316240.10  215.96
   2   4  -2 6157.50   83.30
  -2   3  -812403.78  162.49
  -2  -4   2 6680.57   90.85
  -2  -4   2 6300.01  104.00
   2   4  -2 6181.14   85.50
  -2   3  -812523.59  181.58
   2   3  -826445.44  369.85
  -2  -3   825559.35  341.43
  -2   4  -6 2847.85   27.72
  -2   4  -6 2743.10   58.67
   2  -4   6 2740.13   45.50
  -2  -3  -4   77.83   21.75
  -2  -3  -4   72.19   23.80
   2   3   4   62.87   12.60
   2   3   4   56.94   12.79
   0  -5  -1 3759.44   60.00
   0   5   1 3680.14   58.44
   0  -5  -1 3725.70   57.82
   0   5   1 3899.96   59.62
   3   2   1 9091.68  126.43
  -3  -2  -1 9578.60  129.41
  -3  -2  -1 9422.51  122.82
   3   2   1 9033.64  121.01
   3   0   5   83.76   21.47
  -3   0  -5   87.38    7.86
  -3   0  -5   81.15   13.69
   3   0   5   71.30    6.43
  -1   5  -5   63.39   21.26
  -2  -1  10  784.83   13.46
   1  -5   5    1.42   12.07
   1  -5   5   65.02   17.74
  -1   5  -5   69.51   12.88
  -2  -1  10  737.21   34.26
   2   1 -10   -1.80    2.05
  -2  -4   4 1996.09   38.15
   2   4  -4 1927.57   31.55
   2   4  -4 1982.38   37.28
  -2  -4   4 2053.65   27.07
  -2  -4   1   23.57    8.59
   2   4  -1   32.91   12.63
   2   4  -1   33.05    8.74
  -2  -4   1   15.50   22.03
   1   4   4 1654.45   35.03
  -3   2  -511551.43  155.12
  -1  -4  -4 1777.28   38.94
  -3   2  -511246.01  148.49
   1   4   4 1734.93   36.16
  -3   2  -512120.97  123.96
  -1  -4  -4 1806.36   36.50
   0  -5   614446.35  183.70
   0  -5   614745.53  187.01
   0   5  -614419.06  183.48
   0   5  -614624.51  183.53
   2  -2   9 3296.05   52.88
   2  -2   9 2727.90   27.30
  -2   2  -9 3158.45   51.95
  -2   2  -9 3159.73   49.62
  -3   3  -3  476.59    7.02
  -1   5   1  465.22   22.27
  -3   3  -3  454.33   21.32
  -3   3  -3  466.29   19.83
   3  -3   3  476.74   18.96
   1  -5  -1  427.04   20.97
  -3  -2   5 1688.46   17.72
  -3  -2   5 1723.47   17.54
  -3  -2   5 1688.55   33.16
   3   2  -5 1636.16   32.22
  -2   0  10  580.51   17.07
   2   0 -10  583.90   11.79
  -3   2   5  298.44   20.87
   3  -2  -5  292.43   11.96
  -1   1 -11 6534.22  102.70
   1  -1  11 6866.07   94.82
   3  -3  -2 1681.93   40.79
  -3   3   2 1745.75   32.81
   3   1   4 2968.04   46.24
   0   3   8 6375.95  109.52
   0  -3  -8 6228.64   88.46
  -2  -1  -811193.32  150.95
   2   1   810925.37  137.23
   3   1   4 3003.52   40.82
   3   0  -7  379.54    8.21
   0   3   8 6357.78   90.96
  -3   0   7  766.30   14.93
  -3  -1  -4 3091.36   60.52
  -3   0   7  722.36   22.03
  -3  -1  -4 3247.26   54.84
   2   1   811177.50  164.57
   1  -3  -8  587.80   21.94
  -1   3   8  562.04   22.09
   1   1  10   45.28   19.45
  -1  -1 -10   72.83   14.45
   1   1  10   71.33   23.45
   2   4  -5  780.46   35.19
   2   4  -5  717.10   12.80
  -1  -3  -7 4042.49   63.10
   1   3   7 3983.38   62.24
  -2  -4   5  717.33   17.07
   1   3   7 4062.46   63.26
  -2  -4   5  742.88   24.99
  -2  -4   015640.20  209.89
   2   4   015176.28  202.81
  -2  -4   016254.00  207.16
   2   4   015251.47  202.04
   0  -3  11   61.25    8.17
   0   3 -11   38.98    8.95
   0   3 -11   54.30   13.70
  -1   2 -1111369.78  150.32
   1  -2  1111883.78  156.48
  -1  -5   3 4391.50   82.45
  -1  -5   3 4589.69   62.11
   1   5  -3 4315.15   63.57
   1   5  -3 4233.45   58.74
   2   0   913832.22  167.85
  -2   0  -914059.04  189.24
   2   0   914254.53  190.48
  -1  -5   218201.30  260.65
   1   5  -218089.32  252.93
   1   5  -217479.76  227.51
  -1  -5   218655.24  252.18
  -1   4  -9 4379.03   75.20
  -1   4  -9 4371.69   61.40
   1  -4   9 4347.35   52.97
  -3  -1   715123.03  197.98
   2  -4  -4  760.27   23.47
  -2   4   4  773.21   25.62
   1   5  -4 6956.32   89.81
  -1  -5   4 7128.51  112.89
  -1  -5   4 7283.43  101.01
   1   5  -4 7163.67   96.50
  -3  -2  -2  227.25   25.07
   3   2   2  259.24   22.18
   3   2   2  223.94   13.41
  -3  -2  -2  243.09   22.17
  -1   5  -615698.46  220.53
  -1   5  -616187.87  202.30
   1  -5   615253.94  185.43
   1  -5   615954.69  207.18
  -3   1  -6 1395.74   17.70
   3  -1   6 1355.92   44.08
  -3   1  -6 1319.25   44.34
   0   5   2 3967.33   62.39
  -3   3  -411646.66  159.07
   0  -5  -2 3866.50   60.59
   1   4  -9 1367.69   24.52
  -3   3  -412742.95  132.77
   0   5   2 3765.50   60.72
  -1  -4   9 1363.27   27.11
   1   4  -9 1359.56   19.81
   1   4  -9 1426.60   27.56
  -3   3  -412728.60  131.00
  -3   3  -411570.44  155.16
  -1  -5   1   77.16   25.90
   1   5  -1   41.70   11.83
  -1  -5   1   45.58   19.23
   1   5  -1   77.53   22.67
   0   1  11 4746.52   68.62
   0  -1 -11 4546.62   66.11
  -2  -2  10  863.06   24.12
   2   2 -10 1095.82   10.25
  -3   3   328994.09  401.36
   3  -3  -327637.28  380.00
   1   2   9 2052.18   55.02
  -1  -2  -9 1991.21   53.38
   1   2   9 2016.56   38.88
   0   1 -12 3475.85   50.65
   0  -1  12 3658.26   53.07
   0   5  -7 7806.22   97.91
   1  -5  -2  222.03   18.60
   0   5  -7 7685.28   99.17
  -1   5   2  257.68   20.40
  -1   5   2  283.55   18.06
  -3  -2   6 7733.12  104.64
   0  -5   7 7776.18  108.26
   3   2  -6 7668.81  104.49
   0  -5   7 7543.95   96.58
   0   4   6 1773.25   51.76
   0  -4  -6 1798.90   53.41
   0   4   6 1704.71   38.29
  -2   3   7  708.60   33.65
   2  -3  -7  646.18   20.44
  -2   4  -7  136.88   16.78
  -2   4  -7  117.23   25.19
   2  -4   7  133.41   15.02
   1   0  11 2851.99   48.73
  -1   0 -11 2713.11   46.70
  -1   4   6  944.99   30.57
   1  -4  -6 1025.37   28.96
  -1   4   6  960.85   28.54
  -3   1   712335.86  153.63
   3  -1  -711638.72  142.17
   1   5  -5 5201.95   73.35
  -1  -5   5 5179.82   65.54
  -1  -5   5 5171.98   87.14
   1   5  -5 5031.48   65.46
   2   4  -624788.21  347.21
  -2  -4   625476.50  363.00
  -2  -4   627091.75  331.98
   2   4  -624986.43  306.73
  -2  -2  -7 5266.17   77.47
   2   2   7 5178.97   76.27
   2   2   7 5056.31   70.23
   0   2  10  808.24   37.73
   0  -2 -10  782.29   24.81
  -2  -4  -1  101.86   16.75
   1  -1 -11 5961.89   79.59
  -1   1  11 6185.63   82.28
   2   4   1   90.54   15.27
  -2  -4  -1   79.07   20.50
   2   4   1  110.52   12.41
   0   4 -10 5726.73   83.33
   0  -4  10 5718.64   71.27
   0   4 -10 5656.16   72.11
  -3   2  -6   90.43   15.43
  -3   2  -6   94.63   14.42
  -2  -3   9 5963.30   97.51
  -1   2  10 6764.12   92.68
   1  -2 -10 6618.78   90.61
   0   2 -12 1473.94   27.34
   0  -2  12 1601.83   28.90
  -1  -5   0 2653.26   57.62
   1   5   0 2658.96   60.99
  -1  -5   0 2659.71   65.92
   1   5   0 2560.52   55.47
   2   3   513239.50  174.22
  -2  -3  -513963.67  203.59
  -2  -3  -513630.30  181.57
   2   3   512981.26  173.63
   3   0   6 4018.81   52.91
  -3   0  -6 4307.22   53.21
  -3   0  -6 4127.67   64.09
   3   0   6 4038.21   61.96
   2  -1 -1017513.46  227.57
  -2   1  1019220.55  251.33
   3  -2  -6  307.96   12.20
  -3   2   6  351.05   21.99
   1   3 -11  920.07   15.24
   1   3 -11  944.38   14.76
  -1  -3  11  997.58   33.48
  -2   3  -9  397.06   19.70
  -2   3  -9  372.95   33.02
   1   1 -1210477.61  135.03
  -1  -1  1211018.64  134.38
  -1  -4  -5  278.14   31.88
   1   4   5  272.32   19.92
   1   4   5  244.31   19.59
   3   1   5   90.66    9.04
   3   1   5   56.36   13.65
  -3  -1  -5   83.20   14.29
  -3  -1  -5   89.11   10.95
   2  -2  -9  343.70   14.78
  -2   2   9  399.62   25.31
  -3   3  -5   99.32   15.83
  -3  -2  -313781.69  191.81
   3   2   313206.33  171.80
  -3   3  -5   82.64   24.38
  -3  -2  -313997.86  182.41
   3   2   313150.48  179.46
   0   0  12   28.31   11.22
   0   0 -12   11.86   16.56
   1  -5   7   35.29    6.87
   1   5  -6 4186.18   61.10
   1  -5   7   22.04   11.45
   1   5  -6 4181.93   55.12
  -1  -5   6 4275.64   54.23
  -1   5  -7   31.01    6.05
  -1   5  -7    6.42   18.77
  -1  -5   6 4133.86   61.01
   3   0  -8    5.01    3.37
  -3   0   8   21.92   12.46
  -3   0   8   38.15    6.86
   3  -3  -4   42.09   17.79
  -3   3   4  115.97   13.59
  -2   5  -2 6524.25   89.09
  -2   5  -2 6318.15  108.03
   2  -5   2 6163.79  102.54
  -1   3 -11  972.83   23.51
  -1   3 -11  984.60   25.32
   1  -3  11 1017.24   19.14
   0   5   3  780.36   42.35
   0   5   3  805.31   27.66
   0  -5  -3  840.78   41.73
   2  -5   1  176.67   28.05
  -2   1 -10 1544.98   35.31
   2  -1  10 1497.81   20.69
  -2   5  -1  120.98   11.15
   2  -1  10 1560.83   35.56
  -2   5  -1  175.10   28.63
  -2   4   5 9768.52  133.91
   2  -4  -5 9523.21  142.87
  -3  -1   8 3522.97   55.20
   2   4  -7  136.59   15.33
  -2   5  -3 3057.69   39.68
  -2   5  -3 3019.44   67.47
  -2  -4   7  125.41   26.77
   2  -5   3 2903.38   63.93
   2   4  -7  122.47    7.94
  -2  -4   7  127.17    7.47
   1  -5  -314810.61  200.86
  -1   5   314869.64  200.15
  -1   5   314816.58  204.12
  -3  -2   7    1.84    9.81
   1   2 -12 9163.62  108.71
  -1  -2  12 9750.40  122.20
  -1  -2  12 9267.63  121.64
   2   4   2 4703.65   84.45
  -1  -5  -1   77.42   22.68
  -2  -4  -2 4912.55   70.23
  -2  -4  -2 4659.04   72.75
   1   5   1   46.06   22.26
   2   4   2 4676.33   78.33
   1   5   1   65.04   15.01
  -1  -5  -1   50.83   27.99
  -1   0  12 1089.27   22.92
   1   0 -12 1006.63   21.89
  -2  -1  1116342.63  218.77
   0  -5   8 2391.06   36.68
  -3  -3   213339.36  178.45
  -3  -3   213763.52  164.74
   0   5  -8 2376.02   37.60
  -2  -1  1117039.08  200.48
   2   1 -1115035.11  169.94
   0   5  -8 2547.53   45.84
   0  -5   8 2481.47   38.20
   3   3  -212809.33  169.46
   3   3  -212828.29  153.45
  -2   2 -1017634.27  254.93
   2  -2  10    0.45    1.67
  -3  -3   3  199.20   17.53
   3   3  -3  194.41   12.18
   3   3  -3  254.00   16.93
  -3  -3   3  219.46   13.16
  -2   5   0 1023.77   22.99
   2  -5   0  947.97   40.54
  -2   5   0 1010.25   43.84
  -3  -3   1 2768.51   38.19
   3   3  -1 2530.58   42.70
   3   3  -1 2539.08   42.63
  -3  -3   1 2633.35   45.89
  -3   1  -7   59.01   15.07
   3  -1   7   68.78   13.94
   3  -1   7   34.37    4.58
  -1   4 -10 5248.30   83.78
  -1   4 -10 5364.57   76.64
   1  -4  10 5364.58   65.16
   2  -5   4   22.86   21.09
  -2   5  -4    8.73   21.82
  -2   5  -4   22.24    9.13
  -2   0  11   73.63   11.71
   3   3  -4 3098.43   34.51
  -3  -3   4 3364.67   41.65
  -2   4  -8 4649.72   86.65
   3   3  -4 3030.82   49.60
   2   0 -11   83.38    7.30
  -3  -3   4 3242.12   53.65
  -2   4  -8 4819.31   70.97
   2   1   9 1098.22   33.14
   2   1   9 1122.59   44.91
  -1  -4  1010338.61  133.82
   1   4 -1010393.40  122.72
   1   4 -1010474.12  122.45
   1   4 -1010980.42  142.14
  -2  -1  -9 1015.93   29.79
   0   3   9 9370.59  132.88
   0   3   9 9536.10  147.66
   0  -3  -9 9447.64  132.03
   1   3   8  106.71   28.22
   1   3   8   96.19   16.51
  -1  -3  -8  102.13   16.63
   1   5  -7  686.47   32.25
   1   5  -7  691.23   16.01
  -1  -5   7  859.39   17.05
  -1  -5   7  730.90   34.10
  -1   3   9  588.83   22.90
   1  -3  -9  535.83   22.13
   3  -1  -8  203.33   13.13
  -3   1   8  237.60   15.75
  -3   2  -711441.11  157.43
  -3   2  -711875.68  172.89
   3   3   0   16.31   12.43
  -3  -3   0   11.92   12.96
  -3  -3   0   15.06   19.69
   3   3   0    8.63   10.64
  -3   4  -1   52.32   23.45
   3  -4   1   58.32   13.27
   0   3 -12 7912.31  102.00
   2  -5  -1  691.71   24.71
  -2   5   1  711.90   41.17
  -2   5   1  740.91   22.08
   0  -3  12 7905.92  106.50
   0   3 -12 8103.68  101.87
   1  -1  12 1757.34   36.55
  -1   1 -12 1727.28   36.51
  -3   3  -6 9544.16  133.87
  -3   3  -6 9760.15  146.63
  -3   4  -2 4299.31   50.44
  -3   4  -2 4094.55   64.36
   3  -4   2 4004.06   61.47
  -2   0 -10  375.78   33.98
   2   0  10  355.70   21.26
   2   0  10  351.97   19.38
  -3   4   0  568.71   34.43
   3  -4   0  555.76   21.28
  -1   4   7 4425.41   71.98
   2  -3  -8 1877.53   34.73
   0  -4  -7 5818.26   86.99
  -1   4   7 4644.11   72.28
   0   4   7 5884.14   88.64
   0   4   7 6099.75   92.38
   1  -4  -7 4455.92   69.65
  -2   3   8 2038.21   50.95
  -3  -2  -4 2530.55   56.52
   3   2   4 2388.70   48.30
  -3  -3   5    8.21    4.51
   3   2   4 2374.01   41.37
   3   3  -5   15.50   11.42
   3   3  -5   15.07    2.81
  -3  -2  -4 2543.31   55.27
  -3  -3   5    2.27   11.49
   2   2 -11 5584.13   57.42
  -2  -3  10 1813.67   36.07
   2   2 -11 5761.96   57.87
  -2  -2  11 5733.72   81.92
  -1   2 -12 1006.65   38.67
   1  -2  12  978.31   38.92
  -3   2   7  185.92   12.26
  -1   5  -8   79.78    6.67
  -1   5  -8   69.88   21.39
   1  -5   8   74.62   21.32
   3  -2  -7  255.49   18.07
   1  -5   8  107.38   12.39
  -1  -1 -11  639.34   37.89
   1   1  11  636.22   21.72
   1   1  11  656.25   24.84
  -3   3   5 1384.24   40.33
   3  -3  -5 1213.33   35.14
  -2   5  -5  284.50    7.93
   2  -5   5  264.14   18.80
  -2   5  -5  260.77   32.64
  -1  -5  -2 1304.31   31.19
  -1  -5  -2 1239.84   35.98
   1   5   2 1212.90   32.45
   1   5   2 1202.09   29.80
   2   3   6 5711.41   99.57
   2   3   6 5835.13   83.34
  -2  -3  -6 5780.25   85.04
   3   0   7 4530.50   59.75
  -3   0  -7 4813.88   59.39
  -2  -3  -6 5871.93   86.20
   3   0   7 4577.91   70.80
  -3   0  -7 4646.69   71.74
   2   4  -8 1472.82   19.36
  -2  -4   8 1580.55   33.86
  -2  -4   8 1596.69   19.74
   2   4  -8 1521.07   32.42
   3   1   6 3941.01   61.63
   0   4 -11   38.72    9.94
   0  -4  11   52.47    8.49
  -3   4  -3 3892.91   43.02
   3   1   6 3931.63   52.32
  -3  -1  -6 4087.60   64.02
  -3  -1  -6 4249.03   58.76
   3  -4   3 3581.70   57.25
  -3   4  -3 3707.37   74.79
   0   4 -11   53.58    8.85
   2   2   8  107.81   27.77
   2   2   8   99.81   21.91
  -2  -2  -8  130.46   17.39
  -2  -4  -3 1533.98   37.51
   2   4   3 1533.70   32.71
  -2  -4  -3 1636.44   34.27
  -3   4   1   90.65   25.18
   3  -4  -1  109.11   14.36
   2   4   3 1533.82   49.16
   0   5   424059.69  332.03
   0  -5  -424329.84  335.77
   0   5   423691.48  346.85
  -1  -4  -6 5023.70   78.34
   1  -5  -4 7250.42  120.45
   1   4   6 4907.73   75.84
  -1   5   410422.60  144.97
  -1   5   4 7437.77  129.23
   1   4   6 4798.47   92.68
  -3  -2   8  851.18   38.22
  -1  -2 -10 7335.32  120.35
   1   2  10 7335.25  103.32
   1   2  10 7333.42  105.58
   3   3   1  491.15   16.77
  -3  -3  -1  489.21   34.86
   3   3   1  439.54   30.13
  -3  -3  -1  505.17   17.07
  -2   3 -10 5264.65   94.25
  -2   3 -10 5200.95   75.81
   0   5  -920997.68  271.68
   0   5  -920821.93  271.06
  -3   0   9 2330.65   26.63
  -3   0   9 2242.40   42.45
   0  -5   920435.19  266.46
   0  -5   921396.75  276.11
   3   0  -9  936.32   11.50
   2  -4  -6  208.02   17.39
  -2   5   2 2014.79   42.05
  -2   5   2 2044.57   38.44
  -2   4   6  207.29   19.20
   2  -5  -2 1874.23   38.61
   0   1  12    8.57   18.73
   0  -1 -12    4.39   10.45
  -3  -1   9  415.25   20.74
  -3  -3   6  236.20    3.48
  -3  -3   6  240.12   29.37
   3   3  -6  260.95   17.87
  -1  -5   8  430.12   29.16
   1   5  -8  409.02   19.18
   1   5  -8  426.63   17.85
  -1  -5   8  441.15   12.17
   0   1 -13   34.07   18.11
   1   3 -12 7947.83   91.88
   0  -1  13   45.06   11.50
   1   3 -12 7808.42   97.80
  -1  -3  12 7882.82  104.45
   3  -4   4   65.53   14.40
  -3   4  -4   66.03    5.45
  -3   4  -4   70.41   24.61
   1   0  1210656.14  146.81
  -1   0 -1210420.50  157.85
   0  -2 -1114961.33  202.62
   0   2  1115351.21  208.58
  -3   4   2  960.20   27.09
   3  -4  -2  938.75   37.04
  -1   1  12   10.43   16.21
   1  -1 -12    0.65    8.06
   2  -1 -11 1128.75   22.11
  -2   1  11 1210.86   31.67
  -2   5  -617930.09  212.07
   2  -5   616976.39  229.40
  -2   5  -617222.47  234.10
  -1   2  11  190.26   16.30
   1  -2 -11  204.95   16.74
  -2   2  10 6824.22   91.67
   2  -2 -10 6361.29   85.32
   0  -2  13  706.84   20.19
   0   2 -13  662.81   19.36
  -2   4  -9 4182.73   64.23
  -2   4  -9 4088.10   81.22
   3  -1   8 6035.46   87.23
  -3   1  -8 6142.38   90.82
   3  -1   8 4889.13   54.26
  -3   3  -7  145.41   16.99
  -3   3  -7  136.92   30.26
  -1  -1  13 3260.39   45.23
   1   1 -13 3168.47   44.09
   1   5   3 1839.21   40.68
   1   5   3 1720.98   37.63
  -1  -5  -3 1884.55   39.56
  -1  -5  -3 1829.13   43.36
  -1   3 -12  343.87   18.61
   1  -3  12  314.54   13.27
  -1   3 -12  357.92   25.98
  -3  -3  -2 2321.61   50.13
   3   3   2 2201.98   37.32
  -3  -3  -2 2373.12   44.60
   3   3   2 2139.00   51.54
  -4   1   1 5183.15   68.26
  -4   1   1 5194.25   78.80
  -4   1   1 5225.93   75.48
  -4   1   0 5335.99   74.97
  -4   1   0 5298.26   79.46
  -4   0   1 1229.86   30.57
  -4   0   1 1214.88   24.18
  -4   0   1 1220.76   28.56
  -4   1   0 5247.03   82.38
  -1  -4  11 1442.91   40.13
   1   4 -11 1391.11   20.83
   1   4 -11 1435.26   25.81
   2  -1  11  408.00   11.14
  -2   1 -11  413.04   22.55
   2  -1  11  446.41   23.12
   3   2   5   31.68   12.31
  -3  -2  -5   25.89   22.63
  -3  -2  -5   57.60   12.91
  -3   3   6 5945.02   83.42
   3  -3  -6 5603.94   86.85
   3   2   5   25.98   10.17
  -1   4 -11  327.00   16.72
   1  -4  11  298.78    8.34
  -1   4 -11  318.87   17.80
  -3   2  -8  924.11   27.37
  -3   2  -8  900.57   43.37
   0   6  -3 2773.18   46.37
   0   6  -3 2729.10   47.61
   0  -6   3 2689.32   46.63
  -4   0   2 1103.39   27.53
  -4   0   2 1154.42   34.23
   0  -6   3 2707.30   57.81
  -4   0   2 1127.15   19.88
   1  -5   9 1246.71   27.75
  -1   5  -9 1229.44   23.38
  -1   5  -9 1192.09   29.34
  -1   5  -9 1173.09   27.98
   1  -5   9 1207.31   24.91
   2  -2  1116440.30  225.87
  -2   2 -1116073.16  236.78
  -4   1   2  459.24   21.01
  -4   1   2  462.34   15.16
  -4   1   2  519.65   15.67
  -4   0   0  929.56   19.56
  -4   0   0  978.47   20.69
  -4   0   0  934.95   20.73
   0   6  -2  270.20   17.46
   3  -4   5 3657.57   59.19
  -2  -1  12 4089.41   51.10
   0  -6   2  231.21   18.86
   0   6  -2  235.10   18.46
  -2  -1  12 4024.94   63.55
  -3   4  -5 3886.39   64.79
  -3   4  -5 3787.26   60.58
   0  -6   2  267.14   28.50
   2   1 -12 3892.48   49.42
  -2   5   3    5.30   13.42
  -2  -4   9 1412.91   32.30
   2   4  -9 1384.48   17.65
   2   4  -9 1412.20   32.21
  -2   5   3   24.20   20.07
   2  -5  -3   10.44   12.78
  -3   1   9 6768.06   88.63
   3  -1  -9 6222.92   73.73
   0   6  -4 4831.25   71.39
   0  -6   4 4970.90   71.65
   0   6  -4 4992.90   71.89
   0  -6   4 4839.45   71.31
  -2  -4  -4  743.37   26.11
   0   0  13 1460.48   31.32
   2   4   4  772.90   26.18
   0   0 -13 1388.49   30.55
   2   4   4  701.65   37.73
  -2  -4  -4  736.46   29.07
   3   3  -7  424.62   21.05
  -3  -3   7  426.88   34.19
  -4   1  -1  187.75   14.39
  -3   4   3  364.78   19.91
  -4   1  -1  193.18   15.64
  -4   1  -1  208.14   21.09
   3  -4  -3  399.89   29.48
  -1  -2  13 3696.23   54.35
   1   2 -13 3421.22   44.37
  -1  -2  13 3421.22   52.58
  -3   2   8 3821.01   53.50
   3  -2  -8 3550.37   48.00
  -4   0   3 9525.99  119.31
  -4   0   3 9405.07  113.68
  -4   0   3 9492.00  134.73
   1  -6   3 3096.94   48.96
  -1   6  -3 3225.36   47.91
   1  -6   3 3115.03   52.21
  -1   6  -3 3143.34   54.49
  -1   6  -2 7516.89  100.68
  -1   6  -2 7467.14  108.31
   1  -6   2 7430.67  105.51
  -2  -5   315320.62  211.45
   2   5  -314653.16  185.97
   2   5  -314753.75  216.02
  -2  -5   315550.41  205.46
  -1   5   5 6406.29   96.40
  -1   5   5 6205.89   94.89
   1  -5  -5 6165.25   92.04
   0  -6   1  337.12   35.10
   0  -6   1  424.04   32.02
   0   6  -1  367.41   21.27
   0   6  -1  387.42   19.78
  -3  -2   9 2660.40   47.71
   0   5   5  328.05   37.93
   0  -5  -5  325.08   22.56
   0   5   5  385.35   37.70
   2   1  10 1590.01   37.88
   4   0   1 4041.50   61.71
  -4   0  -1 4444.90   67.14
  -2  -1 -10 1555.98   38.01
   2   1  10 1551.75   29.28
  -4   0  -1 4292.98   71.29
  -4   0  -1 4313.24   58.67
   1   3   9   28.59   24.81
  -2  -3  11  367.39   19.13
  -1  -3  -9   48.79   16.01
   2   3 -11  341.12    5.92
  -4   1   3 2122.15   32.55
   2   3 -11  354.47    4.92
  -4   1   3 2154.02   34.87
  -4   1   3 2124.72   31.59
   1   3   9   50.90   16.48
   1   0 -13 1580.72   28.91
  -2   0  12 3428.16   51.09
   2  -5   7 4917.78   74.16
  -2   5  -7 4863.51   74.67
  -2   5  -7 5117.09   56.27
  -1   0  13 1657.13   29.77
   2   0 -12 3085.39   46.49
   2   5  -2   35.13   23.36
  -2  -5   2   22.85   15.46
  -2  -5   4 1571.71   37.10
   0  -6   5 7490.75  101.39
   0   6  -5 7551.41  101.29
   2   5  -2   27.40    9.28
  -2  -5   4 1671.63   26.51
   0   6  -5 7366.17  101.79
   0  -6   5 7496.75  102.77
   2   5  -4 1552.38   32.72
  -2  -5   2   31.55    9.96
   2   5  -4 1539.28   49.91
   1  -6   4  173.21   22.35
  -1   6  -4  212.17   20.06
  -1   6  -4  180.28   18.15
   1  -6   4  187.96   17.07
  -3  -1  -7 3091.85   56.59
   3   1   7 2966.66   51.14
   3   1   7 2827.04   40.49
  -3  -1  -7 3091.87   68.85
  -1   4   8    2.23   15.61
   1  -4  -8   59.39   16.00
  -1   4   8   38.22   22.15
   3   0   813445.17  166.65
   3   0   813286.05  199.66
  -1  -5   9 2482.79   33.32
  -1  -5   9 2357.61   40.92
   1   5  -9 2315.99   38.97
   1   5  -9 2473.95   41.02
  -3   0  -813790.85  189.30
  -1   6  -1   14.90   13.99
   1  -3 -10  650.12   36.74
  -1   3  10  725.79   25.28
  -1   6  -1    9.02   17.71
   1  -6   1   24.46   13.45
   0   3  10 5353.39   82.08
   0   3  10 5207.69   83.22
   0  -3 -10 5160.71   79.94
   2  -3  -9   60.10   20.58
  -2  -3  -7 3600.20   60.52
   2   3   7 3571.95   71.84
  -2   3   9   71.73   13.98
   2   3   7 3508.11   59.73
   0   4   8   72.07   17.40
   0   4   8   66.62   18.78
   0  -4  -8   72.70   16.89
  -4   1  -2  169.71   14.14
  -4   1  -2  171.27   14.92
  -4   1  -2  180.65   21.81
   0   5 -10 2671.40   42.12
   0  -5  10 2744.42   41.22
   0   5 -10 2689.70   40.55
   0   5 -10 2809.01   40.50
   0  -5  10 2733.32   40.53
   2   2 -12  162.96    6.44
  -2  -2  12  212.30   27.14
  -4   0   4  541.30   29.54
  -4   0   4  553.27   12.37
  -4   0   4  567.04   18.28
  -2  -5   1  799.14   21.67
  -2  -5   5 1258.08   20.91
   2   5  -5 1172.55   20.44
  -2  -5   5 1262.58   32.75
   2   5  -1  778.04   26.65
  -2  -5   1  855.13   29.66
   2   5  -1  786.09   20.85
   2   5  -5 1212.46   44.17
  -4   2   0 2009.98   34.86
  -4   2   0 1883.63   47.73
  -4   2   0 2041.26   29.27
  -1  -4  -7  380.94   24.39
   1   4   7  396.12   23.70
   0  -3  13  186.23   11.31
   0   3 -13  159.14   12.79
   1   4   7  404.61   23.63
   0   3 -13  209.14   18.85
   2  -4  -713073.56  178.45
  -2   4   713314.13  200.27
   0   4 -12 4247.86   68.14
  -4   2   116702.72  217.49
  -4   2   116336.07  216.03
  -4   2   116536.90  215.10
   0   4 -12 4322.82   66.87
   0  -4  12 4296.30   56.59
  -3  -3  -3  633.38   24.35
   3   3   3  585.50   21.00
   3   3   3  599.21   20.76
  -3  -3  -3  659.43   32.91
   1  -6   5 3600.09   62.20
  -1   6  -5 3679.18   73.52
   0   6   0 1300.59   32.27
  -1   6  -5 3871.33   52.76
   0  -6   0 1328.15   50.82
   0   6   0 1258.39   48.27
   1  -6   5 3678.68   58.11
   0  -6   0 1351.24   33.02
  -2   0 -11 2428.93   47.43
   2   0  11 2447.29   47.37
   2   0  11 2382.33   35.49
  -4   2  -1 5506.36   71.32
  -4   2  -1 5274.66   89.36
  -4   2  -1 5444.88   76.39
  -4  -1   2    3.01    5.56
   4   1  -2   -4.96   14.66
  -4  -1   2   -2.27    5.35
  -4  -1   2   23.34    9.17
  -3  -1  10 4962.38   74.94
  -3   0  10 8796.17  102.04
   2   2   9 7814.71  112.78
  -4   0  -213295.45  171.92
  -4   0  -213288.72  175.66
   3   0 -10 7391.31   82.72
  -2  -2  -9 7803.11  112.75
   4   0   212488.13  154.59
  -4   0  -213567.85  177.56
  -3   0  10 8409.73  118.98
   2   2   9 7573.77  104.05
   1  -6   0 6682.87   98.20
  -4  -1   1 1077.29   26.29
  -4  -1   1 1084.67   27.89
  -1   6   0 6887.23  110.07
   4   1  -1  988.73   33.02
  -4  -1   1 1112.30   25.59
  -1   6   0 6784.10  101.63
   0   6  -6 5983.20   92.15
   0  -6   6 5968.29   83.37
   0  -6   6 6152.60   84.45
   0   6  -6 5906.97   82.56
  -3   4  -6 5422.41   81.79
  -4   1   4   91.51    9.22
  -4   1   4  106.30   12.14
  -4   1   4   98.05    8.59
  -3   4  -6 5458.33   85.14
  -1   1 -13  138.38   16.81
   1  -1  13  155.28   17.53
   1   5   4 7166.48  120.96
   3  -4  -4 7421.73  102.27
   4  -2  -2 1121.71   23.32
  -1  -5  -4 7548.11  126.74
  -1  -5  -4 7358.65  112.06
  -4   2   2 1248.92   35.80
   1   5   4 7323.90  125.78
  -4   2   2 1270.81   26.27
  -3   4   4 7860.21  110.91
  -4   2   2 1213.73   30.44
  -4  -1   3  616.00   16.92
   4   1  -3  554.07   19.48
  -1   2 -13   21.85   20.08
   1  -2  13   19.42   12.16
  -4  -1   3  544.19   20.80
  -4  -1   3  573.94   12.64
  -2   3 -11  353.60   20.88
   2  -3  11  300.04    6.18
  -2   3 -11  304.49   19.09
   2  -3  11  308.40    5.63
  -2   5   4 1089.32   31.10
  -2   5   4 1110.09   32.14
   2  -5  -4 1104.18   30.65
   3   3  -8 1154.35   30.39
  -3   3  -8  240.91   30.91
   4   1   0 9239.33  117.22
  -4  -1   0 9651.69  127.95
  -3   3  -8  223.30   33.07
  -3  -3   8 1159.64   31.76
  -4  -1   0 9723.76  132.35
  -4  -1   0 9837.64  129.04
   4   1   0 8947.70  116.32
   1   1  12 2066.58   39.52
  -1  -1 -12 2080.98   43.11
   1   1  12 2213.91   44.36
  -4   1  -3   61.43   21.33
  -4   2  -2 2940.43   40.93
  -4   1  -3   61.10   11.20
  -4   1  -3   50.14   12.07
  -4   2  -2 2783.51   48.53
  -4   2  -2 2859.25   46.76
  -2  -5   6 1375.89   49.68
  -2  -5   6 1475.30   21.59
   2   5  -6 1417.11   46.88
   2   5  -6 1328.10   27.05
  -2  -5   0  888.26   31.35
   2   5   0  822.51   22.89
   2   5   0  834.48   27.74
  -2  -5   0  887.02   24.07
  -2   4 -10 7709.87  108.40
  -2   4 -10 7747.17  127.81
  -3   3   7  189.86   24.71
   3  -3  -7  209.57   14.29
  -4   0   512726.36  155.49
  -4   0   512788.14  154.89
  -4   0   512814.53  170.52
   1  -6   6  700.38   23.84
  -1   6  -6  647.31   37.05
  -1   6  -6  723.79   24.20
   1  -6   6  691.33   26.84
  -3  -2  -6 9900.68  138.40
   3   2   6 9472.92  131.82
  -3  -2  -610165.15  136.27
   3   2   6 9423.90  123.22
  -1  -2 -11 4002.35   65.83
   1   2  11 4193.62   81.94
   1   2  11 4170.46   68.49
  -4  -1   4 1003.78   15.54
  -4  -1   4 1001.38   26.33
  -4  -1   4 1016.29   15.11
   1  -5  10 8899.93  110.28
  -1   5 -10 8860.34  119.14
  -1   5 -10 8913.70  123.15
   2   4 -10   13.29    3.43
  -2  -4  10   21.39   20.58
   2   4 -10   27.06   11.84
   2   4 -10   12.01    3.92
   0   6   1  235.32   33.39
   0  -6  -1  270.64   19.75
   0   6   1  218.70   20.00
   0  -6  -1  206.21   21.42
   4  -2  -3 2225.68   35.05
  -1  -3  1310815.49  154.89
  -4   2   3 2361.67   37.76
  -4   2   3 2406.85   45.25
   1   3 -1310690.68  135.43
   1   3 -1310809.10  127.95
   3  -1   9 3999.34   46.25
  -3   1  -9 4084.16   84.04
   3  -1   9 4010.67   83.81
   2   4   511923.94  164.65
   2   4   511805.39  163.07
  -2  -4  -512364.43  174.39
  -2  -4  -512355.99  187.48
  -2   5  -8  950.25   30.50
  -2   5  -8 1010.65   13.69
   2  -5   8  974.15   28.32
  -1   6   1 1890.43   43.36
   1  -6  -1 1763.16   40.30
  -1   6   1 1917.45   39.45
  -2   5  -8  953.43   28.40
   3   4  -310111.56  139.91
  -4  -1  -1  868.66   21.61
   3   4  -310192.93  128.81
  -3  -4   310368.66  146.30
   4   1   1  774.63   19.61
   4   1   1  827.75   29.40
  -3  -4   310846.62  137.19
  -4  -1  -1  869.01   31.87
  -3   2  -9  839.98   29.65
  -4   0  -3  175.10   10.58
   4   0   3  153.26    9.17
  -4   0  -3  137.21   15.28
  -3   2  -9  843.58   27.24
   4   0   3  121.61   14.52
  -4   0  -3  127.08   21.92
   0  -6   7  557.30   30.12
   0  -6   7  617.91   29.12
   0   6  -7  597.03   18.57
   0   6  -7  605.94   20.25
   3   4  -2   70.14   14.10
  -3  -4   2  110.09    9.98
   3   4  -2   83.58   15.89
  -3  -4   2   98.12   18.01
   2  -2 -11 3191.67   49.12
  -2   2  11 3494.97   53.41
  -4   1   5 1214.88   37.69
   4  -1  -5 1116.85   18.94
  -4   1   5 1200.21   20.76
  -4   1   5 1216.89   21.56
   3   4  -4   50.73   12.20
   3   4  -4    1.08    4.86
  -3  -4   4    7.78   10.61
  -3  -4   4   -3.77    6.84
  -2   1  12  294.24   13.61
   2  -1 -12  253.03   20.40
  -4   2  -3 6063.59   72.63
  -4   2  -3 5870.91   87.08
  -1  -4  12 5227.71   72.92
  -4   2  -3 5832.23   83.50
   1   4 -12 5228.64   67.50
   1   4 -12 5191.98   62.93
   1   6  -3 2373.48   54.22
  -1  -6   3 2417.13   47.64
  -1  -6   3 2513.06   52.48
   1   6  -3 2496.04   60.41
   1   5 -10 2151.80   37.10
   1   5 -10 2253.33   49.63
  -1  -5  10 2159.24   39.11
   1  -5  -6 4495.70   72.88
  -1   5   6 4605.09   75.86
   1   5 -10 2156.22   30.87
  -1  -5  10 2274.91   30.79
  -1   5   6 4645.84   76.67
  -1  -6   4  161.40   13.86
   0   1  1312860.91  175.73
   1   6  -4  170.32   14.54
   0  -1 -1312089.88  164.72
  -1  -6   4  177.35   18.81
  -3  -2  10 4835.38   90.61
  -3   1  10 8691.43  105.46
   3  -1 -10 8047.82   96.51
   0  -2 -12 1928.40   41.25
   0   2  12 1926.11   40.86
  -2  -5   7 5835.93   87.29
   2   5  -7 5595.65   71.56
   2   5  -7 5786.11   99.67
  -2  -5   7 5968.39   73.17
   2   5   1  608.71   21.64
  -1   2  12 1042.30   28.13
  -3  -4   123679.65  308.39
   3   4  -122026.22  301.77
   1  -2 -12  962.44   39.94
  -1   4 -12  183.32   15.45
  -2  -5  -1  615.61   28.99
  -2  -5  -1  636.77   33.47
  -3  -4   123359.11  324.74
   2   5   1  582.00   25.59
   3   4  -122058.93  286.30
  -1   4 -12  142.85   14.39
   1  -4  12  151.69   11.32
   0   5   6  519.85   26.24
  -1   0 -13   28.70   14.24
   0  -5  -6  522.72   25.70
   1   0  13  -28.38   23.53
   1   6  -2 1110.86   28.10
   3  -2  -9  778.42   18.59
  -1  -6   2 1098.42   33.18
   0   5   6  513.62   27.24
  -1  -6   2 1130.20   38.96
  -3   2   9  859.16   29.49
   1   6  -2 1121.47   45.92
   0   1 -14 6454.73   89.23
   0  -1  14 6949.64   95.18
   3   3   410237.04  139.73
  -3  -3  -411059.23  151.85
   3   3   410544.59  141.77
  -3  -3  -410810.31  147.26
  -4  -1   5  497.39   21.33
  -4  -1   5  482.65    8.92
  -1   1  13 6409.37   88.78
   1  -1 -13 6019.96   84.33
  -4  -1   5  516.87   13.05
  -3   4  -717598.19  242.41
  -3   4  -717482.51  244.12
  -4   1  -4 3018.53   49.26
  -4   1  -4 3097.76   38.04
  -4   1  -4 2913.82   50.98
   0  -2  14 1585.97   30.74
   0   2 -14 1385.19   39.07
   3   4  -5   75.35   15.94
  -3  -4   5   81.95   17.37
   3   4  -5   61.70    8.37
  -3  -4   5   58.55    8.34
   1  -3  13 3712.85   45.16
  -1   3 -13 3700.04   55.94
  -1   3 -13 3637.62   58.20
   1   6  -5 6935.46   93.81
  -1  -6   5 6947.57  101.10
  -1  -6   5 7063.83   92.74
   1   6  -5 6982.71  112.74
   4  -2  -4  526.51   15.55
  -3   4   5   -8.72   19.84
  -1   6  -7  668.73   22.41
   1  -6   7  673.65   22.82
  -4   2   4  551.69   25.77
  -1   6  -7  672.68   23.41
   3  -4  -5   26.76   12.08
   1  -6   7  662.59   24.68
  -4   2   4  577.43   17.93
   0   5 -11  680.69   19.15
   0   5 -11  691.01   27.28
   0  -5  11  667.98   25.96
  -4  -1  -2  306.88   15.54
  -4   0   6 4990.92   56.56
  -4  -1  -2  304.53   15.97
  -4   0   6 5022.47   57.82
   4   1   2  246.36   12.86
   4   1   2  264.26   23.56
  -4   0   6 4870.96   72.45
   2  -2  12 5708.64   87.24
  -3  -1  -8 6137.44   92.66
   3   1   8 6014.94  106.31
   2  -2  12 5404.37   65.21
  -2   2 -12 5438.77   83.69
   3   1   8 6012.57   77.55
  -2   1 -12  581.67   26.40
   2  -1  12  625.54   26.37
   2  -1  12  585.07   19.58
   2   3 -12  987.37   11.77
   1   6  -1 2087.08   40.12
  -1  -6   1 2087.98   62.77
   1   6  -1 2056.80   42.94
  -1  -6   1 2136.27   52.47
  -2  -3  12  965.99   27.28
   2   3 -12  944.18   11.73
   3  -5   1   13.81   12.56
  -3   5  -1    0.05   10.58
  -3   5  -2 3227.47   41.52
  -3   5  -2 3189.64   56.87
   3  -5   2 3060.16   53.68
  -3   5  -1    3.84   11.89
   1   1 -14 4095.23   55.76
   2   1 -13 9282.68  108.30
  -2  -1  13 9744.10  113.92
  -1  -1  14 4285.77   66.38
  -2  -1  13 9522.86  133.14
  -1   6   211385.81  164.70
   1  -6  -211051.80  174.09
  -1   6   211556.12  161.05
   3   0   9 2188.32   61.98
   3   0   9 2140.43   35.41
   0  -6  -2  426.96   23.44
  -3   0  -9 2243.94   46.33
   0   6   2  385.72   23.37
  -3  -3   9   16.12   13.59
   3   4   0 4610.46   87.14
  -3  -4   0 4907.80   77.74
   3   4   0 4637.83   64.35
  -2   5   5 4114.99   69.80
  -2   5   5 4209.56   69.21
   2  -5  -5 3837.64   63.59
  -3  -4   0 4969.39   79.66
   2   3   8   55.33   17.23
   2   3   8   81.98   15.06
  -2  -3  -8   59.86   17.05
   1   5   5 9520.79  137.39
  -1  -5  -5 9719.90  138.97
   1   5   5 9467.28  136.21
  -4   2  -413972.87  193.18
  -4   2  -414863.58  173.54
  -4   2  -414107.99  191.24
  -3   5  -3 9739.09  118.94
   1  -4  -9 2532.98   48.84
  -1   4   9 2703.89   68.84
   3  -5   3 9090.00  129.94
  -3   5  -3 9336.82  136.65
  -3   5   0 2509.28   48.11
   2  -4  -817360.49  253.72
  -3   5   0 2340.41   47.13
  -2   4   818254.39  270.81
   3  -5   0 2353.14   45.00
  -4   3   014053.83  171.13
  -4   3   013840.65  186.68
   4  -3   013255.17  189.89
   0  -6   810035.23  143.75
   0   6  -8 9801.96  142.21
   0  -6   810145.48  133.20
   0   6  -810030.62  140.48
  -4   0  -4 6963.15   99.28
   4   0   4 6735.11   95.79
  -4   0  -4 7015.15   96.07
   1   6  -6 3099.36   46.37
  -1  -6   6 2591.08   62.54
  -4   0  -4 7156.85   89.09
  -1  -6   6 2614.16   48.09
   4   0   4 6611.73   81.09
   1   6  -6 2658.29   60.35
  -4   3  -1 2388.78   45.75
  -4   3  -1 2472.37   36.99
   4  -3   1 2272.32   41.47
  -4   3  -1 2387.47   43.93
   2  -6   2 3967.96   65.56
   3   4  -617140.18  236.16
  -1  -2  14 4988.08   71.27
   3   4  -617918.03  207.94
  -2   3  1010004.93  136.51
  -3  -4   618878.80  219.24
   1   2 -14 4792.50   68.71
  -2   6  -2 4269.41   59.06
   2  -3 -10 9194.08  125.41
  -2   6  -2 4410.88   71.71
  -1  -2  14 4704.97   81.10
  -3  -4   618066.23  270.14
   0   4   9 9995.10  145.02
   0   4   910064.55  147.31
   0  -4  -9 9848.96  162.24
   1   3  10 4855.11   76.65
   1   3  10 4908.78   97.20
  -1  -3 -10 4798.31   95.66
   2  -6   3    1.46   11.16
  -2   6  -3    8.65   13.43
  -2   6  -3    5.42    7.28
  -4   1   610659.16  129.07
   4  -1  -610044.62  120.22
  -4   1   610616.36  142.45
   1   4   8 6224.47   95.32
   2   1  11 1121.00   35.93
  -1  -4  -8 6214.49   95.41
   1   4   8 6270.53  114.51
   2   1  11 1196.72   35.34
  -2  -1 -11 1201.83   34.54
  -4   3   1 2596.67   44.84
  -4   3   1 2517.61   35.93
   4  -3  -1 2374.49   52.35
  -3  -1  11 5591.79   84.37
  -3   3  -9 1801.67   41.72
  -3   3  -9 1873.13   39.95
  -4  -1   6  365.85    9.30
  -2   6  -1 1368.85   38.75
  -2   6  -1 1354.38   36.94
  -4  -1   6  331.45   19.63
  -4  -1   6  308.44    9.14
   2  -6   1 1256.87   33.82
  -2   0  13 5396.99   75.15
   2   0 -13 4909.04   62.05
  -4  -2   2 1303.74   31.39
   2   5  -8  959.07   41.42
  -2  -5   8  975.89   29.69
  -4  -2   2 1261.95   21.28
   2   5  -8  904.94   19.50
   4   2  -2 1168.80   26.03
  -2  -5   8 1016.38   19.04
   4   2  -2 1180.39   39.31
  -1  -6   0   26.13   27.10
   0   0  14  685.27   34.94
   0   0 -14  595.75   22.38
  -1  -6   0   30.26   21.53
   1   6   0   19.32   14.14
   1   6   0   19.54   12.77
   2   5   210354.12  163.92
  -2  -5  -210975.85  150.03
   2   5   210225.08  141.35
  -2  -5  -210653.27  153.27
  -4   3  -2 6510.94   77.98
   3   0 -11 1138.04   18.83
  -4   3  -2 6318.68   90.72
  -4   3  -2 6197.01   92.53
  -1   3  11  446.15   23.40
   1  -3 -11  359.43   21.61
  -3   0  11 1227.16   17.07
  -3   0  11 1117.47   32.68
   2   2 -13   -3.28    3.09
  -2  -2  1314487.96  196.82
  -2   5  -9 7336.13  105.23
   4   2  -3 4086.86   61.91
  -4  -2   3 4356.11   57.45
  -4  -2   3 4309.64   67.30
  -2   5  -9 7444.72  109.72
  -4  -2   3 4365.78   50.97
  -2   6  -4  965.85   46.72
  -2   6  -4  961.22   18.58
   2  -6   4  943.34   29.30
   0   3  11    0.44   13.82
  -3   5  -417377.04  264.53
   0  -4  13   -5.60   11.65
   0   4 -13   19.84   13.73
   0   3  11    8.11   13.05
   3  -5   416531.90  228.48
   0   4 -13    2.99    7.56
   0  -3 -11  -12.93   23.88
  -3   5  -418145.99  217.51
  -4  -2   110316.02  139.91
  -4  -2   110436.14  137.77
   4   2  -1 9718.90  130.29
   4   2  -1 9734.17  128.62
  -3   5   1 3363.36   50.91
  -3   5   1 3339.94   58.32
   3  -5  -1 3235.32   70.67
  -3   3   8 8760.84  132.33
   3  -3  -8 8300.99  111.28
  -4   2   5 1476.13   26.98
   4  -2  -5 1404.30   24.73
  -4   2   5 1557.04   30.83
  -2  -4  11 3308.79   55.20
  -1   0  14  657.89   19.90
   2   4 -11 3281.12   34.61
   1   0 -14  626.65   19.63
   2   4 -11 3243.49   34.21
   4   1   3 3316.55   52.46
   3   4   1 3223.57   60.07
  -3  -4  -1 3319.87   59.92
  -4   3   2 1272.33   23.66
   4  -3  -2 1194.66   26.76
  -4  -1  -3 3422.48   54.77
   4   1   3 3364.99   47.71
  -4  -1  -3 3664.54   64.20
  -4   3   2 1223.42   28.78
  -3  -4  -1 3427.49   52.60
   3   4   1 3148.66   54.03
  -3  -2  -7  140.04   24.89
  -3  -2  -7  118.44   17.97
   3   2   7  146.21   17.57
   3   2   7  106.59   12.68
  -4   1  -5  146.41   17.42
   4  -1   5  157.33    6.82
  -4   1  -5  141.13   26.06
  -4   1  -5  174.78   12.00
   2   2  10 4150.38   77.55
  -2   4 -11   -0.95   10.90
   2   2  10 4266.68   71.27
  -2   4 -11   -9.80   19.71
  -2  -2 -10 4169.00   70.35
  -2  -4  -6 3921.98   82.94
   2  -6   0  598.30   41.24
  -1   5 -11 7996.88  122.89
   1  -5  11 8203.91   96.48
  -2  -4  -6 3876.00   67.92
  -1   5 -11 7983.58  112.46
   2   4   6 3778.98   64.67
   2   4   6 3871.02   80.13
  -2   6   0  621.09   31.76
  -2   6   0  585.84   28.58
  -4  -2   4   46.04   14.03
   4   2  -4   55.77   13.86
  -4  -2   4   40.41    8.17
  -4  -2   4   43.69    7.61
  -1   6  -8 1414.41   32.73
  -1   6  -8 1472.13   30.13
   0   3 -1411633.40  149.36
   1  -6   8 1395.12   31.56
   1  -6   8 1371.45   24.21
   0  -3  1411683.02  148.97
   0   3 -1411808.49  154.85
   2  -3  12 1111.16   13.99
  -2   3 -12 1178.63   43.50
  -2   3 -12 1132.01   32.17
   2  -3  12  978.38   12.97
   1   6  -7  128.22   15.24
  -2   0 -12 3469.56   79.01
  -1  -6   7  157.89   11.06
  -1  -6   7  120.25   27.55
   1   6  -7  125.53   11.81
   2   0  12 3327.38   56.33
   2   0  12 3461.71   60.95
  -4  -2   0 5420.14   78.72
   4   2   0 5100.76   72.93
  -4  -2   0 5350.43   80.64
   4   2   0 5102.73   76.13
  -4   3  -3  280.94   10.29
  -4   3  -3  255.62   20.34
  -4   3  -3  272.57   19.55
  -4   0   7   58.30   23.86
  -4   0   7   72.10    5.25
  -4   0   7   47.61    8.31
   2  -6   5 1274.25   33.68
  -2   6  -5 1366.84   52.51
  -2   6  -5 1353.60   21.59
  -3   4  -8 2505.02   49.81
  -3   4  -8 2460.09   50.23
   3   3   5 1446.50   31.89
  -3  -3  -5 1596.97   36.06
  -3  -3  -5 1562.72   50.69
   3   3   5 1465.55   34.19
   3   4  -7  494.14    7.36
  -3  -4   7  524.25   26.14
  -3  -4   7  530.09    7.35
   3   4  -7  513.25   37.61
  -1   6   3 3607.17   85.74
   1  -6  -3 3626.60   63.92
   1   5 -11 3393.25   44.58
   1   5 -11 3620.41   67.58
  -1  -5  11 3498.17   54.08
   1   5 -11 3442.67   44.40
  -4   2  -5  686.73   37.95
  -4   2  -5  727.99   10.54
  -4   2  -5  716.82   40.15
   0  -6  -3 1338.11   51.61
   0   6   3 1321.79   36.68
   0   6   3 1312.63   53.34
  -3   4   6  225.94   29.47
   3  -4  -6  177.63   16.11
   3  -1  10 7421.07  111.57
  -3   1 -10 7551.42  113.16
   3  -1  10 7465.86   86.65
  -3   5  -5 2577.40   29.14
   3  -5   5 2404.42   65.16
  -3   5  -5 2605.47   50.61
  -3   2 -10  778.31   41.09
   3  -2  10  759.76   29.81
  -3   2 -10  726.03   29.17
  -3   5   2 1980.97   42.77
   1   6   1 4358.05   71.94
   3  -5  -2 1821.42   39.01
   1   6   1 4268.90   84.35
  -1  -6  -1 4463.88   70.43
  -1  -6  -1 4404.87   76.06
  -1   5   7 5820.05  110.93
   1  -5  -7 5573.89   86.82
  -1   5   7 5789.95  114.61
  -4  -2   513415.92  185.27
   4   2  -512984.55  177.91
   4  -3  -3 3374.85   51.35
  -4  -2   513579.45  153.97
  -4  -2   513873.14  158.20
  -3  -2  11 1032.61   31.03
  -4   3   3 3719.82   69.12
   1  -2  14 2717.69   48.34
  -1   2 -14 2583.68   47.32
   1  -1  14 2412.60   46.82
  -1   1 -14 2296.65   44.88
   0   6  -9   58.64   10.40
   2  -6  -113583.73  208.23
  -2   6   114142.22  202.40
   0  -6   9   61.62   18.34
   0  -6   9   32.14   17.79
  -2   6   114770.55  198.37
   0   6  -9   46.43   19.23
   0   5   7  330.58   25.62
   4   0   5  279.57   10.16
   4   0   5  252.15   18.98
  -4   0  -5  271.98   19.99
   0   5   7  327.20   24.98
  -4   0  -5  302.15   12.12
   0  -5  -7  387.27   39.88
  -4  -1   711099.65  117.82
  -4  -1   710892.66  115.51
  -4  -1   710484.21  162.17
  -4  -2  -1 6309.08   89.26
   4   2   1 5887.09   82.14
   4   2   1 5817.72   78.74
  -4  -2  -1 6152.43   83.73
   1   4 -13  161.65   13.02
  -3  -3  10  122.97   18.02
   1   4 -13  184.20   14.00
  -4   1   7   -4.53   18.68
  -4   1   7   11.78    6.09
   4  -1  -7    0.92    7.37
  -1  -4  13  186.97   23.68
   1   1  13 3162.71   73.52
  -1  -1 -13 2926.28   54.75
   1   1  13 2978.27   51.11
  -3   2  10 1671.14   30.85
   3  -2 -10 1488.02   26.65
   1   3 -14 1686.48   32.75
   1   3 -14 1710.19   30.76
  -1  -3  14 1739.56   45.78
  -2   5   6    2.31   12.88
   2  -5  -6    4.10   12.27
  -2   5   6    2.32   12.91
  -2  -5   9   93.33    5.35
  -2  -5   9   91.10   16.54
   2   5  -9   93.52   24.61
  -3   1  11 2308.94   40.20
   3  -1 -11 2037.26   28.97
   2   5  -9   78.15    5.80
  -3  -4  -2  964.65   37.58
   3   4   2  863.89   35.46
  -2  -5  -3 7949.01  130.50
   3   4   2  964.05   28.65
   2   5   3 7548.27  111.64
   2   5   3 7456.84  107.96
  -3  -4  -2  953.68   31.99
  -2  -5  -3 7811.51  119.05
  -4   3  -418082.46  203.92
  -4   3  -417257.13  242.40
  -4   3  -417533.99  258.48
  -2   6  -6 8609.86  101.22
  -2   6  -6 8462.91  122.64
   2  -6   6 8389.00  119.67
  -1  -2 -12 7746.75  115.19
   1   2  12 8076.45  119.57
   1   2  12 8039.05  132.19
   0   5 -12    5.41   15.33
   0  -5  12    0.83   10.74
   0   5 -12   39.34    9.71
  -2   2  12 2411.28   41.69
   2  -2 -12 2194.14   49.69
  -4   2   6 1257.66   24.52
  -4   2   6 1232.11   28.90
   4  -2  -6 1160.20   29.23
  -1   4 -13  157.16   16.03
  -4  -1  -4 2096.19   53.92
  -1   4 -13  161.00   15.04
   4   1   4 2008.60   50.31
  -4  -1  -4 2089.05   35.95
   1  -4  13  143.04    7.54
   4   1   4 1843.25   39.39
   1   6  -8 2865.34   48.33
  -1  -6   8 2875.47   49.75
   1   6  -8 2808.92   50.43
  -1  -6   8 2894.69   41.36
  -1  -5  -6 1800.83   42.21
   1   5   6 1673.92   42.03
   1   5   6 1754.34   60.09
   3   1   9  887.28   27.70
   3   1   9  842.99   45.70
  -3  -1  -9  926.24   31.33
   2  -1 -13   28.04    9.35
  -2   1  13   19.38   14.79
  -3  -4   8 3289.53   58.48
   3   4  -8 3170.04   71.17
  -4  -2   6    9.74   14.32
  -4  -2   6   31.32    3.09
  -3   5  -6 2214.26   46.83
   3  -5   6 2160.41   60.84
   4  -1   6    2.30    3.54
  -4   1  -6    0.00   11.86
  -4   1  -6    4.98   12.81
   1  -6   9  178.67   10.70
  -4   1  -6   11.75    4.85
   1  -6   9  195.68   26.58
  -1   6  -9  227.07    9.79
  -1   6  -9  172.31   17.53
  -3   5   3 4311.56   71.99
   3  -5  -3 4076.25   65.64
   2   3 -13  121.95    5.55
   2   3 -13  147.63    5.61
  -4   3   4 5310.46   76.45
  -2  -3  13  117.97   26.16
   4  -3  -4 4908.45   69.24
  -2   5 -10 6076.70   92.82
  -2   5 -10 6156.84   91.80
   2  -5  10   66.22    2.99
  -2   6   2   29.72   13.32
  -2   6   2   30.39   17.37
   2  -6  -2   19.77   15.30
  -3   0 -10  711.13   29.04
   3   0  10  682.95   43.91
   3   0  10  697.26   21.08
  -1  -6  -2 5530.78   91.44
   1   6   2 5246.13   82.33
   1   6   2 5496.32  104.79
  -1  -6  -2 5564.26   85.47
   2  -4  -9 2733.84   49.76
  -2   4   9 2928.74   72.53
  -4  -2  -2 8083.96  109.54
   4   2   2 7560.92  102.07
   4   2   2 7669.51  115.32
  -4  -2  -2 8162.59  126.61
  -3   3 -10 1814.54   42.56
  -3   3 -10 1914.78   57.21
   2   3   9 1720.15   59.04
   2   3   9 1632.39   36.08
  -2  -3  -9 1668.84   40.65
  -1   3 -14 4829.11   71.32
   1  -2 -13 8860.05  139.37
  -1   2  13 9461.57  147.81
  -4   0   8 8921.63  126.04
  -4   0   8 8955.32  100.05
  -4   0   8 8848.31  102.23
   1  -3  14 4823.04   65.07
  -1   3 -14 4890.43   74.62
  -4   2  -6  177.12   19.59
  -4   2  -6  186.67    6.75
   0   2  13 2377.66   63.95
  -4   2  -6  145.98   17.97
   0  -2 -13 2241.94   46.12
  -1   6   4 1969.77   44.66
   1  -6  -4 1892.26   44.44
  -1   6   4 1922.90   65.31
   0   1  14   39.37   24.25
   0  -1 -14   35.37   14.66
  -2   2 -13 1591.19   38.71
   2  -2  13 1616.16   39.56
   2  -2  13 1505.46   26.58
  -1   0 -1420567.87  304.11
   1   0  1421345.69  297.71
  -1   1  1415498.14  209.67
   1  -1 -1414562.28  196.51
   0   6   4  200.27   22.47
   0   6   4  211.54   22.61
  -1   4  1019076.50  288.57
   0  -6  -4  222.15   21.17
   1  -4 -1018200.96  254.96
   0  -1  15 7128.56  100.28
  -3  -1  12  602.87    9.71
   0   1 -15 6724.92  108.06
  -3  -1  12  586.35   25.58
   3   1 -12  565.41    8.54
   0  -2  15  997.81   25.18
   2  -1  13 1346.73   36.80
   2  -1  13 1327.34   29.64
   0   2 -15  908.74   34.78
  -2   1 -13 1311.10   36.66
  -4   3  -5 2166.90   60.10
  -4   3  -5 2196.99   62.96
  -3   3   9   56.97   13.01
   3  -3  -9   19.35   16.88
  -2   6  -7  814.65   29.14
   2  -6   7  807.75   27.93
  -2   6  -7  788.82   17.66
  -3   4  -9 5260.05   82.03
  -3   4  -9 5214.79  103.19
  -2  -1  14 5741.34   74.92
   2   1 -14 5464.55   72.09
  -2  -1  14 5686.97   86.25
  -1  -4  -9 1850.37   64.55
   1   4   9 1613.44   41.91
  -2  -4  12 1679.27   37.05
   2   4 -12 1638.35   19.17
   2   4 -12 1639.27   19.19
  -2   3  11 1035.31   28.68
   2  -3 -11  987.55   39.86
   3   3   6  422.21   22.89
   3   3   6  384.77   31.40
  -4  -1   8 4040.14   66.06
  -3  -3  -6  478.02   24.77
  -3  -3  -6  454.69   37.68
   0   4  10 9072.77  159.44
   0   4  10 9239.93  156.81
   0  -4 -10 8921.59  135.78
   2   4   7  177.26   19.44
  -2  -4  -7  147.05   20.41
   2   4   7  159.16   20.11
   3   2   8  767.74   29.03
  -3  -2  -8  846.75   30.64
   3   2   8  777.92   31.81
  -3   0  12 7670.10  113.05
   3   0 -12 7337.48   87.46
  -3   0  12 7797.82   94.66
   3   4   3 3418.04   58.55
  -3  -4  -3 3606.11   63.61
  -3  -4  -3 3520.74   58.34
  -3   4   7 2005.28   41.18
   3   4   3 3377.40   68.62
   3  -4  -7 1746.36   47.93
  -1   5 -12  166.24   16.53
   1  -5  12  161.10    8.17
  -1   5 -12  164.12   15.44
   0   6 -10 4088.86   58.02
   0   6 -10 3991.19   58.97
   0  -6  10 4005.68   57.75
   0  -6  10 4088.18   59.21
  -4   0  -6 1767.23   54.75
   4   0   6 1725.71   38.31
  -4   0  -6 1753.16   27.76
   4   0   6 1750.51   25.73
  -1  -3 -11 7807.26  117.87
   1   1 -15 3699.72   61.94
   1   3  11 7740.25  114.95
   1   3  11 7957.30  120.58
  -1  -1  15 3777.89   63.30
   2  -4  12 1638.18   17.69
  -1  -6   9  776.47   25.17
  -2   4 -12 1731.64   40.08
  -2   4 -12 1727.97   37.42
  -4  -2   7 5478.84  100.77
   1   6  -9  769.25   24.04
   1   6  -9  776.53   26.36
  -1  -6   9  790.59   24.92
   1   5 -12   84.34    7.99
   1   5 -12   44.65    7.47
  -1  -5  12   74.86   12.86
  -4   1   8 1123.50   30.24
  -4   1   8 1153.59   25.74
   4  -1  -8 1036.00   22.14
  -2  -5  10  791.65   40.85
  -2  -1 -1224531.83  348.91
   2   5 -10  734.83   39.03
   2   5 -10  713.51   11.56
   2   1  1225141.78  357.67
   2   1  1224337.06  342.07
   0   4 -14   39.32   15.57
   0   4 -14   46.77   10.70
   0  -4  14   53.71    9.34
  -2  -5  -4   32.78   17.62
   2   5   4   13.65   13.65
  -2  -5  -4   17.63   14.89
   2   5   4    1.76   12.65
  -1  -2  15 2799.80   40.20
   1   2 -15 2641.37   38.87
  -2  -2  14  496.17   23.15
  -2  -2  14  605.81   10.95
   2   2 -14  553.34   13.12
  -1  -2  15 2625.12   58.36
   2   2 -14  552.72   10.21
  -3   5  -7 2972.79   76.15
   4  -4   1 2124.22   41.51
   3  -5   7 2860.60   53.38
  -4   4  -1 2245.76   45.78
  -3   5  -7 2943.13   72.59
  -4   4  -1 2364.15   36.54
  -4   3   5   19.37   10.71
   4   1   5 8844.55  124.62
   4  -3  -5   -3.13   13.46
  -4  -1  -5 9219.97  130.40
   4   1   5 8824.07  121.45
   4  -4   0 9682.65  135.16
  -4   2   7 1107.68   31.33
  -4   4   010108.85  143.20
   4  -2  -7 1029.19   27.49
  -3   5   4 1744.93   40.98
   1  -3 -1222433.77  313.67
  -1   3  1224061.68  355.19
   3  -5  -4 1630.00   37.36
   2   0 -14 2185.91   32.99
  -2   0  14 2383.88   42.91
  -3  -4   9  482.34   40.74
   2  -6  -3 6278.54   97.19
  -2   6   3 6344.32  120.14
  -2   6   3 6494.15  111.87
   3   4  -9  613.56   40.57
   4  -4   2   16.83   21.21
   4   2   3  -12.00    9.98
  -4   4  -2   35.50    5.02
  -4   4  -2   53.29   14.62
  -4  -2  -3   17.45   19.51
   4   2   3    6.47   15.09
  -4   4  -2  -10.00   15.28
  -4  -2  -3   14.39   11.32
  -3  -3  1113372.53  187.39
  -1   5   8 1517.88   58.81
   0  -3 -12  193.35   34.40
   1  -5  -8 1458.35   55.96
   0   3  12  214.77   35.29
  -1   5   8 1597.59   43.96
   0   3  12  241.82   23.53
  -2   5   7   24.72   17.46
   2  -5  -7 5234.29   99.06
   2  -3  13 2028.03   25.04
  -2  -2 -11 2341.32   69.57
  -2   3 -13 1996.52   40.98
  -3  -2  12 3710.30   62.56
   2   2  11 2330.21   56.44
   2   2  11 2427.31   69.34
  -2   3 -13 2100.98   44.96
  -4   4   1 9048.19  128.00
   4  -4  -1 8402.59  117.80
   3  -2  11    4.02    2.22
   3  -2  11   25.54   14.38
  -3   2 -11    8.05   25.33
  -3   2 -11   14.87   14.32
  -1  -6  -3 1919.00   59.75
  -1  -6  -3 1885.93   48.87
   1   6   3 1896.73   43.46
   1   6   3 1887.76   44.47
  -4  -3   3   40.50   23.61
  -4  -3   3   22.84   10.13
   4   3  -3   23.79   13.15
   4   3  -3   24.96    9.35
  -4  -3   2   20.38   21.15
   3  -1  11 4168.96   47.78
   3  -1  11 4211.39   72.46
  -3   1 -11 4174.65   91.06
   4   3  -2    4.66   11.39
   4   3  -2    7.69    9.74
  -4  -3   2    2.18   10.39
   2   6  -3 3834.38   66.11
   0   5   8   32.78   18.55
   2   6  -3 3782.65   56.81
   1  -6  10 1966.74   51.30
  -2  -6   3 4034.51   58.46
   0   5   8   34.90   30.70
   0  -5  -8   26.12   17.39
   0   0  15 3026.81   52.22
  -1   6 -10 2016.44   28.48
   0   0 -15 2914.00   64.69
  -2  -6   3 3986.67   71.53
  -1   6 -10 1912.99   52.34
  -1   6 -10 1884.05   39.69
   1  -6  10 1963.79   29.57
  -2  -6   4 6815.22  105.74
  -2  -6   4 6881.42   90.64
   2   6  -4 6433.90   97.71
   2   6  -4 6422.09   95.28
   0  -3  15 2002.65   41.43
   0   3 -15 1974.57   33.89
   0   3 -15 1941.22   35.68
  -4   1  -7 2231.97   46.71
  -4   1  -7 2289.99   59.01
  -4   1  -7 2315.08   34.06
   4  -1   7 2064.77   24.29
   4  -1   7 1594.21   39.89
   4  -4   3  106.06   16.32
  -4   4  -3  108.20   17.66
  -4   4  -3  101.35    7.50
  -4   4  -3  107.91   18.11
   2  -6   8   98.14   17.44
  -4  -3   4 2394.23   29.91
  -4  -3   4 2400.78   47.50
   4   3  -4 2218.25   57.60
  -4   3  -6 2726.64   53.65
  -2   6  -8  110.05    8.76
  -4   3  -6 2708.83   50.81
   4   3  -4 2223.68   31.64
  -2   6  -8  113.10   29.16
  -2   0 -13 2785.22   54.91
   2   0  13 2674.26   50.69
   2   0  13 2879.11   55.68
  -1   0  15   46.36   11.47
   1   0 -15   83.49   20.08
   4   3  -113532.05  185.83
  -4  -3   114634.12  185.53
   4   3  -113745.70  182.00
  -2  -6   2 9306.99  160.16
   2   6  -2 8878.57  147.05
  -4  -3   114282.83  214.71
   2   6  -2 8843.23  132.31
  -2  -6   2 9435.19  137.54
  -2  -6   5  276.43   24.18
  -2  -6   5  315.11   20.13
   2   6  -5  327.37   22.52
   2   6  -5  320.85   13.51
  -4   2  -7 1125.07   34.07
  -4   2  -7 1156.26   46.63
   3  -2 -1116058.91  218.56
   1   5   7 1077.80   35.14
   1   5   7 1056.05   52.95
  -1  -5  -7 1010.69   51.81
  -3   2  1117580.91  231.71
   1  -6  -5 9108.50  134.23
  -4   0   9   -2.10   22.68
  -4   0   9   21.19    6.00
  -1   6   5 9483.59  159.47
  -1   6   5 9342.75  141.19
  -4   0   9   19.56    6.29
   0  -7   3 3690.89   62.69
   0   7  -3 3797.84   61.52
   0  -7   3 3746.20   61.46
   0   7  -3 3642.09   62.24
   0   5 -13 1729.66   30.35
   0   5 -13 1697.49   42.23
   4  -4  -2  171.95   26.16
   0  -5  13 1744.11   29.85
  -4   4   2  213.35   18.55
   0  -7   4    6.11   11.55
   0  -7   4    9.15   12.27
   0   7  -4   14.91   12.49
   0   7  -4    2.30   11.25
  -1  -4  14 5277.40   75.91
   1   4 -14 5331.01   65.44
   1   4 -14 5369.35   73.55
  -3   1  12 7213.81   90.94
   3  -1 -12 6452.31   80.13
  -2   5 -11 2769.52   66.36
   2  -5  11 2594.42   26.57
  -2   5 -11 2733.97   52.63
   1  -7   3  543.01   25.39
  -1   7  -3  614.56   41.97
  -1   7  -3  614.26   31.62
  -3  -5   3 1101.58   29.11
  -3  -5   3 1079.04   36.29
   3   5  -3 1016.05   32.40
   3   5  -3 1066.01   28.27
   4   3  -5 1127.44   45.27
  -4  -3   5 1249.34   19.12
  -4  -3   5 1223.45   34.91
  -4  -3   5 1239.91   17.72
   0  -7   2  355.73   23.81
   0   7  -2  357.90   21.63
   0   7  -2  379.93   23.48
   0  -7   2  395.97   22.54
   3   5  -4  241.05   16.27
  -3  -5   4  233.57   23.44
   0  -6  -5  396.45   41.18
   0   6   5  413.21   42.25
  -4  -2   8 7385.00  109.41
   3   5  -4  263.25   20.98
   0   6   5  404.03   42.92
  -3  -5   4  237.40   10.52
  -1   7  -4 2961.01   55.99
   3   4   4  157.15   17.81
  -3  -4  -4  136.00   19.77
   3   4   4  129.21   16.89
   1  -7   4 2868.26   48.77
  -3  -4  -4  142.33   17.20
   1  -7   4 2983.32   69.35
  -1   7  -4 3366.94   51.55
  -4  -1   9  233.68   33.42
   1  -7   2  204.12   20.42
   0  -7   5 1754.22   52.48
   0   7  -5 1842.47   36.53
  -1   7  -2  272.25   35.55
  -1   7  -2  214.04   26.88
   0  -7   5 1848.97   36.71
   0   7  -5 1877.08   53.12
  -2  -6   1 2809.84   58.56
  -2  -6   1 2773.07   59.54
   2   6  -1 2631.57   45.91
   2   6  -1 2598.97   52.31
  -2  -6   6  323.38   37.49
   2   6  -6  284.43   12.60
  -2  -6   6  301.26   12.18
   2   6  -6  295.95   21.41
  -4   4  -4 2239.32   47.78
   4   3   0  104.84   10.82
  -4   4  -4 2336.77   26.70
  -4  -3   0  104.03   28.53
  -4   4  -4 2206.79   44.97
  -4  -3   0  103.75   18.48
   4   3   0  121.44   25.87
  -4   4  -4 2260.73   24.65
  -3  -5   2 2615.06   49.25
  -3  -5   2 2565.60   73.18
   3   5  -2 2447.80   46.67
   3   5  -2 2417.87   65.15
   3   1  10  169.37   20.98
  -3  -1 -10  148.16   34.33
   3   1  10  136.95   11.47
   1  -2  15  768.97   26.84
  -1   2 -15  781.36   27.19
  -1  -3  1512818.04  173.42
   1   3 -1512954.32  159.12
   1   3 -1512818.14  169.07
   1   6 -10  184.34   15.75
  -1  -6  10  186.47   10.38
  -1  -6  10  156.43   26.87
   1   6 -10  188.10   17.68
  -1   4 -14 4017.45   64.59
   1  -4  14 4032.04   49.75
   3   5  -5  500.39   17.28
  -1   4 -14 4066.42   74.01
   3   5  -5  559.30   25.53
  -3  -5   5  482.72   27.41
  -3  -5   5  519.58   12.06
  -4   3   6 2790.19   58.18
   4  -3  -6 2648.64   52.38
  -3   5  -8 1048.18   34.15
  -3   5  -8 1016.01   32.40
  -3   4 -10  213.21   22.78
  -3   3 -11  863.04   32.40
  -3   4 -10  207.14   20.55
  -3   3 -11  857.09   30.24
   0   6 -11 1554.30   30.35
   0   6 -11 1623.72   38.49
  -1   7  -5 3437.93   60.64
   0   6 -11 1550.33   31.11
  -1   7  -5 3544.82   52.76
   0  -6  11 1635.57   30.64
   0  -6  11 1585.80   29.81
   1  -7   5 3524.70   75.21
   1  -7   5 3432.41   66.40
   1  -1  15 6565.70   99.44
  -1   1 -15 6462.15   98.10
  -2   6   4  293.77   22.21
  -4  -2  -4 2330.64   43.25
   2  -6  -4  299.85   37.03
  -4  -2  -4 2315.39   42.31
   4   2   4 2210.29   37.90
  -3   5   5 4735.04   78.33
   4   2   4 2222.60   54.06
   3  -5  -5 4459.21   86.88
   0  -7   1 3946.33   65.77
   4   0   7  160.61    8.52
  -4   0  -7  167.55   19.95
   0   7  -1 4005.53   66.63
   0   7  -1 3895.24   86.45
   0  -7   1 3956.77   87.52
   4   0   7  168.44   30.74
  -4   0  -7  167.73   17.19
   1  -7   1 1312.04   35.72
  -1   7  -1 1373.67   45.59
  -1   7  -1 1359.94   38.47
  -2   2  13 2865.66   48.00
   2  -2 -13 2638.99   44.59
  -2  -3  14  491.14   22.46
   2   3 -14   -2.71    2.80
  -3  -3  -713279.84  188.71
   3   3   712958.64  199.84
   3   3   712470.82  171.22
  -3  -3  -713582.32  207.63
  -2   4  10 4416.15   88.36
   2  -4 -10 4182.34   82.83
   3  -4  -8   11.74   11.36
   1   1  14  488.40   26.06
  -3   4   8   22.60   13.56
   1   1  14  546.32   22.96
  -1  -1 -14  492.63   40.54
   4  -4  -3  674.28   33.39
  -4   4   3  714.72   24.75
   0   7  -6 1064.72   29.21
   3   5  -1 5843.07   80.24
  -3  -5   1 6215.01  118.39
   0  -7   6 1071.37   29.52
   2   5 -11  447.14    8.89
  -2  -5  11  495.69   23.67
   0   7  -6 1072.33   27.30
  -3  -5   1 6425.27   98.38
   3   5  -1 5811.34   90.17
   2   5 -11  425.36   35.38
   0  -7   6 1097.62   28.04
  -3   0 -11  439.71   26.90
   3   0  11  398.70   18.35
   2   5   5  198.45   20.78
   3   0  11  426.01   25.85
   1   2  13  650.28   29.52
  -1  -2 -13  593.11   28.29
   2   5   5  199.88   34.40
  -2  -5  -5  243.98   35.14
  -2  -5  -5  247.05   41.17
   1   2  13  614.43   40.26
   3   4 -1013615.32  193.46
  -4  -1  -6 6266.64   94.87
  -4  -1  -6 6226.71   84.00
  -4   1   9 1146.04   45.42
  -4   1   9 1117.25   25.55
  -3  -4  1013699.31  194.61
   4   1   6 5859.12   88.77
   4  -1  -9 1061.58   21.89
   4   1   6 5818.11   84.33
  -4  -3   6 1450.89   15.31
  -4  -3   6 1445.34   15.01
  -4  -3   6 1474.11   36.66
   4   3  -6 1370.40   34.88
  -3   3  1010520.04  144.23
   3  -3 -10 9320.56  126.57
   4  -2  -8 4056.63   61.43
  -4   2   8 4357.72   60.05
   2   4 -13 7469.01   80.23
   2   4 -13 7551.08   81.51
  -2  -4  13 7530.19  109.17
  -2  -3 -10  381.60   25.90
   2   3  10  425.73   26.47
   2   3  10  364.90   35.19
  -2   1  14 2871.09   54.83
  -3  -5   6  114.67   20.07
   2  -1 -14 2668.79   42.28
   3   5  -6  106.69   18.34
  -3  -5   6  102.49    9.96
   3   5  -6   97.80    6.42
  -2  -6   0  136.55   15.83
   2   6   0  136.93   20.34
   2   6   0  138.93   25.31
  -2  -6   0  114.57   22.58
   2   6  -7 5931.88   82.70
  -2  -6   7 6120.88   75.53
  -2  -6   7 6164.10   95.00
   2   6  -7 5990.17   91.50
   2   4   8   96.67   19.45
  -2  -4  -8   96.02   19.13
   2   4   8   87.01   17.61
  -4  -3  -110651.19  140.95
   4   3   1 9930.97  131.24
   4   3   1 9902.70  136.88
  -4  -3  -110714.96  167.07
   1   6   4 2447.01   53.06
   1   6   4 2410.69   68.02
  -1  -6  -4 2492.10   51.20
  -3  -1  13    2.30    3.26
   3   1 -13    2.66    2.95
  -3  -1  13    6.24   19.76
   1  -7   6  180.15   29.74
  -1   7  -6  148.99   18.79
   1  -7   6  171.98   14.51
  -1   7  -6  180.64   19.90
   3   2   9 1790.50   42.24
  -3  -2  -9 1803.11   44.35
   3   2   9 1682.90   32.67
  -3   6  -2 7047.77  110.17
  -3   6  -2 7227.25   91.81
   3  -6   2 6688.44  102.32
  -4   3  -7 8016.63  134.04
  -2   6  -9  483.79   26.53
  -2   6  -9  474.05   24.24
   2  -6   9  495.24   38.00
  -2   6  -9  448.48   11.66
  -4   3  -7 7930.17  119.53
   1  -5  13 3810.85   47.31
  -4   4  -5  753.62   30.36
  -1   5 -13 3803.10   71.71
  -1   5 -13 3739.92   61.18
  -4   4  -5  810.34   42.79
   1  -7   0  102.57   18.95
  -1   7   0   96.91   20.44
  -1  -5  13  343.35   17.99
   1   5 -13  344.37   17.00
  -1   7   0  120.03   16.90
   1   5 -13  371.13   17.49
  -3   6  -1    7.16    7.94
  -3   6  -1   -5.22   14.49
  -3   6  -3   80.43   13.49
   3  -6   3  112.33   19.20
  -3   6  -3   82.15   20.01
   1  -4 -11   89.83   31.22
   0   7   0 9405.01  153.26
   0  -7   0 9417.92  154.61
  -1   4  11   88.80   19.83
   0  -7   0 9404.53  140.19
   0   7   0 9090.90  135.17
   1   4  10 1833.23   44.26
   1   4  10 1848.72   45.38
  -1  -4 -10 1861.15   66.22
  -1   3 -15 4372.89   67.14
   1  -3  15 4321.39   60.43
  -1   3 -15 4367.10   69.59
  -3  -5   0 3435.82   64.85
   3   5   0 3371.65   60.32
  -3  -5   0 3504.21   65.88
   3   5   0 3299.56   51.22
  -1   6 -11 1116.26   19.32
  -3   0  13  910.63   19.99
  -2   2 -14  273.67   36.12
  -1   6 -11 1131.47   29.00
  -1   6 -11 1042.90   29.64
   2  -2  14  280.79   22.90
   1  -6  11 1095.68   19.78
   3   0 -13  872.90   18.56
   2  -2  14  274.99   14.74
  -3  -3  12  275.97   22.08
   0   7  -7 2716.94   57.34
   0  -7   7 2753.90   46.64
   0   7  -7 2692.04   47.29
   0  -7   7 2760.07   48.18
  -2   3  12  814.92   26.57
   2  -3 -12  724.87   24.70
  -2   4 -13  473.08   35.05
   2  -4  13  465.80    7.82
  -2   4 -13  449.55   24.40
  -1   2  14 2231.67   58.47
   1  -2 -14 2036.49   56.96
   0   4  11 6805.54  130.80
   0   4  11 6883.57  107.64
   0  -4 -11 6619.93  104.99
  -2   5   8   13.99   25.26
   2  -5  -8   49.42   16.34
  -4   1  -8 1183.79   51.80
   4  -1   8 1209.46   16.00
   4  -1   8 1193.48   35.39
  -4   1  -8 1239.10   33.77
  -3   6  -410199.56  153.40
   3  -6   410204.09  149.22
  -3   6  -410781.75  133.98
  -3   6   0 5419.70   75.14
   3  -6   0 5108.89   82.63
  -3   6   0 5345.34  107.27
   0  -2 -14  868.59   30.50
  -4   2  -8  158.23   19.89
   0   2  14  904.66   31.08
  -4   2  -8  286.15   34.70
   2  -1  14 6014.83   77.24
  -4  -2   9   20.92   24.54
  -2   1 -14 6067.91  114.22
   2  -1  14 6430.19  100.13
  -2  -1  15 2423.48   39.23
   2   1 -15 2294.51   38.55
  -2  -1  15 2299.65   46.10
  -3  -5   7 4181.79   49.08
  -4   4   4   90.19   15.54
   3   5  -7 4128.18   87.62
  -3  -5   7 4144.21   91.37
   4  -4  -4  107.67   14.13
   3   5  -7 3930.07   47.74
  -4  -3   7   33.47   26.19
   4   3  -7   12.98   13.81
  -1   5   9  380.09   25.95
  -1   5   9  348.15   27.90
   1  -5  -9  359.16   24.98
  -1   6   6   52.25   18.68
  -1   6   6   22.74   17.85
   1  -6  -6   41.65   17.60
   0  -1 -15 1004.41   43.63
   1   0  1513123.16  187.96
   0   1  15 1089.73   31.15
  -1   0 -1512874.02  185.80
   1  -1 -15 7638.80  108.79
  -1   1  15 8091.95  128.16
  -3  -2  13  414.36   37.62
   0  -2  16  590.41   21.09
   0   2 -16  555.00   20.87
  -4   0  10 5961.41   90.91
  -4   0  10 6019.33   65.21
  -4   0  10 6063.85   66.31
   1  -7   7  240.18   29.99
  -1   7  -7  169.78   12.11
  -1   7  -7  248.56   30.57
   1  -7   7  204.83   14.19
  -3  -4  -5    2.75   15.11
  -2  -6  -1  697.09   25.02
   3   4   5   12.08   13.03
   2   6   1  685.37   30.18
  -2  -6  -1  663.24   32.44
   2   6   1  679.93   25.10
  -3  -4  -5   25.56   21.58
   3   4   5    4.30   12.80
  -2  -6   8 2793.79   36.65
   2   6  -8 2891.27   68.20
  -2  -6   8 2775.06   53.62
   2   6  -8 2717.36   37.19
   1   3  12 3534.55   63.92
   1   3  12 3733.39   87.43
   0   4 -15 3227.54   50.25
  -1  -3 -12 3656.35   67.06
   0  -4  15 3313.56   56.43
   0   4 -15 3207.14   47.79
   0   1 -16 2696.49   48.39
   0  -1  16 2917.30   62.96
  -4  -3  -2   50.15   12.18
   4   3   2   27.45   16.50
   4   3   2   11.67   11.79
  -4  -3  -2   31.55   25.80
   4  -3  -7 8096.63  108.40
  -4   3   7 8800.95  120.78
  -1   7   1  290.21   25.75
  -4  -1  1015031.37  212.40
  -2  -2  15 1996.95   41.57
  -2  -2  15 2153.67   32.06
   2   2 -15 1989.20   26.17
  -1   7   1  324.85   21.47
   1  -7  -1  341.47   38.67
  -1  -6  11  688.03   16.31
  -1  -6  11  688.83   23.64
   1   6 -11  667.47   22.24
   1   6 -11  681.64   16.75
  -3   5  -9 2548.56   51.05
  -3   5  -9 2549.97   53.03
   1   6 -11  683.09   16.76
  -3   2 -1211389.58  168.30
  -3   2 -1211485.27  164.79
   3  -2  1211779.38  172.57
   0   5   926116.57  378.42
   0   5   926653.03  407.92
   0  -5  -926143.12  378.65
   3  -2  1211533.62  124.08
   0   6   6  551.04   29.28
   4   2   5   11.57    9.78
  -4  -2  -5    3.44   20.20
  -4  -2  -5   11.85   11.11
   4   2   5   40.57   20.55
   0   6   6  510.88   30.14
   0  -6  -6  610.73   30.14
  -2  -1 -13  124.35   21.59
   2   1  13  123.06   13.88
   2   1  13  120.03   21.63
  -3   6  -515211.32  242.89
  -3   6  -515430.79  188.76
   3  -6   515043.32  235.66
   2  -6  -5   27.09   15.81
   3  -6  -1  587.68   27.07
  -2   6   5   47.74   30.28
   0   7   1 2154.60   47.63
  -3   6   1  622.50   21.37
  -2   6   5   28.47   16.42
  -3   6   1  626.29   45.46
   0   7   1 2157.57   49.02
   0  -7  -1 2141.35   47.24
  -1  -7   4 3326.54   53.91
  -3   5   6 2091.18   45.66
  -1  -7   4 3281.34   79.20
   1   7  -4 3134.12   66.68
   1   7  -4 3204.51   72.47
   3  -5  -6 1897.23   40.45
  -1  -5  -8   41.72   18.61
  -1  -1  16 1676.44   31.28
   1   1 -16 1554.48   29.34
  -1  -7   3   41.92   18.76
   1   5   8   36.72   18.45
  -1  -7   3   83.78   13.87
   1   7  -3   86.45   15.53
   1   7  -3   82.75   28.19
   1   5   8   36.72   18.08
  -4   4  -6  132.04   19.14
  -4   4  -6   76.53   32.29
  -3  -5  -1   16.57   17.56
  -3  -5  -1   26.12   11.95
   3   5   1   76.19   12.99
   3   5   1   15.49   28.10
   3  -1  12  265.51   23.86
  -3   1 -12  228.54   23.61
  -2   3 -14 3145.77   54.84
   3  -1  12  241.43    7.97
  -2   3 -14 3080.32   57.93
   2  -3  14 3100.86   37.68
  -2   5 -12  821.55   27.67
  -2   5 -12  793.60   28.89
   2  -5  12  740.29    9.61
  -1  -2  16  448.46   30.77
  -1  -2  16  436.76   15.03
   1   2 -16  387.37   14.51
  -1   3  13 6209.67  114.02
   1  -3 -13 5892.59   92.12
   2   2  1228640.67  400.77
   0  -7   8  191.69   14.97
   0  -7   8  177.77   25.77
  -2  -2 -1228878.66  416.97
  -1  -7   5 3889.07   67.46
   2   0 -15 1797.90   38.07
   1   7  -5 3848.29   61.41
   0   7  -8  177.38   25.81
  -1  -7   5 3879.06   70.55
   1   7  -5 3844.07   65.08
  -2   0  15 1935.07   31.40
   0   7  -8  186.71   23.04
   2   2  1228960.97  418.28
   0   6 -12 1584.89   28.98
   0   6 -12 1528.52   40.40
  -1  -7   2 3769.34   61.39
   1   7  -2 3704.00   64.70
   0   6 -12 1480.63   40.30
   0  -6  12 1545.84   38.52
  -1  -7   2 3729.58   68.02
   1   7  -2 3636.18   61.36
   0   5 -14 7364.50  107.82
   0   5 -14 7239.93  108.32
   0  -5  14 7490.68  107.24
   3  -2 -12 1088.68   23.30
  -3   2  12 1255.96   36.58
   0  -3 -13   85.39   30.90
   0   3  13   71.02   19.68
  -3  -4  1111791.58  170.17
   0   3  13   67.56   18.59
  -4   0  -8  681.55   43.37
   4   0   8  785.68   29.59
   4   0   8  798.02   15.55
  -4   0  -8  542.04   14.90
  -4  -1  -7  786.40   44.55
  -4  -1  -7  783.16   30.97
  -3  -5   8 3819.63   41.50
  -3  -5   8 3795.55   69.13
   3   5  -8 3653.91   85.16
   4   1   7  731.24   18.09
   3   5  -8 3669.43   41.01
   4   1   7  766.45   28.24
  -3   4 -11 7400.23  114.64
  -2   7  -3 2918.82   57.95
  -2  -5  12 6744.96  115.83
   2   5 -12 6529.19   71.62
   2  -7   3 2835.15   72.16
  -3   4 -11 7585.05  112.95
  -2   7  -3 2889.67   44.71
   2   5   6  949.48   32.80
   2   5   6  970.51   48.63
  -2  -5  -6  953.03   36.37
  -2  -5  -6  994.96   49.71
   4  -2  -9 2511.56   36.58
  -2   7  -2 4083.63   93.50
  -2   7  -2 4170.69   61.37
   2  -7   2 3936.84   68.90
  -4   2   9 2669.30   49.75
  -2   6 -10 9848.71  162.97
  -2   6 -10 9728.74  140.50
   1   7  -6 5668.65   82.78
  -1  -6  -5 7285.08  111.87
   4  -1 -10 1924.20   31.01
  -4   1  10 2129.70   35.66
  -4   3  -8  416.34   42.01
  -1  -7   6 5713.11   90.30
   1   6   5 7277.40  113.44
  -4   1  10 2105.86   60.21
   1   7  -6 5638.01   86.53
  -4   3  -8  493.43   25.19
  -1  -7   6 5769.31   91.34
   1   6   5 6983.54  109.87
  -2   7  -4  141.04   20.75
   1   4 -15  552.51   13.29
   1   4 -15  550.68   14.75
  -2   7  -4  120.35   17.91
   2  -7   4  123.87   31.47
  -4  -3   8 2209.06   47.55
  -1  -4  15  573.64   21.29
  -3   1  13 3281.03   53.50
   3  -1 -13 3005.42   47.97
   1  -7   8 6041.48   91.12
   0  -3  16  709.07   27.28
  -1   7  -8 6244.67   90.48
  -1   7  -8 6211.27   94.14
   0   3 -16  740.23   22.17
   0   3 -16  750.59   20.23
   1  -7   8 6219.85  106.40
   4  -4  -5  253.17   16.80
  -4   4   5  272.14   19.30
   3  -4  -9    3.29   16.45
  -3   4   9    0.75   10.55
  -3   6  -6 5832.52   65.72
  -3   6  -6 5843.78   96.58
   3  -6   6 5743.34  113.59
   3   3   8 7194.71  118.51
   3   3   8 7488.38  130.36
  -3  -3  -8 7811.00  118.52
  -3   6   2 3039.42   60.24
  -3   6   2 3146.32   66.26
   3  -6  -2 2827.57   70.42
   2   0  14 2373.93   38.46
   2   0  14 2406.56   51.73
  -2   0 -14 2460.13   71.88
  -1  -7   1 1208.62   56.90
  -1  -7   1 1245.18   45.56
   1   7  -1 1211.77   46.39
   1   7  -1 1125.14   35.00
  -3   3 -12 3883.86   67.40
  -3   3 -12 3887.33   88.69
  -2   7  -1   12.99   10.19
  -2  -6  -2 9738.29  148.69
   2   6   2 9207.45  136.70
  -2   7  -1   -3.20   25.85
   2   6   2 9200.88  133.88
   2  -7   1   12.72   14.55
  -2  -6  -2 9598.94  153.39
   2   6  -9 2210.52   36.90
  -2  -6   9 2367.35   47.67
  -2  -6   9 2316.01   30.33
   2   6  -9 2324.40   61.92
   3   1  11 9398.24  122.55
   3   1  11 9614.22  143.28
  -1   7   2 1092.25   48.73
  -1   7   2 1132.77   56.91
   1  -7  -2 1107.55   34.55
  -3  -1 -11 9758.22  145.32
   0   0  16 1412.71   34.03
  -4  -3  -3 5285.97   79.03
   4   3   3 4871.74   86.04
   0   0 -16 1349.46   33.59
   4   3   3 4896.55   72.92
  -4  -3  -3 5325.28   98.12
  -2   7  -5  210.30   23.50
  -2   7  -5  211.83   11.33
   2  -7   5  253.84   21.71
   0  -7  -219699.92  282.21
   0   7   220063.49  287.84
  -1   0  16   65.49   12.48
   1   0 -16   46.27   19.37
   0   7   219825.38  287.15
  -4  -2  10 8227.44  122.83
  -4   5  -1 3300.66   79.77
  -4   5  -1 3412.75   46.08
   4  -5   1 3256.09   75.07
   3   5   2 4863.79   74.43
  -3  -5  -2 5078.71   86.25
   3   5   2 4912.50   79.15
  -3  -5  -2 5146.85   93.49
  -4   5  -2    4.12    5.40
   3  -3 -11 1058.96   37.09
  -4   5  -2    7.39   21.61
   4  -5   2   -5.00   12.23
  -3   3  11 1176.47   40.48
   1  -4  15 1539.43   29.02
  -2  -4  14  205.04   30.06
   2   4 -14  242.54    7.19
   2  -4 -11  560.95   24.36
  -1   4 -15 1515.77   32.88
  -2   4  11  548.31   39.41
  -1   4 -15 1443.23   34.18
   2   4 -14  220.44    7.15
  -1   6 -12  626.91   34.13
  -1   6 -12  590.18   23.46
   1  -6  12  579.97   14.03
   1   7  -7 3032.17   53.94
  -1  -7   7 3143.86   73.21
   1   7  -7 3024.49   60.50
  -1  -7   7 2997.99   46.82
   4  -5   0 9563.61  137.90
  -5   1   1 5796.22   88.04
  -4   5   010051.23  147.14
  -5   1   1 5774.04   80.77
  -5   1   1 5924.92   88.74
  -2  -4  -9   -8.72   15.60
   2   3 -15   -2.12    3.32
  -2  -3  15 2130.82   42.96
   2   4   9   -5.77   24.31
   2   4   9   -7.91   22.19
   1   3 -16 1616.33   25.89
  -1  -3  16 1670.46   34.80
   1   3 -16 1659.87   34.75
  -2   7   0   54.40   13.39
   0  -7   9 2013.03   48.14
   2  -7   0   54.31   28.93
   0   7  -9 2019.96   36.10
   0  -7   9 2018.04   50.20
   0   7  -9 1988.77   49.44
  -2   7   0   53.54   18.82
  -4   4  -7   -2.26   24.70
  -4   4  -7   26.17   15.83
   3   0  12  559.16   44.43
  -3   0 -12  455.91   27.92
   3   0  12  473.90   13.61
  -4   2  -9 1156.00   33.90
  -5   1   0 4417.12   60.70
  -4   2  -9 1137.70   36.23
  -5   1   2  244.31   21.09
  -5   1   2  213.43   20.24
  -5   1   2  199.67   12.50
  -5   1   0 4427.89   74.07
  -5   1   0 4302.98   75.32
  -4   1  -921290.23  307.87
   4  -1   919837.86  239.68
  -4   1  -921579.62  304.57
   4  -1   921084.60  301.75
  -4   5  -3  434.02   25.21
  -4   5  -3  452.01   12.30
  -4   5  -3  438.99   13.93
   4  -5   3  391.98   22.89
   1   5 -14    7.66    8.30
  -1  -5  14   -5.79   16.13
   1   5 -14   -6.24    5.61
  -3  -2 -10 1400.92   56.95
   3   2  10 1266.03   38.98
   3   2  10 1273.01   38.45
  -5   0   1 2774.30   49.80
  -5   0   1 2736.62   42.82
  -5   0   1 2824.92   55.50
  -5   0   2 6604.29  103.64
  -5   0   2 6521.21   93.84
  -5   0   2 6423.44   82.59
  -1  -7   0   69.82   16.26
   1   7   0   70.89   17.10
  -1  -7   0   91.82   34.19
  -3  -3  13  884.09   45.42
   1   7   0   69.25   18.42
  -1   5 -14  152.31   15.98
   1  -5  14  176.69    8.67
  -1   2 -16 2536.92   64.32
   2   3  11  349.39   21.26
  -1   5 -14  204.48   17.21
   1  -2  16 2717.54   51.11
   2   3  11  305.60   26.66
  -2  -3 -11  310.14   40.65
  -3  -4  -623440.45  353.03
   3   4   622343.94  316.63
  -3  -4  -623587.01  337.83
  -4   3   8  300.50   26.93
   4  -3  -8  319.36   15.45
   3   4   621767.74  323.22
  -2   7  -6 9139.74  114.39
   2  -7   6 8959.08  132.20
   3   1 -14   15.73    3.99
   2  -2 -14  327.73   17.51
  -3  -1  14   15.52    2.97
  -2   2  14  259.98   17.37
  -2   7  -6 9167.81  157.87
  -3  -1  14   21.72   14.44
   4   4  -3  327.75   21.66
  -4  -4   3  370.12   24.01
  -4  -4   3  365.36   12.09
  -3  -5   921935.07  336.44
   4   4  -3  321.76   16.04
   3   5  -920704.41  294.87
  -4  -2  -6  367.10   29.51
  -4  -2  -6  411.38   35.75
   4   2   6  303.34   24.90
   4   2   6  340.16   21.02
  -3   5 -10 2518.45   51.38
  -4   5   1 4066.10   70.17
  -2   5   9 3271.26   80.96
   2  -5  -9 3099.29   57.61
  -3   5 -10 2385.52   52.43
   4  -5  -1 3796.69   63.66
  -1   6   7 7526.33  118.30
  -1   6   7 7569.09  120.30
   1  -6  -7 7242.45  112.01
   4   4  -4  476.93   37.34
  -4  -4   4  456.84   41.34
   4   4  -4  441.41   15.05
  -4  -4   4  491.74   16.36
  -2   6   6  181.50   35.84
   2  -6  -6  169.84   33.73
  -5   1  -113536.45  172.87
  -5   0   0  105.46   17.57
  -5   0   0   94.86   12.07
  -5   1  -113380.35  189.99
  -2   6   6  163.56   23.02
  -5   0   0  109.09   19.42
  -5   1  -113223.34  182.14
  -3   6  -7 1569.82   16.80
  -5   1   3  156.70   11.93
  -5   0   3   54.16   14.00
  -5   0   3   45.77   12.84
   3  -6   7 1603.02   41.41
  -5   1   3  137.17   11.00
  -3   6  -7 1646.75   41.73
  -5   1   3  172.62   20.92
  -5   0   3   64.01   20.44
  -4  -4   2 1452.09   38.88
   1   6 -12 9207.78  116.29
  -4   0  11  794.62   14.08
   4   0 -11   80.41    4.41
   4   4  -2 1347.69   23.44
   4   4  -2 1327.96   34.75
   1   6 -12 9386.36  141.89
  -4  -4   2 1421.39   25.19
  -4   0  11  848.45   29.71
  -1  -6  12 9523.15  133.14
   1   6 -12 9100.84  124.33
  -3   6   3  172.38   21.63
   3  -6  -3  194.89   20.06
  -3   6   3  150.04   17.82
  -3   5   7 2197.65   47.85
   3  -5  -7 2034.74   57.80
  -1   1 -16 2812.17   70.27
   1  -1  16 2944.85   56.12
  -4  -1  11  257.09   22.42
  -1   7  -9  747.61   27.63
   1  -7   9  770.62   27.75
   1  -7   9  736.09   40.22
  -1   7  -9  772.08   17.99
   1   2  14  472.40   38.15
  -1  -2 -14  443.55   26.53
   1   2  14  460.26   42.71
  -4  -3   9 1586.70   39.93
  -4   5  -4   79.67    6.47
  -4   5  -4   76.81   19.69
  -4   5  -4   97.05    5.66
   4  -5   4   83.40   17.19
  -4   5  -4   74.43   18.77
   1   4  11 5790.92   94.65
  -1  -4 -11 5848.27  118.10
   1   4  11 5920.84   98.43
   1   1  15  119.88   16.49
  -1  -1 -15  125.10   20.27
   1   1  15  108.10   19.90
   4   4  -5 2450.11   32.65
  -4  -4   5 2389.16   68.70
   4   4  -5 2473.31   49.70
  -4  -4   5 2537.54   34.00
   0   6   7 5710.60   96.18
   0   6   7 5573.17   94.97
  -2   1  15 5268.59   86.06
   0  -6  -7 5606.47   92.71
   2  -1 -15 4896.33   80.09
  -1   4  12   52.08   18.29
   1  -4 -12   27.31   16.13
   3   0 -14 1618.03   27.36
  -3   0  14 1736.10   30.01
  -2   4 -14 1075.41   33.76
  -2   4 -14 1103.31   32.12
   2  -4  14 1153.60   15.49
   2  -7  -1 2555.56   53.33
  -1  -7   8 7561.23  111.20
  -2   7   1 2798.04   58.34
  -1  -7   8 7694.30  102.30
   1   7  -8 7420.15  101.84
  -2   7   1 2812.75   64.41
   1   7  -8 7617.03  110.74
   4  -4  -6 1326.13   41.30
  -4   4   6 1357.92   46.07
  -4  -4   1  356.33   15.01
   4   4  -1  302.14   20.34
  -4  -4   1  358.61   24.86
   4   4  -1  346.97   21.22
   1  -7  -3 1773.77   62.16
  -1   7   3 1938.53   44.98
  -1   7   3 1876.35   48.73
  -5   2   0   42.53    8.49
  -5   2   1 1901.65   39.14
  -5   2   1 1876.84   45.96
  -5   2   1 1949.55   47.36
  -5   2   0   52.82   19.45
  -5   2   0   69.58   13.02
  -2  -6  -3 2166.17   45.63
  -2  -6  -3 2126.47   75.55
  -5   0  -1 7820.15  120.03
   2   6   3 2075.13   47.47
   2   6   3 1982.76   43.67
  -5   0  -1 7801.37  114.11
  -5   0  -1 7971.28  105.38
  -5   0   4 4767.37   59.79
  -2  -6  10 2904.41   54.75
   2   6 -10 2936.04   67.27
  -2  -6  10 2906.64   40.51
   2   6 -10 2806.27   42.10
  -5   0   4 4883.58   85.55
  -5   0   4 4631.91   59.76
   1  -5 -10  574.13   28.55
  -1   5  10  632.92   33.09
  -1   5  10  591.29   30.19
  -5   1  -2  149.77   10.16
  -5   1  -2  132.16   14.28
  -3  -2  14  101.77   18.37
  -5   1  -2  153.70   26.07
  -5   1   4 1739.78   35.85
  -4   5   2 2485.33   49.87
  -5   1   4 1798.12   46.07
  -5   1   4 1824.67   38.35
   4  -5  -2 2355.80   60.91
  -3  -4  12 5961.27   95.99
   2  -3 -1312861.08  179.61
  -2   3  1314135.25  200.01
  -4  -3  -4 2241.90   43.75
   4   3   4 2050.38   40.62
   4   3   4 2047.73   39.28
  -4  -3  -4 2327.36   46.02
   0   4  12 3286.85   87.78
   0  -4 -12 3360.47   65.07
  -5   2   2 9685.24  135.62
   0   4  12 3460.22   66.36
  -5   2   2 9742.66  142.04
  -5   2   2 9413.88  128.69
   1  -3  16   -1.65   11.37
  -5   2  -1  466.42   19.65
  -5   2  -1  468.80   31.84
  -1   3 -16 1310.78   48.02
  -5   2  -1  479.53   30.41
  -1   3 -16 1426.95   44.70
   0  -7  -3  390.90   41.77
   0   7   3  396.07   41.87
   0   7   3  350.38   43.22
  -2   2 -1510156.30  151.83
   2  -2  1510182.57  124.57
   2  -2  1510574.73  156.14
   3   5   3 5025.77   81.49
  -2   6 -11  132.09   18.90
   2  -6  11  103.50    4.84
  -3  -5  -3 5194.83   87.79
   3   5   3 4968.53   91.93
  -3  -5  -3 5157.36   80.72
  -2   6 -11  116.73   32.39
  -2   7  -715882.40  229.23
   1   7   110259.00  151.08
  -2   7  -715713.89  205.70
  -4   3  -9 1278.15   38.42
   2  -7   715605.70  223.88
   1   7   110611.40  155.60
  -4   3  -9 1340.68   51.45
  -1  -7  -110558.11  152.42
  -1  -7  -110746.25  163.23
   0   6 -13 1244.69   26.42
   0   6 -13 1204.38   37.35
   0  -6  13 1266.19   34.94
  -2   5 -13   39.50   15.09
   2  -5  13   62.77    3.77
  -2   5 -13   46.63   26.31
   4   1   813573.39  212.42
   4   1   813380.45  172.00
  -4  -1  -814002.11  203.03
  -4  -1  -814559.77  191.58
  -1  -6  -6 3730.17   68.54
  -4  -4   6 1966.93   46.43
   1   6   6 3517.33   86.25
   4   4  -6 1934.47   43.34
   1   6   6 3574.69   87.49
  -4  -4   6 2005.52   23.73
   4   4  -6 1969.12   23.55
  -1  -5  -9 6274.21  103.10
   1   5   9 6198.20  123.16
   4   0   9 1723.06   42.83
   4   0   9 1719.25   31.05
   1   5   9 6240.29  121.07
  -4   0  -9 1697.85   43.14
   0   5  10    1.84   15.63
   0  -5 -10   18.15   17.23
   0   5  10    3.95   15.63
  -2  -5  13 1529.81   37.25
   2   5 -13  -10.00    3.59
  -4   2  10 3584.88   51.89
   4  -2 -10 3335.89   46.22
   2   5   7   85.22   18.87
  -2  -5  -7   90.30   19.78
   2   5   7   74.63   19.65
   3  -2  13 3638.93   69.86
  -4   5  -5 1492.80   59.11
  -3   2 -13 3498.53   64.22
  -3   2 -13 3550.82   67.47
   3  -2  13 3569.66   39.05
  -4   5  -5 1494.45   55.98
  -4  -4   0 1902.67   44.42
   4   4   0 1772.54   53.61
   4   4   0 1759.48   31.81
  -4  -4   0 1847.64   43.95
   0   7 -10 1467.89   31.29
  -2  -1  16  532.88   13.98
   0   7 -10 1575.89   30.45
   0  -7  10 1575.10   32.07
  -5  -1   2  129.76   14.63
   0  -7  10 1543.24   31.50
   2   1 -16  524.01   20.95
  -5  -1   2  121.46   15.42
  -2  -1  16  472.58   25.02
  -5  -1   2  107.22    9.93
   2  -1  15 1142.65   35.93
   2  -1  15 1113.89   22.40
  -2   1 -15 1114.10   35.43
   1  -2 -15 2889.65   68.42
  -1   2  15 2960.01   54.22
   0   4 -16 2299.24   39.87
   0  -4  16 2264.41   45.49
   0   4 -16 2208.75   36.83
  -4   1  11  531.10   27.18
   4  -1 -11  590.95   16.86
  -4   1  11  601.00   13.71
  -5   2   3 1069.20   24.54
  -5   2   3 1072.83   33.50
  -5   2  -2 2439.30   33.19
  -5   2  -2 2316.54   56.66
  -5   2  -2 2279.83   44.54
  -5   2   3 1065.55   24.68
  -3   4 -12  742.92   28.84
  -5  -1   1  935.98   27.06
  -5  -1   1  885.45   26.22
  -5   0  -2 4107.68   57.72
   5   1  -1  840.59   23.47
  -5   0  -2 3987.84   63.55
  -3   4 -12  680.92   30.80
  -5   0  -2 4057.63   60.28
  -5  -1   1  955.80   29.10
  -5  -1   3 5555.71   68.52
  -5  -1   3 5601.90   83.48
  -5  -1   3 5480.75   75.83
  -4   4  -8 9205.91  136.79
  -5   0   5  221.32   14.66
  -4   4  -8 9138.72  140.03
  -5   0   5  240.71   17.87
  -5   0   5  201.12    9.27
   0  -2 -15   12.03   14.49
   1   3  13 4046.03   73.75
   1   3  13 3877.11   68.83
  -1  -3 -13 4006.79   73.20
   0   2  15    3.63   21.35
  -3   6  -8  452.51   28.33
   3  -6   8  484.77   25.60
  -3   6  -8  467.17   27.03
  -2  -2  16 3501.51   48.94
  -2  -2  16 3337.67   72.86
  -4  -2  11  855.37   47.58
   2   2 -16 3469.84   43.39
   3  -1  13  694.31   17.80
   3  -1  13  629.87   31.16
  -3   1 -13  773.55   32.49
   3  -6  -4 6242.48   97.20
  -3   6   4 6839.38  109.45
  -3  -5  10 3775.12   70.25
   3   5 -10 3679.44   66.77
  -3   6   4 6822.63  119.20
   2  -7  -2  154.92   21.51
   0   5 -15 2308.54   38.28
  -2   7   2  264.48   19.39
   0  -5  15 2286.22   37.81
   0   5 -15 2259.09   39.42
  -2   7   2  138.41   24.30
  -5   1  -3 4218.22   68.64
  -5   1  -3 4282.29   65.87
  -5   1  -3 4314.29   62.48
   3  -4 -10  629.64   23.36
  -5   1   5 4008.09   61.91
  -5   1   5 4072.42   63.01
  -3   4  10  770.32   26.66
  -5   1   5 3947.95   59.77
   4  -5  -3  108.36   16.87
  -4   5   3  158.48   19.57
  -5  -1   0 6110.25   87.63
   0   2 -17 1495.40   44.40
  -5  -1   0 6066.85   93.06
   0  -2  17 1557.63   33.65
   5   1   0 5598.03   90.63
  -5  -1   0 6016.48   88.43
  -2   3 -15 1287.19   52.80
   2  -3  15 1255.43   17.94
   2  -3  15 1234.21   20.34
  -2   3 -15 1266.82   34.22
   3   3   9 8487.52  121.11
   1  -1 -16 7940.22  114.96
  -1  -7   9 3411.89   58.65
  -1  -7   9 3356.05   59.29
  -1   0 -16 3014.10   58.29
  -3  -3  -9 9182.60  158.75
  -1   1  16 8519.26  121.98
  -3   2  13 8402.27  123.70
   1   7  -9 3318.82   56.72
   3  -2 -13 7608.14  111.49
   1   0  16 2986.91   58.00
   3   3   9 8806.17  132.36
   1   7  -9 3262.98   50.23
  -5  -1   4  510.62   11.75
  -5  -1   4  539.85   22.93
  -5  -1   4  509.63   17.90
  -2  -1 -1412828.79  210.03
   2   1  1412329.39  168.16
   2   1  1412753.10  206.78
   0  -1 -16 1127.61   33.10
   0   1  16 1284.60   48.76
   4   4  -7 5916.44  110.36
  -4  -4   7 6331.78  101.32
  -1   7 -10 9534.91  152.21
   1  -7  10 9783.77  153.72
  -1   7 -10 9822.39  132.93
   1  -7  10 9513.00  123.73
   2   2  13  803.04   27.17
  -2  -2 -13  579.32   31.07
   0   1 -1722937.23  335.16
   0  -1  1724327.50  357.76
   2   2  13  617.12   31.52
  -1   6 -13    3.15   10.70
   1  -6  13   16.38   10.35
  -1   6 -13   11.84   11.35
   1  -3 -14  189.06   20.46
  -1   3  14  219.87   21.50
  -5   2   411677.30  154.69
  -5   2   411533.46  164.92
  -4  -3  10  380.31   25.06
  -5   2   411742.22  158.16
   2  -7   8  171.37   20.41
  -2   7  -8  144.39   12.36
  -5   2  -3  176.98    8.33
  -2   7  -8  134.02   34.22
  -3   3 -13  394.84   27.06
  -3   3 -13  442.36   25.23
  -5   2  -3  154.71   17.23
  -5   2  -3  158.12   18.28
   4   4   1   94.23   12.48
  -4  -4  -1  126.22   13.56
   4   4   1   86.63   16.74
  -4  -4  -1   96.64   20.34
   2   0 -16 4626.54   71.53
  -2   0  16 4752.88   73.76
  -4   3   9 9615.62  143.60
  -1  -2  17  809.47   19.88
  -1  -2  17  827.93   37.37
   1   2 -17  760.20   27.40
   4  -3  -9 8842.63  128.41
  -4   2 -10 3548.40   86.11
   4   2   7  145.03   13.40
  -4  -2  -7  152.84   26.21
   4   2   7  140.80   18.66
  -4   2 -10 3530.19   82.00
  -4  -2  -7  141.88   20.23
  -3   1  14 3384.17   56.19
   1   1 -17  111.02   12.55
   3  -1 -14 3058.39   42.69
  -1  -1  17  111.46   12.48
   1   4 -16 1829.70   34.05
  -1   7   4 1651.33   42.81
  -1   7   4 1748.69   47.04
   1  -7  -4 1580.88   42.50
   1   4 -16 1877.84   29.73
  -1  -4  16 1883.23   48.23
  -1  -7  -2 1621.22   47.65
  -1  -7  -2 1659.05   57.06
   1   7   2 1529.98   42.31
   1   7   2 1541.95   40.46
  -4   5  -6 1427.04   39.12
  -4   5  -6 1381.99   40.98
  -3  -4  -7 3443.60   64.54
   3   4   7 3218.19   60.66
   3   4   7 3122.05   56.43
  -3  -4  -7 3387.18   81.88
  -3   5 -11 2851.75   55.85
   2  -6  -7   92.06   19.59
  -5  -1  -1 1527.79   41.31
  -2   6   7   46.09   19.42
  -3   5 -11 2828.13   58.12
  -2   6   7   47.52   20.18
   5   1   1 1342.03   28.20
  -5  -1  -1 1542.62   31.63
  -5  -1  -1 1521.10   37.58
  -5   0  -3 4121.65   58.11
   0   3  14 3224.89   61.90
   0  -3 -14 3092.16   78.77
   0   3  14 3091.20   62.56
  -5   0  -3 4265.32   64.86
  -5   0  -3 4083.22   80.06
   5   0   3 3938.79   54.61
   4  -1  10  113.43   34.50
   4  -1  10  111.92    7.17
  -4   4   7 1025.47   41.87
   4  -4  -7  894.63   24.87
  -4   1 -10  122.63   34.86
  -4   1 -10  103.73   19.49
  -2  -6  -4 1361.79   43.39
   2   6   4 1246.25   55.82
   2   6   4 1192.02   35.69
  -2  -6  -4 1235.54   53.84
  -5  -1   5  424.36   33.85
  -5  -1   5  437.68   14.79
  -3  -1 -12  340.97   27.06
  -5  -1   5  422.49   13.84
   3   1  12  365.05   24.18
   3   1  12  374.86   26.72
   2   6 -11 1410.80   20.83
  -2  -6  11 1471.77   37.09
  -5   0   6 6918.95  101.05
  -5   0   6 6874.80   87.58
   2   6 -11 1386.78   24.99
   2   6 -11 1406.72   48.87
  -5   0   6 6778.18   85.42
  -3   5   8    9.55   14.59
   3  -5  -8   16.34   13.61
  -1  -6  13  155.42   25.87
   1   6 -13  159.10   10.93
   1   6 -13  173.99   10.37
  -3   3  12 2011.02   51.19
   3  -3 -12 1737.34   34.30
   2   4 -15  777.28   12.28
  -2  -4  15 1945.44   41.07
  -4  -3  -5 1798.53   39.66
   4   3   5 1687.12   35.24
   4   3   5 1609.10   37.34
  -4  -3  -5 1745.13   39.64
   0  -7  -4 6189.62   99.52
   0   7   4 6349.88  103.54
   0   7   4 6409.96  106.28
  -1   6   8 8229.74  150.99
   1  -6  -8 8006.43  144.93
  -1   6   8 8147.69  127.89
  -3  -5  -4 1039.70   36.99
  -3  -5  -4 1033.23   32.04
   3   5   4  978.69   30.15
   3   5   4  944.31   48.98
  -5   3   0   57.64   14.46
  -5   3   0   68.28   14.76
  -5   3   0   59.67   13.20
  -3  -3  14 4298.78   73.72
  -2  -4 -10  955.91   36.10
   2   4  10  875.29   31.15
   2   4  10  888.49   34.33
  -4  -1  12  834.31   46.47
   0   3 -17  504.97   17.92
   0  -3  17   -1.90    9.10
   0   3 -17  477.39   29.53
  -5   1  -4 6395.71   85.99
  -5   1  -4 6234.53  110.17
  -5   1  -4 6285.93  106.10
  -5   1   6  489.39   21.70
   4   0 -12  107.57    5.21
   2  -4 -12 1242.31   32.89
  -4   0  12  260.57   34.88
  -5   1   6  491.71   14.11
  -4   0  12  252.92    9.03
  -2   4  12 1381.91   53.15
  -5   1   6  508.67   13.53
   1   5 -15 1718.77   26.02
  -5   3  -1 4328.15   68.70
  -1  -5  15 1700.44   34.52
  -5   3   1 1576.21   47.54
   1   5 -15 1626.23   33.51
  -5   3   1 1587.64   34.32
  -5   3  -1 4153.11   83.40
  -5   3   1 1617.84   34.99
  -5   3  -1 4315.46   54.24
  -3  -6   4  354.51   45.17
  -3  -6   4  381.91   21.02
   3   6  -4  358.96   21.19
  -2   0 -15  827.27   33.09
   2   0  15  782.79   32.47
   3   6  -4  365.71   39.98
   2   0  15  746.81   21.01
  -4   5   4  578.26   26.45
   4  -5  -4  548.83   23.54
  -2   5  10 1947.88   64.31
   2  -5 -10 1766.10   41.43
  -2   7   3   10.94   14.35
  -3  -2 -11  458.57   28.45
   3   2  11  405.44   18.38
  -3  -6   3 7110.81  114.45
   3   6  -3 6668.00  104.70
  -3  -6   3 7135.63   94.39
  -2   7   3   20.14   28.78
   3   6  -3 6606.26   97.89
   2  -7  -3   43.52   29.38
   3   2  11  418.14   42.74
  -4  -4   8  135.05   35.20
   4   4  -8  143.35   32.39
  -1   4 -16 1001.43   27.41
  -1   4 -16 1030.43   29.21
   0   7 -11  181.10   21.86
   0  -7  11  203.42   14.47
   0   7 -11  184.80   15.18
   1  -4  16  973.21   17.91
   0  -7  11  164.16   23.70
  -1   5 -15 4378.44   70.52
   1  -5  15 4584.00   62.66
  -1   5 -15 4571.25   70.17
  -3  -6   5  895.42   35.76
  -3  -6   5  861.41   18.18
   3   6  -5  899.69   32.62
   3   6  -5  818.83   24.84
   2   3 -16  119.37    8.06
  -2  -3  16  594.03   25.13
   0   6   8 8308.58  153.61
   0  -6  -8 8153.40  150.17
   0   6   8 8326.15  155.30
   3   0  13 6779.10  129.57
   3   0  13 6575.69   92.00
  -5   2   5 2882.55   54.08
  -3   0 -13 6655.64  128.85
  -5   2   5 2883.27   48.50
  -5   2   5 2934.34   45.56
  -5   2  -4  752.88   18.41
  -5   2  -4  774.20   27.86
  -5   2  -4  761.21   26.32
  -3   6  -9  157.47   21.23
  -3   6  -9  148.75   22.58
  -5   3   2 3959.19   74.85
  -5   3   2 4028.09   65.11
  -5   3   2 4030.05   62.65
  -5   3  -2 1422.59   48.04
  -5   3  -2 1393.71   35.91
  -5   3  -2 1461.13   21.58
   3  -6  -5    7.62   23.02
  -3   6   5   -0.15   14.95
  -3   6   5    8.68   13.02
  -1  -7  10  618.36   38.10
  -1  -7  10  662.54   17.71
  -5  -1  -2 5784.24   80.80
   1   7 -10  636.23   23.58
  -5  -1  -2 6005.15   97.21
   1   7 -10  568.48   26.85
   5   1   2 5203.31   82.31
  -3  -4  13  601.81   42.73
  -5  -1  -2 5711.36   95.93
  -2   6 -1210199.34  147.21
  -2   6 -1210130.17  169.75
   2  -6  12 9776.46  110.17
   3   6  -2  940.40   33.79
  -2  -7   4 4523.63  102.63
  -2  -7   4 4602.20   66.84
   3   6  -2  992.32   32.90
   2   7  -4 4322.78   76.00
   2   7  -4 4410.15   75.98
  -3  -6   2 1056.97   24.70
  -3  -6   2  966.77   38.97
  -4   3 -10  541.28   27.23
  -4   3 -10  504.78   29.96
   4   4   2 1266.42   29.09
   4   4   2 1234.65   46.72
  -4  -4  -2 1268.36   54.35
  -4  -4  -2 1288.29   42.25
  -3  -1  15 1148.10   18.62
  -3  -1  15 1185.71   35.34
  -5  -1   6  619.21   13.96
  -5  -1   6  675.76   25.50
   3   1 -15   -1.61    2.96
  -5  -1   6  617.61   14.62
  -2  -3 -12 5720.38  116.80
   2   3  12 5566.44  114.37
   2   3  12 5365.29   84.58
  -4   4  -9   88.02   31.77
  -4   4  -9   89.83   34.12
   2   7  -3 2493.45   52.23
  -2  -7   3 2562.01   56.32
   3   5 -11 6503.56  103.15
   2   7  -3 2499.28   44.48
  -3  -5  11 6487.87  102.72
  -2  -7   3 2524.36   43.88
  -2  -7   5  688.74   20.14
   2   7  -5  671.23   44.86
  -1  -3  17 2887.28   49.64
   1   3 -17 2916.93   47.52
   2   7  -5  690.34   19.94
  -2  -7   5  736.99   33.06
   1   3 -17 2861.36   50.87
   0   0 -17 1102.07   45.01
   0   0  17 1109.59   44.95
   1   0 -17  285.29   17.25
  -1   0  17  314.61   17.89
  -3  -6   6 5410.69   66.74
  -3  -6   6 5417.15   91.71
   3   6  -6 5074.65   70.30
   3   6  -6 5013.31   83.87
   1   6   7  944.70   36.53
  -1  -6  -7 1007.65   36.79
   1   6   7  983.77   37.03
  -2   7  -9   42.09    5.83
   2  -7   9   67.28   17.07
  -2   7  -9   24.32   16.39
  -4  -1  -9  187.95   22.66
   4   1   9  231.98   19.58
   4   1   9  297.95   36.76
  -4   5  -7 1415.53   41.65
  -4   5  -7 1420.11   39.00
   0   6 -14 1611.49   32.08
  -5   0  -4 3500.86   58.73
   0   6 -14 1643.06   31.30
  -5   0  -4 3576.13   70.47
  -5   0  -4 3444.62   74.82
   5   0   4 3220.29   51.77
   0  -6  14 1655.43   30.82
  -5   0   7  406.82   13.80
  -5   0   7  440.69   34.78
  -5   0   7  383.13   14.21
  -4   2  11 1607.12   38.08
   4  -2 -11 1519.44   32.82
  -2   2  15 1607.53   34.94
   2  -2 -15 1449.78   43.70
  -2  -7   2  306.73   28.20
   4   0  10 3794.95   69.87
  -4   0 -10 3913.39   91.95
  -2  -7   2  282.41   18.19
  -2  -5  14 2042.97   43.35
   2   7  -2  341.93   29.50
   2   7  -2  333.68   39.63
   4   0  10 3801.58   54.77
   2   5 -14 1992.68   25.97
   1  -7  11  171.40   29.35
  -1   7 -11  152.10   18.21
  -1   7 -11  177.01   10.17
   2   7  -6  537.07   41.27
   2   7  -6  593.98   27.02
  -2  -7   6  607.76   30.16
  -1   7 -11  166.92   19.34
   1  -7  11  177.46   18.45
  -2  -7   6  623.35   25.50
   2   5   8 1337.39   58.28
  -5   3   3   45.77   16.63
   5  -3  -3   52.91   11.98
  -2  -5  -8 1420.36   41.54
  -5   3   3   52.21   12.84
   2   5   8 1419.17   39.58
  -5   3   3   54.24   12.95
  -1  -7  -3    0.83   18.50
   1   7   3   25.96   17.05
  -2   4 -1512962.86  189.96
   1   7   3   14.53   28.70
   2  -4  1512841.55  149.04
  -2   4 -1513220.31  187.96
  -1  -7  -3   15.44   15.24
  -5   3  -3   97.24   26.52
   3   6  -1 4938.67  103.32
  -5  -2   2 2798.67   45.32
  -5   3  -3   81.63   17.56
  -5  -2   2 2821.62   66.60
  -5   3  -3   88.38    9.50
   3   6  -1 4997.54   73.43
   5   2  -2 2465.62   45.26
  -5  -2   2 2791.11   40.03
  -3  -6   1 5204.87  114.45
  -3  -6   1 5345.07   88.95
  -1   5  11 3074.74   63.64
  -5  -2   3  161.81    8.32
  -1   5  11 3006.24   66.03
  -5  -2   3  160.82   14.13
  -5  -2   3  157.89   18.79
   1   4  12 1783.39   44.94
  -1  -4 -12 1772.73   68.89
   5   2  -3  111.47   15.93
   1   4  12 1709.09   46.86
   1  -5 -11 2872.54   78.10
  -4  -2  12 1323.16   38.35
  -3   0  15 5687.46   76.35
   3   0 -15 5329.92   65.00
  -1   2 -17  176.52   19.57
  -3  -2  15  525.18   26.87
   1  -2  17  239.84   20.50
   2  -5  14  163.06    5.42
  -2   5 -14  200.23   32.19
  -2   5 -14  134.47   29.60
  -1   4  13  326.68   25.31
   1  -4 -13  269.51   23.28
  -4   1  12 2090.63   46.96
   4  -1 -12 2011.97   32.60
  -4   1  12 2101.99   36.18
  -5  -2   1 2124.44   42.61
  -4  -3  11  197.65   22.46
  -5  -2   1 2024.07   31.66
   5   2  -1 1902.43   49.75
  -5  -2   1 2085.57   57.05
  -5  -2   4  303.70    9.46
  -5  -2   4  316.63   21.38
  -5  -2   4  309.24   12.91
  -5   1  -5  157.45   18.06
  -5   1  -5  108.63   13.10
  -5   1  -5  105.40   16.57
  -1   7   5  899.40   34.21
  -1   7   5  842.97   36.57
   1   5  10   65.91   21.85
  -1  -5 -10   49.53   21.13
   1  -7  -5  802.75   51.15
   1   5  10   69.91   20.48
   3   6  -7  400.22   15.58
  -3  -6   7  382.12   10.14
  -5   1   7 1033.92   19.09
  -5   1   7 1037.25   29.42
   3  -7   2  216.42   24.05
  -3  -6   7  452.02   43.76
  -3   7  -2  238.52   20.34
  -3   7  -3 9299.74  165.02
   3   6  -7  362.75   25.53
   3  -7   3 8978.08  156.73
  -3   7  -2  265.78   26.05
  -3   7  -3 9619.22  124.06
  -5   1   7 1008.88   25.23
  -3   4 -13 2441.24   51.05
  -3   4 -13 2446.31   73.64
  -1  -2 -15 8462.49  149.91
   1   2  15 8781.54  135.09
   1   2  15 8408.32  144.36
  -4   5   5 2915.68   56.05
   4  -5  -5 2779.20   65.03
   1  -1  17   -3.44   12.75
   5   1   3 1362.30   35.68
  -5  -1  -3 1490.77   31.01
   0   5  11 3830.69   74.72
   0   5  11 3859.59   73.66
  -1   1 -17   12.62   14.10
  -2   1  16  332.11   17.20
   0  -5 -11 3844.58   93.56
   2  -1 -16  351.40   25.70
  -5  -1  -3 1406.72   33.39
  -5  -1  -3 1425.13   30.49
   5   1   3 1400.35   32.27
   4   4  -9 1397.70   38.93
  -5   2   6 4123.88   58.61
   5  -2  -6 3860.60   53.82
  -4  -4   9 1452.68   40.26
  -5   2   6 4197.67   59.42
  -5   2   6 4177.01   78.29
  -5   2  -5 5601.69   68.51
   2   7  -1 3889.34   63.82
  -5   2  -5 5674.14  102.82
  -2  -7   1 4148.64   99.92
   2   7  -1 3845.71   70.73
  -2   3  14  973.20   29.75
  -5   2  -5 5538.26   90.06
  -2  -7   1 4005.15   64.63
   2  -3 -14 1043.25   30.62
  -2  -6  -513322.39  202.35
   2   6   512669.15  186.99
  -2  -6  -513244.60  193.64
   2   6   512742.03  187.42
  -3   7  -4 3995.40   59.18
  -2  -7   7 1499.34   60.57
   2   7  -7 1469.47   27.75
  -3   7  -4 3962.63   74.87
  -2  -7   7 1537.24   26.63
   2   7  -7 1495.52   38.45
   3  -7   4 3823.60   71.35
  -3   7  -1   13.06   15.57
   2   6 -12    5.47   20.08
  -3   7  -1   17.00   16.67
   2   6 -12    1.35    7.58
   3  -7   1    7.39   15.06
  -2  -6  12   16.58   24.17
   2   6 -12    6.56    4.35
  -5  -1   7  796.99   10.97
  -5  -1   7  795.92   28.62
  -4   4   8  129.67   27.50
  -5  -1   7  777.59   13.13
   4  -4  -8  117.30   23.01
   0   4  13 2717.04   79.15
   0  -4 -13 2669.54   57.84
   0   4  13 2729.01   82.09
  -1  -1 -16 1232.41   38.35
   1   1  16 1240.54   37.91
   1   1  16 1166.35   32.28
  -2   7   4 3390.66   63.02
   0   8  -4   28.48   27.57
   0   8  -4   61.12   15.50
  -2   7   4 3390.71   69.22
   0  -8   4   76.87   16.06
   0  -8   4   66.17   28.86
   2  -7  -4 3292.91   64.66
  -1   8  -4 1473.29   41.01
  -1   8  -4 1453.13   32.93
  -3   4  11 1944.74   42.80
   3  -4 -11 1667.38   49.19
   1  -8   4 1442.51   54.59
  -5  -2   0 1129.88   34.84
  -5  -2   0 1159.45   30.95
  -1   8  -3 1598.56   43.92
   5   2   0 1119.40   23.81
   5   2   0 1032.94   26.76
   1  -8   3 1470.54   39.25
  -1   8  -3 1559.76   35.09
  -5  -2   0 1206.41   44.31
   0  -7  -5  165.06   36.38
   0   7   5  154.38   23.75
  -3   2 -14 7127.75  111.04
   0   7   5  153.49   23.74
  -3   2 -14 7134.42  135.19
   3  -2  14  -10.51    3.80
   3   5   5  574.68   26.20
  -3  -5  -5  582.89   42.83
  -3  -5  -5  656.19   50.38
   3   5   5  556.15   27.67
  -4  -2  -823567.85  326.94
   4   2   821162.55  287.83
  -4  -3  -6  267.06   21.15
   0  -8   3 1031.22   31.78
  -4  -3  -6  260.68   22.15
   4   3   6  254.66   27.22
  -4  -2  -822605.34  330.10
   0   8  -3 1090.58   46.41
   0  -8   3 1158.13   35.27
   4   2   821481.09  309.66
   4   3   6  195.22   20.13
   0   8  -3 1025.59   34.52
  -5  -2   5   47.47    5.04
   4  -3 -10 2071.73   36.00
  -5  -2   5   49.63   15.94
  -4   3  10 2286.80   41.67
  -5  -2   5   41.49    7.30
   3   6   0 1681.99   35.05
   3   6   0 1654.35   43.73
  -3  -6   0 1771.94   48.74
  -3  -6   0 1717.93   68.99
  -5   3   4 7930.09  108.20
   5  -3  -4 7284.33  112.09
  -5   3   4 7959.85  124.82
  -2   2 -16  317.23   25.57
   0   8  -5  989.26   31.48
   2  -2  16  366.13   26.30
   0  -8   5  932.39   31.40
   0  -8   5  937.50   29.01
   0   8  -5 1002.67   28.90
   2  -2  16  370.56   12.42
  -5   3  -4 1096.89   31.46
  -4  -4  -3  165.27   35.62
  -5   3  -4 1054.41   49.13
  -5   3  -4 1031.55   17.46
   4   4   3  169.46   16.69
  -4  -4  -3  219.27   28.65
   4   4   3  179.43   18.74
  -1   3 -1711392.32  180.72
   1  -3  17 4794.64   79.14
   3   3  10  952.78   41.51
  -1   3 -1711611.57  175.77
  -3  -3 -10 1023.78   53.78
   3   3  10 1022.03   35.54
  -1   8  -5 3018.19   49.97
  -2   6   8 5120.28   90.72
   1  -6  14 1053.98   25.16
  -1   6 -14 1041.49   39.42
   2  -6  -8 4750.35   80.52
   1  -8   5 2885.26   50.49
  -1   6 -14 1037.46   29.48
  -1   8  -5 2863.16   76.33
   1  -8   5 2911.80   72.89
  -2   6   8 5126.81   90.56
  -3   5 -12  187.38   22.09
  -3   5 -12  195.16   37.13
  -1   8  -2 6371.59   95.17
  -1   8  -2 6332.95  125.58
   1  -8   2 6290.87  100.43
   0   5 -1612309.10  168.02
   0   5 -1612712.08  180.07
   0  -5  1612645.30  176.83
  -4   2 -11  272.01   26.31
  -4   2 -11  271.48   23.04
   3   4   8 5552.12  104.03
  -3  -4  -8 6284.45  102.22
   3   4   8 5908.39  114.29
  -3   7  -5  -19.51   14.49
  -3   7  -5   10.45    8.22
   1   7 -11   28.28   14.26
   3  -7   5   20.60   16.68
  -1  -7  11   33.35   13.73
   3  -7   0    4.53   23.13
   1   7 -11    1.47   19.92
  -3   7   0   41.23   17.46
  -1  -7  11   27.55   13.80
  -3   7   0   -4.06   18.00
   0  -8   2  466.87   27.92
   0  -8   2  431.11   39.05
   0   8  -2  485.74   27.42
   0   8  -2  535.18   39.20
   0   4 -17  437.60   25.28
   0  -4  17  425.95   16.12
   0   4 -17  438.60   18.76
   3  -5  -9 3701.41   79.40
  -3   5   9 3951.64   71.26
  -3   6 -10  199.43   22.48
  -3   6 -10  190.52   24.24
  -3   1 -14 5860.16   99.43
   3  -1  14 5967.72   99.89
   3  -1  14 5690.88   74.47
   0   7 -12 1204.99   28.98
   0  -7  12 1224.35   27.71
   0   7 -12 1164.79   38.47
   0  -7  12 1208.63   27.59
   0   7 -12 1240.91   35.76
   1   6 -14 2503.47   43.68
   3   6  -8   19.59   23.95
   3   6  -8    6.32    7.12
   0  -8   6 3317.21   58.96
   3  -6  -6    2.94   13.03
  -3  -6   8   23.47    7.22
  -3   6   6   25.11   16.36
  -3  -6   8   19.30   17.73
  -1  -6  14 2425.24   45.22
   1   6 -14 2461.16   43.84
   0   8  -6 3356.64   56.73
  -3   6   6   -3.02   14.64
   0   8  -6 3259.65   58.94
   0  -8   6 3250.75   56.91
  -2  -1  17 4058.79   61.58
   5   0   5  109.76    9.20
  -5   0  -5  112.75   10.82
  -2  -1  17 3954.98   69.64
  -5   0  -5  113.35   16.07
   2   1 -17 3938.68   61.32
  -5   0  -5  110.53   17.95
  -4   5  -8  182.65   22.22
   3  -2 -14 1906.88   33.98
  -4   5  -8  212.16   38.45
  -3   2  14 2185.67   48.70
   2  -1  16   80.96   19.09
   4  -1  11 1404.34   60.10
  -2   1 -16   87.67   32.74
   2  -1  16   42.20    9.81
  -4   1 -11 1547.07   44.07
  -5   0   8   85.17    5.61
  -5   0   8  100.12    8.67
  -5   0   8   48.00   17.26
  -4   6  -2   50.17   12.39
   4  -6   2   66.22   29.40
  -4   6  -2   48.04   19.10
  -2   7 -10  206.44   20.84
  -2   7 -10  169.90   21.90
   2   7   0  532.56   24.28
  -2  -7   0  588.12   23.93
   2   7   0  574.17   29.24
  -2  -7   0  568.15   32.57
   2  -7  10  130.40   30.82
  -2   7 -10  169.49   10.24
  -4   6  -1  539.51   23.16
  -1   8  -6  416.02   27.21
  -1   8  -6  420.56   25.53
   1  -8   6  439.45   20.36
   1  -8   6  489.12   24.33
   4  -6   1  528.63   26.43
  -4   6  -1  543.84   28.85
   2   2 -17  880.23   16.99
   2   7  -8   55.30   15.17
   5   2   1   37.56   12.30
   2   7  -8   58.71   17.06
   5   2   1   40.12   17.39
  -2  -7   8   73.36   19.58
  -2  -7   8   75.58   14.11
  -2  -2  17  899.69   43.84
  -2  -2  17  886.66   22.28
  -5  -2  -1   53.69   18.45
  -5  -2  -1   35.12   23.56
  -1  -3 -14 1168.32   39.77
   1   3  14  396.56   40.55
   1   3  14  465.61   45.84
   1  -2 -16   59.42   26.61
  -1   2  16   69.44   26.60
  -3   3 -14 1459.13   42.63
  -3   3 -14 1370.66   57.27
  -1   8  -1 1249.14   47.69
  -1   8  -1 1324.11   41.68
   1  -8   1 1256.32   55.49
  -5  -2   6 4158.62   46.32
  -5  -2   6 4276.54   45.61
   1  -6  -9  822.73   34.19
  -2   3 -16  110.34   20.34
  -1   6   9  884.12   36.55
  -4   6  -3 1090.50   52.00
   2  -3  16  129.26    6.29
   2  -3  16  115.95    7.42
  -1   6   9  768.05   56.70
  -4   6  -3  999.95   22.31
   4  -6   3  952.94   33.39
  -2   3 -16  111.38   18.49
  -4  -1  13 2105.13   48.38
  -3  -5  12 1455.42   40.93
   0   8  -1 2266.00   47.76
  -4   4 -10   53.21   18.08
   0  -8   1 2206.52   47.98
   0  -8   1 2132.69   50.10
  -4   4 -10   30.88   19.31
   0   8  -1 2121.52   49.89
   4  -6   0  187.91   21.15
   0   2  16 2776.88   56.56
   0  -2 -16 2658.52   72.50
  -4   6   0  255.99   21.56
  -4   6   0  195.87   23.37
  -4   0  13   24.72    5.81
   1   7   4 1947.69   48.54
   1   7   4 1994.95   68.47
  -4   0  13   29.30   26.85
   4   0 -13   17.87    4.10
  -1  -7  -4 2019.82   67.03
  -3   7   1 2321.52   75.14
   3  -7  -1 2236.19   50.74
  -3   7  -6   33.04   30.73
  -3   7  -6   39.35    5.36
   3  -7   6   37.09   18.05
  -3   7   1 2412.18   44.50
  -5  -1  -4 2975.12   50.79
  -5  -1  -4 3027.93   54.38
  -2  -1 -15   87.75   21.35
  -5  -1  -4 3042.68   49.30
   5   1   4 2849.10   44.05
   2   1  15  141.32   23.08
   5   1   4 2868.97   51.50
   2   1  15  157.11   16.07
   3   6   1  323.33   29.99
   2   2  14 1134.33   39.00
  -3  -6  -1  365.11   20.75
   3   6   1  335.81   26.07
  -2  -2 -14 1150.85   40.41
  -3  -6  -1  396.74   29.55
   2   2  14 1082.93   30.49
  -5   1  -6 1236.55   33.50
  -5   1  -6 1205.40   25.55
   0  -8   7  514.04   21.89
  -3   1  15 1319.82   33.46
   3  -1 -15 1239.17   31.06
  -5   1  -6 1226.92   35.47
  -3  -3  15   19.12   15.80
   0   8  -7  448.41   35.39
   0   8  -7  428.34   20.95
   0  -8   7  474.84   36.33
  -5   1   8 4021.26   51.77
   2  -6  13 1431.34   19.05
  -5   1   8 4192.28   53.73
  -5   3   5  713.33   33.56
  -2   6 -13 1468.30   37.33
  -5   1   8 4229.06   70.60
  -5   3   5  720.14   31.32
   5  -3  -5  662.80   20.22
  -2   6 -13 1360.81   55.06
   3  -3 -13  640.35   31.92
  -3   3  13  712.31   36.34
   2   4 -16   -3.32    3.56
  -2  -4  16 1669.74   38.74
  -5  -1   8 3013.79   73.62
  -4   3 -11 6118.24  124.11
  -4   3 -11 6056.63   98.58
   1   4 -17 1475.73   25.98
   1   4 -17 1485.91   30.83
  -1  -4  17 1470.60   32.61
  -5   3  -5 1698.24   20.62
  -5   3  -5 1709.39   40.72
  -5   3  -5 1679.47   41.87
  -4   6  -4  993.79   18.17
  -4   6  -4  978.75   35.56
  -5   2   7 1616.23   35.46
   4  -6   4  919.01   33.42
  -5   2   7 1563.61   36.89
  -5   2   7 1478.10   27.62
   5  -2  -7 1567.02   34.45
   0   2 -18 4601.51   72.34
  -5   2  -6  411.22   23.30
  -5   2  -6  408.32   11.30
  -5   2  -6  413.37   39.68
   0  -2  18 4886.54   76.51
   1  -7  1210141.55  138.80
   3   1  13 3387.17   67.59
  -1   7 -1210045.96  158.68
  -1   7 -1210083.92  128.80
  -3  -1 -13 3431.02   89.11
  -1   7 -12 9699.52  143.69
  -3  -4  14 1158.95   35.86
   3   1  13 3285.66   60.47
   4   5  -4  500.11   13.05
  -4  -5   4  542.35   29.72
  -4  -5   4  513.17   13.55
   4   5  -4  480.70   41.91
   0   6   9  439.45   48.45
   0  -6  -9  383.74   28.94
   1  -1 -17 1492.48   49.35
   0   6   9  390.76   30.58
  -1   1  17 1503.62   35.89
  -4  -5   3   10.07   17.28
  -4  -4  10   15.42   26.64
   2   4  11  104.50   19.45
   2   4  11  134.34   23.16
  -1   3  15 1947.84   45.46
  -2  -4 -11  128.72   23.47
   1  -3 -15 1815.29   42.86
  -4  -5   3   13.15   11.78
   4   5  -3   14.22   10.85
   4   5  -3   -0.50   14.84
   1   0  17 1862.48   61.58
  -5   4   0 3905.88   81.54
  -1   0 -17 1728.76   43.37
  -5   4  -1  232.25   21.21
  -5   4  -1  214.12    9.32
  -5   4   0 3899.70   83.71
  -5   4   0 3931.30   58.01
  -5   4  -1  232.80   20.68
  -1   8  -7  216.02   21.49
  -1  -5  16  438.29   19.38
   1   5 -16  432.97   12.68
   1  -8   7  236.05   20.25
   1   5 -16  394.39   20.44
   1  -8   7  237.99   16.50
  -2   5  11 3885.56   71.75
   2  -5 -11 3645.40   66.58
  -1   8  -7  179.93   21.76
   4  -5  -6   28.05   13.78
  -4   5   6   23.41   15.32
   0   1  17  188.40   20.35
   0  -1 -17  159.30   19.99
  -1   8   0   81.30   17.20
  -1   8   0  103.56   22.68
   1  -8   0   86.06   19.86
  -4   6   1 1675.77   62.49
   4  -6  -1 1561.62   55.67
  -4   6   1 1711.27   33.35
   2   0 -17  989.54   31.96
   4   5  -5  126.45   20.97
  -2   0  17 1020.28   22.85
  -4  -5   5  185.68   23.36
   4   5  -5  136.14    7.31
  -4  -5   5  144.34   11.48
  -1  -6  -8   38.23   19.77
   1   6   8   94.58   21.61
   1   6   8   60.21   21.86
  -5   4   1  688.60   27.70
   0   1 -18 1185.97   32.86
  -5   4   1  710.69   40.60
   5  -4  -1  665.89   24.61
  -5   4   1  706.76   24.05
   0  -1  18 1208.40   33.64
  -4  -5   2 3623.78   61.13
   4   5  -2 3413.94   48.68
  -4  -5   2 3623.21   90.80
   4   5  -2 3301.07   62.10
  -1  -2  18  946.32   40.45
   1   2 -18  967.04   23.06
  -5   4  -2 2372.70   66.47
  -5   4  -2 2398.28   35.44
  -1  -2  18 1048.24   32.14
  -5   4  -2 2450.06   48.98
  -2   4  13 1612.49   40.42
   2  -4 -13 1425.81   37.06
  -3  -6   9 3469.67   66.87
   3   6  -9 3448.44   83.28
  -3  -6   9 3463.52   41.46
   3   6  -9 3276.21   37.82
  -5  -2  -2   79.79   15.17
   5   2   2   84.50   21.04
   5   2   2   73.71   12.85
  -5  -2  -2   67.41   21.57
  -4  -3  12   15.56   16.44
   3   2  12  661.38   22.20
  -3  -2 -12  732.60   33.95
  -1   7   6 3700.79   97.09
   3   2  12  693.12   50.34
   1  -7  -6 3601.52   69.44
  -1   7   6 3587.57   92.61
   2  -7  -5 1889.93   65.97
  -2   7   5 2010.40   65.56
  -2   7   5 1988.53   52.30
   4   4   4 7323.58  108.60
  -2  -7  -1  291.97   30.05
  -4  -4  -4 7875.28  117.12
   2   7   1  342.74   22.53
   4   4   4 7234.34  108.73
   2   7   1  307.45   42.33
  -2  -7  -1  281.06   33.49
   0   3  15  604.92   32.78
  -4  -4  -4 7865.52  140.79
   0  -3 -15  630.80   31.85
   0   3  15  631.05   48.01
   4   1  10   22.72   20.82
   4   1  10   -1.38    6.16
  -4  -1 -10   12.82   16.78
  -1   5 -16 1055.27   40.61
   0   8   0 2218.53   52.35
   0  -8   0 2201.80   48.50
   1  -5  16 1013.46   18.54
   0   8   0 2182.54   48.70
  -1   5 -16 1096.41   30.97
  -1  -1  18 3675.68   67.59
  -5  -2   7   36.61   16.91
   1   1 -18 3594.92   67.09
  -2  -7   9 1816.89   27.75
   2   7  -9 1733.84   28.96
  -2  -7   9 1712.22   43.92
   2   7  -9 1762.94   41.50
  -4  -2  13 1445.54   40.69
   0   6 -15 2841.42   47.39
   0   6 -15 2902.10   56.53
   0  -6  15 3014.41   56.19
  -4   2  12  609.99   17.56
   4  -2 -12  532.06   21.69
  -4   6  -5  291.54    6.48
  -4   6  -5  337.92   26.39
   4  -6   5  276.25   38.28
  -4   6  -5  297.26    6.99
  -2  -5  15 3259.62   58.66
   2   5 -15 1060.60   15.59
   2   6   6 3871.52   72.62
   4   5  -6 1687.23   25.17
  -4  -5   6 1711.22   66.61
   4   5  -6 1717.91   43.58
  -2  -6  -6 3948.03   73.15
  -4  -5   6 1767.65   25.44
   2   6   6 3824.85   72.29
   0   8  -8 4970.78   75.33
   3  -7  -2 1146.87   36.40
  -3   7   2 1228.78   60.86
  -3   7  -7 3419.98   66.85
  -3   7  -7 3284.34   41.86
  -3   7   2 1267.27   45.28
   0   8  -8 4771.01   76.80
   0  -8   8 4966.03   78.33
   0  -8   8 4879.44   76.33
   3  -7   7 3393.31   83.31
   4   0  11 1269.81   39.24
  -2  -6  13 8333.02  125.84
   2   6 -13 8257.01  101.65
   2   3 -17 2084.25   30.15
   4   0  11 1224.97   20.90
  -2  -3  17 2119.79   60.02
   2   5   9  253.82   24.99
  -4   0 -11 1247.21   39.93
   2   6 -13 8442.25  125.07
   2   3 -17 2134.92   32.21
  -2  -5  -9  244.90   26.06
   2   5   9  308.07   26.34
  -5   4   2 1604.84   52.36
  -5   4   2 1587.38   36.29
   5  -4  -2 1404.77   33.49
   3   0  14 7651.14   99.53
   3   0  14 8011.13  148.94
  -3   0 -14 7928.63  127.34
   1  -4  17 1028.05   25.35
  -1   4 -17 1035.11   28.48
  -1   4 -17 1045.62   30.62
  -5   4  -3  292.09   23.34
  -4  -5   1 3064.62   62.93
   0   3 -18   87.96   22.58
  -5   4  -3  300.39   10.89
   0  -3  18  114.22   11.51
   4   5  -1 2715.16   55.13
   4   5  -1 2815.05   43.66
   0  -3  18    8.25   13.56
  -5   4  -3  309.05   22.96
   0   3 -18   94.33   19.89
   4  -4  -9 2007.25   38.85
  -4   4   9 2217.12   44.93
   0   7   6  323.34   43.82
  -3  -5  -6  380.59   44.47
   3   5   6  312.89   23.79
   0   7   6  318.98   45.04
  -3  -5  -6  290.62   39.70
   0  -7  -6  236.11   25.77
   3   5   6  305.66   24.29
  -3  -1  16  117.03   20.18
   3   1 -16   -1.94    3.53
  -3  -1  16  121.70    8.96
   5   0   6   -5.55   12.88
  -5   0  -6 1205.92   46.41
  -5   0  -6 1176.83   31.31
  -5   0  -6 1175.46   51.12
   1   7 -12   17.48    8.46
   1   7 -12   37.43   18.83
   1   7 -12    3.45    8.19
  -1  -7  12   26.35   12.60
  -1  -7  12   11.23    7.79
   2   0  16 3018.98   81.17
   2   0  16 2974.91   47.49
  -2   0 -16 3035.18   82.48
   4   3   7  139.63   20.61
  -4  -3  -7  168.60   19.92
   4   3   7  180.91   16.50
  -4  -3  -7  183.26   22.16
  -5   0   9 6056.30   71.09
  -4   6   2  235.57   40.15
  -5   0   9 6112.15   71.61
  -5   0   9 6160.78  113.97
  -4   6   2  323.61   17.69
   4  -6  -2  241.96   22.23
   1  -8   8  336.78   26.78
  -2  -3 -13  652.06   33.81
  -1   8  -8  403.25   38.15
   2   3  13  688.52   41.80
   2   3  13  673.12   34.15
  -4   5  -9  190.74   23.44
  -1   8  -8  358.37   15.75
   1  -8   8  338.55   22.17
  -4   5  -9  197.62   24.29
  -4   1  13 2066.53   48.79
  -4   1  13 2117.75   37.33
   4  -1 -13 1964.09   32.92
   3   6   2 4254.85   76.12
  -3  -6  -2 4640.21   84.26
   3   6   2 4329.82   85.89
  -3  -6  -2 4578.93   89.30
  -1  -8   4  895.44   27.47
  -1  -8   4  890.80   35.62
  -2   5 -15   -1.15   12.16
   1   8  -4  868.47   29.34
   2  -5  15    5.64    3.60
   1   8  -4  854.01   49.90
  -2   5 -15   19.27   21.72
   1  -8  -1  129.81   21.99
  -3   6 -11 7310.15  114.32
  -3   6 -11 7179.92  137.46
  -5   3   6   12.35   10.71
  -1   8   1  139.42   19.94
   5  -3  -6    4.20    8.30
  -5   3   6   10.49   10.38
  -1   8   1  131.45   39.53
  -2   8  -3 4469.64   82.48
  -2   7 -11  117.92   19.69
   2  -8   3 4257.20   95.91
  -2   8  -3 4579.51   68.47
  -2   7 -11  143.60   33.20
  -1  -8   5 3585.79   59.06
   1   8  -5 3587.44   77.22
  -1  -8   5 3632.92   69.48
   1   8  -5 3550.76   64.93
  -5   3  -6  241.64   22.02
  -2   8  -4   86.77   35.50
  -3   6   7 2845.90   59.03
  -5   3  -6  205.43   36.36
  -3   6   7 2836.91   60.88
   3  -6  -7 2652.06   70.67
  -2   8  -4   74.52   12.05
   2  -8   4   74.76   20.21
  -1   5  12 8030.04  131.94
   1  -5 -12 7733.53  142.89
  -1   5  12 8313.44  153.54
   4   2   9 3994.19   72.15
   1   8  -312223.73  178.07
  -1  -8   312359.63  208.76
   4   2   9 4150.04   74.41
  -4  -2  -9 4445.24   79.79
   1   8  -312353.28  182.58
  -1  -8   312471.17  177.65
  -5  -1  -5 2822.54   53.94
   5   1   5 2660.01   50.35
   5   1   5 2616.40   64.40
   1   3 -18 2523.00   44.91
  -1  -3  18 2616.40   47.38
  -4   3  11 1810.57   35.98
  -3  -2  16  949.68   33.72
   4  -3 -11 1631.11   40.76
   1   3 -18 2506.52   39.95
  -3   4 -14 5364.87  107.42
  -3   4 -14 5205.86   90.94
   0  -7  13 2318.73   40.09
   0   7 -13 2227.14   40.12
   0   7 -13 2145.11   52.12
   0   7 -13 2315.78   39.60
   2  -8   2  202.43   24.07
  -2   4 -16 2371.98   50.28
   4   5  -7 1469.64   18.40
   2  -4  16 2396.92   30.88
  -2   8  -2  235.30   16.64
  -2   8  -2  224.85   26.87
  -4  -5   7 1566.52   44.15
  -4  -5   7 1512.27   18.18
   4   5  -7 1489.04   40.62
  -2   4 -16 2280.07   69.84
  -5   4   3 2998.95   46.42
  -5   4   3 3136.62   70.18
   1   5  1111268.14  198.63
  -1  -5 -1111258.28  174.06
  -5  -1   9  146.27   20.64
   5  -4  -3 2846.37   63.02
   1   5  1111350.16  172.69
  -4   6  -6 3122.46   83.39
   0   8   1   33.73   27.60
   0  -8  -1   -7.42   24.42
  -4   6  -6 3131.12   65.90
   0   8   1   -9.73   24.86
   4  -6   6 3001.20   59.41
  -2   6   9 1158.32   39.90
  -5  -2  -3  107.95   25.29
   2  -6  -9  958.03   34.75
  -5   4  -4 1817.42   22.00
  -5   4  -4 1842.21   45.18
  -5  -2  -3  121.02   16.36
   5   2   3   90.35   13.44
  -2   6   9 1089.21   41.22
  -5   4  -4 1886.92   60.86
   5   2   3   81.82   23.15
  -5  -3   3 1816.41   43.64
   1   4  13 2953.47   61.59
   1   8  -6 3211.01   59.49
   4   5   0  504.73   18.18
  -4  -5   0  548.46   31.20
  -4  -5   0  538.90   20.27
   4   5   0  427.69   26.81
  -2   8  -5 2124.04   45.08
  -2   8  -5 1988.66   50.24
   2  -8   5 1962.34   46.79
  -5  -3   3 1846.79   28.12
  -5  -3   3 1808.15   31.53
  -1  -8   6 3097.72   52.07
   1   4  13 3013.45   64.49
   1   8  -6 3097.00   54.58
  -1  -4 -13 3039.58   89.46
   5   3  -3 1649.50   52.42
  -3   5 -13  480.46   41.43
  -3   5 -13  410.87   28.73
   3   0 -16 5075.55   69.21
  -3   0  16 5482.75   76.84
  -5   2   8   72.97   10.44
  -5   2   8   69.51   25.36
   5  -2  -8   82.03    9.19
  -5   1  -7 1981.28   33.08
  -5   1  -7 1945.90   46.67
  -5   2  -7  131.09   20.91
  -5   2  -7  123.59   30.71
  -5   1  -7 1965.77   44.02
   1   7   5    8.63   30.21
  -1  -7  -5    0.22   12.82
  -5  -3   2   98.22   19.09
  -5  -3   2  104.57   15.43
   5   3  -2  110.64    9.22
   5   3  -2   67.56   16.11
   1   7   5   21.98   18.05
  -5  -3   2  107.18    8.78
  -5   1   9 2473.28   50.09
  -5  -3   4  722.78   19.14
  -5  -3   4  707.68   13.13
   5   3  -4  681.74   26.84
   3  -4 -12  396.53   20.50
  -3   4  12  362.09   22.08
  -5   1   9 2377.39   38.62
  -5  -3   4  729.03   45.66
  -5  -2   8 1886.58   44.88
  -5   1   9 2497.49   34.84
  -3  -6  10 2132.95   70.14
   3   6 -10 2095.67   47.34
   3   6 -10 1921.49   23.71
   3   6 -10 2011.16   24.66
  -2   2  16 7262.16  120.89
  -1  -8   2  921.79   37.90
  -1  -8   2  950.84   30.38
   1   8  -2  988.09   47.69
   2  -2 -16 6482.74  109.12
   1   8  -2  976.32   35.02
  -3  -4  -9  583.42   30.70
  -2  -7  -2 3556.52  101.12
  -3  -5  13   51.68   29.35
  -2  -7  -2 3677.06   65.42
   3   4   9  539.20   25.19
   2   7   2 3568.99   70.65
   2   7   2 3533.87   64.62
   3   4   9  561.80   30.42
   1  -6  15   81.63    8.07
  -1   6 -15   83.77   15.63
  -3   5  10   39.05   17.52
  -1   6 -15   73.32   14.54
   3  -5 -10   49.76   15.97
  -1   0  18  521.73   21.42
   1   0 -18  475.97   21.02
   0   0  1812289.61  177.55
   0   0 -1811613.30  167.88
  -2   8  -1 4700.75   74.13
   2   7 -10  171.74   20.16
  -2  -7  10  177.13   34.96
   2  -8   1 4303.85   78.50
  -2  -7  10  170.44    9.41
  -4  -4  11  545.90   30.74
  -2   8  -1 4564.55  107.99
   2   7 -10  177.94   16.29
   0   5  12  811.96   36.32
   0   8  -9  109.77   26.94
   0  -5 -12  872.25   55.19
   0   5  12  810.98   36.39
   0  -8   9  132.29   15.18
   0  -8   9  106.47   26.27
  -4   2 -12  303.29   27.90
  -4   2 -12  327.99   25.67
   0   8  -9  127.11   23.47
  -1   4  14  760.24   49.24
   1  -4 -14  612.03   29.17
   1   6 -15 2559.38   37.26
  -3   7  -8   28.41   27.11
  -1  -6  15 2703.88   61.41
  -3   7  -8    9.95    4.00
   1   6 -15 2527.45   37.66
   3  -7   8   30.52   18.10
   3   3  11 2959.30   53.12
  -3   7   3  356.01   28.99
   3  -7  -3  322.89   25.13
  -3   7   3  315.91   21.48
   3   3  11 2973.20   61.49
  -3  -3 -11 3175.76   85.61
  -4   5   7 6916.24  109.88
   4  -5  -7 6174.64  108.71
  -4   4 -11 1476.02   44.56
  -4   4 -11 1510.49   42.01
  -5  -3   1 2064.93   34.07
  -4   6   3 1194.82   37.81
   4  -6  -3 1130.60   34.49
   5   3  -1 1964.92   32.20
  -4   6   3 1309.77   31.44
  -5  -3   1 1993.40   44.43
   5   3  -1 1852.69   40.63
  -2   8  -6 1300.48   40.52
  -2   8  -6 1320.64   25.40
   2  -8   6 1372.61   38.90
  -5  -3   5 1297.25   38.15
   5   3  -5 1245.48   50.46
  -5  -3   5 1235.84   19.42
  -5  -3   5 1258.96   17.43
   1   8  -7   17.55   13.87
   1  -2  18  809.93   44.25
  -1  -8   7   10.41   15.68
  -1   2 -18  719.07   29.36
  -1  -8   7   15.04   10.84
   1   8  -7    2.72   19.23
  -3   2 -15 1331.18   39.23
   3  -2  15   -0.36    3.14
  -3   2 -15 1326.04   42.97
   2  -3 -1511980.48  186.64
  -1   8  -9 6191.26   85.29
  -4   1 -12 6401.60  130.41
   4  -1  12 6407.50  129.75
   1  -8   9 6590.44  100.48
   1  -8   9 6334.81   90.18
  -2   3  1513390.22  211.06
  -1   8  -9 6240.04   98.31
  -1   7 -13 2789.54   52.82
  -1   7 -13 2858.75   52.99
   1  -7  13 2956.63   43.05
  -4  -4  -5  -19.11   24.59
   4   4   5   -8.29   12.80
  -4  -4  -5   15.46   13.45
   4   4   5   -3.69   12.54
   0   4  1410390.35  186.91
   0   4  1410765.18  166.51
  -4  -5   8  313.11   26.98
   4   5  -8  282.46   38.45
   0  -4 -1410404.54  161.00
  -1  -8   1 1386.30   65.27
   1   8  -1 1149.59   35.91
   1   8  -1 1171.92   57.45
  -1  -8   1 1123.29   49.63
   0   5 -17   59.72   12.25
   0  -5  17   62.66   10.68
   0   5 -17   39.46   11.16
  -4  -1  14  130.07   21.75
   1  -8  -2  375.50   42.90
  -1   8   2  306.78   29.22
  -2   7   6  954.06   35.72
   2  -7  -6  935.48   35.44
  -2   7   6  958.62   39.54
  -1   8   2  350.89   39.27
  -5   4   4 2821.68   46.08
  -2   1  17 2750.73   47.17
  -5   4   4 2879.03   67.23
  -1   6  10 3869.21   77.12
   5  -4  -4 2570.31   46.46
   2  -1 -17 2554.90   55.11
   1  -6 -10 3656.16   71.46
  -1   6  10 3823.62  102.48
   1   2  16  422.84   45.09
  -2   8   0  431.91   34.57
   2  -8   0  366.71   44.91
  -1  -2 -16  432.58   29.43
   1   2  16  461.82   40.23
  -2   8   0  407.73   30.91
  -5   4  -5 3640.07   66.24
  -5   4  -5 3550.45   86.60
  -4  -5  -1 5792.29   98.19
  -4  -5  -1 5680.84   85.30
   4   5   1 5381.41   91.26
   4   5   1 5448.25  106.60
   2  -6  14  680.77   11.49
  -2   6 -14  674.04   41.58
  -2   6 -14  710.52   30.47
   5   3   0  644.61   37.76
   5   3   0  678.10   27.45
  -5  -3   0  665.47   29.59
  -5  -3   0  725.42   28.73
  -3  -6  -3 2321.91   57.01
  -3  -6  -3 2319.73   48.70
   3   6   3 2163.49   51.03
   3   6   3 2160.25   46.05
  -4   3 -12  823.03   35.84
  -4   3 -12  786.57   33.82
  -1   1 -18 1889.51   62.30
   1  -1  18 2053.84   63.71
  -1   7   7   47.09   21.37
  -4   0  14 2062.26   28.32
   1  -7  -7   29.10   19.53
  -4   6  -7  571.90   31.68
  -4   6  -7  595.04   32.99
  -1   7   7   43.98   22.87
  -4   0  14 2142.90   49.28
   4   0 -14 1137.83   16.14
   2  -2  17  265.77   18.11
  -5  -3   6  218.36    5.74
   2  -2  17  272.87   24.89
  -5  -3   6  225.73    6.22
  -5  -3   6  194.90   23.09
   5   3  -6  214.53   21.42
  -2   2 -17  240.05   38.93
  -3   1 -15 8868.99  141.50
   3  -1  15 9029.71  142.16
   3  -1  15 8616.64  106.30
  -4  -3  13  393.74   43.73
   5  -3  -7  744.34   29.59
  -5   3   7  848.16   38.27
  -5   3   7  826.71   23.52
  -3  -4  15  189.73   22.50
  -1   3 -18 8013.29  131.77
  -1   3 -18 7965.21  122.33
   1  -3  18 7685.11   99.59
   3  -2 -15  256.17   22.76
  -3   2  15  296.49   25.69
   0   8   2 1184.17   40.31
   0  -8  -2 1049.59   36.16
   0   8   2 1105.41   38.06
  -5   0  -7  665.39   25.08
  -3   3 -15 3865.86   88.95
   5   0   7  599.99   20.28
  -5   3  -7  925.11   35.41
  -3   3 -15 3835.63   94.69
   1   1  17  106.25   27.47
  -1  -1 -17   90.23   33.78
   1   1  17   60.11   20.55
  -5   3  -7  982.17   33.68
   5   0   7  604.02   27.99
  -5   0  -7  654.11   30.37
  -5   0  -7  646.38   26.80
   0   4 -18 2667.76   58.29
   0   4 -18 2707.01   54.33
   0  -4  18 2699.72   43.64
  -2   8  -7 1544.19   61.02
  -2   8  -7 1539.36   34.36
   2  -8   7 1595.55   59.63
  -1  -8   8    3.78    9.36
  -5   0  10   70.43   18.30
   1   8  -8    1.38    9.72
   1   8  -8    3.12   11.45
  -5   0  10   83.00    5.91
  -5   0  10   61.25    5.97
  -1  -8   8    9.92   14.28
   5   2   4 2182.25   43.62
  -5  -2  -4 2407.30   46.08
  -5  -2  -4 2359.36   61.27
   5   2   4 2218.47   51.25
   0   6  10 2498.60   58.93
  -3  -3  16 2448.29   52.51
  -4   5 -10   31.46   20.20
   0  -6 -10 2447.65   57.20
  -4   5 -10   42.40   18.83
   0   6  10 2398.24   60.13
   1   7 -13 1903.15   41.35
   1   7 -13 2050.75   52.69
  -1  -7  13 2017.92   41.38
   1   7 -13 1946.31   40.89
  -1  -6  -9 4472.49  107.07
   1   6   9 4472.17   84.76
   1   6   9 4691.20  108.26
  -2  -6  -7  217.93   25.25
   2   6   7   92.14   22.17
   2   6   7  143.66   36.41
   2   6 -14   16.69    5.75
  -5  -1  -6 2725.65   45.13
   5   1   6 2533.82   40.38
  -5  -1  -6 2708.85   70.22
   5   1   6 2520.04   50.34
  -2  -6  14  889.88   31.46
  -5  -2   9  658.68   30.30
   0  -8  10 1117.17   29.16
  -2  -1  18 1058.06   34.56
  -2  -1  18 1051.56   29.44
   0  -8  10 1106.22   29.45
   0   8 -10 1128.01   38.58
   0   8 -10 1097.39   29.81
   2   1 -18 1022.76   29.91
  -3  -5  -7 5105.45   89.22
   3   5   7 4929.80  103.58
   3   5   7 4796.65   81.75
  -3  -5  -7 5237.56   91.63
  -2  -2  18 3617.68   80.74
   2   2 -18 3750.95   56.84
  -2  -2  18 3661.18   55.47
   2   4 -17    0.69    4.81
   0   7   7   13.90   21.06
  -1  -8   0  922.14   31.52
   1   8   0  838.87   49.20
  -1  -8   0  960.45   40.20
  -2  -4  17   50.35   15.88
   2   4 -17   65.50    6.38
   0  -7  -7   21.11   18.43
   1   8   0  840.35   34.63
   0   7   7   49.27   20.52
  -4   6   4   -4.42   16.00
  -4   6   4  297.35   21.46
   4  -6  -4  264.61   21.62
   4  -4 -10 3464.58   68.87
  -4   4  10 3703.65   64.21
   2  -3  17 2193.43   36.19
  -4  -2  14 2103.61   69.01
   2  -3  17 2191.60   33.66
  -3   3  14  980.26   39.97
  -2   3 -17 2208.41   47.57
  -2   3 -17 2244.84   51.06
   3  -3 -14  821.30   24.30
  -2   5  12 7353.76  119.23
   2  -7  12   37.36    5.19
  -5  -1  10   21.50   16.06
  -2   7 -12 1120.45   34.16
   2  -5 -12 6659.37  105.73
  -2  -7  -3 1524.20   57.47
  -2   1 -17  125.72   22.51
  -2   7 -12 1051.99   52.36
   2  -1  17  193.35   22.13
  -2  -7  -3 1558.36   49.48
   2   7   3 1438.09   56.92
   2  -1  17  130.23   12.23
   2   7   3 1531.51   64.71
  -1  -3 -15  484.67   30.93
   1   3  15  430.15   29.78
   1   3  15  363.09   41.44
  -3  -6  11  234.99   25.30
   3   6 -11  201.72   22.33
  -3   7  -9   -4.98   15.30
   3  -7   9   -2.33   14.06
  -3   7   4 2275.77   65.39
  -3   7   4 2205.48   55.44
  -3   7  -9    0.52   14.54
   4   1  11   75.91   34.21
   3  -7  -4 2040.97   49.49
   4   1  11   83.92   16.75
  -4  -1 -11   74.69   21.63
  -4  -3  -8 5599.64   89.00
  -2  -7  11 1003.24   22.99
   4   3   8 5176.60   86.91
   4   3   8 5065.80   90.79
  -4  -3  -8 5534.05   93.56
  -2  -7  11  969.20   33.47
   2   7 -11 1016.02   31.77
   2   7 -11  968.51   19.25
  -5  -3  -1  385.39   24.14
   5   3   1  385.32   21.08
  -2   8   1 7280.92  110.39
   2  -8  -1 6764.23  112.49
  -5  -3  -1  383.04   18.32
  -1  -5  17  845.82   36.38
  -2   8   1 7072.06  121.86
   1   5 -17  803.32   18.72
   1   5 -17  830.02   23.59
   5   3   1  386.27   16.80
   2   4  12 1309.33   54.48
  -2  -4 -12 1342.48   44.19
   2   4  12 1363.29   44.33
  -3   6 -12    4.14   16.27
  -3   6 -12    9.95   15.46
  -3   1  16 4360.22   70.81
   3  -1 -16 3822.89   61.94
   4   5  -9  937.88   34.29
  -4  -5   9 1036.02   38.67
  -5   2   9 3534.97   60.81
  -3   6   8 1344.45   42.86
   5  -2  -9 3358.45   53.69
   3  -6  -8 1302.74   38.38
  -3  -1 -14   22.77   20.25
   3   1  14   19.31   10.12
   3   1  14   29.12   18.70
  -3   6   8 1508.40   64.68
  -5  -3   7 1632.37   60.90
  -5   2   9 3598.32   78.72
   4  -2 -13 4197.69   58.17
  -4   2  13 4599.60   74.69
  -5   2  -8   91.24   33.12
   1   4 -18  232.37   11.11
  -1  -4  18  217.60   17.32
  -5   2  -8   85.96   19.09
   1  -2 -1710307.72  152.01
  -1   2  1711152.93  164.18
   1   4 -18  228.08   12.52
   0   6 -16 1277.00   27.41
   0   6 -16 1240.76   28.92
   5  -4  -5 1107.81   40.55
  -5   4   5 1338.48   29.39
   0  -6  16 1282.56   27.23
  -5   4   5 1294.44   46.79
  -1   8 -10  950.29   31.20
   1  -8  10 1036.07   34.27
   1  -8  10 1025.46   31.53
  -1   8 -10 1012.27   47.46
  -2  -2 -15 1566.69   66.73
   2   2  15 1485.49   66.57
   2   2  15 1532.77   50.35
   2   5 -16  108.62    7.13
  -5   1  -8 4082.62   75.76
   2   5 -16   36.08    5.76
  -5   1  -8 4192.99   90.06
  -2  -5  16  151.55   18.78
  -5   4  -6  422.02   40.69
  -5   4  -6  368.82   27.55
  -2  -5 -10 3145.92   67.50
   2   5  10 3107.24   67.24
  -5   1  10 1567.70   23.59
   2   5  10 3154.43   63.38
  -5   1  10 1623.66   56.95
  -5   1  10 1576.58   24.67
  -4  -5  -2  105.73   15.98
   4   5   2   79.15   19.43
   4   5   2  117.03   23.70
  -4  -5  -2  144.63   37.60
  -2  -1 -16 3165.68   65.92
   2   1  16 3148.51   54.00
   2   1  16 3268.38   67.36
   4   0  12  946.46   24.44
   4   0  12 1049.99   37.58
  -4   0 -12 1056.78   38.72
   0   7 -14  544.63   29.82
   3   2  13   95.70   23.43
  -3  -2 -13  117.70   23.73
   3   2  13  104.93   22.60
   0   7 -14  588.00   31.60
   0  -7  14  544.59   29.11
  -4  -4  12   92.36   21.73
   1   7   6 3804.82   97.54
   1  -8  -3   11.54   16.91
   2  -8   8  608.82   44.43
  -1  -7  -6 3930.05   75.00
  -1   8   3   25.19   19.33
  -2   8  -8  650.31   16.10
   1   7   6 3888.44   77.00
  -2   8  -8  611.26   30.79
  -1   8   3   -0.29   15.81
  -2   4  14 1515.07   41.05
   2  -4 -14 1325.10   51.38
   0  -2 -17   18.42   27.04
   0   2  17   23.52   27.70
  -1   5 -17  734.70   24.70
  -1   5 -17  702.39   26.47
   1  -5  17  724.39   21.71
   1   8  -9 6270.71  103.39
   1   8  -9 6171.31   96.11
  -1  -8   9 6363.37  101.61
  -1  -8   9 6322.71   88.98
  -1   3  16 4464.74   96.35
  -4   6  -8 4446.47  106.09
  -4   5   8  119.93   20.12
   1  -3 -16 4067.04   72.78
   4  -5  -8  141.32   16.93
  -4   6  -8 4546.61  103.34
  -4  -2 -10  189.91   24.82
   4   2  10  208.85   23.49
   4   2  10  172.69   14.72
  -4   1  14 5063.32   88.33
   4  -1 -14 4569.29   57.62
  -4   1  14 5052.33   72.73
   0  -2  19 7634.83  109.73
   0  -2  19 8168.19  118.28
   0   2 -19 7744.58  115.32
   4  -3 -12 1653.82   31.51
  -4   3  12 1763.51   47.18
  -3  -5  14  108.47   20.96
  -1   1  18  312.10   32.17
   1  -1 -18  319.38   32.41
  -5   5  -1  103.20   12.75
  -2   0  18   84.29   11.48
   2   0 -18   67.23   18.24
  -5   5  -1  120.13   21.17
   5  -5   1  100.06   18.38
  -5   5  -1  125.72   20.10
  -4  -4  -6 7003.69  131.86
   4   4   6 6139.73   95.65
   0   8   3   53.77   33.72
   1   0  18   -0.47   16.03
   0   8   3   72.54   22.65
   0  -8  -3   78.18   33.51
  -4  -4  -6 6968.43  109.99
   4   4   6 6526.94  101.99
  -1   0 -18  263.66   24.69
   1   0  18  324.58   21.95
   3   6   4 1668.70   41.41
  -3  -6  -4 1837.12   74.28
   3   6   4 1671.57   44.59
  -3  -6  -4 1715.92   60.25
   1   8   1 4174.17   76.55
  -2   6  10 3472.67   90.88
  -1  -8  -1 4377.65   76.73
   2  -6 -10 3106.46   62.28
  -2   6  10 3383.78   71.78
  -1  -8  -1 4322.27   85.26
   1   8   1 4283.55   79.34
  -5   5   0 1833.88   43.82
  -5   5   0 1710.58   33.90
   5  -5   0 1638.87   39.84
  -5   5  -2 1084.33   18.73
  -2   5 -16    4.57   12.22
   2  -5  16   -0.64    2.17
  -2   5 -16    0.63   13.70
  -5   5  -2 1080.15   21.70
  -5   5  -2 1082.79   53.51
  -5   5  -2 1137.75   53.91
   3   0  15 1954.46   71.57
   3   0  15 1873.56   31.95
   2   3 -18 1314.39   19.21
  -2  -3  18 1282.58   51.03
   2   3 -18 1313.68   20.48
  -3   0 -15 1985.76   74.06
  -1  -2  19  176.38   26.39
   5   3   2 5808.85   95.32
   0   1  18  301.80   23.56
  -5  -3  -2 6322.60   99.96
   5   3   2 5484.46   99.11
  -1  -2  19  121.32   20.93
   0  -1 -18  296.35   23.74
  -3   5 -14 1135.98   36.86
  -5  -3  -2 6118.88   91.74
  -3   5 -14 1189.44   39.25
   1   2 -19  189.93   22.46
   0   3  16  124.23   24.22
   0   3  16  152.28   23.54
   0  -3 -16  116.12   22.84
  -3  -1  17 1805.27   45.54
  -3  -1  17 1711.30   27.72
   3   1 -17  131.41    8.27
  -5   3   8   22.23   17.36
  -5   3   8   14.98   13.40
  -2   8   2 1769.92   43.30
   2  -8  -2 1599.41   65.84
   5  -3  -8    6.76    8.37
  -2   8   2 1760.04   76.81
  -4   4 -12  151.16   37.21
  -4   4 -12  139.84   40.84
  -1   4 -18 1392.51   33.92
   1  -4  18 1370.13   30.51
  -1   4 -18 1392.56   50.28
   0  -1  19 5731.45   90.67
  -3   4 -15  154.43   21.33
  -3   4 -15  112.27   23.23
   0   1 -19 5600.92  105.21
  -5   3  -8 3802.02   73.90
  -2   7   7  207.99   25.53
   5   2   5 4567.45   68.87
  -5  -2  -5 4884.43   97.24
  -2   7   7  173.62   44.29
   2  -7  -7  155.33   23.79
  -5   3  -8 3902.77   71.03
  -5  -2  -5 5027.38   78.12
   5   2   5 4580.99   75.02
  -5  -3   8 2296.90   52.29
  -3   5  11 2329.13   52.17
   3  -5 -11 2009.47   44.15
   3   4  10   71.07   21.67
  -3  -4 -10   88.86   36.43
   3   4  10   79.84   17.50
  -1  -1  19 1546.80   33.26
   1   1 -19 1557.14   33.40
  -5   5   1 2498.89   52.08
  -5   5   1 2413.44   44.92
   1  -7  14  595.79   23.47
   5  -5  -1 2229.65   62.44
  -1   7 -14  587.10   37.91
  -1   7 -14  563.42   26.27
  -4   6   5  103.05   21.15
   2   3  14 1093.08   48.51
  -2  -3 -14 1099.20   40.95
   0  -8  11   24.64   11.90
   2   3  14  999.86   40.66
   0   8 -11   10.47   17.24
   0   8 -11   18.81   11.65
   0  -8  11   10.06   11.28
   4  -6  -5   82.47   18.19
  -5   5  -3 1293.24   39.43
  -5   5  -3 1260.01   21.88
  -5   5  -3 1267.17   20.31
  -5   5  -3 1186.87   39.45
   1  -5 -13  362.93   27.02
   3   7  -4  393.12   16.63
  -1   5  13  405.88   32.50
  -1   5  13  332.20   29.19
  -3  -7   4  427.12   16.31
  -3  -7   4  452.16   32.69
   3   7  -4  402.92   27.44
  -5  -2  10 2877.87   59.66
  -1   6 -16 1212.15   33.07
  -3  -7   5    3.12    6.52
   3   7  -5   -6.81   14.51
   1  -6  16 1319.44   28.45
  -3  -7   5  -28.18   15.73
  -1   6 -16 1198.69   30.15
   3   7  -5    1.16   11.50
  -3  -2  17 2138.11   49.85
  -1  -6  16  245.94   17.57
   1   5  12  413.40   31.76
  -4   2 -13  766.46   36.54
   1   6 -16  246.98   18.31
   1   5  12  385.44   30.04
   1   6 -16  216.83   11.29
  -1  -5 -12  455.58   33.31
  -4   2 -13  735.69   33.19
   0   3 -19 1041.86   35.91
   0   3 -19 1033.91   28.41
   0  -3  19   -5.46   10.68
  -4  -5  10  205.24   25.00
   4   5 -10  164.73   23.41
   3  -4 -13 2175.29   43.85
  -3   4  13 2439.42   50.02
   5   0   8   38.29   17.85
  -5   0  -8   49.52   19.23
  -5   0  -8   48.42    9.31
   5   0   8   37.66    7.45
  -5   0  -8   45.07   17.28
  -3  -7   3    9.33   15.92
   3   7  -3   15.20   15.80
  -3  -7   3   33.92   32.51
   3   7  -3    3.55    9.44
   2  -4  17 5278.00   60.23
  -2   4 -17 5351.65   91.93
  -2   4 -17 5454.27   88.47
   2   0  17  540.66   48.79
  -3   7   5  174.60   21.50
  -5   4   6 1412.61   34.68
  -3   7 -10 2207.78   71.60
   3  -7  -5  117.43   21.59
  -2   0 -17  576.84   32.78
  -3   7   5  179.34   26.84
   5  -4  -6 1295.13   30.62
  -3   7 -10 2214.08   54.64
   2   0  17  529.64   20.02
   2   7   4  103.30   22.53
  -2  -7  -4   96.19   20.16
   2   7   4   88.91   20.56
  -5   0  11 3724.04   68.72
  -5   0  11 3445.91   37.12
  -2  -7  -4  103.82   26.74
  -2   8  -9   82.49    7.91
   2  -8   9   49.38   17.86
  -2   8  -9   59.08   32.62
   3   7  -6  283.99   40.16
   3   7  -6  289.33   19.51
   5   1   7 6816.09  100.50
  -5  -1  -7 7363.40  102.59
  -3  -7   6  293.71   18.60
  -3  -7   6  301.04   45.58
  -5  -1  -7 7491.90  117.77
   5   1   7 6907.98  109.22
   3   6 -12   53.74   18.85
  -3  -6  12   46.51   19.21
  -5   4  -7   63.40   19.31
  -5   4  -7   77.30   20.92
   2   7 -12 2226.89   64.13
   2   7 -12 2244.80   38.36
   2   7 -12 2119.56   37.42
  -2  -7  12 2316.08   67.84
   1  -7  -810607.39  165.09
  -1   7   811024.48  175.33
  -1   7   811244.88  176.99
  -4  -5  -3 2662.23   67.14
   4   5   3 2518.79   71.32
   4   5   3 2586.00   62.86
  -4  -5  -3 2746.64   82.22
   1   8 -10  460.70   19.33
  -1  -8  10  432.50   26.25
   1   8 -10  478.21   23.45
  -4   5 -11 5837.29  103.26
  -4   5 -11 6157.13  122.53
  -1  -8  10  434.66   25.39
   3   3  12  121.81   37.75
   3   3  12   99.93   16.73
  -3  -3 -12  120.29   23.84
  -1   8 -11 2520.44   39.51
  -1   8 -11 2461.05   50.60
   1  -8  11 2512.21   41.21
   1  -8  11 2557.56   50.22
   1   4  14 1277.40   41.99
  -5   5   2  223.23   22.22
   5  -5  -2  241.34   20.05
   1   4  14 1455.68   46.07
  -1  -4 -14 1319.68   65.61
  -5   5   2  222.22   13.29
  -4  -3  14 1409.93   42.50
  -3   0  17 1036.85   25.76
  -5  -1  11  232.16   37.42
   3   0 -17  973.41   18.54
   4  -1  13    0.44   16.67
   1   3 -19  204.28   18.42
  -4   1 -13    6.07   17.40
  -1  -3  19  192.77   17.97
   4  -1  13    4.29    3.46
   1   3 -19  200.14   20.84
   0   5  13 1083.13   41.62
   1   7 -14  710.84   18.57
   0  -5 -13 1021.30   60.56
  -5   5  -4 1010.22   35.84
   0   5  13 1165.04   42.40
  -5   5  -4  985.64   12.70
  -1  -7  14  782.87   26.14
   1   7 -14  756.24   18.82
  -5   5  -4 1075.06   55.09
   3   7  -2 1705.98   35.51
   3   7  -2 1743.29   47.97
  -3  -7   2 1901.23   53.08
  -3  -7   2 1800.25   35.60
  -4  -1  15 2567.28   56.87
  -2   6 -15  904.36   33.21
   2  -6  15  831.55   12.80
  -2   6 -15  969.25   31.54
  -4   3 -13  808.27   51.75
  -4   3 -13  738.89   37.09
  -1   6  11  592.46   34.53
  -1   8   4  507.03   46.31
   1  -8  -4  461.45   47.14
  -1   6  11  525.63   35.69
  -1   8   4  500.92   54.50
   1  -6 -11  539.74   49.44
  -2   7 -13  650.50   29.66
   2  -7  13  690.25   11.55
  -2   7 -13  682.28   30.33
  -4   6  -9   71.51   21.69
  -4   6  -9   69.56   22.73
   5  -2 -10  188.12   16.17
  -3  -7   7  871.23   17.66
   3   7  -7  894.41   50.92
  -5   2  10  182.98   19.15
  -5   2  10  214.05   20.95
  -3  -7   7  947.21   37.62
   3   7  -7  846.44   24.65
  -1   4  15  333.85   33.00
   1   8   2 1169.85   59.11
  -1  -8  -2 1213.47   56.24
   1  -4 -15 2688.08   57.27
   1   8   2 1255.27   41.65
  -2  -6  -8  737.14   54.21
   2   6   8  651.49   33.74
  -5   2  -9 2314.14   55.61
  -5   2  -9 2377.82   51.90
   2   6   8  749.83   34.93
  -5  -3  -3 4238.81   69.62
   2  -2 -17 1569.50   47.99
  -5  -3  -3 4184.43   72.65
  -2   2  17 1794.55   39.07
   5   3   3 3769.84   63.22
   5   3   3 3934.34   63.20
   3   5   8   68.12   20.34
  -2  -6  15 2489.12   67.53
  -3  -5  -8   49.38   20.59
   3   5   8   43.45   18.44
   2   6 -15    2.16    4.25
  -3  -4  16 2568.32   74.48
   0   7   8  210.02   46.17
   0  -7  -8  214.40   43.91
   0   7   8  277.50   29.37
  -4   0  15  115.67    8.22
  -4   0  15  163.27   22.29
   4   0 -15   52.82    5.41
  -3   2 -16  406.88   27.41
   3  -2  16  413.72   30.12
  -3   2 -16  328.75   30.03
  -2   8   3  119.43   33.23
   2  -8  -3  167.13   23.73
  -2   8   3  127.18   26.83
  -5   1  -9 3190.80   86.61
  -5   1  -9 3227.42   62.47
  -3   6 -13 1510.36   45.01
  -4   7  -2 3680.22   51.83
  -3   6 -13 1545.68   60.73
   4  -7   2 3431.70   67.65
  -4   7  -2 3541.78   93.70
  -4   4  11  548.46   24.47
   4  -4 -11  519.82   21.01
  -5  -3   9  338.80   43.57
   0  -5  18 4460.52   64.88
  -5   1  11  411.04   11.56
  -5   1  11  389.11   15.79
   0   5 -18 4462.41   66.42
   0   5 -18 4557.58   70.04
  -5   1  11  375.52   25.53
  -4   7  -3  152.75   25.15
  -4   7  -3  161.73   14.38
   4  -7   3  175.71   37.39
   3  -6  -9 1548.63   41.47
  -3   6   9 1762.53   67.84
   4   3   9  527.13   29.51
   4   3   9  526.16   22.35
  -4  -3  -9  558.45   31.34
  -3  -7   1 1212.52   30.50
   3   7  -1 1161.11   58.56
  -3  -7   1 1163.79   44.46
   3   7  -1 1152.36   42.24
  -4  -4  13  353.15   27.66
   0  -8  -4  420.70   29.54
   1   6  10 2463.39   59.50
   0   8   4  438.04   51.52
   1   6  10 2493.35   61.35
   0   8   4  495.04   30.98
  -1  -6 -10 2392.54   82.03
   2  -3 -16  308.00   33.58
  -2   3  16  383.98   37.15
   1   0 -19 1173.22   43.37
  -4   7  -1  230.98   27.12
   5  -5  -3 2570.25   64.37
  -1   0  19 1187.44   42.07
   4  -7   1  210.72   24.54
  -4   7  -1  247.61   20.84
  -5   5   3 2837.35   73.35
   2   8  -4 2062.25   54.20
  -2  -8   4 2175.60   52.84
  -2  -8   4 2243.41   79.42
   2   8  -4 2043.65   50.58
   2   8  -5   87.41   14.06
   2   8  -5  110.78   33.74
  -2  -8   5  106.68   21.60
  -2  -8   5  114.97   24.35
  -3   8  -3  667.74   19.12
  -3   8  -3  685.66   34.95
   3  -8   3  666.98   32.36
   0   6  11  284.13   48.46
   0  -6 -11  250.03   27.88
   0   6  11  306.32   30.19
   0   0  19  659.11   28.32
  -4  -2  15  174.99   38.70
   0   0 -19  619.83   27.64
   0   4  15   20.94   32.07
  -5   5  -5 3618.32   87.75
   0   4  15   11.00   30.63
   5   4  -3  346.72   38.32
  -5  -4   3  376.82   19.14
   5   4  -3  332.21   11.59
  -5  -4   3  370.02   27.33
   0  -4 -15  -24.01   19.89
  -5   5  -5 3394.79   68.63
   5   4  -4 3554.01   45.19
  -5  -4   4 3939.70   55.54
  -5  -4   4 3843.46   52.61
   5   4  -4 3588.26   65.71
  -5  -4   4 3973.28   74.42
   1   7   7   -5.28   19.79
  -3   8  -2  717.65   21.26
  -3   8  -2  717.46   36.32
   3  -8   2  621.05   50.16
  -1  -7  -7   -5.70   26.81
   1   7   7  -21.72   19.17
   3  -8   4   29.87   18.78
  -3  -6  -5  554.84   35.06
   3   6   5  532.82   42.65
  -3   8  -4    3.19   11.42
   3   6   5  576.01   47.43
  -3   8  -4   15.30   27.79
  -3  -6  -5  564.98   45.00
  -4   7  -4   26.42    9.02
  -4   7  -4   55.65   19.42
   4  -7   4   51.45   19.61
   4  -5  -9 2377.63   59.42
  -3   3 -16  558.60   32.59
   1  -2  1910242.78  172.32
  -1   2 -19 9747.82  165.66
  -4   5   9 2644.16   54.54
  -3   3 -16  550.32   45.55
  -2  -8   3   12.74   19.04
  -3  -3  17  125.32   34.29
   2   8  -3  -25.13   18.40
   2   8  -3   45.17   13.22
  -2  -8   3    7.14   11.14
  -2  -8   6 1345.10   63.06
   2   8  -6 1218.84   38.21
   2   8  -6 1194.99   28.15
  -2  -8   6 1294.45   27.50
   0   7 -15   14.39    9.74
  -3  -7   8 1461.21   65.13
  -3  -7   8 1411.79   22.27
   3   7  -8 1507.51   42.90
   0   7 -15   -4.15    8.99
   0  -7  15   -6.49    9.06
   3   7  -8 1343.24   28.47
  -4   6   6  848.42   34.67
  -5  -4   2 1342.18   57.35
  -5  -4   2 1309.06   33.51
   4  -6  -6  742.04   29.70
   5   4  -2 1169.65   22.54
   5   4  -2 1176.70   35.72
   4   1  12 1896.53   69.86
   4   1  12 1863.48   32.41
  -3   2  16  146.34   22.61
  -4  -1 -12 1989.03   52.43
   3  -2 -16  101.01   20.01
  -5  -2  -6 3408.28   58.46
  -5  -4   5  335.82   25.93
   5   2   6 3143.87   73.67
  -5  -4   5  283.67   11.50
  -5  -4   5  260.89   10.51
   5   4  -5  278.90   37.75
  -5  -2  -6 3418.11   64.26
   5   2   6 3072.18   60.92
  -4   7   0 3827.16   68.50
  -4   7   0 3659.16   74.39
   3  -1  16  181.83    9.82
   3  -1  16  186.31   26.75
   4  -7   0 3444.95   85.89
  -3   1 -16  208.89   27.55
  -4  -5  11 2625.52   59.69
  -5   3   9  745.00   28.20
   5  -3  -9  622.38   26.99
  -5   3   9  721.93   22.70
   0   8 -12  371.14   17.77
  -2   1  18    7.67   16.80
   0   8 -12  421.88   30.63
   0  -8  12  429.27   19.91
   2  -1 -18    4.41   15.91
   0  -8  12  388.40   29.81
  -2   8 -10  331.92   10.96
  -2   8 -10  264.11   25.07
   2  -8  10  306.00   24.58
   4   4   7 1211.93   33.63
  -4  -4  -7 1355.42   59.17
  -4  -4  -7 1304.79   40.31
   4   4   7 1151.88   37.00
  -5   3  -9 1424.80   44.32
  -5   3  -9 1492.78   60.48
  -3   8  -1   59.01   12.30
  -3   8  -1   50.18   22.37
   3  -8   1   70.98   21.25
  -3   8  -5  464.22   29.94
   3  -8   5  463.27   45.36
  -3   8  -5  411.13   13.68
   2  -5 -13  472.60   42.90
   5  -4  -7 4531.97   70.21
  -2   5  13  565.40   31.31
  -5   4   7 5115.80   81.16
   1   2  17 1983.82   50.65
  -1  -2 -17 2040.39   51.83
   1   2  17 1939.37   63.33
  -4   2  14 2664.40   52.48
  -1  -8  11 4205.90   88.22
  -4  -6   4 4588.30   68.67
   4   6  -4 4346.56   79.88
  -1  -8  11 4060.81   60.36
   4   6  -4 4411.91   67.33
   4  -2 -14 2356.41   44.62
   1   8 -11 4009.80   72.93
   1   8 -11 4066.92   69.03
  -4  -6   4 4650.56  112.69
  -5  -2  11 3725.08   73.02
   2  -2  18  806.13   33.30
  -2   2 -18  738.76   33.00
   0   4 -19   72.83   23.80
   2  -2  18  709.38   26.04
   0   4 -19  115.60   12.83
   0  -4  19   77.17   11.74
  -2  -4  18 2540.69   66.10
   2   4 -18   -1.06    4.46
  -4  -6   5   -7.18    9.16
   0   6 -17 1367.27   41.82
  -2  -8   2 8230.43  121.16
   4   6  -5    7.07    5.81
   4   6  -5   -3.38   16.02
   2   8  -2 7938.28  150.62
   2   8  -2 7896.05  134.62
   0  -6  17 1408.15   28.99
  -2  -8   2 8276.19  137.53
  -5   4  -8  269.99   27.13
  -5   4  -8  298.44   40.29
  -4  -6   5    1.89   18.25
   0   6 -17 1377.14   29.09
  -3  -5  15  170.42   23.01
  -3   3  15   17.70   20.87
   3  -3 -15    0.40    8.62
  -4   7  -5  564.06   10.22
  -4  -6   3  458.63   33.08
  -4  -6   3  454.60   23.70
   4   6  -3  498.82   16.00
  -4   7  -5  639.20   50.73
   4   6  -3  510.28   46.62
   4  -7   5  606.27   31.91
  -4  -5  -4 6131.26  104.46
   4   5   4 5648.70   89.53
  -2  -8   7 1351.70   43.73
  -2  -8   7 1344.52   27.24
   4   5   4 5686.30   93.88
  -2  -5  17  384.57   23.52
   2   8  -7 1339.70   38.97
   2   5 -17  370.40   10.79
   2   8  -7 1294.29   39.49
  -4  -5  -4 6065.35   97.66
   5   4  -1   10.74   15.30
  -5  -4   1   25.64   16.00
  -1   3 -19  783.37   29.90
   1   5 -18 2408.93   37.78
   5   4  -1   37.49   14.39
  -1   3 -19  712.88   39.29
  -5  -4   1   36.00   18.18
  -1  -5  18 2440.07   57.97
   1  -3  19  165.06   20.43
   1   5 -18 2388.34   42.21
  -3   7 -11 1007.69   36.70
  -3   7 -11  952.97   56.49
   2   5  11  701.85   55.81
   3  -7  -6  904.30   34.85
  -3   7   6  994.87   37.00
  -2  -5 -11  778.39   38.09
   2   5  11  648.66   50.70
  -3   7   6 1565.49   66.62
  -3  -7   0 2219.28   44.38
   3   7   0 2144.19   57.13
  -3  -7   0 2175.21   82.72
   3   7   0 2167.64   54.07
  -2  -4 -13  796.21   59.73
   2   4  13  709.04   37.71
   2   4  13  789.17   48.66
   1  -1  19  218.31   22.55
  -1   1 -19  283.83   24.22
  -5  -4   6  907.38   53.73
   5   4  -6  761.95   31.72
   4   0  13 2130.79   38.07
  -4   0 -13 2314.88   79.94
   4   0  13 2172.37   54.58
  -2   7   8 2440.55   80.00
  -2   7   8 2405.18   60.80
   2  -7  -8 2197.36   53.43
  -2  -7  -5   30.00   18.44
   2   7   5   38.46   32.52
   2   7   5   52.34   21.26
  -4  -2 -11  375.50   46.71
   4   2  11  430.51   29.82
   4   2  11  418.18   18.33
   1   1  18 4800.84  106.50
  -4   7   1 2187.45   55.17
   1  -8  12   27.12   14.77
  -1   8 -12   12.99   14.95
  -4  -6   6 1135.49   41.44
   1   1  18 4387.52   93.27
   4   6  -6 1076.03   23.31
  -4   7   1 2161.04   40.35
  -1  -1 -18 4361.70   80.81
  -1   8 -12   23.66   12.77
  -4  -6   6 1069.04   17.58
   4  -7  -1 2007.36   50.33
  -1   8 -12   16.18   23.21
   1  -8  12   16.04   14.18
   4   6  -6 1014.67   55.56
   2   7 -13  522.22   39.49
   5  -5  -4  366.98   22.05
  -2  -7  13  549.28   27.56
   2   7 -13  500.97   13.24
   2   7 -13  505.68   17.84
  -5   5   4  391.03   38.55
  -4   3  13  286.88   26.47
  -3  -6  13 1163.97   37.96
   4  -3 -13  206.24   22.25
  -2   3 -18   26.98   16.11
  -2   3 -18   36.00   29.32
  -3   8   0 1909.08   39.04
   2  -3  18   31.93    9.66
   3  -8   0 1811.83   69.54
   2  -3  18   29.93   11.70
  -3   8   0 1916.50   53.56
  -3   8  -6    8.58   17.00
   4   6  -2  337.54   26.24
  -2  -2  19  144.83   32.86
   2   2 -19  192.10   17.03
   3  -8   6   -2.62   14.80
  -2  -2  19  193.51   15.97
  -4  -6   2  334.52   23.94
  -4  -6   2  307.13   30.95
   4   6  -2  313.99   15.46
  -3   8  -6    5.81    5.69
   5   3   4   -9.21   18.77
  -5  -3  -4   -6.15   10.16
   5   3   4   20.90   18.43
  -1  -8  -3 4892.94   86.65
   1   8   3 5023.33   92.16
  -5  -3  -4    7.34   10.81
   1   8   3 4888.01   91.08
   3   1  15 3116.02   68.38
  -3  -1 -15 3130.23   69.47
   3   1  15 3066.75   49.87
  -3   1  17    9.27   13.61
   3  -1 -17    1.62    6.85
  -5   5  -6   39.77   20.08
  -2  -1  19 3425.26   65.22
  -5   0  -914645.99  214.81
   2   1 -19 3379.69   59.24
  -2  -1  19 3429.60   51.16
  -5   0  -914430.37  239.95
   5   0   914041.45  211.96
  -5   5  -6   33.66   19.02
   5   0   913922.46  183.18
  -4   4 -13  462.80   32.56
  -4   4 -13  422.36   29.65
   4  -1 -15 3789.70   55.63
  -2   6  11  660.62   36.96
  -5  -1  -8   35.63   18.74
   2  -6 -11  687.84   32.14
  -4   1  15 3968.12   76.95
  -5  -1  -8   47.26   18.92
   5   1   8   36.91   28.12
  -4   1  15 3951.30   54.07
   5   1   8   34.08    9.30
  -2   6  11  610.83   33.58
  -1  -3 -16 2864.81   64.88
   1   3  16 2697.58   57.88
   1   3  16 2831.22   86.33
   1  -7  15 8347.08  115.75
   1   4 -19 1713.02   35.53
   1   4 -19 1605.26   29.76
  -1   7 -15 7938.73  121.78
  -1  -4  19 1691.74   36.93
  -1   7 -15 8211.91  121.28
   3   2  14  236.48   18.01
   1  -8  -5 1016.67   38.82
   3   7  -9   51.77   10.50
  -1   8   5 1076.56   43.44
  -3  -2 -14  266.73   47.59
  -3  -7   9   44.12   20.15
  -1   8   5 1051.18   40.03
  -3  -7   9   33.98    9.16
   3   7  -9   56.05   19.84
  -5   0  12  199.15   37.98
   3   2  14  285.15   28.81
   2  -1  18 1741.19   65.69
  -2   1 -18 1683.43   66.60
   2  -1  18 1594.51   41.18
  -2   8   4  595.79   37.38
  -4   6 -10  415.86   46.40
  -2   8   4  555.57   29.82
  -4   6 -10  412.62   30.60
   2  -8  -4  542.22   50.31
  -5  -3  10 1795.79   48.59
  -3   5 -15  667.71   30.94
  -3   5 -15  634.19   33.39
   2   8  -1  672.10   27.56
  -2  -8   1  686.65   59.87
   2   8  -1  638.24   33.94
  -2  -8   1  641.86   26.24
  -1   5 -18 1620.40   39.95
  -1   5 -18 1736.56   38.16
   1  -5  18 1715.49   27.95
  -6   1   1 1773.18   43.15
  -6   1   1 1700.20   34.34
  -6   1   1 1731.28   42.85
  -5  -4   0  -13.96   14.86
   5   4   0   -1.04   13.09
   5   4   0   -8.71   20.17
  -5  -4   0   10.94    9.14
  -5  -1  12   81.77   20.87
  -2  -8   8  337.58   44.44
   2   8  -8  350.93   16.07
  -6   1   2 1648.75   42.07
  -6   1   2 1633.47   40.54
  -2  -8   8  338.52   22.17
   2   8  -8  315.50   25.52
  -6   1   2 1822.87   44.55
  -2   4  15 3958.23   72.91
   2  -4 -15 3563.29   82.47
  -4   7  -6 1043.10   40.43
  -4   5 -12 1236.78   41.87
  -4   5 -12 1266.89   64.00
   4  -7   6 1061.69   57.69
  -2  -2 -16  206.60   26.95
   2   2  16  201.74   27.23
   2   2  16  186.34   30.88
  -4  -6   7 1198.62   62.67
  -4  -6   7 1053.24   18.79
  -6   1   0  550.47   31.83
   5   4  -7  106.75   20.95
  -6   1   0  589.49   27.24
   4   6  -7 1129.36   38.19
  -5  -4   7  100.96   22.66
   4   6  -7 1079.69   19.69
  -6   1   0  582.55   29.51
   3  -5 -12 4092.45   88.52
  -3   5  12 4636.49   82.57
  -3  -4 -11   -2.46   26.84
   3   4  11   16.94   24.53
   3   4  11   25.36   31.53
  -4  -6   1   11.51   19.23
  -4  -6   1  141.03   35.71
   4   6  -1  124.62   13.49
   4   6  -1  131.88   22.21
   1  -2 -18  769.32   31.17
  -1   2  18  842.32   31.94
  -2   5 -17  629.93   31.14
   2  -5  17  643.11   12.39
  -6   1   3   16.46    8.72
  -6   1   3    8.23   15.20
  -6   1   3   19.39   17.41
  -2   5 -17  722.04   28.72
  -6   0   2  616.92   22.94
  -6   0   2  570.10   27.41
  -6   0   2  615.63   17.33
  -1   7   9    4.72   20.39
  -1   7   9   36.27   32.94
   1  -7  -9   23.14   19.41
  -2  -1 -17  914.44   58.54
   2   1  17  911.13   38.26
   2   1  17  850.96   26.96
  -1  -7  15 1053.54   29.78
   1   7 -15  931.41   28.39
   1   7 -15  932.02   29.48
  -1   9  -4  851.37   28.12
  -1   9  -4  956.63   53.97
   1  -9   4  871.34   33.61
  -6   0   1 1531.83   29.82
  -6   0   1 1574.45   41.17
  -6   0   1 1582.24   34.09
  -1  -6  17  289.36   18.72
  -3   4 -16 1162.98   38.53
   1   6 -17  282.94   18.14
  -3   4 -16 1174.97   40.98
   1   6 -17  295.26   13.04
  -4   7   2 3854.38   63.58
  -4   7   2 3719.38   97.58
   4  -7  -2 3569.58   87.32
   3  -8  -1  314.01   28.23
   0   8   5 1142.60   43.53
   0   8   5 1171.73   42.35
  -3   8   1  418.38   32.99
  -5   2  11  927.46   32.25
   5  -2 -11  789.64   17.77
  -3   8   1  452.61   33.42
  -5   2  11  878.35   20.83
   0  -8  -5 1228.51   60.91
  -1   9  -5  198.62   24.62
   1  -9   5  159.68   35.39
  -1   9  -5  238.31   27.75
  -5   2 -10  818.29   51.19
  -5   2 -10  871.03   55.27
  -3   8  -7  267.01    9.28
   3  -8   7  309.07   27.29
  -6   0   3 2756.80   49.96
  -3  -7  -1  454.57   33.71
   3   7   1  384.84   46.67
  -6   0   3 2664.69   48.47
  -1   9  -3   55.33   20.70
   3   7   1  392.30   21.96
   1  -9   3   59.91   19.10
  -6   0   3 2673.19   50.40
  -3  -7  -1  391.05   34.86
  -1   9  -3   35.90   15.15
  -3   8  -7  315.65   45.10
  -4   2 -14   15.08   17.62
  -4   2 -14   12.04   19.73
   0   9  -4   72.78   34.43
   0  -9   4   41.90   31.65
   0   9  -4   84.20   18.32
   2  -7  14 2251.23   30.34
  -2   7 -14 2302.67   52.49
  -2   7 -14 2478.38   68.59
   0  -9   4   63.22   29.17
  -4  -3  15 3138.09   65.45
  -1   6 -17  153.11   18.40
  -1   6 -17   82.29   26.79
   1  -6  17  117.73   14.28
   0   9  -5 5600.20   96.38
   0  -9   5 5812.42   97.59
  -6   1  -1 2763.48   43.41
   0   9  -5 5756.67  108.63
   0  -9   5 5603.73   90.54
  -6   1  -1 2783.20   48.04
  -6   1  -1 2734.32   63.10
  -1   3  17 1185.57   38.35
   1  -3 -17 1084.44   36.69
   0   2  18 7706.50  124.13
   0  -2 -18 7475.74  120.61
  -6   2   1 1810.18   36.37
  -6   0   0 2589.56   45.79
  -2   8 -11  816.53   15.34
  -6   0   0 2763.84   46.40
  -6   0   0 2565.45   42.96
  -6   2   1 1744.18   32.14
   2  -8  11  874.19   32.65
  -2   8 -11  869.53   34.76
  -6   2   1 1815.66   48.07
  -2   8 -11  838.23   49.18
   2   3 -19   27.65   10.36
   0   9  -3  262.04   22.80
   0  -9   3  269.56   26.36
  -3   0 -16  516.29   34.04
   0  -9   3  252.89   23.28
   3   0  16  481.79   24.52
   3   0  16  537.68   33.35
  -2  -3  19    8.75   23.16
   2   3 -19   17.86    5.40
   0   9  -3  198.06   25.58
  -3  -1  18   42.39   18.54
  -3  -1  18   40.20    9.28
   3   1 -18   29.77    8.32
  -6   2   0    8.50   12.64
  -6   2   0    4.82   10.88
  -6   2   0   13.10   11.27
  -3   4  14  603.73   27.31
   3  -4 -14  500.89   34.82
  -1   9  -6 2675.70   60.51
   4  -6  -7  911.06   31.18
   1  -9   6 2545.69   53.81
  -4   6   7 1018.52   37.83
  -1   9  -6 2532.29   57.07
  -6   1   4  125.86   11.13
   0  -9   6  311.82   22.82
  -5   1 -10 1648.32   47.74
   5  -1  10   -1.92    3.89
  -6   1   4  131.08   15.33
   0   9  -6  369.67   40.53
  -5   1 -10 1631.07   44.29
   0  -9   6  355.62   38.95
   0   9  -6  336.44   35.66
  -6   1   4  136.38   11.94
  -4  -5  12 4992.52  113.68
   1   8 -12   -0.02   12.35
  -6   2   2  138.01   14.36
  -1  -8  12    6.19   11.26
  -6   2   2  168.45   14.61
  -1  -8  12   -1.46    7.04
  -6   2   2  145.14   13.20
   1   8 -12   17.27    9.69
  -2  -8   0  344.75   35.89
   2   8   0  320.28   37.18
   5  -1 -12 1407.05   25.06
   5  -5  -5  436.63   34.22
   1  -9   2  499.26   45.40
  -1  -5 -13  589.84   36.02
  -5   5   5  474.06   39.94
   1   5  13  585.83   33.46
  -5   1  12 1529.04   41.63
  -5   1  12 1476.21   23.37
  -2  -8   0  384.06   34.37
  -5   1  12 1477.66   22.13
   2   8   0  349.58   46.20
  -1   9  -2  475.59   24.95
   1   5  13  526.15   35.71
  -1   9  -2  468.09   50.85
   1  -5 -14  219.01   25.60
  -1   5  14  231.04   30.59
  -1   5  14  214.28   26.74
  -4  -4  14 2223.24   54.29
  -5  -4  -1  343.50   26.79
   3   6   6  112.15   22.97
  -6   0   4 3292.78   72.91
   5   4   1  355.13   22.96
  -3  -6  -6  115.01   22.84
  -6   0   4 3290.25   46.11
  -6   0   4 3265.24   54.33
   5   4   1  314.42   17.40
  -5  -4  -1  339.62   18.48
   3   6   6  149.56   21.68
  -3  -6  -6  128.19   26.08
  -2   0  19   13.02   15.34
   2   0 -19    1.50    8.33
   2   6   9  674.51   34.17
   2   6   9  631.88   54.11
   4   6  -8   24.36   18.13
  -4  -6   8   14.17   18.99
   2   8  -9  405.35   24.29
   0   2 -20 1079.36   45.17
  -3  -2  18  120.24   22.33
   0  -2  20 1085.26   43.88
   0  -2  20 1027.60   27.89
   5  -4  -8  812.36   24.43
  -3  -5  -9 1823.91   51.33
  -2  -8   9  447.56   29.47
   3   5   9 1770.13   61.97
   3   5   9 1695.47   48.22
   2   8  -9  392.65   40.91
  -5   4   8  909.01   28.44
  -2  -8   9  400.49   21.60
   1  -4  19  511.87   21.55
  -1   4 -19  552.80   26.48
  -1   4 -19  559.42   35.56
  -2   6 -16  338.21   25.18
  -2   6 -16  334.95   23.30
   0  -8  13 2908.25   50.34
   0   8 -13 2760.15   49.64
  -2  -6  16  121.78   19.13
   2   6 -16  125.17    9.18
   0   8 -13 2642.62   62.30
   0   8 -13 2746.83   46.85
  -5   5  -7  111.68   35.40
  -5  -2  -7    8.29   16.39
  -5   5  -7  103.61   37.51
  -5  -2  -7   34.01   20.82
   5   2   7    4.18    9.05
   5   2   7    3.85   21.21
   0   7   9 7527.32  130.14
   0   7   9 7772.37  156.00
   0  -7  -9 7551.82  126.86
  -4   7  -7 4668.36   90.03
  -4   7  -7 4481.28  107.14
   4  -7   7 4360.39   82.72
  -4   3 -14 2455.50   60.37
  -3   6 -14  229.87   26.30
  -4   3 -14 2528.85   57.69
  -2  -3 -15 3466.32   74.22
   2   3  15 3474.58   96.81
   2   3  15 3330.88   80.43
  -3   6 -14  250.71   25.11
  -3  -7  10  700.40   16.12
   3   7 -10  703.07   48.02
   3   7 -10  703.38   17.53
  -6   2  -1  270.00   19.80
  -6   2  -1  283.57   31.15
  -6   2  -1  262.31   18.36
  -3  -7  10  736.81   34.87
  -4  -6   0  179.82   16.41
   1  -1 -19  223.23   20.75
  -4  -6   0  232.72   28.12
   4   6   0  207.16   15.91
   4   6   0  207.68   24.41
  -5  -4   8  915.14   55.65
  -1   1  19  229.65   19.75
  -4  -1  16  337.76   27.97
  -5   4  -9  618.49   31.70
  -5   4  -9  662.92   33.55
   0   3  17   67.05   37.19
   0  -3 -17   46.18   20.73
   4  -1  14  530.70   34.92
  -4   1 -14  572.53   55.67
   0   3  17   64.77   34.85
   4  -1  14  574.37   14.27
  -3  -3 -13  396.85   31.51
   3   3  13  403.95   32.00
   3   3  13  377.25   22.31
   0  -9   2   -2.35   21.42
  -3   6  10   12.08   26.68
   3  -6 -10  355.50   39.17
   0   9  -2  155.34   21.39
   0   9  -2  143.45   39.71
  -3   6  10  333.40   26.01
   0  -9   2  174.89   19.95
  -5   3  10 1083.02   34.12
  -1  -2  20  613.39   29.86
   5  -3 -10  958.80   22.63
  -1   0 -19 3724.53   92.56
  -5   3  10 1091.66   27.07
  -1  -2  20  558.81   24.38
   1   2 -20  584.37   20.45
   1   0  19 3805.34   71.19
   1   0  19 3460.14   61.82
   4   5   5 1515.66   59.22
  -4  -5  -5 1627.66   47.94
   4   5   5 1539.33   39.29
  -4  -5  -5 1612.22   42.72
  -6   0  -1 1826.50   35.38
  -6   0  -1 1810.52   37.55
  -6   1  -2  327.39   21.73
  -6   1  -2  380.63   19.35
  -6   0  -1 1853.90   35.18
  -6   1  -2  381.63   21.33
  -2   4 -18    4.07   13.64
   2  -4  18    5.23    4.32
   2  -4  18    7.41    6.35
  -2   4 -18    4.62   15.25
   4  -4 -12 2035.70   52.13
  -6   2   3   -1.51    9.94
  -4   4  12 2268.45   46.80
  -6   2   3    8.99    9.67
  -6   2   3   27.26    9.64
  -1   6  12  236.72   30.77
  -1   6  12  203.10   45.36
  -5  -2  12  668.62   51.89
   1  -6 -12  211.78   41.89
  -5   3 -10 3537.56   69.23
   4  -5 -10  398.06   22.19
  -4  -3 -10 2296.46   56.54
   4   3  10 2069.40   41.77
  -5   3 -10 3372.80   71.69
   4   3  10 2067.72   51.51
  -4   5  10  487.51   27.40
   0   9  -7 3640.20   63.91
   0   9  -7 3626.77   67.53
   0  -9   7 3686.15   65.15
   0  -9   7 3753.74   68.61
  -1  -7  -8  571.29   34.21
   1   7   8  680.47   56.31
   1   7   8  630.26   35.56
   0   1  19   32.14   17.34
   0  -1 -19   50.46   29.22
  -1   9  -7    2.21   17.35
  -1   9  -7   17.69   16.14
   1  -9   7   -6.32   12.18
   1  -9   7    4.77    9.71
  -5  -3  -5 1790.17   43.07
  -5  -3  -5 1845.93   42.33
   5   3   5 1648.80   53.25
   5   3   5 1651.71   36.40
  -3   7 -12  346.58   45.34
  -3  -4  17 3923.78   92.63
  -3   7 -12  315.48   43.18
  -3   7   7  585.27   35.46
   1  -9   1  870.65   36.01
  -3   7   7  537.76   49.60
  -1   9  -1  918.82   47.17
   3  -7  -7  516.72   30.52
  -1   9  -1  883.74   41.19
  -1  -8  -410223.32  179.65
   1   8   410309.13  164.35
   1   8   410212.77  186.68
   4   4   8 2264.22   51.36
   4   4   8 2118.50   61.81
  -4  -4  -8 2344.22   54.67
  -4  -4  -8 2423.21   55.82
  -3   8   2 2167.29   46.08
   3  -8  -2 1979.42   72.01
  -3   8   2 2165.41   81.55
   0   1 -20   34.06   15.64
   0  -1  20   38.29   25.05
  -6   0   5 1879.02   30.05
   0  -5 -14   70.73   37.77
  -4   7   3   37.01   13.48
  -6   0   5 1869.88   35.14
   0   5  14   57.24   37.86
   0   3 -20 3794.38   60.79
   0   5  14   76.16   23.80
  -3   8  -8 4621.49   58.34
  -6   0   5 2017.92   57.68
  -3   8  -8 5002.53   90.98
   3  -8   8 4971.16   89.63
   4  -7  -3   24.64   17.46
  -1  -1  20 2702.06   48.41
   0   3 -20 3866.16   64.84
   0  -3  20 3678.20   57.65
  -4   7   3   -0.65   19.80
   1   1 -20 2724.53   60.95
  -6   1   5  377.52   20.53
  -6   1   5  343.93   22.11
  -6   1   5  355.25   20.34
  -6   2  -2 2399.17   36.05
  -6   2  -2 2388.16   49.11
  -6   2  -2 2379.88   60.07
  -4   0  16 6514.24  110.08
  -1   8 -13 1765.09   41.16
  -3   0  18 2518.26   58.42
  -3   0  18 2547.22   38.78
   1  -8  13 1795.77   32.19
  -1   8 -13 1704.64   42.18
  -1   8 -13 1792.76   30.55
  -1  -4 -15 1197.08   66.54
   1   4  15 1203.11   45.23
   1   4  15 1251.34   41.90
   3   0 -18 2329.30   40.86
  -5  -3  11 7000.76  140.32
   0   7 -16 1356.68   31.20
   0  -7  16 1469.01   40.46
   0   7 -16 1422.40   40.66
  -2   0 -18 3638.20   74.86
  -1  -6 -11 2356.36   84.52
   1   6  11 2427.71   61.94
  -2  -7  -612934.29  219.85
   2   0  18 3478.01   56.98
   2   7   612682.20  196.46
   2   0  18 3670.76   73.91
   2   7   612823.73  198.76
   1   6  11 2377.70   60.08
  -2   8   5 1061.67   47.30
   2  -8  -5 1028.60   41.32
  -2   8   5 1100.73   39.07
  -4  -2  16 4877.65   90.02
  -6  -1   2 4349.85   70.41
  -6  -1   2 4238.31   66.95
  -6  -1   2 4452.10   87.77
   0  -9   1  950.68   52.92
   0   9  -1  962.52   39.27
   0   9  -1  946.32   53.33
  -6  -1   3  578.96   15.53
   2   7 -14   -1.40   14.08
   2   7 -14   14.19    8.84
  -3  -7  -2 1178.53   34.94
   2   7 -14    3.20    8.34
  -6  -1   3  582.15   40.38
  -6  -1   3  615.59   23.94
  -2  -7  14    9.04   14.88
   3   7   2 1161.79   34.54
   3   7   2 1200.48   40.75
  -3  -7  -2 1238.14   47.12
  -6   2   4 2695.66   54.55
  -6   2   4 2765.49   59.04
  -6   2   4 2626.96   55.63
  -3  -6  14  471.83   30.02
   1   3 -2010613.30  150.80
  -6  -1   1  233.63   22.24
  -6  -1   1  230.01   20.62
  -1  -3  2010597.45  154.76
  -6  -1   1  277.02   30.25
   1   3 -2010869.63  158.33
   4   6  -9 1513.37   44.37
  -4   6 -11   27.92   18.97
  -4  -6   9 1663.59   69.61
  -4   6 -11   23.05   33.80
   0   6  12 2097.81   58.45
   0  -6 -12 2139.79   55.98
  -5   6  -1  114.29   12.95
  -6   0  -2  795.30   34.23
  -6   0  -2  815.73   27.37
  -6   0  -2  825.62   31.60
  -1   8   6   38.01   20.77
  -1   8   6   24.48   22.84
  -5   6  -1   90.03   15.25
   5  -6   1   67.94   19.30
   0   6  12 2183.08   58.46
  -5   6  -1  139.43   35.54
   1  -8  -6   24.01   20.08
   5  -6   2  545.40   44.18
  -5   6  -2  605.25   12.53
  -5   6  -2  615.06   32.04
  -5   6  -2  595.80   14.10
   2   8   1 5634.70  100.93
   2   8   1 5728.03   96.38
  -2  -8  -1 5821.91   94.96
  -2  -8  -1 5995.28  110.61
   0  -9   8   25.02   21.49
   0   9  -8    2.42   13.01
  -5  -4  -2 1477.82   42.56
   5   4   2 1296.93   30.91
  -5  -4  -2 1430.13   46.94
   0  -9   8    0.86   12.29
   5   4   2 1324.70   50.64
   0   9  -8    5.97   11.58
  -6   1  -3 5244.07  101.71
  -6   1  -3 5278.63   96.04
  -6   1  -3 5401.32   73.22
  -3  -5  16  486.19   44.72
  -2   7   9   79.89   41.36
   3  -2  17   83.74    9.26
  -2  -8  10   -4.79    6.72
   2   8 -10   -2.63    7.26
  -3   2 -17   73.53   23.53
  -1   4  16  688.73   33.18
  -1   4  16  621.83   38.21
  -6  -1   4 7286.43   93.85
   2   8 -10   10.37   21.22
  -6  -1   4 7598.44  115.65
  -3   2 -17   62.28   20.77
  -2   7   9  124.07   25.81
   1  -4 -16  642.64   31.97
   3  -2  17   60.00   23.63
  -2  -8  10   -0.07   15.89
  -6  -1   4 7236.62   97.06
   2  -7  -9  118.47   23.11
  -4  -6  -1 1777.04   51.81
   0   5 -19  377.78   18.11
  -4  -6  -1 1745.91   38.74
   4   6   1 1626.05   45.20
   0   5 -19  413.10   19.61
   0  -5  19  395.13   26.21
   4   6   1 1616.96   35.96
  -1   9  -8    9.56   15.36
   1  -9   8   16.94   12.64
  -1   9  -8    5.42    9.87
   1  -9   8   29.15   15.87
  -5   6   0 1640.32   63.61
   5  -6   0 1490.51   41.66
  -5   6   0 1593.68   38.60
  -4  -1 -13  148.31   42.10
   4   1  13  129.98   39.90
   4   1  13  120.68   18.81
   5   1   9 1426.05   35.42
   5   1   9 1418.36   59.95
  -5  -1  -9 1556.52   64.51
  -5   6  -3  688.42   34.70
  -5   6  -3  675.30   33.23
   5  -6   3  621.71   30.90
  -5  -4   9  217.66   26.47
   5   0  10 1313.91   61.22
  -4   7  -8  357.40   30.37
  -5   0 -10 1442.32   44.72
   5   0  10 1260.82   21.97
  -1   9   0  972.74   33.58
  -1   9   0  988.38   42.46
   1  -9   0  983.32   38.21
  -4   7  -8  340.08   31.34
  -6  -1   0 2129.88   45.04
  -6  -1   0 2076.13   49.98
  -3  -3  18  235.21   39.68
  -6  -1   0 2099.08   42.40
  -6   2  -3 3180.52   43.98
  -6   2  -3 3212.85   58.86
  -2   2  18  415.57   22.81
  -6   2  -3 3182.73   77.76
   5  -5  -6 1581.77   36.82
  -5   5   6 1697.72   58.46
   2  -2 -18  324.43   31.59
  -6   0   6 1223.28   26.14
  -6   0   6 1197.25   27.19
  -6   0   6 1250.53   34.78
  -5   0  13 1250.24   40.78
   4  -2 -15 1003.93   29.65
  -5  -1  13  261.37   26.26
  -4   2  15 1058.95   24.08
  -6   3   0 3008.89   52.03
  -6   3   0 2980.26   56.11
  -6   3   0 3065.98   69.75
  -3   3 -17  740.62   36.35
  -3   3 -17  751.68   32.87
  -3  -7  11  225.87   26.24
   3   7 -11  217.11   23.86
  -5   5  -8 1788.83   48.44
  -6   1   6   -5.45   10.00
  -6   3   1  816.37   27.08
  -5   5  -8 1788.74   51.03
  -6   1   6    5.48   18.16
  -6   1   6   -0.89   10.70
  -6   3   1  854.92   28.31
  -6   3   1  853.93   39.98
   2  -3 -17  876.36   43.17
  -2   3  17  886.30   31.86
  -2   8 -12  121.55   20.64
  -2   8 -12  117.69   22.05
  -6  -1   5   46.68   10.84
   0  -8  -6 3102.61   66.97
   0   8   6 3209.65   94.41
  -6  -1   5   64.72   17.27
  -6  -1   5   48.93   11.43
   0   8   6 3320.05   98.34
  -5   6   1 1784.74   34.28
   5  -6  -1 1674.63   43.65
   0   6 -18  732.42   33.61
  -2   9  -4    6.31   19.13
   0   6 -18  707.66   30.37
  -2   9  -4  -22.69   10.83
   0  -6  18  690.45   29.58
   2  -9   4  -13.06   17.34
  -5   6   1 1709.43   46.43
  -4   5 -13 1971.12   55.52
   2  -5 -14    1.28   21.76
  -2   5  14   35.44   19.64
  -4   5 -13 2115.00   52.75
  -6   3  -1  334.27   21.40
  -6   3  -1  334.93   22.09
  -2  -5  18  602.75   41.67
  -6   3  -1  293.71   12.15
   4   2  12  396.68   28.26
   0   9   0 3589.96   75.07
   0  -9   0 3648.28   71.28
   4   2  12  346.28   47.28
   0   9   0 3698.69   71.89
  -4  -2 -12  388.55   31.23
   0   4  16 5258.26  122.95
   0   4  16 5403.53   99.10
  -1   7 -16  278.82   21.31
   0  -4 -16 5342.17   97.35
   1  -7  16  397.13   13.82
  -6   2   5 5610.59   88.74
  -2   9  -3   55.64   13.57
   2  -9   3   75.48   34.79
  -6   2   5 5861.69  100.71
  -5   6  -4 2376.93   81.87
  -6   2   5 5566.42   80.07
  -2   9  -3   60.61   36.80
  -4   4 -14  832.40   38.95
  -5   6  -4 2494.62   80.60
  -1   7 -16  313.64   35.40
  -4   4 -14  896.70   36.42
   2   5  12  794.36   53.21
   2   5  12  790.79   39.72
  -2  -5 -12  851.46   40.67
  -3   2  17  129.49   23.23
  -3   8   3 1425.06   49.39
   3  -8  -3 1258.85   42.68
   3  -2 -17  109.32   13.35
  -3   8   3 1407.60   54.99
  -1  -8  13 1902.98   43.34
   1   8 -13 1801.58   43.52
   1   8 -13 1677.20   43.41
   1   8 -13 1873.11   53.30
  -6   3   2   93.70   24.70
  -3   8  -9    4.31   29.97
  -3   8  -9  -16.57   18.67
  -4   3  14 1150.70   40.16
  -6   3   2  101.42   15.18
   4  -3 -14 1013.77   25.15
   3  -8   9    8.77   28.01
  -6   3   2  113.17   18.73
   2  -9   5  195.56   24.96
  -2   9  -5  212.75   27.79
  -2   9  -5  210.39   15.29
  -4   7   4   18.56   23.87
   4   0  14  902.10   25.44
  -4   0 -14  795.97   39.88
  -4   7   4   28.37   19.84
   4   0  14  975.56   39.89
   4  -7  -4    7.36   25.55
   3  -1  17 3952.85   60.86
  -3   1 -17 4109.40   82.80
   3  -1  17 4226.94   82.81
  -4  -5  13 1795.27   50.12
  -4   6   8 2123.39   72.87
   4  -6  -8 1812.49   43.79
  -2  -4  19  368.69   37.07
   2   4 -19  359.55   12.53
  -6   0  -3    6.64   11.08
  -6   0  -3   20.30   21.40
  -6   0  -3   15.03    9.67
  -6  -1  -1   60.28   23.71
  -6  -1  -1  101.97   22.43
  -6  -1  -1   83.38   19.44
  -5   2  12 2658.94   50.24
   3  -3 -16 2932.47   51.68
   1   5 -19  354.23   14.71
   1   5 -19  320.59   12.93
  -5   2  12 2594.10   56.32
   5  -2 -12 2475.30   43.48
  -1  -5  19  377.95   20.19
  -3   3  16 3250.94   73.07
   2  -6 -12  -10.49   26.84
   0   9  -9 1485.36   38.09
  -2   6  12    4.29   19.37
  -2   6  12    5.72   17.79
   0   9  -9 1450.77   34.70
   2  -9   2  -10.32   17.55
   0  -9   9 1526.63   38.32
   0  -9   9 1422.59   34.99
   1   0 -20   28.62   22.37
  -1   0  20   11.79   12.39
  -2   9  -2    7.66   10.63
  -2   9  -2   -9.63   16.99
  -5   2 -11  508.62   31.01
  -5   4   9 2642.87   51.06
   5  -4  -9 2397.16   43.42
  -5   2 -11  522.84   33.62
   1   9  -5 2329.05   71.18
   1   9  -5 2168.28   65.39
  -1  -9   5 2422.59   76.87
  -1  -9   5 2211.98   45.50
   1   7 -16   18.27   13.30
  -1  -7  16   25.63   22.08
   1   7 -16   20.93    8.62
  -6   3  -2 2167.16   48.87
  -1  -9   4  492.35   37.70
  -1  -9   4  500.49   33.27
   1   9  -4  461.94   27.06
   1   9  -4  467.03   29.07
  -6   3  -2 2249.97   47.65
  -6   3  -2 2223.67   32.53
   2   4  14  770.13   33.16
  -2  -4 -14  739.62   62.02
   2   4  14  850.96   60.86
   0   0  20  940.61   47.84
   0   0 -20  947.23   47.84
   1  -2  20 1478.92   41.73
  -1   2 -20 1325.86   40.33
  -3   5 -16  238.39   25.06
  -3   5 -16  257.51   43.38
  -1   9  -9 4832.43   72.98
  -6   1  -4  556.77   27.69
  -6   1  -4  584.72   23.26
  -1   9  -9 5065.01  106.17
   1  -9   9 5048.10   91.68
   1  -9   9 4881.41   84.18
  -6   1  -4  572.16   24.91
  -5   4 -10   33.39   33.99
  -4  -6  10    7.84   18.27
   2  -9   6 5120.81  111.05
  -2   9  -6 5165.08   76.04
   4   6 -10  -18.45   17.94
  -5   4 -10   44.11   31.52
  -2   9  -6 5323.26   95.96
   4  -1 -16 1277.77   21.84
  -4   1  16 1295.70   43.80
   0   8 -14  286.56   16.99
  -2   7 -15  579.91   28.30
  -4   1  16 1332.58   31.02
   0  -8  14  265.61   17.72
   0   8 -14  295.63   28.54
   0   8 -14  325.45   30.18
  -2   7 -15  552.36   29.82
  -2   1  1910154.57  147.08
   2  -1 -19 9516.62  149.29
  -1  -9   6    2.89   11.49
   1   9  -6    1.54   12.11
   1   9  -6   -6.55   13.41
  -1   7  10 3414.60   76.07
  -1  -9   6   15.97   16.57
   1  -7 -10 3105.63   67.99
   0  -4  20 2857.87   47.54
   0   4 -20 2848.72   48.73
  -1   7  10 3391.44   76.03
   0   4 -20 2958.54   52.24
  -3  -6  -7   51.52   21.35
   3   6   7   75.42   34.49
   3   6   7   52.16   20.35
  -6   3   3  446.82   25.81
   5   2   8   97.72   21.64
  -5  -2  -8  132.21   22.52
  -4  -5  -6 8601.43  136.70
  -4  -5  -6 8881.61  145.02
   4   5   6 7708.40  121.81
  -6   3   3  399.10   19.67
   5  -6  -2 1010.66   34.22
  -5  -2  -8  116.66   26.85
  -6   3   3  447.62   31.28
   5   2   8  126.54   20.24
   4   5   6 7798.81  122.41
  -5   6   2    1.19    8.86
   1  -9  -1 5573.82   97.75
  -1   9   1 5704.24   97.26
  -1   9   1 5702.26  132.33
   5   3   6  220.45   28.87
  -5  -3  -6  244.60   22.11
  -5  -3  -6  292.38   23.79
  -6   2  -4  173.50   22.03
  -6   2  -4  186.15   20.25
  -6   2  -4  178.27    9.48
   5   3   6  259.58   33.37
  -1  -9   3 8257.10  143.05
  -3  -7  -3 1636.85   78.41
   3   7   3 1543.28   57.63
   3   7   3 1546.17   67.19
   1   9  -3 8301.60  135.11
  -3  -7  -3 1590.84   58.18
  -1  -9   3 8464.40  166.60
   1   9  -3 8370.58  150.11
  -6  -1   6  633.61   44.59
   2  -2  19   86.90   22.40
   5   4   3 2964.09   56.75
  -2  -8  -2  177.86   49.83
   2  -2  19   99.64   17.43
  -2  -8  -2  124.83   34.99
  -5  -4  -3 3462.38   86.99
  -2   2 -19   86.10   36.37
   2   8   2  113.35   21.97
   5   4   3 3076.31   67.33
  -5  -4  -3 3399.68   61.09
   2   8   2  130.77   41.01
  -3   5  13 3821.84   73.55
   3  -5 -13 3286.80   62.56
  -4  -6  -2  941.48   61.96
  -5   6  -5 5284.03   96.45
  -4  -6  -2  898.92   29.98
   4   6   2  808.18   34.87
  -5   6  -5 5222.75   98.06
   4   6   2  865.38   27.62
  -5   1 -11  298.67   25.75
  -1  -2 -18   25.11   20.35
  -1  -8  -5  805.10   36.92
   1   2  18    7.01   17.02
   1   8   5  793.96   37.61
   1   2  18   33.03   19.29
  -5   1 -11  130.99   45.36
   1   8   5  733.86   59.67
  -6   0   7 3043.10   76.42
  -2  -8  11 4401.84   60.14
   2   8 -11 4477.44   80.28
  -4  -3  16  672.45   34.96
   2   8 -11 4435.14   63.11
  -2  -8  11 4582.32   83.61
  -2   9  -1   -7.58   12.79
   2  -9   1    9.37   27.88
  -2   9  -1  -34.95   32.32
  -5   1  13  416.34   28.16
  -4  -4  15   -9.44   17.50
  -3  -4 -1211699.55  211.94
   3   4  1211121.69  200.92
   3   4  1210790.63  181.66
  -1   3 -20   30.36   24.21
   1  -3  20  -10.78   16.73
  -1   3 -20   47.17   27.44
   1  -3  20   48.17    9.16
  -5  -2  13 3345.10   69.15
  -5   3  11 1515.34   43.36
   5  -3 -11 1389.53   36.89
   3   1  16 1648.76   45.43
   3   1  16 1787.49   74.50
  -3  -1 -16 1672.05   74.54
   3   2  15 1505.63   49.08
  -3  -2 -15 1512.09   50.72
   3   2  15 1510.98   34.82
  -5  -4  10 1794.15   70.92
  -3   1  18 2541.12   42.69
   3  -1 -18 2167.04   36.37
  -5  -3  12   11.75   18.43
   1   9  -7  371.35   35.79
  -1  -9   7  446.84   29.25
   1   9  -7  428.64   26.25
  -1  -9   7  418.13   21.18
  -5   3 -11 1459.11   43.59
  -5   3 -11 1413.49   68.52
   2  -3  19 2276.01   34.55
   1   6 -18  231.38   12.98
  -2   3 -19 2262.67   54.72
  -4   7  -9  951.06   59.88
  -1  -6  18  237.19   28.48
   1   6 -18  236.22   18.01
   2  -3  19 2252.60   37.76
  -4   7  -9 1046.16   62.59
  -2   3 -19 2211.23   49.89
   2  -8  -6 8641.37  142.46
  -6   3  -3  199.66   34.85
  -6   3  -3  220.94   20.76
  -2   8   6 9365.41  187.71
  -6   1   7 6123.78   80.06
  -3   7   8 7199.54  122.49
  -3   7 -13    7.12   18.16
   3  -7  -8 6432.43  130.22
  -6   1   7 6437.55  100.97
  -3   7 -13   35.84   19.07
  -6   1   7 6063.23   86.79
  -3   7   8 7162.53  127.25
  -1   5 -19 4179.28   70.37
   1  -5  19 4318.43   66.14
  -1   5 -19 4202.88   74.50
  -6   2   6 1129.41   25.34
  -6   2   6 1162.38   31.11
  -6   2   6 1152.77   34.47
  -2  -2  20   91.66   19.36
   0   9   1  976.02   41.13
   0   9   1  908.19   56.38
   2   2 -20  121.46   10.76
   2   2 -20  124.19    9.09
   0  -9  -1  924.92   37.19
  -2  -2  20  123.98   10.32
  -6  -1  -2  112.61   13.72
   1   4 -20  613.74   24.10
   1   4 -20  603.74   27.74
  -6  -1  -2  101.52   25.45
  -6  -1  -2  129.38   25.36
  -1  -4  20  639.11   24.64
  -2   9  -7  273.64   22.18
  -2   9  -7  224.32   27.54
   2  -9   7  259.51   41.40
   1   9  -2   54.00   18.90
   1   9  -2    6.64   33.62
  -1  -9   2   44.12   22.89
  -1  -9   2   30.55   17.06
   1  -1  20  276.09   25.02
  -1   1 -20  173.57   36.95
  -4   2 -15 6113.28  110.51
   3   5  10  335.99   26.06
  -4   2 -15 6074.13  105.78
  -3  -5 -10  321.75   31.51
   3   5  10  391.56   48.89
  -3   6 -15 2580.89   58.31
  -1   8 -14    4.39   20.61
   1  -8  14   16.86   13.82
  -3   6 -15 2481.65   79.78
  -2   5 -18 1878.28   62.03
  -2   5 -18 1833.44   47.70
  -1   8 -14    6.49   13.23
  -2  -6 -10 4280.97  111.90
   2  -4 -16   68.00   29.12
   2   6  10 4224.77  106.11
  -2   4  16   91.76   33.16
   2   6  10 4197.72   84.79
  -1   6 -18 7073.45  108.03
   2   1 -20  125.01   12.58
  -2  -1  20  105.93   19.74
   1  -6  18 7190.11  100.76
  -2  -1  20   55.10   17.40
  -1   6 -18 6980.27  124.57
  -2  -6  17 1924.38   44.55
  -3   4 -17  206.28   24.54
  -3   4 -17  231.75   43.53
   4  -5 -11    8.64   12.49
  -4   5  11   -4.77   14.03
   0   7  10  387.99   52.65
   0  -7 -10  330.70   30.87
   0   7  10  291.42   32.44
   1   1  19  988.10   38.59
   3  -6 -11 1813.58   45.87
   1   3  17  541.29   34.28
   1   3  17  503.89   29.99
  -1  -1 -19  784.46   36.77
  -1  -3 -17  530.28   54.44
  -6   3   4  975.44   37.61
  -6   3   4 1076.62   39.30
  -3   6  11 2169.48   54.50
   1   1  19 1000.58   34.15
  -6   3   4 1075.08   26.43
   5  -5  -7  774.68   40.01
  -5   5   7  821.31   47.03
  -2  -7  -7 1374.40   45.61
  -1  -7  -9 1801.15   51.94
   1   7   9 1788.89   54.36
   2   7   7 1352.56   67.71
   2   7   7 1415.98   47.10
   1   7   9 1758.15   76.69
  -4  -4  -9 2331.15   56.45
   4   4   9 2102.34   45.70
  -3  -7  12  837.62   55.43
  -6   0  -4 1492.56   39.66
   3   7 -12  758.99   33.22
   4   4   9 2073.54   52.64
  -6   0  -4 1475.93   34.93
  -6   0  -4 1458.97   29.66
   0   9 -10   27.49   13.95
  -2   1 -19 1120.21   41.41
   2  -1  19 1177.25   60.88
   0  -9  10   36.36   24.06
   2  -1  19 1172.91   37.54
   0  -9  10   32.52   13.84
   0   9 -10   15.96   12.47
  -4   6 -12  839.64   39.77
  -4   6 -12  895.82   37.48
   5  -6  -3  661.28   29.66
  -5   6   3  802.27   34.08
   5   5  -4   46.02   19.44
  -5  -5   4   44.37   36.72
   5   5  -4   31.33    6.82
  -2  -7  15  794.50   48.33
  -5  -5   4   47.05   11.82
   3  -8  -4 2924.84   85.75
  -3   8   4 3144.05   73.84
  -3   8   4 3168.77   63.23
  -6  -2   3  283.98   22.44
  -6  -2   3  248.27   18.29
  -2   6 -17 2664.04   54.77
  -6  -2   3  247.57   10.87
  -2   6 -17 2510.27   57.26
  -5   5  -9    9.14   30.77
  -5   5  -9   13.66   29.15
  -2   9   0  908.31   45.42
  -2   9   0  893.11   42.31
   2  -9   0  802.31   36.33
   1  -8  -7  706.40   55.87
   4  -4 -13  516.53   21.69
  -1   8   7  703.85   61.66
   2   2  17   74.41   24.23
  -2  -2 -17   63.55   23.84
   2   2  17   50.51   27.19
  -1   8   7  843.89   59.42
  -4   4  13  574.23   24.61
  -6  -2   2  819.52   30.74
   4   3  11  511.65   34.91
  -3   8 -10   25.91   21.04
  -6  -2   2  785.61   18.43
  -4  -3 -11  588.84   54.49
   4   3  11  557.25   33.14
  -6  -2   2  834.38   19.99
  -3   8 -10   31.42   20.18
   3  -8  10   32.91   19.86
  -4   3 -15  397.46   33.91
  -5  -5   3 1768.04   29.64
  -4   3 -15  433.07   31.23
   5   5  -3 1671.52   27.95
   5   5  -3 1579.84   64.55
  -5  -5   3 1781.88   51.55
   1   9  -8 1478.60   36.35
  -1  -9   8 1470.88   43.33
  -1  -9   8 1465.76   33.39
   1   9  -8 1473.94   39.90
  -6  -1   7 4981.53   87.06
  -5   6  -6 1760.70   51.85
  -3  -6  15 2588.10   79.09
  -3   4  15 2004.39   46.84
   3  -4 -15 1729.02   53.70
  -5   6  -6 1688.59   71.07
  -5  -5   5 7504.36  125.81
   5   5  -5 6664.80  110.10
  -4   7   5 2125.34   56.72
   4  -7  -5 1970.72   49.11
  -4   7   5 2194.71   49.67
  -6  -2   4   -0.03    4.68
   1  -9  10 1993.43   40.08
   1  -9  10 2007.15   64.52
  -1   9 -10 1868.21   35.33
  -6  -2   4   -1.95    5.08
  -6  -2   4   -1.04   12.64
  -1   9 -10 1950.32   47.50
  -6   1  -5 2746.14   47.69
  -6   1  -5 2763.33   53.49
  -6   1  -5 2788.49   58.15
  -4  -1  17  866.29   58.64
  -6   2  -5 9148.77  143.94
  -6   2  -5 9493.31  161.10
  -1  -9   1 4056.79   74.67
   1   9  -1 4066.83   97.19
   1   9  -1 4127.76   80.78
  -1  -9   1 4218.67  113.71
  -1  -5 -14   -8.35   20.04
  -1   9   2  804.35   52.30
   1   5  14   18.67   18.47
  -6  -2   1 1813.56   43.37
   6   2  -1 1571.49   37.24
  -6  -2   1 1723.96   38.56
  -1   9   2  829.83   44.06
  -6  -2   1 1700.97   57.94
   1   5  14  -10.63   16.66
   1  -9  -2  783.80   37.65
   2   1  18  751.97   58.79
   2   1  18  828.04   27.95
  -4   1 -15  246.61   31.29
   4  -1  15  348.32   31.87
  -6   3  -4 1048.70   35.81
  -2  -1 -18  903.25   40.63
  -6   3  -4 1028.30   33.71
   5   5  -2 3288.08   56.73
  -5  -5   2 3575.56   74.01
  -5  -5   2 3466.76   52.22
   5   5  -2 3195.88   65.54
  -3  -1  19 1031.93   38.24
   4   6 -11  818.16   36.13
  -4  -6  11  841.09   60.60
   0   7 -17  104.62   13.45
   0  -7  17  112.36   12.97
  -2   9  -8  137.89   11.30
  -2   8 -13   40.12   29.90
  -2   9  -8   95.14   23.45
  -2   8 -13   33.10   17.21
   2  -9   8   79.78   21.23
   0   7 -17  111.21   14.60
  -1   2  19 3446.43   82.86
  -1   5  15 1142.95   42.74
  -1   5  15 1093.36   46.37
   1  -2 -19 3145.01   62.73
   1  -5 -15 1031.63   39.48
   3   0  17  482.26   32.72
  -3   0 -17  412.49   33.13
   3   0  17  440.68   24.89
   1  -6 -13 3104.74   68.01
  -5  -5   6 1175.38   44.52
  -2  -3  20   -1.16   20.03
   2   3 -20   11.42    8.67
  -1   6  13 3221.29   75.95
   2   3 -20   13.50   10.54
   5   5  -6 1154.38   40.51
  -1   6  13 3414.75   74.71
  -3  -3 -14  613.69   36.81
   3   3  14  540.40   39.05
  -6   0   8  102.53   20.02
   3   3  14  595.60   36.59
  -3  -4  18 1672.86   46.16
  -3  -2  19 6614.35  111.35
  -6  -2   5  637.68   45.15
   5   1  10 2832.60   43.73
   5   1  10 2998.56   62.98
  -5  -1 -10 3060.26   88.99
   1   8 -14 1789.15   54.82
  -2   7  10   67.05   23.51
  -6  -1  -3 1237.14   33.88
  -1  -8  14 1856.71   43.04
   1   8 -14 1633.51   32.95
  -1   3  18  206.53   24.58
   1   8 -14 1764.21   33.44
   1  -3 -18  210.55   24.25
  -6  -1  -3 1181.12   41.02
  -2   7  10   31.66   24.41
   2  -7 -10   44.41   20.89
   6   1   3 1067.96   26.37
  -6  -1  -3 1258.20   42.82
  -4  -6  -3 2533.60   87.50
  -4  -6  -3 2579.59   70.78
   4   6   3 2380.54   48.76
   4   6   3 2264.84   75.23
  -6   3   5   28.38   17.95
  -5  -4  -4   17.25   14.82
   2   8   3 7127.96  123.99
  -6   3   5    8.64   10.88
  -6   3   5    7.60   10.47
  -5  -4  -4   35.76   29.18
   2   8   3 7056.15  139.06
   5   4   4    7.00   19.78
  -2  -8  -3 7543.79  135.80
  -2  -8  -3 7487.12  121.77
   5   4   4    8.00   22.23
   0   8   7  313.82   31.48
   0   8   7  310.92   33.42
   0  -8  -7  301.78   29.66
  -5   0 -11 3223.51   70.85
   5   0  11 3074.45   48.17
   5   0  11 3000.74   87.91
  -4  -2  17  392.97   30.89
  -1   4 -20  138.06   20.30
   2   3  16 2105.48   66.98
  -2  -3 -16 2062.69   59.04
   1   6  12  630.36   38.66
   1  -4  20  156.16   10.92
   1   6  12  525.10   36.02
  -1   4 -20  154.44   27.92
  -1  -6 -12  651.03   38.16
   2   3  16 2215.03   58.87
  -6   2   7   12.38   24.70
  -6   2   7   70.51   10.45
  -5  -1  14 2034.46   73.27
  -6   2   7   41.57   17.06
  -6  -2   0   55.13   28.22
  -2  -8  12  214.43   16.76
  -2  -8  12  302.37   40.29
  -6  -2   0   76.73   11.06
   2   8 -12  211.34   22.21
   2   8 -12  205.95   19.69
   6   2   0   50.75   14.50
  -6  -2   0   79.91   20.44
  -4  -5  14  406.72   31.42
  -4   0  17  151.08   25.16
  -3  -5  17   -8.11   16.54
  -6   1   8 1111.55   21.34
   0   9   2 1609.00   47.69
  -6   1   8 1201.56   51.14
   0  -9  -2 1559.10   46.77
   0   9   2 1680.83   52.07
   3   7   4  728.15   31.60
  -3  -7  -4  715.04   32.15
   0  -2 -19  -11.09   17.86
  -6   1   8 1100.02   20.93
   3   7   4  685.54   35.42
   0   2  19   14.60   25.09
   0   2  19   -1.57   16.45
  -3  -7  -4  762.32   41.58
  -2   4 -19 1495.08   44.96
  -2   4 -19 1568.35   58.25
  -5   0  14 2187.24   54.89
  -5  -5   1   80.18   38.11
  -5  -5   1   75.38   12.49
   5   5  -1   56.24   31.99
   5   5  -1   52.56   16.95
  -1  -9   9  185.17   15.73
   1   9  -9  176.04   32.50
  -1  -9   9  173.41   23.43
   1   9  -9  133.77   27.49
  -2   9   1   22.82   16.36
   2  -9  -1   34.54   33.88
  -2   9   1   34.22   24.07
   4  -6  -9  302.04   37.11
  -4   6   9  254.86   42.63
   2   0 -20 3143.64   52.41
  -2   0  20 3243.17   53.44
  -5  -4  11 1396.82   46.28
  -5   4  10  669.39   25.46
  -6   4   0   57.71   17.75
   5  -4 -10  553.52   21.13
  -6   4   0   53.31    9.29
  -6   4   0   82.41   17.23
   5   5  -7 4791.76   87.19
  -5  -5   7 5266.62  123.15
  -5   6   4  344.62   43.26
   5  -6  -4  234.48   22.24
  -4   7 -10    8.87   19.77
  -4   7 -10   16.59   18.94
  -6   4  -1 1475.88   39.90
  -6   4  -1 1455.82   40.09
  -6   4  -1 1455.35   30.77
   0   5  15 5408.76  102.30
   0   5  15 5587.96  104.31
   0  -5 -15 5521.67  127.00
   0   2 -21    3.09   11.83
   0  -2  21    2.75   10.47
   0  -2  21   12.78   19.63
  -4   5 -14   59.66   23.04
  -6  -2   6  162.81   22.70
  -4   5 -14   37.89   35.02
  -6   4   1 3524.21   64.16
  -6   4   1 3439.15   50.76
  -6   4   1 3437.30   64.36
   0   3  18 1656.52   74.22
   0   3  18 1808.43   49.76
   0  -3 -18 1712.01   49.87
   5   3   7  868.32   27.18
   0   6  13  688.76   39.69
  -5  -3  -7  911.64   32.48
   5   3   7  830.90   32.08
   0  -6 -13  634.64   57.16
  -5   4 -11 2211.87   76.61
  -5   4 -11 2131.68   59.68
   0   6  13  679.18   39.81
  -5  -3  -7  942.03   35.89
  -5   6  -7 1693.19   74.54
  -1  -9   0 3320.33   77.43
   1   9   0 3174.62   93.80
  -5   6  -7 1769.66   50.11
  -1  -9   0 3270.59   83.10
   1   9   0 3212.54   67.03
  -6  -1   8   11.85   16.16
   0  -9  11  396.09   21.76
   0  -9  11  452.02   22.97
   0   9 -11  369.25   22.43
   0   9 -11  407.19   20.63
  -1  -2  21  323.27   22.15
  -6   0  -5 1210.15   35.71
  -1  -2  21  411.81   18.49
   4   5   7   64.07   19.12
  -6   0  -5 1289.21   37.63
  -6   0  -5 1260.33   33.64
   4   5   7   59.01   18.83
  -4  -5  -7   87.19   23.51
   1   2 -21  370.87   28.29
  -4  -5  -7   57.97   22.07
  -1   1  20   -3.55   20.16
   1  -1 -20   -3.65   13.15
   0  -8  15 5128.10   91.41
   0   8 -15 4782.65   90.05
   0   8 -15 4987.28   78.11
   4   1  14   48.79   22.64
   4   1  14   46.29   16.97
   1   8   6 3359.95   75.31
  -1  -8  -6 3316.78   71.82
   1   8   6 3289.10   73.26
  -4  -1 -14   85.89   25.83
  -3   0  19 2986.62   53.08
   3   0 -19 2495.16   44.51
  -3   0  19 3113.55   66.91
   1   0  20  624.59   49.57
  -6   4  -2  469.21   41.44
  -6   4  -2  443.26   27.76
  -1   0 -20  642.87   33.90
   1   0  20  635.19   27.56
  -6   3  -5  532.46   28.30
  -1  -4 -16  108.74   26.75
   1   4  16  137.72   27.56
   1   4  16  118.11   24.60
  -6   3  -5  471.98   46.68
  -5   2  13  162.26   11.96
   5  -2 -13  155.86    9.91
  -5   2  13  167.16   37.01
  -5   2 -12   80.11   40.86
  -3  -8   5 1118.06   66.65
   3   8  -5  913.69   38.65
   3   8  -5  839.42   33.35
  -5   2 -12   89.07   23.03
  -3  -8   5  927.39   23.57
  -2   9  -9  579.00   23.87
  -1   7 -17 5117.60   96.66
   2  -9   9  551.48   31.41
  -1   7 -17 5013.83  100.47
  -2   9  -9  628.03   32.43
   1  -7  17 5304.90   79.38
  -5  -2  -9 2327.65   56.80
   5   2   9 2104.47   51.52
   5   2   9 2113.65   39.51
  -3  -8   4   77.55   12.57
   3   8  -4   85.32   22.98
   3   8  -4   51.93   20.59
  -3  -8   4   94.05   27.31
  -3  -6  -8  816.65   37.88
   3   6   8  749.36   35.34
  -4   4 -15   31.42   20.60
  -5  -3  13 1188.13   43.01
  -4   4 -15   41.66   36.60
   4  -8   3 1523.10   47.07
  -6  -2  -1  983.92   24.66
   6   2   1  895.51   27.17
   3   6   8  764.28   36.81
  -6   4   2 1264.11   26.39
  -4   8  -3 1511.59   49.31
  -6  -2  -1  954.96   27.28
  -6  -2  -1 1007.84   47.26
  -6   4   2 1357.72   50.99
  -4   8  -3 1563.58   27.69
  -6   4   2 1272.64   35.30
   4  -8   2 1404.56   65.99
  -4   8  -2 1519.17   38.18
  -4   8  -2 1510.58   50.23
  -1   9 -11 1017.63   34.87
   1  -9  11 1035.45   37.32
   0  -3  21  659.44   32.20
  -1   9 -11  969.31   33.52
   1  -9  11  995.87   49.61
   0   3 -21  695.81   39.14
   0   3 -21  662.82   23.39
   0  -1 -20   -1.32   13.79
   0   1  20   72.73   20.23
  -4   2  16 1069.02   25.34
  -3  -8   6 1247.58   26.09
   3   8  -6 1177.07   26.59
   3   8  -6 1279.46   62.43
   4  -2 -16  975.78   22.34
  -3  -8   6 1364.48   48.07
  -3   8   5 3840.63   95.05
   5   5   0 1732.60   45.35
  -5  -5   0 1992.16   50.56
  -5  -5   0 1941.37   54.25
   3  -8  -5 3453.29   74.08
  -3   8   5 3871.34  112.91
   5   5   0 1714.77   44.48
  -2   8   7 1212.17   44.96
   2  -8  -7 1083.30   42.85
  -2   8   7 1222.50   50.09
  -6   2  -6  321.81   26.38
  -5   5   8 3235.51   80.12
   5  -5  -8 2791.22   52.81
  -6   2  -6  271.56   23.95
  -3   8 -11 2411.32   58.70
  -3  -3  19 1358.65   61.68
  -1  -7  17  335.69   20.68
   1   7 -17  288.52   14.25
  -3   8 -11 2545.31   61.74
   1   7 -17  290.62   20.28
   4  -8   4  372.45   49.13
  -4  -2 -13 5092.04   96.40
   3   7 -13 2999.64   64.02
   4   2  13 4803.37   74.16
  -4   8  -4  410.39   33.53
  -3  -7  13 3018.25   65.60
   4   2  13 4896.29  116.81
  -6   1  -6   -2.27   12.33
  -1  -1  21   -5.44   17.19
   1   1 -21   -2.24   10.56
  -6   1  -6   17.07   23.02
   2   0  19   20.91   18.72
  -2   0 -19    1.29   25.98
   0   5 -20 1736.64   37.77
   0   5 -20 1672.32   44.99
   0  -5  20 1733.41   44.48
   0   1 -21 1772.40   59.43
   0  -1  21 1824.79   42.97
   2   0  19    7.57   11.43
  -1   9   3 2074.01   86.81
  -3   2 -18 5600.09   98.26
  -1   9   3 2072.64   53.36
  -3   2 -18 5387.65  102.40
   3  -2  18 5799.85  106.98
  -3  -8   3   17.47   33.49
   3   8  -3    6.12   28.17
   3   8  -3    4.14   10.25
  -3  -8   3   -9.52   10.21
  -5  -2  14   11.00   18.59
  -2   7 -16 1335.35   41.61
  -2   7 -16 1379.97   39.64
  -4   7   6  159.33   22.64
   4  -7  -6  154.69   38.31
  -4   7   6  177.77   45.27
   5   5  -8  100.57   38.29
  -5  -5   8  341.37   31.75
  -6   3   6 1139.11   38.86
  -6   3   6 1160.80   29.45
  -4   8  -1  101.88   43.92
  -4   8  -1  128.21   20.99
   4  -8   1  145.72   24.78
  -6   3   6 1198.89   43.17
   4  -3 -15  180.42   14.67
  -4   3  15  171.43   26.10
   0   6 -19  250.13   24.10
   0   6 -19  242.88   26.88
   5  -3 -12   83.30   11.27
   0  -6  19  237.44   15.26
  -5   3  12   91.47   21.95
  -5   5 -10 3364.49   71.74
  -5   5 -10 3356.76   73.67
  -2  -5  19   11.18   23.30
   1   3 -21 1910.08   43.34
  -6  -1  -4 3462.19   65.57
   6   1   4 3200.47   62.07
  -3   7 -14 1212.45   42.93
  -6  -1  -4 3500.75   58.34
  -6   4  -3  148.71   22.77
  -1  -3  21 1909.76   43.71
  -6   4  -3  154.51   21.58
   1   3 -21 1901.94   37.30
  -6  -1  -4 3477.63   59.07
  -3   7 -14 1266.17   40.94
  -3   7   9  549.29   35.49
  -1   4  17 3133.44   90.31
   3  -7  -9  436.12   29.55
  -1   4  17 3141.44   74.19
   1  -4 -17 3047.59   64.69
  -3   7   9  485.05   34.98
  -2  -5 -13 2743.20   68.48
   2   5  13 2786.58   62.15
   2   5  13 2690.58   93.09
  -5   1 -12  208.38   26.19
  -5   1 -12  216.33   29.12
  -6   0   9  311.74   39.57
  -5   3 -12  234.29   30.03
   3   8  -7 1337.98   27.23
  -5   3 -12  242.52   43.13
  -6  -2   7  122.31   21.72
  -1  -9  10 1096.22   37.26
   1   9 -10 1214.53   31.65
  -3  -8   7 1618.30   74.78
  -3  -8   7 1506.23   35.02
   3   8  -7 1411.22   44.84
  -1  -9  10 1123.72   27.40
  -5   1  14  585.82   32.21
  -4  -6  12  321.52   33.57
  -1   7  11  414.88   56.67
  -1   7  11  454.92   34.99
  -3   3 -18  501.24   53.19
  -4  -4  16 1557.04   68.96
  -3   3 -18  549.52   31.99
   1  -7 -11  434.70   49.85
  -2   6  13 1483.09   47.96
   2  -6 -13 1273.00   60.22
  -2   6  13 1410.55   52.73
  -2   5  15  543.27   42.55
   2  -5 -15  491.44   29.01
  -2   5  15  -23.47   31.25
  -1   8 -15 1469.54   39.23
   1  -8  15 1610.48   29.79
  -1   8 -15 1506.44   37.90
   4   0  15 3861.18   53.12
   4   0  15 3910.80   80.40
  -4   0 -15 4075.29  110.41
   4  -8   5 2951.18   67.19
  -2   9   2 2754.75  101.78
  -2   9   2 2810.91   76.86
   2  -9  -2 2510.96   61.25
  -4   8  -5 2941.20   70.63
  -6   4   3  102.58   13.27
  -6   4   3  112.79   28.80
  -6   4   3  102.86   17.57
  -3   5 -17 2137.18   55.85
  -3   5 -17 2177.38   53.00
  -3  -8   2  872.15   26.70
   3   8  -2  896.12   38.28
  -6   2   8  960.42   22.12
  -6   2   8  982.43   22.95
  -3  -8   2  801.89   44.07
   3   8  -2  809.11   27.97
  -4   6 -13   18.59   31.71
  -4   6 -13   15.29   20.92
   4  -8   0  675.23   52.86
   4   6   4  581.01   31.60
   4   6   4  491.20   26.49
  -4  -6  -4  523.14   36.58
  -4   8   0  674.99   38.02
  -4   8   0  735.01   33.72
  -2   2  19  386.71   22.98
  -4  -3  17 3252.73   69.99
  -4  -6  -4  554.14   28.79
   2  -2 -19  323.28   32.82
   5  -6  -5 3026.55   59.69
  -5   6   5 3519.60   89.87
   0   9   3  331.02   49.90
   0   9   3  217.07   45.99
  -1  -9  -1  299.04   26.30
   1   9   1  320.63   30.70
   1   9   1  373.08   45.35
   2   7   8 2072.72   56.93
  -2  -7  -8 2152.70   57.02
  -4  -7   5   22.58   23.95
  -4  -7   5   30.32   13.23
   2   7   8 2006.03   56.53
   4   7  -5   27.00   14.04
   4   7  -5   47.99   34.55
  -4  -7   4   51.21   10.23
  -4  -7   4   75.89   26.10
   4   7  -4   41.19   16.56
   4   7  -4   72.14   22.00
   3  -2 -18 2894.58   49.45
   5   4   5 5587.57   91.74
  -2   3  18 2333.25   51.96
   2  -3 -18 2107.03   62.49
  -3   2  18 3358.95   70.07
  -5  -4  -5 6260.72  125.30
  -5  -4  -5 6201.86  102.63
   5   4   5 5727.59  108.85
  -2  -4  20 4225.16   92.53
  -6   1   9   57.48   18.05
   2   8   4   71.53   21.71
   2   8   4   35.14   40.38
  -2  -8  -4   45.87   32.89
   6   2   2 2946.12   52.57
   1   5 -20   85.68   11.64
  -1   8   8  243.64   30.45
  -6  -2  -2 3364.52   59.42
  -1  -5  20  112.23   16.52
   1  -8  -8  223.55   29.46
  -6  -2  -2 3365.04   65.64
   1   5 -20   93.55   15.44
  -6  -2  -2 3458.17   78.72
  -1   8   8  199.05   31.72
  -4   1  17  435.51   32.31
   4  -1 -17  377.31   17.74
  -3   5  14 4953.68  110.05
   3  -5 -14 4325.18   76.35
  -2  -7  16 1620.76   43.17
  -4   5  12  705.77   31.55
  -5   6  -8   30.22   31.06
   4  -5 -12  624.76   38.48
  -5   6  -8    7.35   20.41
  -3   3  17  396.57   23.40
   3  -3 -17  331.53   30.63
   0   4  17   16.22   32.87
   0   4  17  -18.50   19.44
   0  -4 -17  -10.54   20.05
   3  -1  18  181.05   17.17
  -3   1 -18  236.80   30.53
   4   7  -6 7056.17   92.39
   3  -1  18  173.38   28.56
   2   8 -13  180.66   17.61
  -2  -8  13  261.20   25.15
   4   7  -6 7338.68  125.11
   2   8 -13  223.78   12.40
   2   8 -13  293.78   22.66
  -4  -7   6 7694.37  161.96
  -6  -1   9 3004.21   63.35
  -5  -5  -1  -17.72   12.60
  -5  -5  -1  -18.69   19.99
   5   5   1   -3.07    9.78
   3   8  -8 1562.36   48.36
   5   5   1   -9.44   23.65
  -3  -8   8 1585.10   27.37
   3   8  -8 1554.77   28.11
  -3  -8   8 1708.46   53.02
  -4  -7   3 1978.16   35.61
   4   7  -3 1882.68   35.43
  -4  -7   3 2052.08   59.37
   4   7  -3 1894.04   51.63
  -6   4  -4  604.96   29.75
  -3   6 -16 1889.58   70.24
  -3   6 -16 1889.11   53.01
   2   4  15  647.84   32.42
  -2  -4 -15  720.50   63.29
   2   4  15  640.94   39.06
  -6   4  -4  562.85   31.17
  -2   8 -14  402.86   43.41
  -2   8 -14  389.41   26.71
  -3  -6  16 1513.14   45.17
  -6   3  -6   90.06   21.86
  -4  -4 -10  244.51   29.03
   4   4  10  230.43   26.35
   3   4  13  315.47   25.06
  -3  -4 -13  304.28   51.72
   3   4  13  340.44   31.45
  -6   3  -6   80.28   33.04
   4   4  10  203.99   20.76
  -3  -5 -11   39.99   23.93
   3   5  11   24.97   17.89
   3   5  11   31.48   21.62
   2  -9  10  488.57   46.64
  -4   8  -6 1525.90   78.71
  -2   9 -10  420.33   14.14
   4  -8   6 1479.06   49.70
  -2   9 -10  467.30   48.72
  -3   6  12    7.80   31.89
   1   7  10  185.83   29.33
   1   7  10  193.37   30.39
  -3   6  12  545.10   29.87
   3  -6 -12  506.75   28.25
  -1  -7 -10  175.85   28.24
  -5  -4  12  868.91   60.20
   2   6  11  148.18   26.90
  -2  -6 -11  132.14   45.91
   2   6  11  141.25   28.42
   0   7  11  292.79   54.17
  -3  -7  -5 1109.77   38.97
  -3  -7  -5 1130.21   48.54
   3   7   5 1032.38   38.01
   3   7   5 1039.13   41.01
   0   7  11  307.67   34.10
   0  -7 -11  359.13   32.49
  -2  -6  18  952.15   48.20
   0   9 -12   -2.54   19.78
   0  -9  12    0.04   20.01
  -5  -5   9 2655.44   88.27
  -1  -6  19 1397.51   47.54
   0   9 -12   -9.16   11.03
   1   6 -19 1300.69   25.13
   1   6 -19 1400.76   36.00
   5   5  -9 2418.89   58.64
   0  -9  12   11.35   11.76
  -6   0  -6 1818.12   64.63
  -6   0  -6 1774.17   32.47
  -6   0  -6 1778.72   58.76
   1   8 -15 3645.01   65.79
  -1  -8  15 3767.93   67.66
   1   8 -15 3462.51   55.18
  -4   7 -11  171.45   27.34
  -4   7 -11  171.89   27.84
  -6   4   4 4435.57   89.53
  -6   4   4 4451.01   74.44
  -3   9  -3 4355.35   90.68
  -3   9  -4   83.72   26.47
   3  -9   3 4192.42   83.52
  -3   9  -4   45.05   17.87
   3  -9   4   69.39   23.64
  -3   9  -3 4351.55   78.90
   3   8  -1   59.94   16.54
  -3  -8   1   84.87   28.19
  -3  -8   1   55.42   24.75
   3   8  -1  109.65   38.94
   4   7  -7 1372.75   70.84
  -4  -7   7 1443.15   53.39
  -4   8   1 1230.15   47.05
   4  -8  -1 1120.43   42.34
  -4   8   1 1240.02   43.85
  -6  -2   8   95.99   22.09
   4   7  -2   59.14   12.50
  -4  -7   2   13.53   25.86
  -4  -7   2   61.40   12.31
   4   7  -2   51.90   22.46
   0  -4  21  206.77   15.87
  -4   2 -16 1773.62   51.79
   0   4 -21  196.69   18.81
  -4   2 -16 1688.37   54.80
   0   4 -21  189.98   15.84
   4  -2  16  -10.03   20.65
  -3   9  -2  902.50   36.80
  -3   9  -2  989.86   43.32
   3  -9   2  763.86   57.69
   4   3  12  364.21   49.75
  -4  -3 -12  453.41   53.27
   4   3  12  382.03   21.44
  -4   4  14  904.69   30.43
   4  -4 -14  772.66   25.58
  -3   9  -5 3378.62   51.54
   3  -9   5 3173.76   91.90
  -3   9  -5 3406.09   77.31
  -6   3   7 2230.21   42.25
  -6   3   7 2209.69   40.84
   0   8   8  665.80   40.91
   0   8   8  722.54   39.35
   0  -8  -8  620.62   37.15
   1  -9  12  913.42   46.51
  -3  -2 -16 1445.51   52.45
   1  -6  19   34.44    8.37
  -1   6 -19   28.97   14.63
  -1   6 -19   28.80   25.58
   3   2  16 1467.91   73.26
   3   2  16 1411.02   35.11
  -1   9 -12  934.44   32.61
  -1   9 -12  856.97   21.72
   1  -9  12  935.08   25.23
  -4  -5  15  165.86   42.76
   1   0 -21  486.84   24.78
  -1   0  21  480.78   35.18
  -6   2  -7  723.53   34.30
   1   9 -11   17.23   24.76
  -6   2  -7  673.05   31.81
  -1  -9  11   25.18   27.03
  -1  -9  11   18.49   17.63
   1   9 -11   26.77   20.50
   1  -2  21 3920.43   74.67
   2  -1 -20  241.68   18.95
  -1   2 -21 3882.48   94.23
  -2   1  20  318.92   19.87
   3   1  17   26.44   21.74
   5   1  11  199.72   20.48
   5   1  11  250.38   27.13
  -3  -1 -17    4.62   19.44
   3   1  17   21.39   18.95
  -5  -1 -11  250.90   29.24
  -2   6 -18   96.73   33.88
  -1   5 -20 4903.12  102.32
  -2   6 -18   90.15   31.72
  -1   5 -20 4928.40   81.56
   1  -5  20 4900.64   74.58
  -2   5 -19 1961.80   70.91
  -3   4 -18   36.20   21.44
  -3   4 -18   16.32   18.64
  -2   5 -19 1988.96   64.44
   2  -2  20  995.98   38.88
   2  -2  20  951.31   23.21
  -2   2 -20  886.54   39.49
  -6  -1  -5  395.30   33.28
  -6  -1  -5  388.81   19.42
   6   1   5  324.96   15.91
  -6  -1  -5  357.06   25.38
  -4   3 -16 5387.52  131.08
  -4   3 -16 5419.62  100.13
  -3   1  19  454.55   18.19
   6   3  -3  720.44   31.09
   3  -1 -19  400.61   24.54
  -6  -3   3  818.76   34.36
  -3  -8   9  -10.03   33.24
  -1   9   4  412.43   37.05
   3   8  -9   19.02    7.48
   3   8  -9   16.68   32.13
  -1   9   4  436.23   32.09
   5  -4 -11   95.26   22.75
  -5   4  11  162.58   18.37
   1  -9  -4  395.57   50.69
   4  -6 -10 3635.13   69.10
  -4   6  10 4231.43  104.51
  -6   1  -7    1.91   15.22
  -6   1  -7    3.71   21.92
  -6  -3   4 6658.86  132.20
   0   0 -21  221.65   23.95
   0   0  21  250.79   23.16
   5   3   8 1098.45   38.15
  -5  -3  -8 1315.90   37.74
  -5  -3  -8 1201.32   43.19
   5   3   8 1130.85   43.85
  -2   9   3  279.85   36.06
  -2   9   3  277.66   26.38
   2  -9  -3  247.15   47.49
   3  -8  -6 2165.48   81.30
  -3   8   6 2447.64   67.73
   0   7 -18  524.17   22.35
  -3   8   6 2454.86   80.36
   0   7 -18  556.65   20.71
   0  -7  18  562.36   20.22
  -2  -9   5  242.62   31.12
   2   9  -5  226.77   43.99
  -5  -1  15  189.45   44.13
  -2  -9   5  263.51   28.01
   2   9  -5  263.53   31.18
  -2   3 -20  331.34   26.00
  -6  -3   2  913.16   35.48
   2  -3  20  293.67   11.28
  -3   8 -12   47.85   22.62
  -3   8 -12   69.50   23.37
   4  -8   7 8052.98  163.36
   2  -3  20  287.94   13.05
  -3   9  -1  250.62   51.59
   3  -9   1  219.77   27.69
   2  -7 -11 4030.74  102.97
  -2   7  11 4437.94   91.72
  -6  -3   2  901.09   19.84
  -2   7  11 4413.88  116.18
  -4   8  -7 8122.85  141.82
   6   3  -2  808.80   44.75
  -3   9  -1  264.73   29.18
  -6  -3   2  911.25   22.03
  -2   3 -20  327.94   29.09
   1   2  19 2095.37   80.24
   1   2  19 2125.83   52.34
  -6   4  -5 1123.98   54.66
  -5   0 -12  495.26   55.12
  -6   4  -5 1000.42   38.81
  -1  -2 -19 2224.15   82.04
  -1   3 -21  434.14   27.04
  -1   3 -21  415.33   23.54
   1  -3  21  404.07   23.21
   5   0  12  434.90   51.62
   1   4 -21  657.98   26.17
   2  -4 -17  461.03   26.91
  -2   4  17  499.85   46.41
   1   4 -21  670.63   29.92
  -1  -4  21  668.79   25.78
   3  -9   6   64.05   23.32
  -3   9  -6   60.79   40.79
  -6  -2  -3  346.03   35.07
  -6  -2  -3  334.37   22.18
  -3   9  -6   48.26   14.33
  -6  -2  -3  285.34   18.16
   6   2   3  304.08   28.69
  -5   4 -12  980.91   40.40
  -5   4 -12  897.81   65.14
   2   9  -4  557.71   26.22
   2   9  -4  534.91   33.59
  -4  -7   8 4336.75  116.66
  -2  -9   4  608.81   37.13
  -2  -9   4  595.50   39.42
   4   7  -8 3976.06   81.83
  -2  -9   6  135.04   23.10
   2   9  -6  109.08   25.70
  -2  -9   6  125.40   27.47
   2   9  -6  114.89   23.86
   1   9   2   -1.49   18.73
   1   8   7  268.46   32.04
  -6   0  10  627.20   31.24
   1   8   7  239.55   30.89
  -1  -9  -2   36.47   32.04
   1   9   2   27.96   30.46
  -1  -8  -7  211.81   46.63
   2   2 -21  136.63    9.93
  -3   4  16 3543.36   85.25
  -5   7  -2   15.33   19.97
   4   5   8  124.84   34.12
   2   2 -21  158.07   18.36
   3  -4 -16 3144.59   58.94
   4   5   8  103.91   22.34
  -4  -5  -8  109.77   25.18
   4  -7  -7 4447.79   82.69
   5  -7   2    6.99   16.81
  -4  -1  18 2340.12   82.33
  -2  -2  21  154.69   11.17
  -4   7   7 5070.26  115.37
  -2  -2  21  139.07   20.88
  -4   7   7 5029.85  123.92
  -4  -7   1 2998.51   52.39
  -5   0  15  313.46   30.17
   5  -5  -9   -4.22   19.45
  -5   5   9    8.26   24.77
  -4  -7   1 3140.40  101.56
  -3  -7  14 1465.54   67.12
   4   7  -1 2894.99   51.51
  -6  -3   5   80.75   22.34
   4   7  -1 2920.02   66.69
  -5  -5  -2  843.20   42.02
   5   5   2  131.89   16.07
   5   5   2  104.37   21.55
  -5   7  -1 3524.76   53.71
  -5   7  -1 3794.25   77.94
   5  -7   1 3533.88   73.68
  -5  -3  14  -19.77   33.64
   5  -6  -6    1.93   20.64
  -5   7  -3   -6.04   22.75
  -5   7  -3  150.59   36.11
   5  -7   3  118.93   38.48
  -5   6   6   14.02   17.06
  -4  -6  1310870.86  206.00
   0   8 -16   33.52   13.76
   4  -1  16  890.05   43.16
   0  -8  16   19.41   12.12
   0   8 -16   53.68   13.93
  -4   1 -16  863.52   42.16
   3   8   0 3750.18   81.03
   4  -8  -2  588.60   52.08
  -4   8   2  698.15   61.08
  -3  -8   0 3842.07   83.75
  -3  -8   0 4029.78  117.09
   3   8   0 3776.31   84.41
  -4   8   2  673.14   26.50
   6   3  -1  249.06   21.64
  -3  -5  18 5759.05  102.21
  -6   4   5   21.63   22.12
   6  -4  -5    4.22   10.76
  -6  -3   1  291.80   23.47
  -6  -3   1  304.61   25.71
  -6  -3   1  244.94   13.45
  -6   4   5    7.10   20.97
  -2  -9   3 2325.88   88.67
  -6   2   9  234.92   19.78
  -6   2   9  225.10   21.64
  -3  -4  19 2911.19   62.99
  -2  -9   3 2206.22   61.25
   2   9  -3 2179.29   64.41
   2   9  -3 2140.13   80.30
  -5   5 -11  -14.59   19.15
  -5   5 -11   -4.89   20.49
  -1   6  14  365.07   36.40
   1   3  18 2787.36   61.69
  -2  -1  21   90.05   21.46
  -1   6  14  377.49   33.91
  -1  -3 -18 2869.18   69.57
  -2  -1  21  118.61   12.23
   2   1 -21  121.25   13.07
   1   3  18 2732.57   66.95
   1  -6 -14  356.89   31.17
  -2   8   8 1488.14   54.51
   2  -8  -8 1395.15   47.95
   2   9  -7   62.93   13.96
   2   9  -7   43.68   20.88
  -2  -9   7   93.78   24.45
  -2   8   8 1533.52   51.17
  -2  -9   7   56.59   20.03
  -4   5 -15  265.99   45.72
  -4   5 -15  292.34   31.90
  -5  -5  10  744.43   40.30
  -5   6  -9  324.39   50.01
   0   9   4  500.74   36.85
  -1   1 -21  280.92   26.57
   0  -9  -4  374.67   32.06
  -5   6  -9  290.32   30.48
   1  -1  21  291.36   26.13
   0   9   4  523.01   35.01
  -1  -5 -15  308.16   34.63
  -5  -2 -10 2329.14   83.15
   5   2  10 2161.64   53.96
   1   5  15  217.07   33.27
   5   2  10 2109.56   51.08
   1   5  15  270.10   29.94
  -4  -2  18 1749.26   52.49
  -5   7   0  474.40   17.80
   5  -7   0  426.08   31.04
  -5   7   0  581.87   53.84
  -6   3  -7  821.23   54.78
  -6   3  -7  730.34   33.55
   2  -9  11 5008.13  110.90
  -3  -3 -15  539.09   58.20
  -6  -1  10  969.08   56.99
  -2   9 -11 4994.30   91.91
   3   3  15  481.82   39.35
  -4  -6  -5   47.89   19.83
  -4  -6  -5   51.76   24.96
   4   6   5   41.40   17.49
   4   6   5   30.59   33.06
   3   3  15  467.68   36.80
  -3   9   0  330.28   33.30
   5  -7   4  289.36   28.51
  -5   7  -4  288.49   32.27
   2   2  18  391.55   38.66
   1   6  13 2918.73   70.46
   2  -1  20   41.28   22.25
  -2  -2 -18  412.74   34.15
  -3   9   0  350.04   35.05
  -2   1 -20   44.04   36.76
  -5   7  -4  280.13   30.45
   3  -9   0  355.56   49.14
  -1  -6 -13 2895.33   71.66
   1   6  13 2853.62   73.19
   2   2  18  398.98   54.06
   2  -1  20   43.50   19.75
   1   1  20 4168.82   81.52
   3   6   9  128.61   24.14
  -6  -3   6 5930.70  104.76
   1   1  20 3986.44   74.45
   3   6   9  118.97   41.63
  -1  -1 -20 3942.18  102.52
  -3  -6  -9  119.94   28.91
  -6   1  10  176.66   36.06
  -3   9  -7  821.23   40.40
   3  -9   7  921.44   39.72
  -5   2  14   41.21   32.82
   5  -2 -14    1.98    9.49
  -6  -2   9 2041.58   53.65
  -5   2 -13 3002.16   67.33
  -1   5  16   13.05   26.12
  -1   5  16   -7.58   18.59
  -5   2 -13 2935.29   71.83
   1  -5 -16   -1.77   15.78
  -3  -2  20   43.99   20.63
   5   4   6  183.86   19.87
  -5  -4  -6  203.49   23.28
  -5  -4  -6  177.16   39.96
   5   4   6  135.02   21.13
  -3  -1  20  -11.02   17.69
   2   8   5  233.55   30.74
  -2  -8  -5  260.19   28.03
   2   8   5  252.38   45.50
  -4   0  18  829.29   37.93
  -5  -2  15 1535.60   48.42
  -3  -8  10 2263.32   60.53
   3   8 -10 2058.08   54.23
   3   0  18 2894.44   68.45
  -3   0 -18 2999.08   72.01
   3   0  18 2471.30   51.96
  -2  -9   2  311.66   35.09
  -2  -9   2  323.22   22.58
  -4  -7   9  138.46   28.80
   2   9  -2  305.39   30.50
   4   7  -9  148.58   25.89
   2   9  -2  297.11   23.51
  -6  -3   0 1495.50   60.74
   6   3   0 1310.95   50.30
  -6  -3   0 1443.51   38.39
  -2  -3  21  364.81   39.88
  -6  -3   0 1452.83   31.61
  -3   7 -15   75.96   39.60
  -3   7 -15  127.84   36.88
  -3   7  10   14.03   21.20
  -3   7  10    6.62   33.51
   3  -7 -10   28.38   19.62
  -2  -9   8  242.18   30.60
  -2  -9   8  257.87   24.48
   2   9  -8  243.86   40.77
  -2  -8  14  905.29   53.85
   2   8 -14  838.35   50.10
   2   9  -8  217.31   26.56
   1  -7  18  771.70   25.66
  -5   3  13   28.23   11.32
  -1   7 -18  711.95   27.13
   4  -8   8 2397.14   64.36
   5  -3 -13   25.94   15.76
  -1   7 -18  729.83   43.33
  -4   8  -8 2379.22   92.25
  -4   8  -8 2442.06   68.01
  -4  -7   0  378.24   36.42
   0  -9  13   -6.68   10.92
   4   7   0  347.71   31.57
   0  -9  13   10.68   10.55
   0   9 -13    8.34   12.59
  -4  -7   0  373.40   31.81
   2   1  19 5033.78   83.86
   4   7   0  360.08   20.73
   0   9 -13   -2.33   12.17
  -2  -1 -19 5258.20  102.17
   2   1  19 5233.58   98.95
   0   9 -13   26.55   17.10
   5  -7  -1  326.70   27.69
  -5   7   1  308.64   26.77
  -5   7   1  302.07   29.93
  -6   0  -7   -0.25   13.38
  -1   8 -16 1104.57   34.96
  -1   8 -16 1060.69   33.18
   1  -8  16 1168.89   33.14
  -6   0  -7   12.93   25.13
  -6   0  -7    8.61   14.37
   1   7 -18  522.47   16.75
   1   7 -18  509.93   25.26
  -1  -7  18  518.44   24.37
  -6   4  -6   18.41   19.72
  -5   3 -13  942.00   60.24
  -5   3 -13  984.44   66.88
  -6   4  -6   22.87   18.19
  -5  -4  13 1308.71   47.15
  -4   4 -16 2476.97   64.92
  -4   4 -16 2493.54   83.17
  -6   3   8   17.35   16.08
  -6   3   8    0.88   17.12
   1   9 -12    9.24   14.32
  -5   7  -5 2080.96   79.72
   0   6  14  698.84   41.15
  -6   5  -1  748.11   35.10
  -5   7  -5 1970.05   82.69
  -1  -9  12    1.88   15.28
   1   9 -12   17.60   18.61
   0  -6 -14  594.28   58.93
  -1  -9  12   14.56   15.59
  -6   5  -1  779.41   52.47
   0   6  14  668.02   42.59
  -2   7 -17  343.54   27.06
  -2   7 -17  333.53   39.23
  -6   5   0 3904.17   95.26
  -6   5   0 3935.61   74.80
  -2   4 -20 2035.02   67.48
   2   3  17 3533.43   87.18
  -2   4 -20 2052.08   75.11
  -2  -3 -17 3644.00  107.82
  -1   2  20    2.88   14.11
   1  -2 -20    2.94   14.41
   2   3  17 3511.09   79.09
  -4   6 -14  380.34   52.88
  -4   6 -14  370.45   31.56
  -4  -1 -15   59.78   26.83
   4   1  15   65.42   11.76
   4   1  15   90.55   25.47
  -1   4 -21   75.24   26.14
   3   7   6   -0.05   14.74
   3   7   6   -0.23   21.64
  -1   4 -21   70.00   19.03
   1  -4  21   63.03   10.05
  -3  -7  -6   21.06   18.96
   1  -3 -19  324.31   27.29
  -1   3  19  318.17   43.90
  -4   7 -12    0.40   32.00
  -4   7 -12   12.97   30.48
   5  -1  13    4.60   18.89
  -5   1 -13  214.06   44.11
  -5   1 -13  220.67   49.04
  -6  -3   7  612.94   53.69
  -6   5  -2 7042.46  143.09
  -6  -2  -4 5214.22   88.40
  -4  -4  17  676.86   37.31
  -6  -2  -4 5275.06   96.24
   6   2   4 4691.06   78.15
   6   2   4 4515.56   72.13
  -6   5  -2 7429.82  122.47
  -6  -2  -4 5321.89  102.50
  -5   1  15    8.11   17.54
   1  -9  13   -8.70   12.29
   1  -9  13    6.67   13.78
   0   5  16  226.68   31.87
  -6   5   1  192.15   19.25
  -6   5   1  158.31   23.37
   0   5  16  189.27   30.53
  -1   9 -13    5.41    8.14
  -1   9 -13  -16.51   23.12
   0  -5 -16  215.15   49.30
  -1   9 -13   14.53   13.73
  -6   5   1  180.83   23.07
  -6  -1  -6   11.85   10.90
   4  -8  -3  964.09   39.54
  -2   9   4 1463.11   57.36
   3   8   1  734.62   30.31
  -4   8   3 1054.36   45.44
  -6  -1  -6    6.28   13.45
  -3  -8  -1  843.46   45.97
  -4   8   3 1062.46   47.49
  -2   9   4 1422.55   65.63
   3   8   1  731.80   60.85
   2  -9  -4 1255.01   47.51
  -6  -1  -6    9.57   16.23
   6   1   6    4.34   13.38
  -3  -8  -1  811.98   31.55
  -6   2  -8  211.91   44.13
   3  -9  -1   43.65   23.15
  -3   9   1   48.19   25.88
  -3   9   1   33.57   15.67
  -6   2  -8  290.82   39.55
   1  -8  -9 1459.25   49.87
  -2  -7  -9 1880.16   55.87
  -1   8   9 1551.74   54.21
  -1   8   9 1486.41   56.07
   2   7   9 1987.10   78.20
   2   7   9 1862.13   56.87
  -2   8 -15  241.24   24.18
  -2   8 -15  201.52   25.09
   4   2  14   42.45   13.30
   3  -9   8 1446.02   69.55
   4   2  14   49.63   38.20
  -3   9  -8 1391.33   70.70
  -4  -2 -14   40.45   24.54
  -5  -5  -3 1915.54   61.39
  -6   4   6 1728.15   39.09
   5   5   3 1681.21   53.53
   6  -4  -6 1653.51   36.94
   5   5   3 1694.07   63.36
  -5  -5  -3 1968.69   77.48
  -6   4   6 1835.63   55.57
  -4   2  17  499.53   18.86
   4  -2 -17  436.67   24.63
  -1   7  12  -33.49   35.95
  -1   7  12   13.11   34.48
   1  -7 -12   -8.29   31.76
   1   9   3 1836.87   54.25
   2   9  -1   94.58   41.04
  -2  -9   1  119.31   49.06
   1   9   3 1820.69   78.43
  -2  -7  17   44.09   18.17
  -2  -9   1  105.90   19.04
   2   9  -1   96.51   20.25
  -1   9   5  405.61   37.98
   1  -9  -5  440.96   34.06
  -1   9   5  466.59   52.57
   4  -3 -16 1835.84   47.58
  -4   3  16 1997.93   53.82
   0   2  20  475.59   31.05
   0   2  20  466.38   33.75
   0  -2 -20  381.01   31.51
  -2   0  21   14.16   17.39
  -6  -3  -1  461.12   30.84
   2   0 -21   30.03   12.23
   2   9  -9 2379.93   55.87
   6   3   1   59.47   15.14
   6   3   1  386.64   20.54
   2   9  -9 2387.39   76.89
  -6  -3  -1  433.41   27.22
  -2  -9   9 2511.23   84.98
  -2  -9   9 2409.66   51.33
  -6  -3  -1  410.37   43.57
  -6   1  -8  113.98   23.62
  -6   5  -3 1271.48   43.58
  -6   1  -8  104.76   21.16
  -6   5  -3 1284.95   43.73
  -1  -8  16 2056.60   61.74
   1   8 -16 2043.07   36.58
   1   8 -16 1890.48   45.54
  -5   7   2    4.35   18.40
   5  -7  -2   21.89   18.13
  -5   7   2   18.42   18.67
  -3  -6  17   -4.74   16.29
  -3   0  20 2511.36   60.99
   3   0 -20 1719.89   36.84
  -3  -3  20  390.13   46.56
  -2  -5  20  400.03   25.65
  -1  -4 -17   -6.90   21.38
   0   6 -20  105.63   25.45
   1   4  17    3.76   16.64
  -2   6  14 1645.52   73.90
  -2   6  14 1580.28   57.68
   0  -6  20  114.51   13.57
   0   6 -20  130.29   14.14
  -5  -5  11  798.00   64.14
   1   4  17    0.02   18.59
   2  -6 -14 1376.59   44.88
  -6   5   2  301.54   39.58
  -6   5   2  269.99   25.08
   4  -5 -13   10.89   13.50
  -4   5  13   11.22   15.53
  -2  -5 -14  394.91   37.48
   2   5  14  422.07   36.64
   0   3  19 1908.84   75.32
   0  -3 -19 1813.72   53.47
   2   5  14  376.37   31.22
   0   3  19 1879.37   55.43
  -5   7  -6 1768.86   56.86
  -5   7  -6 1840.34   55.73
   3  -8  -7 7382.54  128.25
  -3   8   7 8313.41  141.45
  -5   6   7  311.25   28.08
   5  -6  -7  257.01   22.74
   4   7 -10 3970.13  104.82
  -4  -7  10 4313.81  117.69
  -4  -3  18 1478.11   70.56
  -3   8   7 8319.31  151.15
  -6   0  11  202.92   40.30
   0   2 -22 2272.70   65.84
  -3   8 -13 1645.91   73.43
   0  -2  22 2313.87   49.11
   0  -2  22 2189.00   56.86
  -3   8 -13 1691.86   49.98
   4   4  11  279.90   36.85
   4   4  11  394.87   48.90
  -4  -4 -11  339.77   33.26
   0  -5  21 4272.29   66.87
   0   5 -21 4267.37   84.38
   0   5 -21 4307.56   79.14
  -1  -2  22 2036.47   44.85
   1   2 -22 2102.96   42.57
  -1  -2  22 2065.17   41.35
   3   8 -11   10.71   17.59
  -3  -8  11   10.28   32.15
  -4   0 -16   78.65   27.35
  -3   5 -18    8.86   26.40
   4   0  16   31.45   13.78
   4   0  16   64.96   23.93
  -3   5 -18    1.67   17.66
   4   7   1  213.95   19.73
  -4  -7  -1  208.18   32.71
  -4  -7  -1  228.21   19.70
   4   7   1  240.57   28.54
  -6  -2  10  873.83   38.88
  -3   2 -19   78.56   23.28
   3  -2  19   53.38   24.03
  -3   6 -17  200.19   40.48
  -3   6 -17  206.20   28.91
  -3   2 -19   52.27   25.24
   1  -1 -21 4889.04   85.83
  -1   1  21 5313.62   90.28
   4  -7  -8  662.53   32.73
  -4  -5  16   -7.13   19.07
  -4   7   8  749.90   56.45
  -4   7   8  710.24   40.71
   2  -5 -16 1716.00   47.74
  -5   6 -10 1209.44   48.53
   1   7  11  244.63   34.80
  -1  -7 -11  259.39   32.39
  -2   5  16 1959.48   50.06
   1   7  11  302.05   33.09
  -2   5  16  824.59   50.87
  -5   6 -10 1278.90   46.34
   1 -10   5  209.44   26.19
  -1  10  -5  241.46   29.27
  -1  10  -4 1130.76   49.19
  -1  10  -4 1148.86   67.39
  -1  10  -5  228.48   20.60
  -6   3  -8  274.38   28.65
  -6   3  -8  271.65   26.73
  -4   8  -9 3178.60   78.14
  -4   8  -9 3218.79   77.26
   1 -10   4 1037.85   39.73
  -2   9 -12  347.20   29.76
  -2   9 -12  267.70   29.03
  -6  -3   8  399.80   31.23
   2  -9  12  322.37   28.26
   0  -8  -9  319.94   52.97
   0   8   9  261.59   56.26
   0   8   9  318.32   34.70
  -3   6  13  158.86   34.96
   3  -6 -13  382.41   27.30
   3   5  12 2151.63   53.73
  -3   6  13  409.34   30.68
  -3  -5 -12 2212.20   63.75
  -4  -6  14 3527.31   78.70
   3   5  12 2157.17   60.26
   1   0  21  111.46   22.95
   1   0  21   77.62   18.87
  -1   0 -21  126.79   40.11
  -3   3 -19  874.98   41.99
  -3   3 -19  901.05   56.82
   0   3 -22  201.54   20.48
   5   3   9   59.89   20.44
  -5  -3  -9   66.28   22.87
   5   3   9   48.81   14.79
   0   3 -22  219.87   17.47
   0  -3  22  215.96   26.00
  -3   5  15   52.76   33.63
   3  -5 -15    4.17   13.89
  -6   5  -4 3043.20   90.06
  -6   5  -4 3122.39   89.85
  -3  -7  15 1739.90   50.18
  -6  -1  11 1668.79   49.16
   0   9   5 2102.29   59.15
   5  -4 -12 1917.15   39.00
  -5   4  12 2233.57   61.36
   5  -5 -10 4266.65   73.47
   0  -9  -5 2073.99   80.48
  -5   5  10 5013.15  106.59
   0   9   5 2219.05   88.26
   2   6  12  104.41   25.40
   0  -7 -12   11.11   20.90
   0   7  12    4.50   23.42
  -2  -6 -12   86.62   46.04
   0   7  12   27.53   23.46
   2   6  12   62.42   27.91
  -1  10  -6 1326.42   66.58
  -1  10  -6 1241.99   34.46
   1 -10   6 1202.37   59.36
  -4   6  11  571.28   33.96
   4  -6 -11  546.60   28.34
  -2  -6  19  257.37   24.11
   0  10  -5 5284.79   93.18
   0 -10   5 4991.49   88.90
   0 -10   5 5193.42   96.01
  -1   4  18 1114.10   43.54
  -1  10  -3   11.83   16.73
   1  -4 -18 1001.68   40.40
   1 -10   3   -4.16   27.47
   0  10  -5 5092.80   96.14
  -1  10  -3   -9.02   14.58
  -1   4  18 1075.79   49.25
   2   0  20  119.00   42.31
   2   0  20  111.58   26.13
  -6   4  -7 2825.12   83.04
  -2   0 -20  129.41   27.09
  -6   4  -7 2792.43   65.01
  -4   1  18  472.80   34.04
  -3   9   2  933.08   74.45
   3  -9  -2  947.23   62.68
  -3   9   2 1018.62   50.24
   0  10  -4  114.88   21.87
   0 -10   4   42.51   23.94
   0 -10   4  117.13   20.92
   0  10  -4   96.87   41.02
   0   1  21  467.49   45.92
   0  -1 -21  417.33   29.35
   2   9   0  172.39   37.46
   2   9   0  154.73   28.55
  -6   5   3 2683.23   75.46
  -2  -9   0  162.70   33.07
  -2  -9   0  164.65   34.81
   1   3 -22 5388.41   88.12
  -6   5   3 2518.85   54.97
   6  -5  -3 2420.81   51.16
   1   3 -22 5488.31   94.41
  -1  -3  22 5459.39   91.08
  -3   9  -9  227.58   30.39
  -1  -8  -8  405.98   54.87
   1   8   8  481.73   57.66
   3  -9   9  181.87   27.38
   5   1  12  895.67   39.88
  -5   4 -13  578.09   39.49
   1   8   8  427.74   36.16
   5   1  12  883.04   22.28
  -5   4 -13  542.00   36.22
  -5  -1 -12  905.59   42.78
  -1  -1  22  822.30   27.27
   1   1 -22  871.91   28.82
   0  10  -6  747.42   54.36
   3   4  14  180.34   23.10
  -3  -4 -14  268.89   34.10
   3   4  14  184.31   29.88
   0 -10   6  705.33   53.16
   0 -10   6  656.19   48.10
   0  10  -6  711.47   47.26
  -5   5 -12 1864.50   81.20
  -5   5 -12 1933.14   77.72
   5   6  -4 1212.53   64.31
  -4  -6  -6  443.91   57.12
  -5  -6   4 1261.44   73.38
   4   6   6  368.79   29.17
   4   6   6  344.09   27.45
  -4  -6  -6  441.09   48.23
   5   6  -5 1200.35   43.93
  -5  -6   5 1244.37   49.95
  -2  -9  10  245.72   30.64
   2   9 -10  285.85   17.51
  -1  -5  21   71.72   16.36
   0  -1  22  208.73   21.91
  -2  -9  10  282.18   14.93
   2   9 -10  362.58   28.19
   1   5 -21   62.74   15.75
   0   1 -22  221.32   22.86
   1   5 -21   67.13   11.42
  -6  -3  -2  251.30   16.45
   4   5   9 1159.23   38.46
   5  -7  -3  266.82   26.83
  -5  -3  15 1777.06   55.26
  -4  -5  -9 1200.02   46.68
  -6  -3  -2  195.50   39.23
  -5   7   3  265.90   20.29
  -2  -4  21   19.48   15.83
   4   5   9 1214.85   62.09
  -5   7   3  292.85   30.72
  -6  -3  -2  236.81   31.06
   6   3   2  233.35   17.84
   6   3   2  254.89   31.42
   1   6 -20   52.27   17.50
  -4   8   4  365.97   24.87
   4  -8  -4  292.87   46.90
  -1  -6  20   51.28   15.52
  -4   8   4  332.53   35.07
   1   6 -20   61.20   15.73
  -3  -8  -2   55.24   29.75
  -3  -8  -2   39.06   29.44
   3   8   2   67.16   19.26
   3   8   2   63.24   24.59
   4   3  13  699.34   60.08
  -4  -3 -13  714.52   40.56
   4   3  13  697.72   27.01
   1   9 -13 2279.78   43.77
   1   9 -13 2399.41   45.15
  -1  -9  13 2487.24   72.43
   0  10  -3  433.94   44.69
   1   9 -13 2300.73   49.08
  -1  -9  13 2401.94   42.57
   0  10  -3  459.75   34.36
  -3   3  18 2666.33   53.90
   0 -10   3  475.03   29.70
   3  -3 -18 2235.32   59.42
  -1  10  -7   42.49   21.00
   4  -4 -15    9.53   18.95
  -5  -1  16 7350.81  130.17
   3  -2 -19   54.07   13.08
   1 -10   7   24.51   18.20
  -3   2  19   42.09   13.98
   5   6  -3  -22.61   17.30
  -5  -6   3  -13.34   21.62
  -4   4  15   45.56   15.78
  -1  10  -7   35.60   14.11
   5   6  -3    4.51   11.71
   6   2   5   21.46   15.41
  -5  -4  -7  206.71   26.00
   5   4   7  183.96   32.85
   5   4   7  188.51   23.20
  -6  -2  -5   32.11   18.01
  -6  -2  -5   50.90   25.42
   6   2   5   22.73   19.97
  -6  -2  -5   45.99   14.97
  -5  -4  -7  209.78   26.16
  -5   7  -7 3010.43  101.60
  -1  10  -2 1131.74   37.60
  -1  10  -2 1107.05   70.92
   6  -3  -9  127.09   12.95
  -6   3   9  111.24   23.57
   1 -10   2 1034.84   40.65
  -5   7  -7 3250.71  100.08
  -6   3   9  131.52   13.96
   2   4  16   18.67   22.65
  -5  -6   6 3871.70  111.91
  -2  -4 -16   -1.86   20.59
  -2  -8  -6  574.70   34.33
   5   6  -6 3410.17   72.97
   2   4  16   15.47   18.35
   2   8   6  541.23   36.33
   2   8   6  575.95   36.80
   2  -8  -9   77.47   25.25
  -2   8   9   92.11   27.72
  -2   8   9  105.86   47.69
   5   0  13  567.61   57.80
   0  -9  14  108.18   27.19
   0   9 -14  148.91   17.46
   0  10  -7 3434.66   71.36
  -5   0 -13  554.59   38.51
   0  10  -7 3465.90   84.15
   0   9 -14   84.05   23.60
   0 -10   7 3513.50   67.35
   0   9 -14   88.01   27.09
   0 -10   7 3602.74   73.14
   0   8 -17 2523.03   58.51
   0   8 -17 2489.36   47.95
   0  -8  17 2698.73   61.26
   2  -3 -19    0.03   17.49
  -2   3  19  130.57   34.44
  -6   4   7  644.72   39.58
   6  -4  -7  597.87   34.40
  -2   2  20    6.97   22.02
   2  -2 -20   -4.39   19.86
  -2   7  12 1182.83   49.83
  -2   7  12 1230.09   51.39
   2  -7 -12 1056.57   42.51
  -6   0  -8 2501.35   54.98
  -6   0  -8 2401.04   58.77
  -3   1 -19   18.00   22.93
   3  -1  19    0.55   26.92
   4  -2  17   26.98   24.59
  -4   2 -17 2082.60   57.25
  -4   2 -17 2017.57   89.24
  -2  -8  15  932.70   35.88
   5   5   4   45.59   26.24
   5   5   4   58.39   19.40
  -5   0  16 5026.14   97.20
  -5  -5  -4   11.84   17.35
  -5  -5  -4   59.71   21.27
   0   7 -19   24.01   12.44
   0  -7  19   26.67   17.96
   0  -4 -18  661.61   59.35
   0   4  18  785.18   40.86
   0   7 -19   22.57   18.56
   0   4  18  744.75   41.23
  -6   5  -5  525.57   32.93
  -6   5  -5  541.10   34.53
  -2   6 -19  346.09   28.29
  -2   6 -19  412.83   40.97
  -2   9   5 4890.35   94.74
   2  -9  -5 4355.97  115.37
  -2   9   5 4691.82  133.85
  -4  -7  11  468.93   38.15
   4   7 -11  475.36   33.79
  -5  -6   2    9.15   21.23
  -1   6 -20 2418.97   49.77
  -1   6 -20 2397.34   68.64
   5   6  -2   23.00   30.71
   5   6  -2   13.20    9.43
  -5  -6   2    9.05    9.16
   5   2  11   15.27   15.68
   5   2  11   -2.86    8.76
  -5  -2 -11    8.64   19.58
  -4   3 -17  331.86   31.62
  -4   3 -17  267.87   34.77
  -5  -4  14  400.55   34.56
  -6  -1  -7 1024.40   39.19
  -6  -1  -7  968.95   34.01
   6   1   7  892.13   30.95
  -6  -1  -7 1035.93   56.70
   0 -10   2 1345.03   43.39
   0  10  -2 1390.82   44.81
   0  10  -2 1389.50   71.34
   5   6  -7 2551.78   63.31
  -6  -3   9  895.57   60.43
   1   9   4   43.53   40.21
  -5  -6   7 2958.60   74.11
   1   9   4   59.13   25.01
  -1  -9  -4   42.14   22.16
  -4  -7  -2   76.13   28.99
   4   7   2   86.86   18.17
  -4  -7  -2   99.15   47.63
   4   7   2   86.21   24.04
  -6   2  -9    5.86   17.90
  -6   2  -9    0.89   15.69
   6  -5  -4   -0.13   16.90
  -3  -6 -10  258.90   32.84
  -1   9 -14  321.34   36.20
   1  -9  14  300.41   24.88
  -6   5   4   13.12   15.02
   3   6  10  268.59   28.59
  -1   9 -14  254.68   23.89
  -6   5   4   12.47   25.50
   3   6  10  308.45   31.95
   1 -10   8 1719.89   47.07
  -1  10  -8 1746.75   39.33
  -3   4 -19  109.84   23.50
  -5  -5  12 3543.90   78.86
  -3   4 -19  129.64   27.14
   3   8 -12  693.38   52.48
  -4   5 -16  583.58   35.31
  -4   5 -16  522.12   37.40
  -4   7 -13 3418.97   79.19
  -3  -8  12  773.42   39.00
  -4   7 -13 3528.70   76.81
   0  10  -8   10.09   13.62
  -2   5 -20 4496.68   99.18
   0 -10   8   -0.38   10.69
   0  10  -8   -7.32   26.00
  -2   5 -20 4535.16   86.90
   0 -10   8    1.00   19.19
   3   2  17  455.00   35.95
  -1  10  -1  758.72   42.73
   3   2  17  406.85   23.37
   1 -10   1  703.18   56.17
  -1  10  -1  701.10   32.76
  -3  -2 -17  406.71   60.28
  -3  -5  19  529.26   33.18
  -5  -2  16 1839.36   79.14
  -3  -7  -7 3045.92   91.85
   3   7   7 3022.24   69.32
   3   7   7 2972.85   70.89
  -5   2  15 3013.41   89.81
  -1   5 -21 1166.44   33.83
   1  -5  21 1094.63   30.74
  -1   5 -21 1157.56   54.07
  -5   2 -14 1979.79   60.61
  -4   8 -10 3933.99   85.87
  -4   8 -10 3804.19  113.87
  -5   2 -14 2058.96   56.58
  -3   7 -16  478.02   49.48
  -3   7 -16  534.63   52.90
   1  -9  -6  775.53   40.38
  -1   9   6  835.40   71.60
  -1   9   6  839.64   42.19
  -3   7  11  451.85   37.68
   0   4 -22 1046.70   31.73
   3  -7 -11  443.79   47.79
  -3   7  11  394.26   55.69
   0   4 -22 1108.76   28.82
   0  -4  22 1021.04   27.49
   2   9   1 2326.70   56.95
  -2  -9  -1 2433.86   71.79
  -2  -9  -1 2390.22   54.66
  -4  -1  19  840.24   61.95
   2   9   1 2214.14   87.57
   3   1  18  572.78   38.35
   3   1  18  548.06   32.97
  -3  -1 -18  530.59   39.53
  -3   9   3   81.36   20.52
  -6  -2  11  250.68   46.37
   3  -9  -3   84.28   25.31
  -3   9   3   73.18   29.90
  -6   1  -9 1065.94   64.10
  -6   1  -9 1107.44   39.39
  -1   8 -17 1407.05   52.92
  -1   8 -17 1384.39   55.34
  -5   7   4 5283.57  123.63
   5   6  -1 1089.11   37.13
   5  -7  -4 4570.14   85.84
  -5   7   4 5120.93  104.71
  -5   6   8 1504.30   46.34
   5   6  -1 1105.25   40.73
  -5  -6   1 1186.40   73.10
  -5  -6   1 1179.47   28.38
  -2  -9  11 1858.83   42.23
   5  -3 -14  596.94   19.44
   3  -9  10 1391.21   49.14
  -3   4  17   54.50   30.08
  -2  -9  11 2021.86   77.20
   2   9 -11 1975.22   52.16
   2   9 -11 1983.19   48.68
  -5   3  14  649.99   23.20
  -3   9 -10 1472.31   50.39
  -3   9 -10 1456.09   51.69
   3  -4 -17   16.04   14.62
  -3   1  20   -8.46    9.59
   3  -1 -20   16.20   15.79
  -3  -4  20  542.04   32.56
  -6  -3  -3 2951.90   72.98
   6   3   3 2741.88   65.68
  -6  -3  -3 3049.26   62.56
   6   3   3 2688.07   53.47
  -4   1 -17 1049.16   48.80
   4  -1  17 1070.65   46.58
  -4   6 -15 2820.77   70.58
  -4   6 -15 2837.18   67.87
  -5   3 -14  435.43   33.72
  -4  -2  19 2639.39   66.67
  -5   3 -14  426.43   37.41
   0 -10   1  154.76   25.13
  -5  -6   8   42.38   41.29
   0  10  -1  164.11   25.89
   5   6  -8   62.89   23.33
   0  10  -1  168.53   28.70
  -2   4  18  512.29   31.02
   2  -4 -18  447.97   28.05
  -6   0  12  795.75   56.06
  -6   4  -8   22.14   20.40
   1  -6 -15 1965.94   56.75
  -1   6  15 2148.03   86.51
  -2   1  21   42.73   24.10
   2  -1 -21   65.57   15.35
  -6   4  -8   32.25   22.34
  -1   6  15 2068.40   65.71
  -2   2 -21 3686.84   78.72
   2  -2  21 3655.42   57.14
   2  -2  21 3870.24  102.64
  -2   8 -16  300.58   26.40
  -2   8 -16  344.59   27.78
  -5   7  -8   29.24   23.01
  -5   7  -8   18.45   23.68
  -1  -4  22  530.11   25.02
  -6   3  -9 2096.03   79.89
  -6   3  -9 1946.95   73.98
   1   4 -22  501.79   25.06
  -2   9 -13 3022.28   85.92
  -2   9 -13 3087.07   68.84
   1   4 -22  542.26   19.93
   6   4  -4 3116.47   85.64
  -6  -4   4 3523.67   77.16
  -5   6 -11   12.05   26.60
  -5   6 -11   -4.19   17.57
   1  -2  22  356.00   28.41
  -2  10  -4   47.51   14.09
  -3   8   8  175.58   52.78
   1  -2  22  340.68   17.59
  -1   2 -22  414.01   29.99
  -6  -4   3 4682.83  114.67
  -3   8   8  158.37   28.00
  -2   3 -21 2293.93   54.40
  -2  10  -4   25.83   24.29
   2 -10   4   14.32   32.42
  -2   3 -21 2234.92   81.39
   6   4  -3 4071.86   76.67
   3  -8  -8  137.82   27.19
  -1  -6 -14   85.66   29.56
   1   6  14  105.92   30.09
  -1   0  22  174.48   19.52
   1   0 -22  113.45   31.54
   1   6  14   99.90   28.21
  -6   5  -6  462.93   48.78
  -6   5  -6  352.68   51.23
  -2  10  -5  919.91   65.23
  -2  10  -5  868.74   38.78
   2 -10   5  859.40   39.58
  -3   8 -14   35.94   22.32
  -3   8 -14   37.33   35.11
  -1   8  10  200.82   33.71
   1   7 -19 1602.15   37.88
  -1   8  10  241.85   55.95
   1  -8 -10  179.01   30.33
  -1  -7  19 1596.82   53.20
   1   7 -19 1567.11   39.97
  -6  -4   5 1771.03   52.48
   6   4  -5 1695.11   48.66
  -1   7 -19 1913.20   43.30
  -4   8   5   78.31   20.81
  -4   8   5  104.50   45.48
  -1   7 -19 1989.93   63.27
   4  -8  -5   82.75   24.38
   0  10  -9   45.08   19.77
   0  10  -9   79.38   16.76
   0 -10   9   76.95   19.64
   0 -10   9   77.29   17.79
  -3  -8  -3 2331.30   54.14
  -1   3 -22    9.44   14.48
  -2  10  -3  943.11   30.63
  -6  -1  12   44.78   21.84
   2 -10   3  939.36   40.67
   3   8   3 2241.65   61.21
   3   8   3 2292.88   54.68
   1 -10   9 4055.07   77.92
  -1  10  -9 3976.28   79.87
  -2   7 -18    1.57   20.69
  -1   3 -22   21.28   16.93
  -3  -8  -3 2500.09  102.19
   1  -3  22    3.80   13.09
  -1  10  -9 3840.47   65.61
  -2  10  -3  933.79   70.69
  -2   7 -18    0.58   23.29
   2   7  10  465.48   59.67
  -2  -7 -10  497.83   37.43
   2   7  10  476.43   36.34
   1   5  16 3808.95   83.26
  -1  -8  17  842.59   30.59
   1   8 -17  794.65   22.57
  -1  -5 -16 3687.73   84.42
   1   5  16 3819.42   87.41
   1   8 -17  802.38   31.26
  -2  -2  22  700.07   31.37
  -4  -4  18 1252.42   46.43
  -5   1 -14   -2.62   31.84
  -3  -3 -16 5439.13  137.92
  -1  10   0  774.25   51.25
  -5   1 -14  -14.54   22.06
  -1  10   0  765.72   44.44
   3   3  16 5004.43  104.61
   5  -1  14   -7.06   20.61
   3   3  16 5205.42  133.18
   1 -10   0  653.46   37.05
   6   4  -2   85.95   32.67
  -1  -2 -20   16.01   21.83
   1   2  20   27.96   22.05
  -6  -4   2   79.30   24.12
   1   2  20   13.21   18.46
   0   0  22 2022.10   67.38
   0   0 -22 1946.54   50.91
   0   9   6  135.06   31.15
  -5   1  16  113.50   41.00
   0   9   6  108.83   47.26
   0  -9  -6  146.01   28.33
   4  -7  -9 1659.33   68.37
  -4   7   9 2011.03   60.00
  -2  10  -6 2180.25   60.27
  -2  10  -6 2093.04   53.37
  -4   0  19  458.45   33.90
  -4   7   9 1914.94   57.47
   2 -10   6 2017.16   77.89
  -2  -7  18 1002.50   52.69
  -4  -6  15   25.43   23.43
  -4   4 -17    7.59   29.80
  -4   4 -17    4.05   21.08
  -6   5   5  963.79   50.67
   6  -5  -5  918.34   31.02
  -6   4   8 3619.64   65.76
   6  -4  -8 3229.49   56.23
   6   2   6 4539.82   81.25
  -6  -2  -6 4912.17   96.96
  -6  -2  -6 4891.04  108.93
  -6  -2  -6 4792.51   81.31
   6   2   6 4487.19   72.12
  -1   5  17  638.77   43.76
  -1   5  17  618.58   38.42
   1  -5 -17  508.28   34.45
   5   6   0   21.17   11.74
  -5  -6   0   -9.50   16.99
  -5  -6   0    5.49   19.52
  -6  -4   6  771.37   59.11
   5   6   0   27.85   32.47
   2 -10   2  230.58   29.97
  -2  10  -2  224.02   33.35
  -4  -7  12 7310.40  161.65
  -2  10  -2  185.68   20.66
   4   7 -12 6632.65  120.49
  -6  -3  10  506.21   35.61
   1   9 -14   41.74   20.62
  -1  -9  14   42.60   17.88
   1   9 -14   56.20   15.86
   1   9 -14   43.87   12.70
   1   3  19    0.11   18.84
  -3  -6  18  715.81   35.54
  -3  -7  16  436.96   32.46
   1   3  19   -5.03   16.52
  -1  -3 -19   -7.04   21.92
  -2  -1  22   95.08   35.89
   2   1 -22   98.39   21.87
  -2  -1  22   86.84   20.15
  -3  -2  21  513.65   33.20
   5  -5 -11  821.50   29.31
  -5   5  11 1022.07   54.24
   6  -3 -10   62.67   11.57
  -3  -1  21  269.10   44.52
  -6   3  10   74.81   13.46
  -6   3  10   57.12   12.29
  -2  -2 -19   66.28   45.04
   2   2  19   71.68   18.91
   0   6  15  356.98   38.45
   2   2  19   44.96   26.58
   0   6  15  389.96   37.14
   0  -6 -15  332.12   54.07
  -6  -4   1   52.38   21.32
   6   4  -1   12.24    9.67
  -4  -6  -7  751.44   57.56
  -4  -6  -7  686.09   42.39
   4   6   7  697.88   35.41
   4   6   7  727.92   52.30
   6   4  -1   34.12   16.47
  -6  -4   1   39.30   11.69
  -6  -4   1   26.28   15.79
   4   7   3  117.65   32.23
   4   7   3  123.79   42.49
  -5  -5  -5   15.34   21.43
   5   5   5   35.99   18.43
   5   6  -9  268.11   47.51
  -4  -7  -3  115.73   30.62
   5   5   5   39.39   27.41
  -1   7  13 2167.56   95.77
  -5  -6   9  295.70   34.00
   1  -7 -13 2096.85   60.51
  -4  -7  -3  102.19   20.52
  -1   7  13 2229.64   67.48
  -5  -5  -5   30.18   18.35
  -4  -1 -16  305.24   58.58
   4   1  16  303.23   33.68
   4   1  16  292.53   16.10
  -1 -10   5  451.20   25.50
   1  10  -5  483.33   32.67
  -4  -5  17 5001.97   98.66
  -1 -10   5  530.23   57.48
   1  10  -5  517.22   44.95
   0  10   0  235.68   51.54
   0  10   0  266.92   29.37
  -2  10  -7 1049.55   65.75
  -2  10  -7  907.61   25.69
   0 -10   0  188.07   44.02
   2 -10   7  963.53   40.11
   5   3  10  587.53   24.63
  -5  -3 -10  734.21   40.02
   5   3  10  601.13   35.24
   2  -1  21 3521.64   58.85
   2  -1  21 3606.83   77.02
   3   0  19 2198.37   51.34
   3   0  19 3043.28   71.71
  -2   1 -21 3495.52   78.87
  -3   0 -19 3183.27   79.15
  -1   1 -22  413.58   47.56
  -1 -10   6  171.37   27.35
   1  -1  22  450.94   38.22
   1  -1  22   24.00   18.39
   4  -5 -14  676.27   28.27
   1  10  -6  136.23   21.78
   1  10  -6  144.33   39.22
  -1 -10   6  110.33   31.36
  -4   5  14  758.14   33.44
  -4  -2 -15 3122.64  106.85
   4   2  15 2821.98   64.10
   4   2  15 2995.08   72.45
  -2  -3  22  432.82   43.67
  -1 -10   4 1383.24   51.65
   2   9   2 2781.65   87.83
  -5   5 -13   16.27   21.88
   1  10  -4 1315.67   42.82
  -2  -9  -2 2769.36   78.73
   1  10  -4 1262.55   46.08
   2   9   2 2768.87   69.57
  -5   5 -13   40.85   25.06
  -2  -9  -2 2652.32   81.51
  -1 -10   4 1334.07   38.81
   0   8  10 3754.95   89.95
   0   8  10 3799.00  117.18
   0  -8 -10 3618.38   81.96
  -4  -4 -12  274.99   33.25
   4   4  12  227.57   49.48
   0   9 -15 2625.16   52.42
   0  -9  15 2851.86   53.78
   4   4  12  263.49   23.35
   0   9 -15 2679.57   52.67
  -5   4  13 3557.46   80.58
   5  -4 -13 3079.05   66.02
   1   1  21    6.89   30.56
  -1  -1 -21   34.07   23.29
   1   1  21   78.30   35.86
  -3  -8  13  183.89   29.22
   3   8 -13  156.85   25.45
   2  -9  -6  104.92   27.70
  -2   9   6  129.66   26.57
  -2   9   6   62.52   32.26
   5   4   8 2578.62   53.79
  -5  -4  -8 3021.57   68.24
   5   4   8 2545.70   58.54
  -5  -4  -8 3079.47   65.88
   5  -7  -5  501.23   48.98
  -6   0  -9  104.08   24.99
  -5   7   5  540.62   43.08
  -5   7   5  511.01   36.40
  -6   0  -9   96.52   35.52
   2   8   7   17.35   22.13
   2   8   7   17.60   36.14
  -4   3  17  129.36   26.70
  -4   2  18  766.71   23.76
   4  -3 -17  121.39   23.42
   4  -2 -18  780.95   30.18
  -2  -8  -7  -29.98   22.63
  -4   6  12 2542.44   61.38
  -2  10  -1  362.67   38.29
  -2  -9  12 1735.28   51.19
   2 -10   1  345.84   32.45
   2   9 -12 1642.99   42.68
  -6  -4   7  541.48   35.73
  -3   9   4  311.91   44.01
   4  -6 -12 2147.51   68.90
  -2  10  -1  310.25   60.89
  -3   9   4  343.07   61.67
   3  -9  -4  294.51   31.75
   2   9 -12 1634.06   64.14
   1   8   9 3550.19   84.11
   1   8   9 3633.55   84.20
  -1  -8  -9 3554.29   79.67
  -2   4 -21 5042.03  110.24
   0  10 -10   96.93   17.20
  -1  -9  -5 1350.60   69.18
   0 -10  10   94.52   19.91
  -2   4 -21 5051.08   96.99
  -4  -3  19 1262.51   68.33
   0  10 -10   64.94   32.68
   1   9   5 1335.81   50.84
   1   9   5 1362.54   74.88
   0 -10  10   80.48   18.23
   1  10  -7   96.08   33.06
   1  10  -7  136.81   23.39
  -1 -10   7   94.59   39.73
  -1 -10   7   87.79   27.77
  -5  -5  13 1844.01   57.91
  -4   8 -11  164.13   30.12
  -4   8 -11  147.29   31.10
  -3   9 -11 2557.99   91.39
  -6  -3  -4  605.70   42.48
   6   3   4  469.83   24.81
   1 -10  10 1150.13   57.19
  -6  -3  -4  544.84   30.25
  -3   9 -11 2469.36   63.85
   6   3   4  452.61   24.61
  -1  10 -10 1186.39   59.36
  -5   4 -14 2317.12   67.13
  -1  10 -10 1074.36   28.46
  -5   4 -14 2367.52   87.48
   1 -10  10 1158.54   33.35
  -6  -1  -8    5.94   10.45
   6   1   8   -5.34   13.69
   6   1   8    2.29    7.09
  -6  -1  -8   -4.09   16.80
  -6  -1  -8   17.45   24.25
  -5  -3  16 4205.23   88.40
  -2  -1 -20  155.92   49.90
  -2  -3 -18   47.44   27.13
   2   1  20  210.03   30.65
   2   3  18   58.79   26.88
   2   1  20  172.43   20.90
   2   3  18   37.70   32.61
   1   7  12 6513.13  125.28
   1   7  12 6557.52  124.59
  -1 -10   3 1467.58   58.72
  -6   5  -7  119.81   27.29
   1  10  -3 1576.65   72.72
   0   5  17  469.74   39.83
   0  -5 -17  436.96   58.87
  -2  -8  16  302.60   26.28
  -1 -10   3 1451.30   79.80
   1  10  -3 1513.35   46.64
  -6   5  -7  152.27   25.61
  -1  -7 -12 6356.53  149.95
   0   5  17  511.21   38.80
  -3   6 -18  290.52   31.64
  -2   6  15   76.41   25.94
  -3   6 -18  339.65   29.07
   2  -6 -15    2.56   16.40
  -2   6  15   58.60   30.21
  -1  10   1  460.41   30.91
  -1  10   1  419.37   39.70
   1 -10  -1  380.90   52.29
   4   5  10   43.57   19.13
  -5   7  -9 2103.61   62.27
  -4  -5 -10   56.01   25.55
  -5   7  -9 2145.87   86.44
   4   5  10   37.49   37.34
  -1   4 -22  308.18   40.09
  -1   4 -22  280.29   22.46
   1  -4  22  333.12   22.04
  -6  -4   0  800.29   58.17
  -6  -4   0  786.22   22.31
   6   4   0  708.57   46.92
  -6  -4   0  853.69   36.39
   6   4   0  777.08   23.26
  -3   6  14 1446.39   69.83
  -3   6  14 1317.93   55.80
   3  -6 -14 1301.76   59.11
  -2  -5  21 1265.76   39.63
   0   6 -21 1597.39   34.78
   0   6 -21 1551.57   37.64
   0  -6  21 1661.59   34.44
  -6  -2  12 1273.64   46.50
  -6   2 -10 4374.76   84.25
   2   5  15 2287.48   60.20
  -2  -5 -15 2295.58   68.56
  -2   8  10  216.70   32.94
   2   5  15 2213.93   66.80
  -2   8  10  249.62   34.16
   2  -8 -10  210.07   48.15
  -6   2 -10 4530.27  118.07
   3   5  13   93.01   27.55
  -2  10  -8  972.18   25.47
  -5  -4  15 1570.99   54.25
   3   5  13   53.29   21.61
  -3  -5 -13   68.51   29.05
   2 -10   8  975.38   39.82
  -5  -1 -13   28.38   40.35
  -1   9 -15  461.57   27.09
   5   1  13   15.26   14.57
   1  -9  15  527.92   19.16
   5   1  13   10.33   21.06
  -1   9 -15  476.66   27.38
  -3  -3  21  252.35   44.97
  -5  -6  -1 6503.12  102.47
  -1   3  20   12.52   18.24
   5   6   1 5850.04  106.38
  -3   5 -19  610.71   53.24
  -5  -6  -1 6847.93  126.95
   1  -3 -20    1.87   15.48
   5   6   1 6005.27   93.70
  -3   5 -19  623.23   58.14
  -1   2  21  192.15   37.66
   1  -2 -21   -1.73   24.11
  -6   6  -1 1259.75   45.85
  -6   6  -1 1380.17   45.95
   0   7  13  437.35   39.47
   0   7  13  437.81   62.30
   0  -7 -13  263.93   34.10
   2   6  13   24.78   22.42
  -2  -6 -13    0.60   30.90
   2   6  13   16.05   24.86
  -1 -10   8  258.86   31.00
   1  10  -8  221.40   25.08
  -6   4  -9   52.38   23.37
  -6   4  -9   82.42   25.65
  -1 -10   8  243.38   28.56
   1  10  -8  277.78   22.87
  -6   6  -2 1971.66   54.19
  -6   6  -2 2080.49   79.23
  -6   5   6  305.67   37.56
  -4   9  -3 1492.85   81.71
   6  -5  -6  225.39   20.26
   4   0  17  892.19   44.77
  -4   0 -17  962.50   46.69
  -2  -6  20 5160.47   91.40
   4  -9   3 1393.02   50.98
   0   8 -18  487.87   21.49
   0   8 -18  489.49   22.54
   0  -8  18  492.00   21.15
  -4   7 -14  -20.54   19.74
  -6   6   0  125.16   43.18
  -6   6   0  243.59   42.83
  -4   7 -14    6.95   21.32
   4  -9   4 2648.70   92.05
  -4   9  -4 2934.97   76.36
  -5  -1  17   76.70   26.91
  -1   9   7  413.68   40.21
  -1   9   7  453.20   36.84
   1  -9  -7  439.10   55.88
  -5   6   9   21.52   18.81
  -3   5  16   24.14   19.34
   5  -6  -9   22.77   15.93
   3  -5 -16    3.60   13.82
  -1 -10   2  536.03   29.92
   1  10  -2  544.04   34.83
   5   6 -10 2649.20   65.79
  -5  -6  10 2705.79   97.02
  -3   0  21   85.67   25.01
   1  10  -2  509.01   32.60
  -1 -10   2  495.55   40.21
  -4   9  -2  880.03   45.53
   4  -9   2  920.76   42.06
  -4   9  -2  855.75   24.15
  -4   8   6   16.00   22.15
  -4   8   6    2.79   28.14
   4  -8  -6    6.21   18.15
  -1  -4 -18   70.19   28.88
   1   4  18   53.88   38.73
   1   4  18   10.65   21.93
  -2  10   0 1726.57   61.67
   3   8   4 1252.44   72.98
   2 -10   0 1471.31   51.14
  -3  -8  -4 1292.35   42.70
  -3  -8  -4 1275.53   57.64
  -6  -4   8  423.04   55.44
   3   8   4 1273.13   62.89
  -2  10   0 1735.97   45.01
   0  10   1 2464.24   63.16
  -6   1 -10    1.88   19.37
   0  10   1 2507.13   68.18
   3   7   8   21.29   22.32
   3   7   8   26.39   22.59
  -6   1 -10   11.97   27.81
   0 -10  -1 2448.95   62.03
  -3  -7  -8   26.68   36.55
   0   5 -22   18.45   24.55
   0   5 -22   70.10   21.06
  -2   5  17  686.87   47.05
  -2   5  17  674.44   37.74
   0  -5  22   32.86   12.24
   2  -5 -17  590.88   33.23
  -6   6  -3  568.08   54.45
  -6   6  -3  583.45   36.63
   2   0 -22 1174.25   43.81
  -2   0  22 1143.02   30.41
   5   0  14 2034.99   84.43
  -5   0 -14 2096.18   63.28
  -2   9 -14  300.17   27.84
  -2   9 -14  346.13   28.67
  -6   3 -10  -24.02   20.15
  -6   3 -10  -13.51   22.03
  -4  -3 -14 1628.99   55.54
  -4   9  -5  348.51   58.20
   4   3  14 1504.41   52.17
  -5  -2 -12 3159.56   74.99
   4  -9   5  303.39   33.45
   5   2  12 2792.93   49.41
   4   3  14 1462.68   38.31
   5   2  12 2857.91   66.93
  -6   6   1  765.70   34.93
  -6   6   1  698.20   36.82
   6  -6  -1  634.03   32.30
   0   2  21  522.63   35.95
   0   2  21  615.70   52.62
   0  -2 -21  461.58   53.94
  -6  -3  11 6122.27  112.82
  -2   7  13   25.88   24.53
  -2   7  13   38.14   26.96
  -3   2 -20   38.58   26.91
   2  -7 -13   45.60   23.10
   3   4  15 2184.69   91.68
   3  -2  20   50.67   25.35
   3   4  15 2057.66   50.88
  -3   2 -20   76.80   23.11
  -5   6 -12   30.14   23.20
  -3  -4 -15 2207.95   67.21
  -5   6 -12   42.86   40.87
   4  -4 -16   -7.08   19.20
  -4   4  16  -20.59   15.23
  -4   1  19   71.70   25.80
  -6   0  13   38.94   21.65
  -3   3 -20  494.69   58.79
  -3   3 -20  547.31   52.55
  -5   0  17   63.34   25.99
   0   3  20  120.67   25.10
   0   3  20    1.07   26.47
   0  -3 -20   -3.79   30.82
  -4  -7  13  -29.99   25.23
   4  -9   1   24.64   22.12
  -4   9  -1   23.36   11.98
  -4   9  -1   57.09   26.25
  -1  -6  21 5459.41   89.58
   6  -4  -9  564.23   32.50
  -6   4   9  600.16   25.89
   6   4   1  102.35   23.99
  -6  -4  -1  142.31   43.02
  -6  -4  -1  152.64   17.06
   6   4   1  117.53   21.18
   3   6  11  106.02   28.72
  -3  -6 -11  108.89   29.78
   3   6  11  111.12   40.45
   0  10 -11 1308.50   36.42
   0 -10  11 1351.19   55.72
  -6  -1  13  248.23   48.11
   0 -10  11 1374.54   52.88
   0  10 -11 1342.59   39.93
   1  10  -9  250.99   35.23
  -1 -10   9  276.50   19.63
   1  10  -9  203.75   38.48
  -1 -10   9  211.03   44.57
  -2  10  -9   38.27   16.94
   2 -10   9   68.75   22.98
  -2  10  -9   72.63   37.56
   0   7 -20  147.91   24.55
  -1  -2  23  262.79   29.31
   0   7 -20  155.48   17.19
   0  -7  20  197.84   25.43
   0  -2  23  157.39   28.27
   1   2 -23  251.92   30.69
   0  -2  23  228.04   22.09
   0   2 -23  194.26   22.58
  -1  -2  23  263.19   22.28
  -6  -2  -7   31.14   33.50
  -6  -2  -7   44.69   15.83
   6   2   7   40.76   12.93
   6   2   7   26.66   29.83
  -5  -2  17  245.69   50.78
  -3   8   9  805.60   41.76
  -4  -7  -4 1409.90   42.49
   3  -8  -9  745.31   58.33
  -4  -7  -4 1639.74   57.53
  -3   8   9  783.55   45.64
   4   7   4 1340.25   48.23
   4   7   4 1413.74   59.02
  -1  10 -11 1238.87   30.99
   1 -10  11 1342.26   34.94
  -1  10 -11 1306.19   41.57
   1 -10  11 1345.62   41.11
  -6   6  -4  210.28   28.52
  -6   6  -4  197.11   46.80
  -3   7 -17  307.16   32.30
  -3   7 -17  339.04   29.95
   2   9   3 1444.55   48.44
   1   5 -22  143.05   13.84
  -3   7  12  656.81   40.30
  -3   7  12  661.88   43.69
  -3   8 -15  386.32   31.47
   3  -7 -12  551.65   52.24
  -1  -5  22  101.18   17.85
   2   9   3 1483.10   78.10
  -3   8 -15  323.81   32.68
   1   5 -22  148.79   18.52
  -4   9  -6  170.21   31.24
   4  -9   6   70.66   42.59
  -1   4  19 1938.31   64.52
  -4   5 -17  107.14   47.74
  -4   5 -17  126.57   27.22
   1 -10  -2  397.76   33.80
  -2  -4  22 1020.16   36.17
   1  10  -1  284.97   29.56
  -1  10   2  398.28   39.49
  -1  10   2  464.90   50.47
  -1 -10   1  276.52   26.53
  -1 -10   1   48.32   33.32
   3   9  -5    5.35   17.57
  -1   4  19 2088.35   56.70
   1  10  -1  374.34   51.09
  -3  -9   5    5.81   23.25
   1  -4 -19 1789.76   52.60
  -3  -9   5    8.39   10.51
   3   9  -5    4.99   19.11
  -4  -8   5  331.97   62.54
  -1   8 -18 1205.72   53.75
   4   8  -5  284.15   32.32
   0   9   7  913.08   72.77
  -1   8 -18 1230.85   35.89
   0   9   7  915.74   47.16
   0  -9  -7  838.51   43.98
  -1  -9  15  102.46   20.29
  -1   1  22  443.43   42.15
   0  -3  23  396.53   32.45
  -5   7   6 2310.20   62.01
   1   9 -15  152.34   14.78
   5  -7  -6 1976.49   51.14
  -5   7   6 2230.23   54.14
   0   3 -23  401.15   22.25
   1  -1 -22  402.24   42.41
   1   9 -15  140.21   19.43
   1   9 -15   81.92   22.96
  -6   6   2  801.60   37.18
   6  -6  -2  735.88   49.28
  -3  -9   6  163.89   32.56
  -3  -9   6  155.07   14.21
  -6   6   2  707.86   36.05
   3   9  -6  136.68   43.62
   3   9  -6  113.63   15.41
  -2   6 -20  987.15   39.47
  -2   6 -20 1013.52   35.99
  -7   1   2   41.18   12.73
  -7   1   2   26.80   11.78
  -7   1   2   41.40   21.53
  -5   2 -15  710.00   40.08
  -2  -9  13  389.85   50.10
  -4  -8   6 2559.40   72.77
  -7   1   1 1546.11   36.69
  -4   2 -18    1.59   22.70
  -4   2 -18   13.64   20.51
   2   9 -13  384.35   44.01
  -5   2 -15  698.37   43.92
  -7   1   1 1640.99   46.53
   4   8  -6 2348.94   63.71
  -7   1   1 1596.80   34.45
   5  -8   2 1594.94   74.77
   3  -3 -19  193.19   29.89
  -5   8  -2 1607.90   78.95
  -3   3  19  213.84   21.22
  -6   5  -8   31.83   42.07
  -6   5  -8  108.03   38.76
  -5  -5  -6  994.57   39.55
   5   5   6  933.75   53.24
   3   9  -4 1423.74   49.61
  -4  -8   4  296.02   24.59
  -2   8 -17 2300.36   71.80
  -4   6 -16  823.99   45.64
  -4  -8   4  309.06   38.55
   5   5   6  955.23   51.65
   4   8  -4  274.96   25.80
   4   8  -4  250.80   51.33
  -4   6 -16  875.37   41.98
  -5  -5  -6 1045.34   43.36
   3   9  -4 1466.15   51.98
  -2   8 -17 2099.00   54.67
  -3  -9   4 1610.24   58.92
  -3  -9   4 1496.45   35.15
   1   0  22  509.65   33.54
   1   0  22  538.61   43.81
  -5   8  -3  746.62   43.71
   5  -8   3  714.92   39.32
  -4   9   0 1594.99   37.22
  -4   9   0 1525.59   57.35
  -4  -6  16 1759.92   56.28
   4  -9   0 1489.88   53.77
  -1   0 -22  527.97   34.92
  -4   3 -18 6424.46  154.37
  -5  -6  -2 1655.05   82.91
  -5   3  15  959.63   36.73
  -5  -6  -2 1587.17   56.52
   5   6   2 1488.21   48.56
   5   6   2 1550.76   38.32
  -4   3 -18 6423.10  118.57
   5  -3 -15  869.96   23.54
   3  -9  -5  244.20   50.27
  -3   9   5  297.85   28.93
  -4   7  10 7468.74  135.09
  -2   0 -21 1354.53   76.17
  -4   7  10 7403.81  136.72
   2   4  17  128.25   50.85
   2   4  17  171.73   26.07
   2   0  21 1380.09   48.90
   2   0  21 1273.31   71.56
  -3   9   5  250.85   38.05
   4  -7 -10 6379.39  110.92
  -2  -4 -17  134.15   33.13
  -1  -3  23  741.29   29.89
   1   3 -23  670.98   21.41
  -3   2  20 2071.17   44.76
   6   3   5  159.15   19.74
  -6  -3  -5  140.74   21.41
   6   3   5  102.52   29.22
   3  -2 -20 1790.74   38.29
  -6  -3  -5  101.85   21.48
   3   8 -14  361.40   30.77
   6  -3 -11  295.47   23.05
  -3  -8  14  412.14   33.81
  -6   3  11    9.31    9.73
  -1   6 -21 1533.08   43.26
  -3  -5  20 1653.61   50.08
  -1   6 -21 1583.72   39.40
  -7   1   3 2951.86   61.70
  -7   1   3 3059.18   55.25
  -7   1   3 2903.79   48.41
  -3   9 -12 1698.55   54.27
   3   9  -7 1421.05   32.31
  -3  -9   7 1520.48   30.77
  -3   9 -12 1696.83   55.99
  -3  -9   7 1613.82   57.15
   3   9  -7 1554.39   51.76
  -5   3 -15 1787.11   86.63
  -5   8  -1  586.64   41.13
  -2  10   1 2657.39   61.30
   5  -8   1  532.88   36.27
  -2  10   1 2675.14   78.05
  -5   7 -10  806.67   43.03
  -5   3 -15 1599.72   53.19
   2 -10  -1 2399.08   64.75
  -6  -4   9 2086.61   59.98
  -5   7 -10  917.34   68.22
  -7   1   0   94.59   21.79
  -7   1   0   71.13   16.36
  -7   1   0  100.05   14.62
  -5   8  -4   13.64   32.13
   5  -8   4  832.48   62.84
  -5   8  -4  805.10   54.98
   4   8  -7  903.25   44.50
  -4  -8   7  893.31   49.96
  -4   8 -12 1610.53   54.91
  -4   8 -12 1644.84   55.72
  -1  -8  18 1127.60   34.57
  -4  -8   3   12.15   43.23
  -4  -8   3   21.00   18.17
   4   8  -3   -1.91   20.16
   4   8  -3   12.58   17.08
   0   1  22  524.11   31.92
   1   1 -23 2483.22   66.82
   0  -1 -22  509.72   51.20
  -1  -1  23 2396.13   62.86
  -1   8  11  349.15   38.96
  -1   8  11  377.33   38.79
   1  -8 -11  299.42   53.58
  -3  -9   3   -8.27   24.53
   3   9  -3   52.58   15.16
  -3  -9   3   13.71   12.04
   3   9  -3  -12.52   24.17
  -3   1 -20 3394.46   80.95
  -5  -6  11   85.09   28.90
   3  -1  20 3460.61  107.11
  -7   0   2  381.41   21.91
  -7   0   2  351.10   24.68
  -2   3  20 2387.34   55.73
  -3  -7  17  148.70   26.75
  -7   0   2  324.57   27.17
   2  -3 -20 2057.55   66.27
   2  -9  -7 2533.95   67.73
   4   6   8  161.52   42.42
  -6   6  -5  264.49   30.96
  -2   9   7 2989.98  111.28
  -4  -6  -8  190.02   47.89
  -2   9   7 3004.49  100.20
   4   6   8  228.14   43.49
  -6   6  -5  254.73   30.44
  -7   2   1   73.42   21.38
  -6   5   7   58.05   18.17
  -5  -5  14 2006.27   88.01
   0   1 -23 2016.13   67.26
   0  -1  23 2211.55   67.79
  -7   2   1  138.88   16.10
  -7   2   1  104.28   16.45
   6  -5  -7   -0.36   16.75
  -3   4 -20   51.02   25.61
  -7   0   3  228.80   21.06
  -4   9  -7  169.45   51.66
  -3   4 -20   59.77   22.41
   4  -9   7  145.30   29.23
  -2   2  21  179.41   20.97
  -2  -7 -11  387.89   37.41
  -7   0   1  141.51   26.73
  -7   0   1   98.58   23.97
  -7   0   1  106.20   21.66
   2   7  11  346.14   34.36
   2   7  11  369.06   37.77
   2  -2 -21  150.05   19.76
   0  10   2 1813.08   55.94
   0  10   2 1852.96   86.69
  -7   2   2   -2.70   15.85
   0 -10  -2 1669.46   52.81
   5  -5 -12 3012.52   72.63
  -7   2   2   -0.68   17.69
  -7   2   2   -7.97   10.55
  -5   5  12 3672.17   89.95
  -1  -9  -6   71.81   26.18
  -7   1   4  401.68   22.45
   1   9   6  100.36   28.25
   1  10 -10   94.45   27.10
  -1 -10  10   23.78   12.82
   1   9   6   56.27   28.38
  -1 -10  10   13.43   19.48
   1  10 -10   14.60   31.00
  -7   2   0   57.34   20.03
  -7   2   0  127.14   16.35
  -2   5 -21   87.33   33.33
   0   9 -16  103.22   16.59
   0  -9  16   64.48   15.70
   0   9 -16   70.42   16.52
  -2   5 -21   87.48   24.01
   5  -8   0 2887.70   93.24
  -5   8   0 3219.39   78.28
  -7   2   0  109.44   17.18
   0   4  19  344.06   33.48
   0   4  19  255.30   35.18
  -4  -1  20   25.35   37.13
  -7   1  -1   -4.74   10.26
  -7   1  -1  -23.43   22.11
  -7   1  -1  -23.75   11.89
  -6  -4  -2 5160.71   96.60
   3   9  -8 3363.84  103.14
  -6  -4  -2 5071.31   84.62
   6   4   2 4553.38   83.08
   6   4   2 4734.42   77.13
  -3  -9   8 3507.88   83.93
  -6   6   3 2239.97   78.88
   6  -6  -3 2107.00   52.12
  -2  -7  19  230.87   24.48
  -5   8  -5  325.40   35.13
   5  -8   5  335.41   33.24
  -5   8  -5  280.42   34.67
  -1  -7  20  506.39   37.71
  -6   0 -10 1295.52   71.66
  -6   0 -10 1301.68   42.88
  -2   7 -19  184.31   22.51
  -2   7 -19  166.97   25.35
   3   2  18  762.60   29.44
   6   1   9  595.67   33.78
   2 -10  10  386.39   48.52
  -6  -1  -9  673.82   32.72
   3   2  18  789.47   44.61
  -4  -4  19  158.73   28.85
  -6  -1  -9  618.23   36.27
  -3  -4  21 3398.53   72.66
  -3  -2 -18  779.38   45.16
   6   1   9  602.19   26.70
  -2  10 -10  420.82   33.99
  -4  -2  20  820.48   42.02
  -5   1 -15  275.00   34.41
   5  -1  15  106.90   29.20
  -5   1 -15  221.87   49.75
   4   8  -8 4820.28   99.04
  -7   0   4  156.19   19.74
  -4   9   1 5799.85  117.12
   4  -9  -1 5284.22  105.11
  -4  -8   8 5240.09  109.61
  -4   9   1 5620.09  109.88
   5   4   9  355.58   29.27
  -6  -2  13  536.04   36.91
   5   4   9  317.41   23.83
  -5  -4  -9  406.04   32.88
  -1 -10   0 5080.88  117.11
   1  10   0 5373.92  127.71
  -7   2   3  449.96   31.12
  -7   2   3  415.97   19.60
   1  10   0 5086.08  100.90
  -7   2   3  467.70   31.89
  -7   0   0 1776.05   46.62
  -7   0   0 1743.87   51.56
  -5   5 -14  378.53   34.12
  -7   0   0 1791.55   52.31
  -5   5 -14  424.72   59.03
  -5   1  17  226.16   47.12
   2   8   8   -5.82   30.76
  -4  -8   2 1458.74   58.33
  -1   5 -22 1151.19   49.15
   4   8  -2 1264.06   44.89
   2   8   8    0.07   19.02
  -2  -8  -8   10.42   33.99
  -1   7 -20   62.85   18.56
  -4  -8   2 1333.79   44.49
  -1   5 -22 1163.92   38.92
   4   8  -2 1415.65   73.34
  -1   7 -20   64.94   16.71
  -6   4 -10 1668.64   54.84
  -6   4 -10 1579.43   73.22
  -4   1 -18    4.88   22.60
   5   3  11  187.29   28.91
  -3   4  18  143.98   35.94
   3  -4 -18  181.12   20.39
  -5  -3 -11  212.37   50.75
   4  -1  18   12.61   37.91
   5   3  11  251.01   29.98
  -7   2  -1  350.33   33.60
  -7   2  -1  357.88   36.36
  -3  -9   2 1959.95   43.71
   3   9  -2 1945.40   59.40
  -3  -6  19  560.16   52.13
  -3  -9   2 2121.93   98.47
   3   9  -2 1938.99   46.10
  -1   6  16   26.42   26.73
  -4  -5  18  800.40   42.28
  -1   6  16   19.02   24.71
   1  -6 -16   32.86   22.97
  -1  -6 -15  346.06   38.89
   0 -10  12 5134.64  102.82
   0  10 -12 5095.25   86.46
   1   6  15  333.69   35.99
   1   6  15  359.11   38.66
   0  10 -12 5189.21   90.95
   0 -10  12 5247.64   91.47
  -3  -1 -19  144.00   53.04
   3   1  19  103.97   25.44
   3   1  19  105.13   29.76
   4  -8  -7    8.73   29.95
  -4   8   7   25.36   19.79
  -4   8   7   24.17   24.66
  -2  -8  17 1871.20   68.78
  -6   2 -11  201.31   47.08
  -6   2 -11  265.96   33.33
  -6  -3  12  322.89   54.98
   3   8   5  191.99   28.33
  -3  -8  -5  145.53   41.70
   3   8   5  236.97   31.99
  -4   4 -18  432.71   54.29
  -4   4 -18  411.03   38.14
   0   4 -23   33.77   22.79
   0  -4  23   67.64   13.92
   0   4 -23    0.38   19.33
  -7   1   5   56.86   16.72
  -5   8   1 3262.74  105.57
  -1   9 -16   18.92   15.06
   5  -8  -1 3157.93   74.05
  -5   4  14   -6.30   21.05
   5  -4 -14   -1.12   15.36
  -5   8   1 3367.51   71.58
  -1   9 -16    4.44   15.23
  -1  10 -12   13.70   16.48
   1 -10  12   20.47   16.62
  -1  10 -12    2.86   16.47
   1 -10  12   15.11   20.52
   0   8  11   15.91   43.20
  -3   1  21    8.48   16.27
   0  -8 -11   55.80   27.61
   3  -1 -21   31.72   17.80
   0   8  11   38.07   44.73
  -1  -8 -10  -14.34   23.60
   1   8  10    4.65   21.47
   1   8  10    1.83   21.13
  -7   1  -2  935.99   40.84
  -7   1  -2  754.83   45.92
  -5  -4  16  175.36   49.66
  -7   0   5   -2.08   20.52
  -1  10   3   17.24   19.82
  -1  10   3    0.68   23.88
  -2   4  19  -13.54   18.57
   1 -10  -3   -4.11   31.10
   2  -4 -19   -1.08   22.73
  -3  -9   9 1978.78   63.00
   3   9  -9 1681.09   54.93
  -5   8  -6  586.41   40.14
  -5  -3  17  216.10   32.82
  -7   2   4  144.12   17.08
  -5   8  -6  605.43   64.53
  -7   2   4  105.66   15.37
  -7   2   4  139.51   14.61
  -4  -7  14 3939.81   87.61
   5  -6 -10  624.42   29.14
  -6   6  -6  500.89   35.97
  -4   6  13  298.96   28.74
  -5   6  10  649.72   35.40
  -6   6  -6  514.23   58.04
   4  -6 -13  200.01   23.40
  -7   0  -1  381.82   21.18
  -2  10   2 4276.59  133.70
   2 -10  -2 4007.52  113.66
  -7   0  -1  435.28   34.08
  -2  10   2 4494.24  108.72
  -7   0  -1  373.71   20.03
   3 -10   4  431.14   35.79
  -3  10  -4  472.09   40.61
  -3  10  -4  503.30   30.84
  -6  -4  10  307.00   55.26
  -4   9  -8   24.27   24.62
   4  -9   8   20.23   23.10
  -5   4 -15  453.36   39.84
  -5   4 -15  452.97   57.63
  -4   9  -8   12.76   23.84
  -4   0  20 1024.07   44.16
  -7   2  -2  701.67   30.68
  -7   2  -2  741.29   41.92
   4  -5 -15  420.28   37.70
  -4   5  15  450.91   44.76
  -1   9   8 4484.89  134.51
   3   3  17   28.37   27.53
  -1   9   8 4433.26  125.87
   1  -9  -8 3937.59   87.39
   3   3  17   21.98   25.70
  -3  -3 -17   42.87   29.05
   5   6   3 1396.93   68.48
  -3  10  -3  308.26   29.45
   1   4 -23 1130.58   29.38
  -5  -6  -3 1609.64   82.40
   3 -10   3  315.22   35.72
  -3  10  -3  271.47   61.35
   5   6   3 1445.44   39.12
  -1  -4  23 1090.97   33.43
   1   4 -23 1054.60   34.21
  -5  -6  -3 1539.28   42.52
  -1   7  14   76.56   28.88
   4   4  13 2315.92   64.06
  -4  -4 -13 2503.67   98.85
   1  -7 -14  103.39   28.63
  -1   7  14   16.61   50.06
   4   4  13 2301.99   52.82
  -4  -8   9   71.53   49.42
  -3  10  -5  477.47   27.96
  -3  10  -5  489.41   62.22
  -2   9 -15  386.53   47.45
  -2   9 -15  371.54   28.78
   4   8  -9   32.20   39.44
   3 -10   5  493.09   55.70
  -2  -9  -4    6.38   17.82
  -1  -5 -17    2.24   21.27
   1   5  17   11.46   38.25
   1   5  17   10.62   21.54
   2   9   4   26.64   21.78
   2   9   4   15.69   24.62
  -6   3 -11 1990.31   57.28
  -4  -5 -11  671.23   43.12
   4   5  11  601.43   39.41
   4   5  11  631.28   48.73
  -6   3 -11 2003.06   86.98
   6  -4 -10   25.92   12.01
  -6   4  10   25.30   14.57
   4   8  -1  608.26   38.18
  -4  -8   1  645.85   25.09
  -4  -8   1  767.29   72.73
  -4   7 -15  978.77   63.76
   4   8  -1  642.40   40.34
  -4   7 -15  870.91   68.34
   2  -2  22   12.03   33.13
  -2   3 -22  489.99   35.48
   4   7   5  438.66   46.43
  -4  -7  -5  492.33   48.61
  -2   3 -22  454.46   30.89
  -2   2 -22    7.28   19.96
  -4  -7  -5  580.49   67.01
   4   7   5  487.55   35.30
  -6   6   4 3982.76  101.85
   6  -6  -4 3507.50   70.21
   2  -8 -11  234.96   31.60
  -2   8  11  295.91   37.92
  -2   8  11  243.45   57.93
  -6   5  -9  562.57   38.62
  -6   5  -9  501.28   35.41
  -5   7   7   -8.72   17.33
   5  -7  -7   -0.13   21.01
  -5   7   7  -12.25   20.82
  -1 -10  11  597.23   23.46
  -2   1  22 6181.14  100.96
  -6   1 -11 2717.56   65.17
   2  -1 -22 5736.29   92.43
   1  10 -11  634.37   31.55
   1  10 -11  650.63   27.39
  -1 -10  11  610.52   33.72
  -6   1 -11 2646.00   68.86
  -5   6 -13  181.09   32.94
  -5   6 -13  182.21   30.58
   3   9  -1 1101.69   36.11
  -3  -9   1 1168.55   54.78
   3   9  -1 1000.04   47.28
  -3  -9   1 1040.00   47.74
   2   9 -14 2217.87   53.79
  -2  -9  14 2474.24   61.59
  -4   9   2  964.11   77.67
   4  -9  -2  757.91   64.17
  -4   9   2  775.55   30.56
  -3  10  -2 5618.95  106.08
  -3  10  -2 5820.46  118.95
   3 -10   2 5371.71  107.67
  -6  -2  -8   83.96   16.92
   6   2   8   30.49   31.96
  -3  10  -6    4.15   21.02
   3 -10   6   18.74   22.22
  -6  -2  -8   44.05   37.13
   6   2   8   51.10   20.86
  -4  -1 -17 1759.35   61.54
   4   1  17 1652.05   57.02
  -7  -1   3  870.28   33.65
   0   6  16 2345.06   70.53
   1  -2  23  572.37   32.90
  -7  -1   2  396.80   25.70
   1  -2  23  565.90   31.69
   0   6  16 2400.68   97.99
  -1   2 -23  519.97   32.51
   0  -6 -16 2270.41   92.74
   4   1  17 1558.25   43.70
   4   2  16 4109.66   82.14
  -6   0  14 7455.48  132.49
   4   2  16 4402.15   94.76
  -5  -6  12  296.94   56.38
   3   7   9  130.88   28.57
  -3  -7  -9   90.11   28.22
  -4  -2 -16 4586.03  103.00
   3   7   9   89.50   44.43
  -2  -2  23  720.72   33.06
   1  -5 -18 1182.87   45.45
  -1   5  18 1315.51   57.26
   6   3   6  578.34   42.97
  -6  -3  -6  516.57   31.32
  -6  -3  -6  542.94   30.30
   6   3   6  477.29   24.42
  -3   9   6 1539.53   51.24
  -3   9   6 1740.32   62.26
  -1   3 -23  226.06   22.46
   3  -9  -6 1491.26   51.47
   1  -3  23  249.62   24.52
   6   4   3  108.78   27.75
   6   4   3  132.06   33.58
   1   7  13   30.46   28.88
  -6  -1  14  996.18   45.01
  -1  -7 -13   63.35   46.28
   1   7  13   69.49   28.18
  -6  -4  -3  151.99   31.40
  -6  -4  -3  119.80   25.61
  -7   3   1 4196.93   74.80
  -4  -3  20  229.93   48.09
   1   0 -23  813.21   48.62
  -7   3   1 4297.78   74.78
  -7   1   6 1867.66   60.76
  -7   3   0  432.82   39.53
  -3  -2  22  296.27   31.05
  -7   3   0  429.64   38.81
  -5   7 -11   -6.11   20.89
  -5   7 -11   -6.88   21.83
  -5   8   2   44.14   23.69
   1  10   1   -4.31   37.22
  -1 -10  -1   -6.05   17.72
   5  -8  -2   38.83   36.33
  -5   8   2   11.09   22.08
   1  10   1   30.51   22.58
  -3   6 -19  598.15   57.30
   5   1  14  539.00   38.41
  -3   6 -19  604.37   34.12
  -7   0   6  468.70   27.05
  -5  -1 -14  580.43   42.39
  -7   2   5  653.03   25.31
  -7   2   5  577.79   21.67
  -7   2   5  529.31   30.05
   0   8 -19   13.69   13.84
   0 -10  -3 1766.97   55.82
   2 -10  11  383.76   30.17
  -7  -1   4 2993.40   82.53
  -3   9 -13  544.92   56.99
   0  10   3 1847.04   61.85
  -3   9 -13  562.38   37.77
   0  10   3 1867.42   82.77
   0   8 -19   46.26   12.51
  -2  10 -11  395.31   32.55
   0  -8  19    1.75    9.76
  -7  -1   1 1796.84   43.34
  -7  -1   1 1463.87   42.74
  -7  -1   1 1567.42   34.99
  -4   3  18  248.96   29.57
   4  -3 -18  203.70   16.55
   1   2  21   20.36   34.86
  -1  -2 -21   38.37   24.78
   1   2  21    1.73   29.32
  -7   0  -2 2289.84   45.72
  -7   1  -3    1.78   14.08
  -7   0  -2 2332.15   49.92
  -7   1  -3   41.91   16.31
  -7   0  -2 2384.06   45.66
  -3   6  15  116.66   34.49
   3  -6 -15   -9.25   27.41
  -3  -8  15   12.10   20.13
  -7   3   2 1064.63   46.25
  -7   3   2 1040.61   31.62
  -7   3   2 1062.08   38.09
  -3   6  15  139.44   27.00
  -5  -5  -7 2361.54   62.04
   5   5   7 1916.19   49.58
   6  -5  -8  330.23   21.83
  -1  -9  16  211.77   36.43
  -5  -5  -7 2201.10   58.43
   5   5   7 1994.33   70.60
   1   9 -16  232.14   16.73
  -6   5   8  381.35   26.92
   1   9 -16  240.84   25.20
  -5   8  -7  954.09   45.71
  -3  -1  22  978.31   62.05
  -5   8  -7  858.92   47.10
  -7   3  -1 2273.99   52.87
  -7   3  -1 2269.18   66.61
  -7   2  -3   63.54   19.43
  -7   2  -3   64.66   17.76
  -3  -9  10 1068.41   74.94
   3   9 -10 1076.74   45.54
   3   5  14  893.64   45.46
   3   5  14  862.45   57.00
  -3  -5 -14  933.66   50.83
   0   0  23 2941.50   63.86
   0   0 -23 2976.44   87.61
  -2   6  16 1408.87   50.44
  -2   6  16 1211.14   59.01
   1   3  20  542.55   38.87
   2  -6 -16 1197.85   44.24
  -5  -1  18 3818.09   86.86
   1   3  20  548.69   34.82
  -1  -3 -20  531.97   41.36
  -3  10  -1  101.41   54.16
   3  -8 -10  609.94   58.04
  -3   8  10  588.81   44.68
   3 -10   1   80.79   27.30
  -3   8  10  742.43   66.10
  -3  10  -1   92.08   17.63
   0   9   8  569.33   42.79
  -4   8 -13  169.84   47.13
   0   9   8  550.68   44.40
   2   1 -23 1134.94   29.40
  -4   8 -13  105.72   48.59
   0  -9  -8  539.13   39.58
  -2  -1  23 1140.60   58.66
  -3  10  -7 1232.49   75.49
   3 -10   7 1149.25   70.54
  -3   0 -20   32.19   41.77
  -3   8 -16  891.90   64.48
   3   0  20    7.39   35.96
   3   0  20   12.81   16.79
  -3   8 -16  970.90   40.35
   2   2  20   51.95   25.88
   2   2  20   22.96   18.40
  -2  -2 -20   26.34   25.74
   0  -7 -14   10.71   22.77
   0   7  14    5.69   24.14
   0   7  14    9.11   23.76
  -2  -3  23   42.69   31.01
   5   2  13  761.36   35.28
   6   5  -4  264.66   28.00
  -4  -8  10  402.57   39.03
  -5  -2 -13  888.16   44.73
   5   2  13  778.64   40.20
   4   8 -10  297.00   31.72
  -6  -5   4  308.54   34.22
   2   6  14 1391.06   86.82
   2   6  14 1500.50   52.56
  -7  -1   5  847.78   52.31
  -2  -6 -14 1467.65   86.69
  -6   6  -7 1186.65   68.92
  -6   6  -7 1102.89   47.86
  -7  -1   0    5.52   15.59
  -6  -5   5  587.39   60.12
  -7  -1   0  -13.30   11.13
  -7  -1   0   -5.21   21.95
   6   5  -5  457.44   32.57
  -4   9  -9 1342.26   77.38
  -4   9  -9 1233.83   80.19
  -2  -6  21  268.52   25.99
   4  -9   9 1286.65   49.72
  -4  -8   0  924.04   31.13
  -4  -8   0  955.88   50.85
   4   8   0  872.64   44.55
  -7   3   3 1078.12   39.86
   4   8   0  887.47   45.01
  -7   3   3  991.53   43.65
  -7   3   3 1098.83   31.71
  -2  -5  22   26.88   17.98
  -3   5 -20 2200.02   62.25
  -3   5 -20 2091.08   78.65
  -6  -5   3  181.51   50.23
   6   5  -3  198.61   25.94
   0  10 -13 1071.50   50.11
   0  10 -13  824.45   32.90
   5   0  15  301.17   55.08
   0  10 -13  980.53   30.01
   0 -10  13 1108.48   48.84
   0 -10  13 1120.20   51.72
  -5   0 -15  415.86   38.56
   2   5  16   67.93   29.34
  -2  -5 -16   52.11   29.75
   0   6 -22  212.56   19.42
   0  -6  22  216.55   25.97
   0   6 -22  175.32   16.75
  -4  -6  17  407.19   56.32
   2   5  16   52.25   24.58
   2  -1  22  289.47   19.30
  -7   3  -2  -10.53   15.01
  -2   4 -22 1563.13   49.35
  -2   1 -22  292.85   52.94
  -7   3  -2   -8.51   16.31
   2  -1  22  329.53   32.11
  -2   4 -22 1439.13   45.30
  -5  -5  15  758.39   43.45
   3   9   0  507.81   44.54
  -2 -10   5 1501.29   38.72
   2  10  -5 1470.97   53.87
   0  -5 -18   40.33   40.86
  -3  -9   0  518.33   28.01
  -3  -9   0  539.02   73.10
   2  10  -5 1573.28   43.31
  -4   7  11 1649.29   80.40
   2  10  -6 4375.93  116.93
  -2 -10   5 1553.03   87.83
  -2 -10   6 4527.18   98.60
  -2 -10   6 4197.91   72.02
   0   5  18   50.82   28.06
   2  10  -6 4573.21   81.55
  -4   7  11 1567.25   57.29
   3   9   0  456.81   61.92
   4  -7 -11 1345.82   44.55
  -6  -5   6    5.74   21.40
  -5   0  18 2029.00   61.43
  -2   7  14   26.79   35.43
   2  -7 -14  -16.10   20.94
   6   5  -6   32.58   21.43
  -2   7  14   -4.07   23.63
   3   6  12 2882.34  102.71
   2  -9  -8  146.67   30.84
  -2   9   8  163.67   49.07
  -2  10   3  933.68   41.49
  -3  -6 -12 3125.65   79.72
   2 -10  -3  835.16   45.22
   5   7  -5  747.10   40.86
  -2  10   3  977.48   53.52
   3   6  12 2917.82   92.75
  -2   9   8  138.33   35.07
  -5  -7   5  866.73   47.53
   1  -1  23   92.61   18.15
  -6   6   5  561.14   33.11
  -2  -3 -19 5017.85  107.70
  -1   1 -23   34.30   22.19
   2   3  19 5063.92  105.88
   6  -6  -5  569.22   46.37
  -3  -3  22  938.44   60.70
   2   3  19 4814.29  112.12
   1  -1  23   33.15   22.14
  -6  -4  11  118.81   29.37
  -5  -2  18   34.94   23.90
  -3   5  17  838.66   38.02
   3  -5 -17  768.00   47.77
  -1  10 -13   70.58   32.16
  -1  10 -13   58.11   20.30
   1 -10  13   90.21   19.48
  -1  10 -13   41.13   18.48
   1 -10  13   51.82   14.72
  -5  -7   4 1231.47   53.24
  -4   0 -18  813.22   74.52
   4   0  18  731.08   43.91
   5   7  -4 1068.46   47.01
  -1  -9  -7   15.02   22.13
   1   9   7   31.53   24.77
   1   9   7   -2.61   42.55
   4   3  15    4.11   22.28
  -2 -10   4 1548.76   59.46
   2  10  -4 1486.49   52.93
  -3   7 -18   52.87   22.33
  -4  -3 -15   11.95   23.97
  -2 -10   4 1493.47   39.58
  -3   7 -18   73.03   25.10
   2  10  -4 1582.74   60.57
   4   3  15   17.21   22.64
   1   1  22 1076.86   56.55
  -5  -7   6  -15.78   24.98
  -1  -1 -22 1031.49   45.80
  -3   7  13  344.77   35.26
  -3   7  13  345.30   40.07
   5   7  -6    8.70   21.05
   3  -7 -13  280.76   29.24
   1   1  22 1011.52   43.72
  -6  -5   2   37.63   24.42
  -7   0   7 1808.65   48.83
   6   5  -2   32.15   19.53
  -7   2   6  107.83   28.58
   2  10  -7   69.72   25.72
  -2 -10   7   63.18   15.19
   2  10  -7  108.82   28.87
  -4   9   3 1695.18   44.54
   4  -9  -3 1429.99   51.58
  -2   8 -18   51.63   20.08
  -2   8 -18   54.31   35.00
  -4   9   3 1549.60   62.05
  -2 -10   7   84.50   47.67
  -7   1   7  681.53   30.64
   1  10 -12  351.25   34.64
  -1   4 -23 1826.36   44.21
   1 -10  -4  111.13   29.22
  -1 -10  12  357.66   30.69
  -1   4 -23 1853.98   49.56
  -1   8 -19    1.89   24.43
   1  10 -12  328.70   26.14
  -1 -10  12  379.50   45.42
  -1   8 -19   14.24   14.07
  -1  10   4   89.22   32.63
  -1  10   4  100.60   26.39
  -4   4  17 2586.33   55.32
   4  -4 -17 2273.16   47.01
   5  -8  -3   56.88   23.21
  -5   8   3  129.96   29.57
  -5   8   3  113.81   18.36
  -2  -1 -21 1290.13   51.44
   2   1  21 1236.88   72.55
   2   1  21 1162.00   52.10
   3 -10   0  849.43   44.77
  -6   4 -11   22.84   22.30
  -3  10   0  858.19   31.94
  -3  10   0  985.43   50.96
  -6   4 -11   29.96   24.15
  -6  -3  13 3195.43   77.72
  -6  -2  14 2061.07   87.57
   4   6   9 8060.49  139.29
   4   6   9 7942.83  135.83
  -7   0  -3 1237.78   38.20
  -4  -6  -9 8757.02  180.71
  -7  -1   6  682.81   33.88
  -7   0  -3 1328.13   47.41
  -7   0  -3 1243.42   32.32
  -4   6 -17   16.52   33.93
  -4   6 -17    9.80   37.38
   0   9 -17 1222.46   46.65
   0   9 -17 1213.62   34.44
   3 -10   8   10.59   20.92
   0  -9  17 1320.90   48.36
  -5  -6  -4 2260.46   54.56
  -5  -6  -4 2529.88   68.98
   5   6   4 2103.34   49.33
   5   6   4 2148.88   57.64
  -7  -1  -1  639.80   25.71
  -7  -1  -1  726.01   41.37
  -7   3   4 1351.89   44.37
  -7   3   4 1293.62   33.57
  -7  -1  -1  662.24   33.45
  -7   3   4 1219.49   32.75
  -3  -7  18 3941.30  105.07
  -7   2  -4  744.21   46.55
  -7   2  -4  691.06   51.96
  -5  -7   3  109.14   52.71
   5   7  -3   95.88   27.43
  -4   8   8  689.15   45.31
  -7   1  -4   56.98   17.19
  -4   8   8  725.17   39.42
  -7   1  -4   65.57   20.15
   4  -8  -8  564.17   34.61
   6   1  10   20.44   20.38
  -6  -1 -10    4.16   18.93
  -3  -4 -16   10.91   24.76
   3   4  16   43.51   25.39
   3   4  16    5.09   17.86
   0   7 -21 1652.19   39.59
  -4   5 -18 2886.24   71.25
  -5   8  -8  849.10   72.50
  -6   0 -11 1806.77   58.35
  -6  -5   7  138.08   30.00
   2  -5 -18 1314.52   44.54
  -4   5 -18 2888.64   76.22
   0   7 -21 1600.45   36.16
  -3  -8  -6 1327.05   46.96
  -6   0 -11 1814.76   52.18
   0  -7  21 1710.29   37.27
  -5   8  -8  932.03   70.57
  -2   5  18 1375.98   60.69
   6   5  -7  124.96   26.53
   3   8   6 1323.70   48.08
   3   8   6 1290.95   51.46
   5   7  -7   40.91   23.77
  -5  -7   7   36.44   28.19
  -7   3  -3 1073.37   57.58
  -7   3  -3 1023.44   35.81
  -1  -8  19   69.77   28.00
  -2 -10   3 2719.93   73.61
   2  10  -3 2704.62   70.48
   2  10  -3 2656.12   59.77
  -5   2 -16 1265.14   50.40
  -3  -9  11 1071.99   48.23
  -5   2 -16 1302.17   54.67
   3   9 -11 1020.45   63.97
  -2 -10   3 2815.92  109.89
  -4   1  20  177.65   30.76
   1  -3 -21  934.06   59.70
  -5   5  13 4974.88  109.86
  -1  -6  22  694.95   29.14
   5  -5 -13 4291.85   75.16
  -1   3  21    8.49   23.38
   2  10  -8 2016.37   58.10
  -2 -10   8 2078.61   63.00
  -1 -10  -2 2399.67   82.98
   1  10   2 2487.69   94.46
   2  10  -8 1981.31   55.51
  -2 -10   8 1874.14   39.89
   1  10   2 2491.16   68.46
  -3   0  22 3150.28   74.29
   0  -5  23  625.47   23.12
  -5   3 -16   62.32   25.56
  -5   3 -16   47.30   29.57
   0   5 -23  610.24   26.85
  -4  -7  15  909.52   71.71
  -6  -4  -4  261.34   38.06
  -6  -4  -4  271.76   28.48
   6   4   4  247.09   24.17
   6   4   4  273.21   21.57
   1  -8 -12  758.79   68.38
  -1   8  12  935.17   50.23
   1  -2 -22 1772.51   69.59
  -1   8  12  880.99   78.10
  -1   2  22 1709.24   48.49
  -6   5 -10 1304.16   49.19
  -6   5 -10 1335.40   79.33
   1   4  19 2704.12   69.40
  -6  -5   1 2163.33   63.12
   5   4  10 2336.31   82.88
  -5  -4 -10 2501.81   66.25
   5   4  10 2262.50   68.56
  -1  -4 -19 2773.27   76.52
   6   5  -1 1899.86   74.90
   1   4  19 2893.13   74.86
  -2  -9  -5   40.17   37.63
   2   9   5   -3.17   20.64
   2   9   5   -2.10   31.66
   4   8 -11  147.40   44.80
   2 -10  12  258.93   28.35
   2   8   9  515.70   39.36
  -2  10 -12  260.88   29.88
   2   8   9  446.86   39.70
  -5  -6  13  175.16   34.11
  -2  10 -12  208.61   45.47
  -2  -8  -9  536.15   39.16
  -4  -8  11  150.25   51.40
  -3   3 -21  239.88   45.55
  -3   3 -21  204.01   33.26
  -5   7   8 2929.58   68.22
   5  -7  -8 2334.85   57.22
  -5   7   8 2984.79   97.17
   5   7  -2 2602.05   66.44
  -5  -7   2 2845.83   79.09
  -5   5 -15  354.97   35.55
  -5   5 -15  396.75   38.83
  -3   2 -21  612.48   63.00
  -3   2 -21  506.79   34.83
   3  -2  21  626.81   41.05
  -6   2 -12 5691.64  133.91
  -6   2 -12 5830.34  115.43
  -4  -7  -6 2230.91   68.55
  -4  -7  -6 2134.39   57.91
   4   7   6 1925.04   81.14
   4   7   6 1907.60   52.05
  -4  -8  -1   -0.48   21.02
   4   8   1   -1.85   20.75
  -4  -8  -1   -1.31   19.16
   4   8   1   -9.31   14.09
  -3  -5  21  649.93   55.06
  -2  -7 -12  195.57   33.77
  -2   6 -21  305.34   29.97
  -2   6 -21  341.77   26.20
   2   7  12  153.49   30.89
   2   7  12  149.56   54.61
   2   9 -15  734.27   34.95
  -2  -9  15  668.86   37.25
  -1   9 -17 1746.95   46.14
  -1   9 -17 1769.59   60.24
  -2  -8  18  652.74   32.60
  -6   6  -8  170.49   56.04
   0  10   4   20.61   43.82
  -6   6  -8  372.89   34.34
   6  -4 -11  486.90   21.11
  -6   4  11  572.91   25.83
   0  10   4   35.46   24.83
   0 -10  -4    2.84   18.96
   2   0 -23    0.82   16.05
  -4   9 -10   42.67   26.09
  -4   9 -10   42.89   27.30
  -2   0  23   28.29   20.78
   5   7  -8  265.74   31.74
  -5  -7   8  245.67   37.29
  -4   3 -19   59.19   25.51
  -4   3 -19   48.42   29.47
  -5   6  11   -2.86   26.04
   5  -6 -11   16.58   25.14
  -4   2 -19  377.11   61.66
  -4   2 -19  296.90   34.07
  -7  -1   7   25.26   30.81
  -3  -9  -1    8.87   25.21
  -3  -9  -1    0.93   23.81
   3   9   1   27.76   23.72
   5   3  12  866.39   41.82
   3   9   1    8.25   17.42
  -5  -3 -12 1019.21   70.69
   5   3  12  852.58   43.23
  -2  -7  20 1699.81   47.02
  -2 -10   2   16.78   24.16
   2  10  -2   -2.95   15.12
  -1  -5  23  360.41   23.24
  -2 -10   2    0.09   14.63
   2  10  -2   -1.51   19.84
  -7   3   5  131.41   15.69
  -6  -3  -7 2730.74   59.49
  -6  -3  -7 2689.05   84.98
  -7   3   5  101.05   16.62
   6   3   7 2321.49   63.23
   6   3   7 2385.92   73.21
  -7   3   5  101.22   16.35
  -6  -5   8  142.32   30.47
  -3  10   1  947.31   52.06
  -2   9 -16 1710.49   70.43
  -2   9 -16 1799.87   69.79
  -3  10   1  993.32   54.14
   3 -10  -1  957.42   69.95
  -5   7 -12 1310.00   80.94
  -7  -1  -2  143.09   19.28
  -5   7 -12 1377.79   77.05
  -7  -1  -2  183.64   30.54
  -2 -10   9   44.09   13.02
   2  10  -9   22.86   13.88
  -3   9   7  200.39   48.21
   3  -9  -7  262.06   32.94
  -2  -4  23  654.83   48.54
  -5  -4  17 1065.63   48.23
  -6   3 -12  461.42   57.02
   2  10  -9   65.09   34.18
  -3   9   7  196.86   59.64
  -6   3 -12  499.30   40.53
  -2 -10   9   34.01   26.00
   0  -3 -21    1.93   18.32
   0   3  21   11.48   20.64
   0   3  21   -9.68   31.28
   0   2  22  253.99   27.50
  -3  10  -9   58.42   43.78
   3 -10   9   39.67   23.82
   0   2  22    8.69   29.74
   0  -2 -22    6.36   20.27
   6  -5  -9  104.51   27.07
  -4  -5  19 1523.62   76.94
  -1   6 -22   16.49   24.14
  -6   5   9  156.11   21.70
  -1   6 -22   25.72   17.41
  -7   0   8 2351.25   56.84
   1  -9  -9    8.00   21.32
  -1   9   9   32.57   28.32
  -1   9   9    1.49   42.28
  -7   2   7   14.18   15.25
  -7   3  -4 1958.56   53.42
  -3   9 -14  107.16   26.18
  -7   3  -4 2049.58   51.01
  -3   9 -14  114.85   44.28
  -4  -4  20   99.50   27.91
  -3   3  20   -2.18   13.51
   3  -3 -20  104.73   27.57
   6   2   9 1755.01   50.67
  -6  -2  -9 1895.97   55.61
   6   2   9 1710.67   37.38
  -6   6   6 3144.37   67.68
   6  -6  -6 2736.92   59.58
  -5   1 -16  282.73   60.21
   5  -1  16  132.32   31.54
  -5   6 -14  625.71   72.75
  -5   6 -14  807.20   64.96
  -1  -7  21   98.01   17.83
  -3  -6  20  113.54   40.50
  -5   1 -16  244.69   52.04
  -2   7 -20   47.69   21.18
  -7  -2   3   48.85   20.64
  -7   0  -4   36.33   17.84
  -2   7 -20   49.18   18.87
   2   4  18 2525.30   63.40
  -2  -4 -18 2607.35   76.63
  -5   8   4  922.82   47.85
  -7   1   8 1093.59   54.62
  -5   8   4  901.02   69.81
   5  -8  -4  814.82   57.88
   2   4  18 2525.21   72.95
   6   5   0 3570.22   70.58
   1  -4 -20 2787.95   67.40
   6   5   0 3475.48   73.68
  -6  -5   0 3992.61  115.72
  -1   4  20 3270.69  100.89
  -1   4  20 3106.99  114.13
  -5   1  18   47.66   39.86
  -5   4  15 1365.78   50.68
   5  -4 -15 1246.03   32.03
  -1  -2  24  506.88   24.14
   1   8  11   57.54   30.56
   1   2 -24  551.69   22.11
   1   2 -24  576.79   26.15
   1   8  11   63.32   30.02
  -7  -2   4 4892.14  113.11
  -1  -8 -11   25.23   25.37
  -1  -2  24  552.28   41.33
  -7  -2   2 7184.57  120.90
  -6   1 -12 1175.58   45.93
  -7   2  -5 1436.44   46.35
  -7   2  -5 1457.62   42.67
  -6   1 -12 1160.95   50.50
  -4   9   4   94.86   21.04
  -5  -7   1  166.79   16.81
  -4   9   4   82.37   32.18
   5   7  -1  168.81   29.31
  -5  -7   1  195.39   58.03
   5   7  -1  144.50   25.79
   4  -9  -4   50.18   40.42
  -4   7 -16  296.25   35.43
  -4   7 -16  267.14   31.22
   0   2 -24  178.76   35.36
   0  -2  24  178.71   33.94
   0  -2  24  140.93   17.55
  -5  -3  18  259.77   34.52
  -3  -8  16  101.85   42.81
  -7   4   0  176.84   36.19
   3  -2 -21   13.36   12.09
  -3   2  21    1.09   10.49
  -7   4   0  192.24   23.43
  -2  10   4 1383.37   91.66
   0  10 -14 1570.79   58.50
   2 -10  -4 1252.68   75.29
   0  10 -14 1624.92   38.24
  -6   7  -2  280.66   31.33
  -2  10   4 1398.43   48.74
  -6   7  -2  188.72   32.37
   0 -10  14 1791.16   44.48
   0  10 -14 1727.52   43.13
  -6  -4  12   78.17   28.13
  -6   7  -1 2219.54   63.35
  -6   7  -1 2283.01   61.83
   6  -7   1 2097.86   57.39
  -7   1  -5 1462.98   64.59
  -7   1  -5 1413.25   39.92
   0  -8 -12 1692.88   60.04
   0   8  12 1769.38   64.83
   0   8  12 1820.85   64.87
  -7   4   1 1742.13   60.77
  -7   4   1 1808.73   61.86
  -1   7 -21   23.50   17.32
  -1   7 -21   32.98   15.33
  -6  -1  15 1319.34   50.15
   0   3 -24 1044.82   50.85
   0   3 -24 1009.95   43.40
   0  -3  24 1059.68   31.24
  -5   8  -9    6.40   23.80
  -6   0  15    1.15   17.56
  -4  -1  21  937.41   67.79
  -7   4  -1  868.12   35.30
  -5   8  -9   18.74   23.28
  -7   4  -1  930.80   34.98
  -5  -5  -8  -27.28   19.87
   5   5   8   68.62   20.66
  -1 -10  13  251.52   27.43
   1  10 -13  281.86   20.85
  -1 -10  13  263.43   27.23
   4  -6 -14   11.12   16.10
   1  10 -13  238.71   23.26
  -5  -5  -8   93.75   31.66
   5   5   8   58.97   35.60
  -4   6  14    2.65   17.05
  -3   4 -21  489.53   35.41
  -5   4 -16 1851.98   63.98
  -3   4 -21  602.69   39.75
  -5   4 -16 1845.50   82.80
  -5  -7   9 1066.93   51.18
   5   7  -9  933.15   44.09
  -6   7  -3 1048.55   46.60
  -4   8 -14  264.22   31.87
  -6   7  -3 1023.62   46.04
  -4   8 -14  249.17   33.96
  -4  -2  21 2740.58   70.94
  -1  -3  24   26.54   16.58
   1   3 -24   42.96   11.85
  -3  -9  12  776.59   68.05
   1   3 -24   22.21   22.78
   3   9 -12  668.07   37.42
  -7  -2   5  217.99   26.84
  -1   1  23 1623.46   45.55
   1  -1 -23 1518.32   44.70
  -1  -9  17  293.64   24.67
  -7  -2   1  967.21   36.83
  -3  -4  22  423.70   32.24
  -2   5 -22  327.28   41.32
  -6   7   0  117.68   45.24
   6  -7   0   -0.97   16.10
  -2   0 -22  490.00   40.74
   2   0  22  490.22   36.71
  -6   7   0   97.76   27.92
   2   0  22  481.10   25.34
  -2   5 -22  308.72   48.53
  -4  -5 -12 1454.95   57.54
   4   5  12 1385.99   63.09
   4   5  12 1326.00   53.09
  -1  10 -14  469.30   30.22
   2  -8 -12 1541.69   52.93
  -2 -10   1  676.10   74.12
  -2 -10   1  596.76   30.70
   2  10  -1  592.19   40.60
  -1  10 -14  487.11   29.77
  -2   8  12 1771.07   90.82
  -2   8  12 1617.74   91.43
   2  10  -1  616.87   52.09
   3   7  10 1841.74   58.76
   3   7  10 1861.93   88.35
  -3   1 -21 1528.75   58.70
   3  -1  21 1505.33   55.95
  -3  -7 -10 2098.43   65.03
  -7   4   2   -1.04   14.45
  -7   4   2   27.56   15.39
   1   0  23  649.96   32.29
   1   0  23  620.73   56.34
  -1   0 -23  633.64   38.05
  -4   4 -19  997.49   68.08
  -4   4 -19 1038.65   51.84
  -2   3  21  647.02   33.37
  -7   4  -2 1397.28   43.65
   2  -3 -21  531.87   44.21
  -6  -5   9   58.63   26.82
  -7   4  -2 1375.10   63.99
  -2 -10  10  398.43   18.77
  -2 -10  10  354.27   35.86
   2  10 -10  385.94   21.41
   2  10 -10  428.29   32.07
   1 -10  -5  461.88   37.25
  -1  10   5  502.23   69.96
  -1  10   5  505.72   61.01
   4   8 -12  404.39   33.79
  -4   1 -19  308.41   38.51
   4  -1  19  260.03   58.25
  -1  -6 -16  -17.46   43.63
   1   6  16   -1.61   21.75
   1   6  16  -11.75   24.01
  -4  -8  12  396.00   39.54
  -7  -1   8  320.19   28.98
  -1   6  17 2792.02  114.73
   4  -5 -16  417.13   39.42
   1  -6 -17 2749.40   69.76
  -1   6  17 2956.40   76.57
  -4   5  16  480.25   47.56
  -5  -6  -5  154.59   31.28
  -5  -6  -5   98.46   24.12
  -3   4  19   -1.41   14.00
   5   6   5  136.43   25.62
   4   4  14   94.23   21.45
  -4  -4 -14   77.04   50.64
   5   6   5  115.43   21.73
  -1 -10  -3  205.65   29.38
   1  10   3  183.25   32.13
  -7   3   6  783.88   28.23
   4   4  14  148.03   30.37
   1  10   3  177.67   33.06
   3  -4 -19   -5.10   13.86
  -7   3   6  760.35   37.41
   3   2  19 4353.46   95.99
  -6   7  -4    4.27   21.42
  -6   7  -4   22.28   22.70
   3   2  19 4179.28   75.35
  -3  -2 -19 4467.37  100.80
   0  -9  -9  583.64   65.14
  -7  -1  -3  562.75   27.74
   0   9   9  500.11   43.52
  -7  -1  -3  550.69   38.77
   0   9   9  591.30   44.47
  -1  -1  24 1830.88   57.70
   1   1 -24 1957.70   47.59
   0  -4 -20   17.37   38.26
  -1  -1  24 1931.25   49.17
   0   4  20   14.30   24.13
   0   4  20   20.77   37.68
  -4  -8  -2   10.63   15.35
  -4  -8  -2   19.36   42.85
   4   8   2   -6.84   12.63
   4   8   2   11.14   17.80
  -2   2  22 2552.82   55.71
   2  -2 -22 2464.81   53.70
  -5  -5  16  152.00   30.99
  -3  10   2   23.81   18.71
  -3  10   2   51.47   29.96
   3 -10  -2   49.13   26.55
  -1   5 -23  296.52   23.39
   6  -7  -1 1158.10   61.97
   0   1  23  754.31   54.92
   0  -1 -23  746.72   39.45
  -1   5 -23  318.98   26.79
  -6   7   1 1271.13   48.50
  -3   8  11   62.97   28.82
   3  -8 -11   59.68   24.94
  -3   8  11   72.11   46.60
  -7  -2   6 1958.94   55.45
  -6  -4  -5  273.37   26.18
  -6  -4  -5  291.75   28.55
   6   4   5  192.36   36.22
   6   4   5  226.64   21.90
  -1   7  15 1461.04   85.62
  -6  -3  14  214.19   34.27
  -1   7  15 1457.84   90.61
  -7  -2   0   47.53   31.65
   1  -7 -15 1376.15   52.97
  -3  10 -10  147.43   28.48
  -3   8 -17   25.69   21.98
  -7   3  -5 1249.16   44.00
  -7   3  -5 1255.78   41.50
   3 -10  10  168.02   47.24
  -3   8 -17   12.67   20.77
  -3  10 -10   31.28   29.06
  -6  -5  -1   22.65   21.23
   6   5   1   18.25   27.06
  -6  -5  -1   -6.22   35.96
   6   5   1    2.04   10.75
  -5  -7   0 3975.43   82.89
  -7   4   3 1733.08   42.33
  -7   4   3 1478.10   34.87
   5   7   0 3890.29  109.41
  -5  -7   0 4260.34   97.41
   5   7   0 3883.89   81.78
  -7   4   3 1518.74   40.25
   0   1 -24   -0.24   13.74
   0  -1  24   51.27   19.58
  -2  10 -13   23.43   34.77
  -2  10 -13   30.89   20.75
   3   9   2  424.91   30.60
   0  -8  20   99.33   23.82
   3   9   2  419.64   64.31
   0   8 -20   35.69   15.14
  -3  -9  -2  442.46   47.87
   0   8 -20   82.92   21.79
  -3  -9  -2  477.05   30.12
   2  -9  -9 1771.12   83.53
  -2   9   9 1986.11   66.62
  -6   6  -9   64.30   42.37
  -6   6  -9   60.72   27.53
  -2   9   9 1942.50   63.17
  -4   9 -11   61.90   26.22
  -4   9 -11   44.83   44.87
   3   1  20 2278.45   95.73
  -6   4 -12    8.92   21.72
  -6   4 -12   23.72   39.00
   1   9   8  133.20   32.73
   1   9   8  163.15   52.93
   3   1  20 2072.20   58.67
  -1  -9  -8  128.66   29.60
  -3  -1 -20 2389.42   73.12
  -7   4  -3   72.63   22.69
  -7   2   8    1.20   20.52
  -7   4  -3   54.21   34.65
  -4  -6  18  125.34   29.09
  -7   0   9  -11.50   18.17
   5   1  15  146.16   48.92
  -1  11  -5   -3.48   14.16
   1 -11   5   -6.22   18.24
  -5  -1 -15  186.49   35.24
  -1  11  -5   -4.90   20.73
  -5  -6  14  466.14   40.46
  -4   0  21 3311.61  104.44
  -6  -2  15   57.19   26.56
   4  -8  -9  536.80   34.93
   1   7  14 1900.28   63.12
  -4   8   9  688.59   68.73
  -1  -7 -14 1766.98   88.93
  -4   8   9  685.08   41.49
   1   7  14 1853.97   97.10
  -6   5 -11 2243.98   70.37
  -6   5 -11 2372.81   91.46
  -1  11  -4  463.87   28.76
   1 -11   6 1186.31   44.53
  -1  11  -6 1295.65   53.35
  -5  -7  10   69.51   30.46
  -1  11  -4  566.64   63.59
   5   7 -10   39.21   39.39
   1 -11   4  550.19   55.21
  -1  11  -6 1311.54   51.27
   4  -7 -12  796.10   36.29
  -4   7  12  845.25   44.98
  -4   7  12  917.17   49.29
  -7   0  -5 1035.32   38.52
  -6   7  -5  721.72   42.39
  -6   7  -5  763.02   63.33
   3   3  18   22.63   26.70
  -3  -3 -18   24.28   28.43
   3   8   7  701.00   62.95
   3   3  18   27.45   28.49
   3   8   7  715.90   66.21
  -3  -8  -7  702.66   40.09
   0   4 -24 2035.32   48.18
   0   4 -24 1933.70   55.48
   0  -4  24 1951.64   41.22
   2  -4 -20    0.38   21.78
  -3   6 -20  112.81   25.25
  -2   4  20  -37.08   34.17
  -3   6 -20  105.64   28.38
   2   9   6 3619.20   86.51
  -5   8   5  453.48   28.48
   5  -8  -5  352.78   31.30
  -7   1   9   31.19   19.61
  -5   8   5  474.86   39.34
  -2  -9  -6 3764.52   84.29
   2   9   6 3872.87  121.11
  -4  -3  21  103.52   27.35
  -7   2  -6   25.93   25.14
  -4  -7  16 2324.74   66.54
  -7   2  -6   -4.83   17.64
  -5  -1  19 2797.89   75.15
   0  10   5 1616.32   57.43
   0  10   5 1666.38   63.12
   0 -10  -5 1560.03   80.53
  -1  -5 -18 2181.92   98.84
   1   5  18 2144.86   64.24
  -6   7   2  107.21   26.92
   6  -7  -2    0.16   13.87
  -2 -10   0 1035.40   56.78
  -2 -10   0 1035.48   38.59
  -4  -2 -17   60.81   31.20
   2  10   0 1057.49   43.19
   4   2  17   28.03   21.25
   2  10   0 1065.49   48.97
   4   2  17   18.31   25.72
  -5   7   9   57.25   24.50
  -6   6   7   48.34   22.18
  -5  -2 -14   52.36   45.84
   5   2  14   22.70   19.54
  -5   7   9   53.79   40.27
   6  -6  -7    0.83   21.53
   5  -7  -9   53.15   20.53
   5   2  14   17.32   23.35
  -3   6  16  797.34   51.37
   3  -6 -16  705.66   34.10
  -3   6  16  802.11   41.01
  -1  11  -7  448.14   38.44
   1 -11   7  444.25   51.03
   0   9 -18 1777.80   41.05
   4   1  18 2442.80   70.77
   0 -11   5  252.21   27.06
   0   9 -18 1703.89   41.33
  -4  -1 -18 2572.08   75.27
   0  -9  18 1944.47   56.05
  -1  11  -7  427.09   37.05
   0  11  -5  241.57   31.43
   0  11  -5  202.48   42.88
  -1  11  -3 2444.73   71.85
  -1  11  -3 2465.03   78.18
   1 -11   3 2398.59   63.84
   6   1  11  302.67   32.19
  -7  -2   7 5592.59  106.90
  -6  -1 -11  429.78   58.43
   0  11  -6  911.93   37.34
   4   6  10  384.25   32.50
   0  11  -6  987.58   65.09
   0 -11   6  937.03   37.02
   0  -6 -17 5127.91  137.00
   0   6  17 5467.65  117.23
   0   6  17 5264.39  114.43
  -4  -6 -10  478.58   40.05
   4   6  10  404.54   35.89
  -7  -2  -1 1554.21   61.64
  -7  -2  -1 1421.68   50.07
  -7   1  -6  541.61   33.82
  -2 -10  11  967.14   45.69
   2  10 -11  963.63   41.11
  -1  -4  24   21.94   15.13
  -4   9   5 1946.69   96.79
  -7   4   4  949.27   33.51
  -7   4   4  958.78   39.10
  -2  -9  16 3435.37   98.65
  -6  -5  10 1361.41   54.58
  -4   9   5 1716.49   70.45
   4  -9  -5 1533.50   54.32
  -7   4   4  858.39   44.26
  -3  -5 -15   80.96   53.99
   3   5  15   87.72   31.17
   3   5  15  123.69   39.31
   4  -3 -19   35.62   12.81
  -4  -7  -7   19.23   21.74
   4   7   7   14.86   20.83
  -5   8 -10   66.34   29.67
  -4   3  19   -2.03   18.06
  -5   8 -10   85.72   45.44
   4   7   7   11.42   19.62
  -6   0 -12  168.13   32.76
   0  11  -4 2133.20   87.10
   0  11  -4 2035.57   55.81
   0 -11   4 2051.60   76.41
  -2   8 -19 3406.37   96.04
  -3  -7  19  573.67   35.41
  -2   3 -23  895.43   37.83
   3   9 -13  150.85   26.95
  -2   8 -19 3407.82   70.67
   0  11  -7    4.51   18.67
   0  11  -7    9.12   15.99
   0 -11   7  -19.08   26.95
   0 -11   7   -3.88   18.77
  -2   3 -23  914.83   64.18
  -5   0 -16 1472.75   59.50
   5   0  16 1347.99   80.57
  -3  -9  13  178.19   31.98
   0   7  15 3630.12   89.62
   0   7  15 3307.35   88.30
   0  -7 -15 3233.39   81.04
  -6  -3  -8   74.66   19.86
   6   3   8   13.66   23.37
  -3  -6 -13  455.31   42.54
  -7  -1   9   44.58   36.93
   3   6  13  436.10   33.86
  -7   4  -4 2204.70   55.83
   6   3   8   74.45   31.74
  -5  -2  19  485.51   39.24
  -6   5  10  513.72   28.85
   3   6  13  438.53   39.69
  -6  -3  -8   33.35   38.85
  -7   4  -4 2190.76   80.18
   6  -5 -10  431.87   23.22
   1  -5 -19    0.89   17.21
  -1   5  19    0.44   18.68
  -5   7 -13  878.46   47.73
  -5   7 -13  800.87   45.94
  -7   3   7  410.39   24.27
  -1   5  19   -6.53   35.96
  -2   6  17    9.04   29.68
  -2   6  17   46.01   39.12
  -2  -6 -15  148.26   57.47
   2   6  15  131.02   35.19
   2  -6 -17   13.39   19.78
   2   6  15  129.60   29.96
  -2   2 -23   28.01   20.48
  -2  10   5   27.23   35.17
  -6   4  12  277.55   20.83
  -2   2 -23   32.27   24.09
  -3   7 -19   76.73   47.35
  -3   7 -19  221.81   26.88
   6  -4 -12  254.81   26.98
   2 -10  -5    1.03   18.85
   2  -2  23   -9.66   20.17
  -2  10   5    9.13   27.70
  -3   7  14 1152.61   73.84
  -3   7  14 1162.99   56.64
   3  -7 -14  977.75   41.58
  -2  -6  22 2881.18   63.23
  -6  -4  13 2095.91   91.03
   3  -9  -8   47.52   41.28
   1  10 -14    9.57   11.45
  -1 -10  14    7.91   16.95
   1  10 -14  -15.13   13.09
  -3   9   8   40.35   30.33
  -7  -1  -4   55.22   15.40
  -3  -2  23 2425.68   64.31
   1  10 -14   17.40   17.29
  -3   9   8   64.95   41.22
  -7  -1  -4   25.41   18.18
  -5   0  19  197.56   32.98
  -1   8 -20  358.24   23.10
  -1   8 -20  279.57   40.16
  -2   1  23    1.22   12.26
   2  -1 -23  169.63   31.49
  -5   5  14   49.42   29.86
   1 -11   8 1251.82   44.21
   5  -5 -14   65.79   16.61
  -1  11  -8 1188.41   35.96
  -1  11  -8 1337.24   49.33
  -6   7  -6 1470.62   54.54
  -4   6 -18  460.32   56.13
  -2   7  15   19.94   22.67
  -5  -7  -1  118.75   33.30
   5   7   1  114.17   28.48
   5   7   1  107.30   27.75
  -5  -7  -1  110.90   18.12
  -2   7  15  -11.69   24.67
  -6   7  -6 1517.29   53.47
  -4   6 -18  450.08   38.82
   2  -7 -15   -5.29   19.52
   0  11  -3 1198.90   44.29
   0  11  -3 1221.08   50.11
   0 -11   3 1134.26   42.85
   5   4  11 1060.12   67.91
  -1  11  -2   81.51   54.61
   1 -11   2  113.27   45.51
   5   4  11 1073.95   35.90
  -1  11  -2  119.42   23.53
  -5  -4 -11 1345.14   52.68
   6   5   2  346.30   30.30
   6   5   2  409.70   22.06
  -6  -5  -2  430.92   36.63
   0  10 -15  212.44   34.81
   0 -10  15  235.62   22.11
   0  10 -15  249.37   21.95
   0  10 -15  223.57   18.81
  -6  -5  -2  506.21   25.29
  -3  10   3  440.83   48.83
   3 -10  -3  372.04   60.38
  -6   2 -13   12.27   22.10
  -6   2 -13   22.84   40.80
  -3   9 -15  197.34   28.37
  -3  10   3  456.67   46.35
  -3   9 -15  121.99   29.37
  -2  -2  24  278.04   27.07
   4   8 -13 1627.39   54.99
  -2  -8 -10  554.23   41.29
   2   8  10  492.59   41.33
   2   8  10  574.04   66.47
  -4  -8  13 1789.24   60.66
  -7   3  -6  633.54   34.26
  -7   3  -6  687.02   56.01
  -1  -8  20  -12.39   23.09
  -3   5 -21  744.21   42.54
   5  -6 -12   25.13   16.94
  -3   5 -21  744.74   58.36
  -5   6  12   32.52   33.83
  -3  10 -11  938.83   47.61
   1  -3  24 3997.46   64.72
  -1   3 -24 4021.84   75.36
  -1   9 -18   35.75   16.91
  -3  10 -11  927.19   45.71
   3 -10  11  944.92   44.36
  -1   9 -18   31.79   17.59
  -1   3 -24 4001.85   82.93
  -3  -1  23  941.12   63.56
   0  11  -8  746.48   37.20
   0 -11   8  733.07   37.19
   0  11  -8  772.95   48.58
   0 -11   8  673.66   32.26
  -6   7   3  662.16   59.78
   6  -7  -3  706.56   54.00
  -1   2 -24  252.66   29.06
   1  -2  24  186.92   42.55
   1  -2  24  199.95   25.75
  -2   9 -17 1274.27   42.90
   4   8   3  684.58   64.87
  -2  -5  23 2047.67   51.88
  -2   9 -17 1217.30   44.63
  -4  -8  -3  671.06   32.11
  -4  -8  -3  731.27   51.42
   4   8   3  642.42   32.83
   2   5  17  112.07   27.21
   4   3  16  399.22   37.45
   4   3  16  451.18   39.06
  -2  -5 -17   99.32   33.88
  -4  -3 -16  509.96   67.30
   2   5  17  101.28   32.48
  -5   5 -16  406.27   38.03
  -6   3 -13   -6.77   26.46
  -5   5 -16  455.78   40.71
   0   6 -23  591.08   23.39
   0   6 -23  628.06   26.65
   0  -6  23  613.12   33.60
  -6   3 -13    9.47   30.32
   6   2  10   37.97   20.40
  -2  -8  19   76.67   21.18
  -5  -7  11  653.68   71.02
   5   7 -11  585.12   40.15
  -6  -2 -10   -4.96   19.42
   6   2  10   16.67   11.86
   1  10   4  462.03   60.78
  -1 -10  -4  443.64   34.79
   1  10   4  335.89   59.58
   1   0 -24  118.29   21.13
  -4   4  18    0.43   12.19
   3  -5 -18    7.99   25.74
  -1  10 -15   16.21   17.61
  -1  10 -15   23.69   17.63
  -5   2  18  732.59   63.56
   4  -4 -18   26.90   14.32
  -1   0  24  114.49   19.62
  -7  -2   8  487.31   34.41
   1   2  22 2005.20   61.15
  -3   0 -21  745.66   47.82
  -1   8  13 2526.32   76.98
  -1  -2 -22 2045.45   91.22
   1   2  22 1962.91   76.22
   3   0  21  719.43   68.20
  -4   5 -19 1112.14   52.05
  -1   8  13 2669.18   80.02
  -3  -8  17  589.27   56.19
   1  -8 -13 2350.14   95.35
  -4   5 -19 1069.98   47.46
  -7  -2  -2   16.99   29.72
  -5   2 -17  167.91   37.56
  -5   3 -17  240.18   63.41
  -5   2 -17  290.87   34.25
  -7  -2  -2   61.63   16.20
  -5   3 -17  307.60   34.73
  -7   4   5  397.58   21.35
  -7   4   5  386.74   24.21
   1  -9 -10   56.56   26.89
  -1   9  10   44.97   29.97
  -1   9  10   24.57   28.51
   1   3  21   20.54   37.51
   3   9   3 5675.54  129.46
  -2  -3  24  695.91   34.10
  -1  -3 -21   34.28   45.32
  -5   6 -15   53.43   28.83
  -3  -9  -3 6313.19  133.45
  -5   6 -15   33.79   26.85
  -3  -9  -3 5994.63  129.36
   3   9   3 5834.47  116.04
   1   3  21    1.62   31.81
  -5  -4  18   69.29   27.92
  -4   0 -19   -0.80   21.41
   4   0  19   21.13   40.81
  -7   2   9  452.96   28.93
  -7   0  10   77.29   23.58
   0  11  -2   95.07   40.72
   0  11  -2   94.79   29.83
   1 -10  -6  133.04   50.36
   0 -11   2   83.28   39.90
  -2 -10  -1   -5.65   26.46
   2  10   1 1051.97   64.57
   2  10   1 1069.45   47.57
  -1  10   6  164.39   35.58
  -1  10   6  165.47   32.84
   2   2  21 1187.01   39.82
  -3  -3  23  112.83   42.96
  -2  -2 -21 1178.01   55.43
   2   2  21 1137.48   76.73
  -2  -1  24  486.83   31.69
   0   7 -22 3476.39   65.07
   0   7 -22 3461.58   60.82
   0  -7  22 3581.66   61.65
  -2   4 -23   -4.51   15.76
  -5  -6  -6 1437.00   82.43
  -2   4 -23    2.15   29.21
   5   6   6 1236.02   66.04
  -5  -6  -6 1457.61   67.62
   5   6   6 1295.68   42.33
  -4   8 -15   22.22   23.45
  -4   8 -15    6.36   22.37
   0  -5 -19 2577.22   70.76
   6   4   6   84.56   19.25
  -6   6 -10  752.17   42.98
  -6  -4  -6  121.37   40.20
   0   5  19 3001.29  109.08
   6   4   6   89.38   20.21
   0   5  19 2838.54   77.67
  -6   6 -10  778.59   71.43
  -6  -4  -6  105.00   23.68
  -1  11  -9  786.27   58.77
  -4   9 -12 1065.00   49.52
  -1  11  -9  652.10   26.61
   1 -11   9  702.95   36.05
  -4   9 -12 1056.07   73.19
   5   5   9  178.82   37.62
   5   3  13 2723.03   96.16
  -5  -5  -9  154.75   48.03
   5   5   9  161.75   43.14
  -5  -3 -13 2850.31   76.50
   5   3  13 2576.79   52.39
  -1  11  -1 6106.15  112.09
  -7   4  -5  475.36   49.04
  -1  11  -1 6070.85  126.45
   1 -11   1 5661.84  110.78
  -7   4  -5  376.11   33.61
   0   0  24  384.45   29.08
   2   7  13  453.09   37.98
   2   7  13  411.11   42.03
   0   0 -24  327.03   30.67
  -2  -7 -13  349.02   39.53
  -7   0  -6  709.93   54.29
   2  10 -12  163.21   42.82
  -2 -10  12  183.27   48.43
  -2  10 -14   70.75   36.93
  -2  10 -14   68.26   38.47
  -6   1 -13  618.15   43.44
  -2  11  -5  110.05   31.91
  -2  11  -5  113.63   28.03
  -3  -4 -17 2283.38  106.99
   3   4  17 2134.07   54.34
   2 -11   5  155.07   28.94
   3   4  17 2271.51   70.65
   0  11  -9 1582.97   61.06
   0 -11   9 1660.60   68.97
   0  11  -9 1645.15   69.76
  -6  -1  16  358.14   35.80
   0 -11   9 1624.84   44.92
  -6  -5  11   57.64   46.97
  -2  11  -4  460.07   39.03
  -2  -3 -20 1202.88   56.98
  -2  11  -4  357.71   36.16
  -7   2  -7  625.35   56.19
   2   3  20 1181.61   80.91
   2 -11   4  334.90   34.21
  -7   2  -7  572.05   32.24
   2   3  20 1170.83   62.84
  -1  -9  18  -23.08   16.63
  -5   8   6   18.81   25.87
   5  -8  -6    2.01   16.73
  -5   8   6   40.75   19.34
  -7   1  10 2228.06   57.02
  -2  -7  21  647.65   32.79
  -2   1 -23 1953.17   60.64
  -4   7 -17  310.23   33.19
   2  -1  23 1830.02   54.37
  -4   7 -17  261.63   36.33
   2  -1  23 1994.95   82.92
  -1  -6  23  391.85   24.50
  -4  -5  20  834.95   65.81
  -6   0  16  164.70   47.78
  -2  11  -6  317.44   35.51
   2 -11   6  279.60   31.41
  -2  11  -6  299.87   20.57
  -6   7  -7  462.54   37.13
  -6   7  -7  292.74   38.27
  -4   1  21   37.11   25.42
  -2   5  19   20.80   21.81
  -2   5  19   22.81   29.62
   2  -5 -19   -3.02   16.84
  -3  -5  22   74.46   38.44
  -6  -3  15  988.75   72.82
  -2  11  -3   10.87   24.57
   2 -11   3   13.82   22.67
  -2  11  -3  -11.33   14.05
  -5   9  -3  524.91   41.93
   5  -9   3  352.38   56.19
  -1   4 -24   76.70   22.66
  -1   4 -24   94.35   19.11
  -1  -8 -12  163.56   34.07
  -6   6   8 5708.96  106.34
  -5  -6  15  375.13   63.04
   6  -6  -8 5009.01   90.01
   1   8  12  122.31   34.11
   1   8  12  122.88   35.04
  -7  -1  10 9534.06  164.55
  -7   1  -7  532.12   35.42
  -7  -3   3   18.99   32.35
  -7  -3   4  380.49   32.21
  -7   3   8 1397.12   39.36
  -5   4  16  117.88   29.95
  -5  -3  19  375.50   60.38
  -5   9  -2  125.06   31.72
   5  -9   2  117.50   29.68
   5  -4 -16   91.00   15.03
  -1   1 -24 1795.66   79.57
   1  -1  24 1693.92   52.09
   1  -1  24 1757.12   62.82
   6  -7  -4 1383.79   45.47
  -4  10  -4  758.43   47.40
   4 -10   4  708.89   43.35
  -6   7   4 1635.44   73.70
  -6   7   4 1533.29   55.81
  -5  -7  -2  142.15   56.29
  -5  -7  -2  130.48   32.30
  -3  -6  21  686.83   38.04
  -5   8 -11  775.04   46.22
   5  -9   4  402.88   36.35
  -5   8 -11  692.20   44.75
  -5   9  -4  358.12   63.22
   5   7   2  158.01   28.62
   5   7   2  112.70   31.40
   4 -10   3  479.80   39.26
  -4  10  -3  565.30   44.95
  -5  -5  17  507.89   40.63
   2   1  22   53.18   27.69
  -2  -1 -22   65.78   29.06
  -2   6 -22  107.38   40.01
   2   1  22   89.13   30.54
  -2   6 -22   89.52   21.35
  -4   9   6  410.84   44.62
  -4   9   6  467.63   33.03
   4  -9  -6  323.82   35.75
  -2  11  -7    0.84   25.58
  -2  11  -7   52.66   13.59
  -7  -1  -5  567.84   31.46
   2 -11   7  -22.52   35.17
   1   1  23 3771.80   84.34
   0 -11   1 2384.90   61.81
  -1  -1 -23 4195.71  118.64
  -4  -4  21    8.87   21.66
   1   1  23 3844.81   78.64
   0  11  -1 2399.11   63.09
  -6   5 -12  291.84   61.55
  -6   5 -12  357.73   35.70
   0  11  -1 2386.05   69.65
   0   5 -24    8.50   15.02
   0   5 -24   37.76   19.75
   0  -5  24   29.06   12.98
  -6  -5  -3  165.01   30.12
   6   5   3  170.62   24.87
   3   7  11  520.62   41.57
  -7   5   0  820.88   55.05
   3   7  11  481.39   37.94
  -6  -5  -3  171.60   34.03
  -7  -3   5  100.93   24.84
  -7  -3   2   32.85   21.48
   6   5   3   96.27   29.53
  -3  -7 -11  589.24   43.97
  -7   5   0  883.78   54.48
   0   8  13  659.84   48.57
   4 -10   5 1037.66   48.67
   0  -8 -13  675.67   46.00
  -4   3 -20   45.84   26.09
   0   8  13  748.15   78.93
  -4   3 -20   47.12   46.38
  -4  10  -5 1139.90   54.02
  -5   1 -17  211.26   37.71
  -3  -9  14 1736.67   58.27
  -7   5  -1  109.22   24.49
   5  -1  17    5.12   22.66
  -5   1 -17  164.35   52.59
   3   9 -14 1654.67   75.76
  -7   5  -1  128.29   23.28
  -5   4 -17 1285.39   57.95
  -3   0  23   53.42   40.51
   0   9  10  354.83   42.81
   0 -10  -6  984.16   48.19
   0   9  10  304.39   64.04
   0  10   6 1137.14   81.90
  -5   4 -17 1252.23   52.87
   0  -9 -10  249.88   57.14
   0  10   6 1123.14   78.74
   5  -9   1   15.82   36.84
  -2   7 -21   13.18   17.82
  -4   6  15 1095.25   64.09
  -2   7 -21    0.01   15.68
  -5   9  -1    7.16   22.95
   4  -6 -15  936.47   35.84
  -1  -7  22  184.65   20.34
  -5   1  19 3024.89   74.14
  -4  10  -2 1881.52   66.41
  -7  -2   9  -22.47   21.61
   4 -10   2 1788.36   58.88
  -6   4 -13   39.28   27.50
  -3   3 -22 1190.30   68.94
  -6   4 -13   34.83   25.34
  -3   3 -22 1268.10   53.48
  -7   4   6  203.66   20.93
  -7   3  -7   11.17   20.88
  -7   3  -7   50.59   22.67
  -7   4   6  217.94   19.21
  -4   2 -20  627.54   46.68
  -4   2 -20  586.00   39.61
  -3  10   4 2971.73   70.11
   3 -10  -4 2531.43   72.63
  -3  10   4 2824.15  121.42
  -7  -2  -3 1140.56   53.70
  -7  -2  -3 1152.98   35.88
   2 -11   2 1317.45   50.70
  -7   5   1  150.93   38.47
   2  -8 -13  134.80   29.18
  -2  11  -2 1337.18   58.14
  -5   9  -5  293.43   35.03
  -2  11  -2 1298.33   40.94
  -2   8  13   90.48   57.53
   5  -9   5  142.52   50.93
  -7   5   1  135.55   23.25
  -2   8  13  135.71   34.35
  -5   9  -5  161.98   36.33
  -1  11 -10  189.47   18.24
   1 -11  10  157.19   40.34
   1   4  20   22.27   38.27
  -1  -4 -20   46.53   47.96
   1   4  20    6.54   22.21
  -1  11 -10  169.14   27.39
  -4   8  10  419.16   40.48
  -4  -5 -13  622.44   46.51
   4   5  13  539.96   40.95
  -4   8  10  450.73   38.27
   4   5  13  493.91   32.19
   4  -8 -10  393.06   51.62
  -1  11   0   96.91   54.24
  -1  11   0   77.91   40.36
  -2  -9  -7   49.10   26.31
   1 -11   0   78.51   45.79
   2   9   7   88.70   49.09
   2   9   7   83.83   48.91
  -1   3  22 1086.65   54.14
   1  -3 -22 1105.99   63.27
  -7   5  -2 1005.28   58.89
  -7   5  -2  980.95   59.80
  -2   9  10  957.07   51.25
   2  -9 -10  846.90   46.46
  -3   2 -22   55.33   24.10
  -5  -7  12  230.39   36.49
  -3   2 -22   38.59   27.68
  -2   9  10  986.78   83.63
   3  -2  22   16.64   24.22
   0  11 -10  112.06   19.11
   0  11 -10   59.18   22.83
   0 -11  10  132.85   22.18
   0 -11  10   45.77   20.14
   3   8   8 1900.51   62.33
   1   9   9  318.88   39.27
   1   9   9  236.65   62.08
  -3  10 -12 1542.86   58.54
  -3  -8  -8 1915.18   59.48
   3  -8 -12  669.66   39.62
  -3  10 -12 1526.19   80.73
  -3   8  12  763.88   71.29
  -3   8  12  801.67   73.95
   3   8   8 1837.40   60.16
  -1  -9  -9  271.98   58.39
   5  -7 -10  593.74   31.74
  -6  -2  16  559.70   41.89
  -5   7  10  661.33   40.51
  -5   7  10  647.87   40.84
  -4  -7  17   76.21   28.05
   4 -10   6   64.69   45.78
  -1   6 -23 1126.77   39.05
  -1   6 -23 1067.88   48.89
  -4  10  -6   32.14   28.19
  -7  -3   6  124.54   43.92
   1  10 -15  600.85   36.64
   1  10 -15  585.15   43.98
   1  10 -15  533.74   23.85
  -1 -10  15  628.13   49.69
  -4  -8  14  171.53   54.34
  -7  -3   1  498.97   33.21
  -3   8 -18 1146.88   67.99
  -3   8 -18 1248.23   49.16
  -2  10   6  546.28   48.09
   2 -10  -6  503.69   41.13
  -1  -5  24  467.64   26.36
  -2  10   6  497.08   39.05
  -6  -4  14  150.05   33.09
   1  -2 -23   -0.14   14.46
  -7   4  -6 3672.01   82.51
  -7   4  -6 3686.95   78.28
  -1   2  23  242.79   27.42
  -1   7 -22  845.63   35.27
  -1   7 -22  773.83   44.52
  -2  11  -8 1168.54   73.53
   2 -11   8 1109.27   45.33
  -2  -9  17  340.89   29.86
  -7   5   2  225.81   24.56
  -7   5   2  267.40   25.50
   4 -10   1   51.76   27.13
  -2  -4  24   -1.73   23.70
  -4  10  -1  103.21   33.63
  -4  -8  -4   22.38   31.35
   4   8   4   35.83   24.74
   1  11  -6  470.48   34.70
  -1 -11   6  488.64   28.22
  -4  -6  19  538.91   38.95
  -5   9   0  419.24   40.38
   4   8   4   20.57   19.52
  -4  -8  -4   26.68   29.50
   5  -9   0  438.03   35.69
  -1 -11   6  522.11   39.13
   1  11  -6  478.98   31.73
  -2 -10  -2  398.33   30.70
   2  10   2  355.66   33.21
   2  10   2  262.93   59.48
  -1 -11   5  329.29   41.13
   1  11  -5  314.31   31.77
   1  11  -5  323.37   29.40
  -1 -11   5  317.88   59.09
   6  -5 -11  258.67   20.63
  -6   5  11  359.83   26.44
  -4  -7  -8 1579.28   55.03
   4   7   8 1482.14   51.58
   4   7   8 1400.99   50.14
  -7   5  -3   71.65   24.12
  -3   3  21 3486.50   87.26
  -7   5  -3   53.47   22.58
   3  -3 -21 3016.50   74.43
  -5   9  -6   83.92   48.90
   5  -9   6   71.68   28.76
  -5   9  -6   66.92   30.26
  -6  -6   5  557.89   67.96
   6   6  -5  459.80   53.39
  -1 -11   7   53.96   17.53
   1  11  -7   26.95   31.94
  -2  -4 -19 2786.20  117.91
  -1 -11   7   33.91   26.18
   2   4  19 2779.17  109.31
  -5   7 -14 2620.61   76.90
   1  11  -7   49.79   36.00
   2   0 -24  181.73   18.33
  -5   7 -14 2659.67   72.90
  -2   0  24  168.08   18.12
   2   4  19 2734.62   67.53
  -6  -3  -9 3144.23   97.57
  -6   7  -8 1213.22   51.78
  -6  -6   4  437.71   40.86
   6   6  -4  368.16   32.51
  -4  -2  22  398.08   37.85
   6   3   9 2832.77   65.25
   6   3   9 2742.97   53.59
  -6   7  -8 1127.51   52.72
   0  10 -16 1035.69   47.37
   4  -5 -17 1159.13   51.67
   0  10 -16  938.51   47.62
   4  -7 -13 2144.19   75.35
  -4   5  17 1367.92   64.33
  -4   7  13 2590.58   68.70
  -4   7  13 2589.63   76.08
   0 -10  16 1085.71   49.23
   4   4  15 1917.16   63.00
  -4  -4 -15 2021.28   68.63
   4   4  15 1735.04   48.00
  -2 -10  13  235.74   31.40
  -4  -1  22 1113.53   49.81
   2  10 -13  226.33   26.14
   4   9  -6  242.45   55.92
   1  11  -4  264.32   46.46
  -2  11  -1  962.55   53.56
  -1 -11   4  360.92   38.76
   1  11  -4  337.13   50.49
  -4  -9   6  198.06   39.40
  -2  11  -1  918.12   53.32
  -1 -11   4  324.86   26.71
   2 -11   1  909.54   46.71
  -4  -9   5 1210.29   89.47
   4   9  -5 1050.21   48.53
  -7   2  10  571.75   49.04
  -7   0  11  119.02   43.05
  -6  -1 -12  106.59   30.27
   6   1  12   78.02   26.89
  -4   4 -20   11.69   35.09
   3   9   4    5.89   31.78
  -4   4 -20   -5.92   30.76
  -3  -4  23    4.02   18.00
  -3  -9  -4    2.29   17.24
   3   9   4   11.06   24.03
   6   6  -6   35.46   23.15
  -6  -6   6   -4.65   23.19
   1  10   5  397.26   39.67
   1  10   5  367.19   38.15
  -1 -10  -5  281.22   52.76
   0   8 -21  885.26   39.35
   0  -8  21  864.00   38.66
   0   8 -21  829.89   29.30
   0  11   0   70.88   42.36
   0  11   0   88.75   30.53
   0   9 -19  248.46   21.56
   0   9 -19  279.48   20.10
   0  -9  19  252.94   19.68
  -3   9   9  245.14   34.40
   0 -11   0   72.42   42.06
   3  -9  -9  215.85   32.55
  -3   9   9  209.95   39.38
  -6  -5  12  838.57   48.60
  -3   4 -22  336.37   31.86
  -3   4 -22  234.38   58.10
   4 -10   7  389.82   38.21
   0   3  22 4840.98  132.77
  -4  10  -7  376.03   40.61
   0  -3 -22 4861.88  101.78
  -7  -3   7 1646.85   53.78
  -6  -6   3 1066.73   52.89
   6   6  -3  909.78   40.44
  -3   2  22   -1.17   18.21
   3  -2 -22  154.39   17.28
  -7  -3   0  586.20   53.86
  -1   4  21   55.02   48.76
   1  -4 -21   -1.12   27.68
  -1   4  21   30.72   24.42
  -4  -9   7   34.14   49.40
   4   9  -7   27.20   25.60
   4   9  -4   35.51   41.69
  -4  -9   4   24.60   30.52
   4   6  11 5112.61  104.25
  -4  -6 -11 5577.31  114.37
   4   6  11 4939.84   96.31
   0   2  23  238.58   45.16
  -3   9 -16  198.33   31.86
  -3   9 -16  288.50   31.12
   0   2  23   18.88   48.31
   0  -2 -23  234.73   31.65
  -6   7   5   64.10   17.99
   6  -7  -5   -1.50   15.22
  -6   7   5   17.37   23.75
  -7   0  -7 1937.70   55.83
  -2   5 -23   94.24   24.98
  -2   5 -23   71.87   34.22
  -1 -11   8 1175.14   70.08
  -7   5   3 1171.39   41.11
   1  11  -8 1068.95   42.88
  -1 -11   8 1133.00   51.39
   1  11  -8 1246.73   41.29
  -6   0 -13 2540.43  102.37
   1   6  17 3315.45   82.99
  -1  -6 -17 3320.73  121.63
   1   6  17 3403.96   89.98
  -6   6 -11   37.99   24.41
  -6   6 -11    4.83   26.61
  -4   9 -13  485.85   40.98
   4 -10   0   33.66   41.91
   1  -7 -16   12.04   23.43
  -4   9 -13  540.17   40.47
  -4  10   0  -12.76   20.78
  -1   7  16    9.32   26.77
  -4  10   0    7.99   41.48
  -1   7  16   52.45   46.62
  -7   2  -8   26.04   22.50
  -1  10 -16  458.39   43.68
  -1  10 -16  468.09   44.80
  -7   2  -8   20.23   19.57
   5   1  16  668.07   66.78
  -5  -1 -16  659.89   72.97
   1  11  -3   23.54   22.00
  -1 -11   3   -3.15   22.91
  -4   1 -20   87.64   28.27
  -4   1 -20   53.24   32.43
   1  11  -3   55.75   24.31
  -2  11  -9   36.24   25.39
  -1 -11   3    8.02   15.77
   4  -1  20   70.58   49.86
   5  -9  -1   -9.23   21.24
   2 -11   9   46.49   23.94
  -5   9   1   33.76   44.61
   1  -6 -18   88.71   28.42
  -6  -6   7 3395.48  119.11
  -1   6  18   72.17   30.87
  -1   6  18  109.02   54.83
   6   6  -7 2983.07   99.15
  -1  11 -11  -12.59   17.49
  -1  -2  25  938.76   31.26
   1   2 -25 1024.99   48.40
  -1  -2  25  911.26   34.72
  -1  11 -11   11.60   11.41
   1   2 -25  988.42   29.01
   1 -11  11  -24.55   19.29
  -5   8   7  259.72   27.71
  -5   8   7  141.73   56.74
  -7   1  11  123.57   40.47
   5  -8  -7    0.89   26.10
  -6  -4  -7  901.54   59.32
  -7   5  -4   50.47   23.92
  -6  -4  -7  875.80   38.94
   0  11 -11  172.82   41.23
   6   4   7  629.97   29.73
   0 -11  11  261.10   38.45
   6   4   7  749.97   50.28
  -7   5  -4   45.05   23.17
   0  11 -11  225.41   22.88
   0 -11  11  303.26   26.74
  -5  -7  -3 4062.96   95.11
   5   7   3 3572.69   81.50
  -1  11   1 2603.65   77.51
  -1  11   1 2466.75   64.48
   1 -11  -1 2398.95   66.47
  -5  -7  -3 3692.83   72.76
   5   7   3 3383.01   68.02
  -3   4  20 1541.49   46.76
   3  -4 -20 1297.15   38.95
   0   2 -25   78.92   22.14
  -1  10   7  982.06   49.48
  -7  -1  11   -0.97   17.92
   0  -2  25  134.26   20.69
   1 -10  -7  814.64   46.19
  -7   3   9  354.54   25.67
  -7  -2  10  282.38   32.78
   0   2 -25  154.20   18.90
   0  -2  25   60.88   17.26
  -1  10   7  901.84   84.68
  -5  -6  -7  132.48   31.32
   5   2  15 2185.42   92.13
   0  -3  25 1110.98   33.31
  -4  -9   8   15.71   27.71
  -3  -7  20 1678.88   52.64
   0   3 -25 1100.46   47.37
   3  -1  22  -10.32   23.56
   4   9  -8   36.93   26.06
  -5  -2 -15 2453.51   74.51
  -5  -6  -7   91.60   43.19
   0   3 -25 1217.67   39.91
   5   6   7  138.34   24.99
  -3   1 -22   25.38   27.41
   5   6   7  142.76   26.18
  -7   4   7  622.49   40.36
  -7   4   7  650.60   27.39
  -5   9  -7  193.87   58.29
   6   6  -2  172.84   28.96
  -1  -7 -15  326.08   63.92
   1   7  15  438.06   42.20
  -5   9  -7  198.85   36.86
   1   7  15  452.27   45.57
  -6  -6   2  216.02   57.66
  -4  -9   3 2522.66  112.12
   4   9  -3 2053.22   58.04
  -4  -9   3 2144.01   43.71
   4   9  -3 2173.24   66.50
  -1  -3  25    8.51   24.57
  -2  10 -15  491.68   51.55
  -2  10 -15  487.44   33.77
  -7  -2  -4  163.36   22.84
  -7  -2  -4  253.46   35.29
  -5  -1  20  205.48   35.83
  -6  -5  -4  850.66   53.43
   6   5   4  707.49   30.13
   6   5   4  724.59   52.20
  -6  -5  -4  942.67   67.70
   3   2  20  229.20   23.25
  -5   6  13   26.85   33.15
  -6   2 -14   43.59   28.82
   5  -6 -13    1.66   13.19
  -3  -2 -20  224.33   61.48
  -7  -1  -6  128.94   39.10
  -3 -10   6   40.62   49.31
  -3 -10   6   36.36   20.18
   3  10  -6  -11.48   19.01
   3  10  -6   18.02   33.19
  -2   0 -23   53.86   46.64
  -6  -2 -11 1074.64   48.32
  -3  -8  18 1201.17   47.72
   2   0  23   67.85   17.25
  -2   9 -18  841.78   37.35
   2   0  23    9.14   26.62
  -2   9 -18  779.91   38.65
   6   2  11  982.22   43.95
   5   4  12 5106.85  130.03
  -7   1  -8 1437.69   74.97
  -3   6 -21  484.14   39.24
  -2   8 -20   91.64   25.70
  -3   6 -21  513.68   34.65
   5   4  12 5056.83   91.02
  -5  -4 -12 5967.44  121.56
  -2   8 -20  106.37   22.68
   2  -3 -22 4600.63   86.40
   3  10  -5  507.86   39.01
  -3 -10   5  504.69   34.31
  -2   3  22 5261.06  118.49
   3  10  -5  459.55   39.17
  -3 -10   5  517.93   47.19
   2 -11   0   71.67   28.45
  -1   5 -24  418.39   25.95
   1  -1 -24 2150.24   55.57
   5  -5 -15  600.87   26.72
  -1   1  24 2336.28   74.50
  -1   5 -24  441.66   46.87
  -5   5  15  717.80   33.08
  -2  11   0   66.44   33.68
  -2  11   0   71.35   21.27
  -6   3 -14  499.93   43.93
  -1   9 -19  665.25   29.30
  -6   6   9  328.71   47.61
   6  -6  -9  230.09   23.76
  -5   8 -12   88.65   30.20
  -5   8 -12   70.21   30.93
  -1   9 -19  671.08   32.16
  -2  -8 -11  934.32   49.12
   1  11  -9  467.67   31.30
   1  11  -9  478.91   29.66
   2   8  11  839.71   51.25
   2   8  11  927.29   49.30
  -1 -11   9  422.49   38.34
  -1 -11   9  446.38   35.34
  -4  10  -8   44.84   32.34
  -4  -3  22 3051.72   74.55
   4 -10   8  168.28   53.22
  -4  10  -8  169.48   52.00
  -3 -10   7  414.62   44.46
   3  10  -7  472.76   38.26
   3  -6 -17  521.03   32.56
  -7   3  -8  744.63   63.24
  -3   6  17  660.73   39.70
  -3   6  17  607.53   51.68
  -7   3  -8  722.14   37.82
  -7   4  -7   90.19   42.07
  -7   4  -7  131.43   28.57
  -7  -3   8   16.83   36.89
  -5  -7  13 1295.59   57.21
   0   4  21 1989.27   65.64
  -4   0  22 1725.78   81.53
   0   4  21 2116.63   63.85
  -7  -3  -1 3903.79  101.94
   7   3   1 3254.01   65.19
   0  -4 -21 2074.42   64.17
  -6  -6   8  187.53   35.93
   1   0  24  903.47   42.99
   6   6  -8  173.29   31.42
  -1   0 -24 1008.37   46.84
   1   0  24  959.18   37.69
  -4   8 -16 1012.52   49.22
  -4   8 -16 1000.05   47.98
  -5  -2  20  286.20   35.73
  -3  10   5 6897.53  155.67
  -3  10   5 7198.26  152.42
   3 -10  -5 6103.52  123.28
   3   6  14  263.66   31.82
  -3 -10   4   49.61   15.41
  -3  -9  15 1502.68   82.45
  -3 -10   4   30.75   52.22
  -3   7 -20   80.69   25.03
   3   6  14  277.03   38.14
  -3   7 -20   23.15   23.02
   3   9 -15 1383.67   49.78
  -4   9   7 3709.43   82.59
   3  10  -4   38.10   16.80
  -4   9   7 3799.59   97.91
   3  10  -4   17.82   43.62
  -1 -11   2    9.28   28.46
   1  11  -2   34.10   36.24
   1  11  -2   39.46   39.75
  -3  -6 -14  265.41   41.78
   4  -9  -7 3150.33  103.34
  -3   7  15 1678.36   59.31
  -3   7  15 1769.78   67.45
   3  -7 -15 1395.32   48.32
  -7   5   4 1435.96   43.21
  -1   8 -21   51.18   19.10
  -1   8 -21   77.56   28.39
  -2   2  23  -10.96   26.13
   2  -2 -23  291.74   24.04
  -2  -8  20   43.16   19.84
   4   2  18 1087.53   43.89
   4   2  18 1250.46   81.83
  -4  -2 -18 1478.32   95.26
  -5   6 -16   22.65   24.93
  -4   6 -19   -3.58   21.22
   5   0  17 1105.40   80.19
  -4   6 -19   -0.43   30.29
  -5   6 -16    0.80   22.85
  -5   0 -17 1108.58   84.14
  -3  -5 -16 2459.73  109.88
  -1  -8  21 4239.97   77.15
  -5  -6  16  443.42   64.11
   3   5  16 2407.90   83.93
   3   5  16 2379.88   74.71
   4   9  -9   -1.83   19.87
  -4  10   1  284.96   23.20
  -5  -5 -10  636.05   66.00
   4 -10  -1  337.92   36.43
   5   5  10  512.78   35.75
  -4  -9   9   35.32   29.57
  -4  10   1  342.45   41.74
   5   5  10  445.70   48.45
  -3  10 -13 3141.72   77.87
  -5   5 -17  966.09   52.97
  -3  10 -13 3193.42  107.51
  -5   5 -17 1062.60   74.98
  -3  -3 -19 1812.03   98.14
   3   3  19 1670.27   93.65
   3   3  19 1595.21   64.14
   3   1  21   31.59   44.21
   1  -9 -11   81.42   48.31
   3   1  21   34.14   24.61
  -1   9  11  142.14   35.43
  -1   9  11  159.97   37.81
  -3  -1 -21    3.40   39.27
  -4  -9   2  644.31   25.58
   4   9  -2  611.43   39.74
   6   6  -1  138.22   27.91
  -6  -6   1  126.00   33.03
   4   9  -2  561.44   44.25
  -4  -9   2  676.48   52.88
   1   1 -25 1783.29   63.96
  -1  -1  25 1686.10   47.09
  -1  -1  25 1653.68   42.76
   3  10  -8    7.15   36.46
   0 -11  -1  378.99   34.56
   0  11   1  367.68   39.72
   0  11   1  403.22   36.64
  -3 -10   8    4.21   39.46
  -5   9   2   29.24   22.25
   5  -9  -2   11.04   33.88
  -5   9   2   -1.94   24.72
  -4  -1 -19  293.86   66.24
   4   1  19  342.28   63.14
  -7   5  -5 2197.90   62.75
  -7   5  -5 2272.45   84.92
  -6   7  -9 1481.34   59.62
  -6   7  -9 1612.62   59.21
  -5   0  20  349.36   38.31
   0   7  16  180.06   38.36
   0  -7 -16  155.70   34.42
   0   7  16  179.46   38.56
  -2 -10  -3  427.21   51.77
   2  10   3  319.01   39.33
  -6  -3  16  381.75   38.40
   2  10   3  429.45   35.03
   0  -1 -24  372.91   34.08
  -5  -4  19   -2.16   20.69
   0   1  24  364.04   31.13
   4  -3 -20   88.99   14.71
   0   1  24  301.60   33.80
  -2  11 -10  442.37   58.59
   2 -11  10  554.55   55.78
   0   6  18   -1.69   25.21
   0  -6 -18    1.85   20.86
   0   6  18  -14.32   40.08
   1   5  19 1177.81   52.41
   2   6  16 6174.84  167.80
  -2  -6 -16 6230.38  166.85
   1   5  19 1204.61   85.25
   2   6  16 6218.48  122.28
  -4  -8  15  305.89   37.48
  -2   7  16 2621.22   81.36
  -1  -9  19    0.05   18.09
   2  -7 -16 2466.67   66.01
  -2   7  16 2581.86   74.22
   2  -4 -21 2404.04   79.43
  -2   4  21 2613.39   66.50
  -2  -6  23   90.39   22.19
  -6  -1  17   -8.78   36.75
  -3 -10   3 1509.73   40.28
   3  10  -3 1613.78   59.45
   3  10  -3 1525.16   43.17
  -3 -10   3 1684.33   67.09
   0   1 -25 3055.64   90.73
   0  10   7  737.88   49.99
   0 -10  -7  787.88   45.09
  -6   5 -13   28.60   25.85
  -6   5 -13   32.35   27.72
   0  -1  25 3173.71   67.76
   0  10   7  803.66   49.03
  -5   9  -8 1644.97   64.30
  -5   9  -8 1736.07   64.01
  -6   1 -14 1633.20   89.92
  -2   6  18   39.16   42.74
  -2   6  18   48.66   33.12
   2  -6 -18   13.17   20.12
   0   4 -25  313.51   32.15
   2  10 -14  468.95   30.78
   0  -4  25  328.09   20.33
   0   4 -25  324.44   24.55
  -2 -10  14  546.34   36.95
  -1   8  14   36.57   29.42
  -1   8  14   17.08   30.17
   1  -8 -14  -10.11   23.19
  -1 -10  16  176.92   24.58
   1  11 -10 1567.46   69.62
   4   8   5 1198.01   63.82
   1  11 -10 1799.71   64.94
  -4  -8  -5 1340.21   61.59
  -1 -11  10 1382.46   51.85
  -1 -11  10 1561.81   73.93
  -4  -8  -5 1212.73   44.46
   4   8   5 1150.47   50.91
  -6   7   6  524.32   29.57
   6  -7  -6  423.67   45.61
  -6   7   6  463.91   37.67
   0 -11  12  716.87   50.09
  -2  10   7   74.75   36.52
  -2  10   7   94.00   29.25
   2 -10  -7   34.23   43.90
   0  11 -12  671.91   29.83
   0 -11  12  769.35   45.84
   0  11 -12  755.19   35.03
  -5   3 -18 1848.05   67.57
  -5   3 -18 1867.48   62.00
  -1  11 -12   55.64   22.88
   1 -11  12   34.20   19.59
  -1  11 -12   60.37   35.55
  -6  -5  13  247.26   37.82
  -4   7 -18  262.47   33.76
  -4   7 -18  263.56   58.91
  -6  -6   9   15.28   41.65
  -5  -5  18  664.93   70.64
  -5   2  19   -3.30   20.29
   5   3  14  185.93   20.30
  -6  -4  15 1443.38   58.96
   5   3  14  180.65   52.38
  -5  -3 -14  280.49   38.10
  -1  -4  25 2013.30   47.98
   1 -11  -2  314.71   56.36
  -1  11   2  341.54   33.71
  -1  11   2  373.70   68.31
  -3 -10   9 4257.21  100.60
   3  10  -9 3977.23   90.22
  -5   2 -18 4355.87  103.11
  -5   2 -18 4361.74   98.30
  -4  10  -9 3647.55   90.34
  -1 -11   1  322.09   30.11
   1  11  -1  326.50   35.43
   1  11  -1  394.69   36.26
   4 -10   9 3621.90   87.21
  -4  10  -9 3581.01   91.94
   2 -11  -1  -12.78   22.44
  -2  11   1    4.35   14.17
  -4   5 -20   65.04   25.98
  -4   5 -20   10.44   48.42
  -2  11   1  -11.62   21.86
  -2  -9  -8    4.08   21.40
   4   3  17   31.81   25.03
   2   9   8   22.92   26.10
   4   3  17    9.10   44.30
   2   9   8   23.89   26.67
  -4  -3 -17  -43.06   50.69
  -7   0  12  773.40   41.87
  -3   5 -22 1838.99   86.48
  -3   5 -22 1629.21   74.83
  -7   2  11 1693.77   50.51
   1  -5 -20 3344.80  104.60
  -1   5  20 3692.83   86.98
  -1   5  20 3612.16  128.62
  -7  -3   9 1798.95   59.15
   5  -7 -11  184.79   40.04
  -5   7  11  281.34   33.34
  -5   7  11  302.62   35.57
   4   9 -10  415.67   36.03
  -6   4 -14 2338.62  105.46
  -4  -9  10  402.17   43.05
  -7  -3  -2   59.79   21.78
   5   8  -5  288.49   58.70
  -7  -3  -2   50.78   26.60
   7   3   2   48.14   17.95
  -5  -8   5  703.28   78.52
   5   8  -6  353.66   38.40
  -3  -9  -5  950.15   43.28
   3   9   5  903.63   75.64
  -5  -8   6  432.14   44.97
   3   9   5  992.55   44.56
  -4   8  11  767.02   46.32
  -3  -2  24 2622.91   69.86
   4   9  -1 1715.16   60.24
   4  -8 -11  594.64   36.98
  -4  -9   1 1679.20   42.02
  -4   8  11  788.66   45.77
  -4  -9   1 2100.96  105.27
   4   9  -1 1595.71   58.84
  -7   5   5    2.13   17.30
  -7   5   5    3.71   23.64
   4  -4 -19 1323.29   36.10
   2   7  14   24.32   26.83
   2   7  14   62.86   30.81
  -4   4  19 1552.23   59.88
  -2  -7 -14   33.72   29.09
  -7   4   8  494.87   26.38
  -2   3 -24  179.59   39.87
  -6  -6   0  790.58   72.04
  -7  -2  11 1519.12   54.55
  -2   3 -24  151.53   29.90
   6   6   0  649.70   58.24
  -6   8  -2  116.44   31.02
  -6   8  -2  121.41   49.70
   6  -8   2   68.02   26.38
  -4  -7  18  387.44   37.83
  -2  -5  24  876.63   37.97
  -4  -5  21  621.25   41.54
   3  10  -2  566.49   31.19
  -3 -10   2  531.03   41.18
  -3  -8  -9 2479.60   69.52
   3   8   9 2532.77   72.93
   3   8   9 2540.50   72.09
   3  10  -2  573.00   67.26
  -3 -10   2  627.78   77.79
   7   2   5  141.81   16.70
  -7  -2  -5  131.73   23.75
  -6   8  -3  711.74   45.04
  -7  -2  -5  148.18   33.05
  -6   8  -3  810.89   45.13
  -5  -8   4 1154.07   59.02
   5   8  -4 1005.40   48.97
   2   5  18  490.64   37.41
  -7   0  -8    0.13   15.38
   2   5  18  666.15   70.65
  -2  -5 -18  405.81   72.44
   5   7   4  790.07   34.73
   3  -5 -19 3295.59   87.39
  -6   8  -1  441.54   39.33
  -2  -9  18  124.90   24.70
  -6   8  -1  486.26   40.00
   5   7   4  870.15   44.34
  -3   5  19 3931.52  106.70
  -5  -7  -4  984.53   54.18
  -5  -7  -4  907.43   54.97
   6  -8   1  416.95   36.27
  -4  10   2   16.89   26.06
   1  10   6   25.00   26.82
   0  -6  24   50.02   22.20
   0  -9 -11  508.10   42.29
  -2  -7  22 1550.48   46.03
   0   9  11  598.86   49.82
   1  10   6   17.84   26.01
   4 -10  -2   38.31   42.78
   0   6 -24   39.15   12.64
   0   9  11  651.12   74.61
  -1 -10  -6    8.72   21.91
   0   6 -24   -2.59   15.22
   0   7 -23 1750.21   39.86
   0   7 -23 1791.76   43.36
   6  -5 -12  107.85   27.51
   5   8  -7  692.36   64.85
  -6  -2  17  110.69   31.92
  -5  -8   7  855.44   83.50
  -6   5  12  176.75   22.34
   1   8  13   38.21   29.64
  -2   2 -24  102.15   25.23
  -1  -8 -13   39.64   29.22
  -2   2 -24   92.61   47.27
   1   8  13    9.17   28.64
   2  -2  24   66.59   26.19
  -2   9  11 1057.28   54.31
   0 -10  17  806.17   44.88
  -7   2  -9  478.20   38.23
  -2   9  11 1024.51   59.23
   2  -9 -11  889.57   48.38
   0  10 -17  705.49   44.08
   0  10 -17  817.08   30.35
  -1  -9 -10  836.51   49.32
   1   9  10  915.68   53.48
   1   9  10  938.24   52.69
  -5  -3  20 1878.27   90.59
  -3  -7 -12   23.01   27.58
   3   7  12    2.51   21.87
   3   7  12   16.93   25.02
  -7   5  -6  141.50   28.28
  -7   3  10   57.78   32.69
  -7  -1  12 1071.40   69.69
  -7   5  -6  127.68   30.04
  -5   9   3   81.92   35.42
  -5   9   3  129.66   19.50
   5  -4 -17  217.66   17.86
   5  -9  -3   63.07   25.98
  -4   9 -14   -7.27   23.08
  -6   6 -12  296.95   62.77
  -6   6 -12  274.67   58.26
  -3  -1  24  255.11   31.19
  -4   9 -14  -24.41   38.45
   3 -11   4  391.35   36.60
  -3  11  -4  502.30   43.67
  -3  11  -5  555.07   45.37
   3 -11   5  456.75   61.61
  -2   1  24  463.90   38.50
   2  -1 -24  403.81   37.50
  -6   8  -4  294.93   38.42
  -6  -5  -5 3568.40  107.89
  -6   8  -4  427.23   59.26
  -5   7 -15   36.88   28.21
   6   5   5 2963.96   66.42
  -5   7 -15   65.07   30.02
  -6  -5  -5 3578.59   75.92
   6   5   5 3123.14   63.61
  -4  -7  -9 1657.99   57.94
  -5   8   8  511.96   54.90
  -2  -2  25  148.03   39.41
   4   7   9 1400.30   76.31
   5  -8  -8  480.98   33.70
   4   7   9 1547.98   74.79
  -5   8   8  528.13   42.42
   6   3  10   72.71   16.14
  -6  -3 -10   80.12   43.71
   6   3  10   77.09   24.81
   4   0  20  830.43   77.51
  -4   0 -20  960.02   83.91
  -5  -8   3   53.58   53.95
   5   8  -3   24.42   41.30
   2 -11  11   89.06   26.37
  -2  11 -11  126.61   28.71
   3  -8 -13   41.25   24.65
  -3   8  13   56.71   50.74
  -3   8  13   45.95   30.50
   3  10 -10  688.13   42.75
  -3  -6  22   41.90   22.95
  -3 -10  10  665.35   48.25
   3 -11   3  248.77   56.30
  -3  11  -3  244.63   32.98
  -3  11  -3  332.13   42.92
;
_shelx_hkl_checksum              6799
_shelx_res_file
;
TITL 10031710
    shelxl.res
    created by SHELXL-2016/6 at 17:26:39 on 11-Jul-2017
CELL  0.71075 5.49136 8.21945 18.13818 102.177 93.952 95.316
ZERR  2 0.00013 0.00039 0.00091 0.003 0.003 0.003
LATT 1
SFAC C H O N CL
UNIT 32 24 12 4 4
SHEL 99999.000000 0.000000
L.S. 20
FMAP 2
PLAN -20
WPDB -2
HTAB
BOND $H
CONF
LIST 4
TEMP -153.0
ACTA
SIZE 0.350 0.250 0.120
LIST 4
WGHT    0.040600    0.313600
FVAR       3.18813
CL1   5    0.428557    0.162328   -0.078602    11.00000    0.01602    0.01837 =
         0.01388    0.00181    0.00310   -0.00454
CL2   5    1.139111    0.283479    0.524830    11.00000    0.01776    0.01555 =
         0.01668   -0.00109   -0.00194    0.00527
O1    3    0.036849   -0.107014   -0.149462    11.00000    0.02037    0.02520 =
         0.01082   -0.00157    0.00221   -0.00623
O2    3    0.330104    0.245162    0.084728    11.00000    0.01650    0.01795 =
         0.01358   -0.00139   -0.00066   -0.00539
O3    3    1.553370    0.234157    0.629812    11.00000    0.02020    0.01814 =
         0.01402   -0.00380   -0.00306    0.00382
O4    3    1.142007    0.000270    0.388542    11.00000    0.01643    0.01637 =
         0.01294    0.00051   -0.00340    0.00207
O5    3    0.180174    0.334373    0.255256    11.00000    0.01833    0.01754 =
         0.01624   -0.00038   -0.00502    0.00370
H5    2    0.117898    0.262635    0.211466    11.00000   -1.50000
O6    3    0.749226    0.403474    0.059916    11.00000    0.01959    0.02305 =
         0.01346   -0.00293    0.00077   -0.00830
H6    2    0.616546    0.350434    0.068057    11.00000   -1.50000
N1    4    0.762553    0.169915    0.358325    11.00000    0.01566    0.01772 =
         0.01806    0.00569   -0.00034    0.00219
H1    2    0.896214    0.128349    0.377917    11.00000   -1.50000
N2    4    1.045837    0.712600    0.257211    11.00000    0.01771    0.01731 =
         0.01283   -0.00064   -0.00278   -0.00162
H2    2    1.114240    0.776950    0.299836    11.00000   -1.50000
C1    1    0.026177   -0.053577   -0.080018    11.00000    0.01263    0.01512 =
         0.01167    0.00142    0.00031   -0.00082
C2    1    0.192044    0.075087   -0.035541    11.00000    0.01184    0.01505 =
         0.01211    0.00233    0.00179   -0.00253
C3    1    0.182420    0.133650    0.042204    11.00000    0.01203    0.01312 =
         0.01263    0.00194   -0.00001   -0.00041
C4    1    1.520598    0.129160    0.569026    11.00000    0.01339    0.01290 =
         0.01160    0.00122    0.00112    0.00013
C5    1    1.334368    0.126237    0.510553    11.00000    0.01348    0.01278 =
         0.01327    0.00074   -0.00010    0.00281
C6    1    1.302207    0.007277    0.442523    11.00000    0.01225    0.01240 =
         0.01258    0.00195   -0.00007   -0.00055
C7    1    0.657087    0.301496    0.395045    11.00000    0.02003    0.01534 =
         0.01623    0.00165   -0.00320    0.00002
AFIX  43
H7    2    0.719110    0.355184    0.445342    11.00000   -1.20000
AFIX   0
C8    1    0.461722    0.359447    0.361160    11.00000    0.01959    0.01408 =
         0.01536    0.00032   -0.00115    0.00200
AFIX  43
H8    2    0.390102    0.453256    0.387366    11.00000   -1.20000
AFIX   0
C9    1    0.369320    0.278012    0.287190    11.00000    0.01441    0.01315 =
         0.01456    0.00318    0.00062   -0.00001
C10   1    0.486337    0.143365    0.249493    11.00000    0.02006    0.01713 =
         0.01252    0.00120    0.00105    0.00272
AFIX  43
H10   2    0.430463    0.088006    0.198898    11.00000   -1.20000
AFIX   0
C11   1    0.681860    0.092968    0.286591    11.00000    0.01973    0.01798 =
         0.01697    0.00339    0.00434    0.00453
AFIX  43
H11   2    0.761693    0.002289    0.261273    11.00000   -1.20000
AFIX   0
C12   1    0.824738    0.624774    0.256310    11.00000    0.01696    0.01975 =
         0.01288    0.00154    0.00158    0.00102
AFIX  43
H12   2    0.743357    0.635815    0.301370    11.00000   -1.20000
AFIX   0
C13   1    0.717031    0.519973    0.190963    11.00000    0.01319    0.01645 =
         0.01473    0.00189    0.00080   -0.00107
AFIX  43
H13   2    0.560916    0.459117    0.190415    11.00000   -1.20000
AFIX   0
C14   1    0.839230    0.503342    0.124921    11.00000    0.01488    0.01371 =
         0.01292    0.00021   -0.00064   -0.00063
C15   1    1.069462    0.597495    0.127411    11.00000    0.01559    0.02049 =
         0.01476    0.00012    0.00229   -0.00393
AFIX  43
H15   2    1.155223    0.590054    0.083294    11.00000   -1.20000
AFIX   0
C16   1    1.166322    0.699546    0.194617    11.00000    0.01456    0.01909 =
         0.01813    0.00098   -0.00009   -0.00323
AFIX  43
H16   2    1.321913    0.762460    0.197088    11.00000   -1.20000
AFIX   0
HKLF 4
REM  10031710
REM R1 =  0.0304 for    4124 Fo > 4sig(Fo)  and  0.0399 for all    4597 data
REM    247 parameters refined using      0 restraints
END
WGHT      0.0406      0.3144
REM Instructions for potential hydrogen bonds
EQIV $1 -x, -y, -z
HTAB O5 O1_$1
HTAB O5 O2
HTAB O6 O2
HTAB N1 Cl2
HTAB N1 O4
EQIV $3 -x+3, -y+1, -z+1
HTAB N2 O3_$3
EQIV $4 x, y+1, z
HTAB N2 O4_$4
HTAB C7 Cl2
EQIV $5 -x+2, -y+1, -z+1
HTAB C7 Cl2_$5
HTAB C8 O3_$5
EQIV $6 -x+1, -y, -z
HTAB C10 Cl1_$6
HTAB C12 O3_$5
HTAB C13 O2
EQIV $7 -x+2, -y+1, -z
HTAB C15 Cl1_$7
HTAB C16 Cl1_$7
REM Highest difference peak  0.752,  deepest hole -0.341,  1-sigma level  0.114
Q1    1   1.3160  0.0593  0.4780  11.00000  0.05    0.75
Q2    1   1.6115  0.0616  0.5587  11.00000  0.05    0.69
Q3    1  -0.0651 -0.0935 -0.0629  11.00000  0.05    0.66
Q4    1   0.0979  0.0122 -0.0606  11.00000  0.05    0.65
Q5    1   1.1162  0.6462  0.1631  11.00000  0.05    0.55
Q6    1   0.1841  0.1158  0.0067  11.00000  0.05    0.50
Q7    1   1.4333  0.1312  0.5385  11.00000  0.05    0.49
Q8    1   0.7723  0.5835  0.2232  11.00000  0.05    0.46
Q9    1   0.5864  0.1137  0.2747  11.00000  0.05    0.46
Q10   1   0.5651  0.3263  0.3820  11.00000  0.05    0.44
Q11   1   0.9621  0.5499  0.1301  11.00000  0.05    0.43
Q12   1   0.7043  0.1296  0.3244  11.00000  0.05    0.42
Q13   1   0.4150  0.3161  0.3267  11.00000  0.05    0.41
Q14   1   1.0790  0.2678  0.4818  11.00000  0.05    0.41
Q15   1   0.7711  0.5166  0.1592  11.00000  0.05    0.40
Q16   1   1.1222  0.6565  0.0683  11.00000  0.05    0.39
Q17   1   1.2006  0.0108  0.4303  11.00000  0.05    0.38
Q18   1   0.7837  0.4599  0.0929  11.00000  0.05    0.37
Q19   1   0.3540  0.2591  0.1324  11.00000  0.05    0.37
Q20   1   0.9396  0.6651  0.2558  11.00000  0.05    0.37
;
_shelx_res_checksum              80037
loop_
_space_group_symop_operation_xyz
'x, y, z'
'-x, -y, -z'
loop_
_atom_site_type_symbol
_atom_site_label
_atom_site_fract_x
_atom_site_fract_y
_atom_site_fract_z
_atom_site_U_iso_or_equiv
_atom_site_adp_type
_atom_site_calc_flag
_atom_site_occupancy
Cl Cl1 0.42856(5) 0.16233(3) -0.07860(2) 0.01668(7) Uani d 1
Cl Cl2 1.13911(5) 0.28348(3) 0.52483(2) 0.01730(7) Uani d 1
O O1 0.03685(16) -0.10701(11) -0.14946(5) 0.02014(18) Uani d 1
O O2 0.33010(15) 0.24516(10) 0.08473(5) 0.01729(17) Uani d 1
O O3 1.55337(16) 0.23416(11) 0.62981(5) 0.01865(17) Uani d 1
O O4 1.14201(15) 0.00027(10) 0.38854(5) 0.01586(16) Uani d 1
O O5 0.18017(16) 0.33437(10) 0.25526(5) 0.01818(17) Uani d 1
H H5 0.118(3) 0.263(2) 0.2115(10) 0.027 Uiso d 1
O O6 0.74923(17) 0.40347(11) 0.05992(5) 0.02044(18) Uani d 1
H H6 0.617(3) 0.350(2) 0.0681(11) 0.031 Uiso d 1
N N1 0.76255(18) 0.16991(12) 0.35832(6) 0.01695(19) Uani d 1
H H1 0.896(3) 0.128(2) 0.3779(10) 0.025 Uiso d 1
N N2 1.04584(18) 0.71260(12) 0.25721(6) 0.01696(19) Uani d 1
H H2 1.114(3) 0.777(2) 0.2998(10) 0.025 Uiso d 1
C C1 0.02618(19) -0.05358(13) -0.08002(6) 0.01355(19) Uani d 1
C C2 0.19204(19) 0.07509(13) -0.03554(6) 0.01332(19) Uani d 1
C C3 0.18242(19) 0.13365(13) 0.04220(6) 0.01289(19) Uani d 1
C C4 1.52060(19) 0.12916(13) 0.56903(6) 0.01293(19) Uani d 1
C C5 1.33437(19) 0.12624(13) 0.51055(6) 0.01346(19) Uani d 1
C C6 1.30221(19) 0.00728(13) 0.44252(6) 0.01271(19) Uani d 1
C C7 0.6571(2) 0.30150(14) 0.39505(7) 0.0178(2) Uani d 1
H H7 0.719110 0.355184 0.445342 0.021 Uiso calc 1
C C8 0.4617(2) 0.35945(14) 0.36116(7) 0.0169(2) Uani d 1
H H8 0.390102 0.453256 0.387366 0.020 Uiso calc 1
C C9 0.3693(2) 0.27801(13) 0.28719(6) 0.0141(2) Uani d 1
C C10 0.4863(2) 0.14337(14) 0.24949(6) 0.0169(2) Uani d 1
H H10 0.430463 0.088006 0.198898 0.020 Uiso calc 1
C C11 0.6819(2) 0.09297(15) 0.28659(7) 0.0180(2) Uani d 1
H H11 0.761693 0.002289 0.261273 0.022 Uiso calc 1
C C12 0.8247(2) 0.62477(14) 0.25631(6) 0.0169(2) Uani d 1
H H12 0.743357 0.635815 0.301370 0.020 Uiso calc 1
C C13 0.7170(2) 0.51997(14) 0.19096(6) 0.0152(2) Uani d 1
H H13 0.560916 0.459117 0.190415 0.018 Uiso calc 1
C C14 0.8392(2) 0.50334(13) 0.12492(6) 0.0145(2) Uani d 1
C C15 1.0695(2) 0.59750(15) 0.12741(7) 0.0178(2) Uani d 1
H H15 1.155223 0.590054 0.083294 0.021 Uiso calc 1
C C16 1.1663(2) 0.69955(15) 0.19462(7) 0.0181(2) Uani d 1
H H16 1.321913 0.762460 0.197088 0.022 Uiso calc 1
loop_
_atom_site_aniso_label
_atom_site_aniso_U_11
_atom_site_aniso_U_22
_atom_site_aniso_U_33
_atom_site_aniso_U_12
_atom_site_aniso_U_13
_atom_site_aniso_U_23
Cl1 0.01602(12) 0.01837(13) 0.01388(12) -0.00454(9) 0.00310(9) 0.00181(9)
Cl2 0.01776(13) 0.01555(12) 0.01668(13) 0.00527(9) -0.00194(9) -0.00109(9)
O1 0.0204(4) 0.0252(4) 0.0108(4) -0.0062(3) 0.0022(3) -0.0016(3)
O2 0.0165(4) 0.0179(4) 0.0136(4) -0.0054(3) -0.0007(3) -0.0014(3)
O3 0.0202(4) 0.0181(4) 0.0140(4) 0.0038(3) -0.0031(3) -0.0038(3)
O4 0.0164(4) 0.0164(4) 0.0129(4) 0.0021(3) -0.0034(3) 0.0005(3)
O5 0.0183(4) 0.0175(4) 0.0162(4) 0.0037(3) -0.0050(3) -0.0004(3)
O6 0.0196(4) 0.0230(4) 0.0135(4) -0.0083(3) 0.0008(3) -0.0029(3)
N1 0.0157(4) 0.0177(4) 0.0181(5) 0.0022(3) -0.0003(4) 0.0057(4)
N2 0.0177(4) 0.0173(4) 0.0128(4) -0.0016(3) -0.0028(4) -0.0006(3)
C1 0.0126(4) 0.0151(5) 0.0117(5) -0.0008(4) 0.0003(4) 0.0014(4)
C2 0.0118(4) 0.0151(4) 0.0121(5) -0.0025(4) 0.0018(4) 0.0023(4)
C3 0.0120(4) 0.0131(4) 0.0126(5) -0.0004(3) 0.0000(4) 0.0019(4)
C4 0.0134(4) 0.0129(4) 0.0116(5) 0.0001(4) 0.0011(4) 0.0012(4)
C5 0.0135(4) 0.0128(4) 0.0133(5) 0.0028(4) -0.0001(4) 0.0007(4)
C6 0.0122(4) 0.0124(4) 0.0126(5) -0.0005(3) -0.0001(4) 0.0020(4)
C7 0.0200(5) 0.0153(5) 0.0162(5) 0.0000(4) -0.0032(4) 0.0016(4)
C8 0.0196(5) 0.0141(5) 0.0154(5) 0.0020(4) -0.0011(4) 0.0003(4)
C9 0.0144(4) 0.0131(4) 0.0146(5) 0.0000(4) 0.0006(4) 0.0032(4)
C10 0.0201(5) 0.0171(5) 0.0125(5) 0.0027(4) 0.0010(4) 0.0012(4)
C11 0.0197(5) 0.0180(5) 0.0170(5) 0.0045(4) 0.0043(4) 0.0034(4)
C12 0.0170(5) 0.0198(5) 0.0129(5) 0.0010(4) 0.0016(4) 0.0015(4)
C13 0.0132(4) 0.0164(5) 0.0147(5) -0.0011(4) 0.0008(4) 0.0019(4)
C14 0.0149(5) 0.0137(4) 0.0129(5) -0.0006(4) -0.0006(4) 0.0002(4)
C15 0.0156(5) 0.0205(5) 0.0148(5) -0.0039(4) 0.0023(4) 0.0001(4)
C16 0.0146(5) 0.0191(5) 0.0181(5) -0.0032(4) -0.0001(4) 0.0010(4)
loop_
_atom_type_symbol
_atom_type_description
_atom_type_scat_dispersion_real
_atom_type_scat_dispersion_imag
_atom_type_scat_source
C C 0.0033 0.0016 'International Tables Vol C Tables 4.2.6.8 and 6.1.1.4'
H H 0.0000 0.0000 'International Tables Vol C Tables 4.2.6.8 and 6.1.1.4'
O O 0.0106 0.0060 'International Tables Vol C Tables 4.2.6.8 and 6.1.1.4'
N N 0.0061 0.0033 'International Tables Vol C Tables 4.2.6.8 and 6.1.1.4'
Cl Cl 0.1484 0.1585 'International Tables Vol C Tables 4.2.6.8 and 6.1.1.4'
loop_
_geom_angle_atom_site_label_1
_geom_angle_atom_site_label_2
_geom_angle_atom_site_label_3
_geom_angle_site_symmetry_3
_geom_angle
C9 O5 H5 . 111.3(11)
C14 O6 H6 . 107.1(13)
C11 N1 C7 . 120.85(10)
C11 N1 H1 . 114.5(11)
C7 N1 H1 . 124.6(11)
C16 N2 C12 . 121.30(10)
C16 N2 H2 . 119.3(12)
C12 N2 H2 . 119.4(12)
O1 C1 C2 . 123.43(10)
O1 C1 C3 2 117.79(9)
C2 C1 C3 2 118.79(9)
C3 C2 C1 . 123.56(10)
C3 C2 Cl1 . 118.10(8)
C1 C2 Cl1 . 118.31(8)
O2 C3 C2 . 125.93(10)
O2 C3 C1 2 116.43(9)
C2 C3 C1 2 117.64(9)
O3 C4 C5 . 124.83(10)
O3 C4 C6 2_856 116.58(9)
C5 C4 C6 2_856 118.59(9)
C6 C5 C4 . 123.72(10)
C6 C5 Cl2 . 118.75(8)
C4 C5 Cl2 . 117.52(8)
O4 C6 C5 . 126.22(10)
O4 C6 C4 2_856 116.09(9)
C5 C6 C4 2_856 117.69(9)
N1 C7 C8 . 121.23(11)
N1 C7 H7 . 119.4
C8 C7 H7 . 119.4
C7 C8 C9 . 118.99(11)
C7 C8 H8 . 120.5
C9 C8 H8 . 120.5
O5 C9 C8 . 118.46(10)
O5 C9 C10 . 122.89(10)
C8 C9 C10 . 118.62(10)
C11 C10 C9 . 119.23(10)
C11 C10 H10 . 120.4
C9 C10 H10 . 120.4
N1 C11 C10 . 121.03(11)
N1 C11 H11 . 119.5
C10 C11 H11 . 119.5
N2 C12 C13 . 120.52(11)
N2 C12 H12 . 119.7
C13 C12 H12 . 119.7
C12 C13 C14 . 119.37(10)
C12 C13 H13 . 120.3
C14 C13 H13 . 120.3
O6 C14 C13 . 123.08(10)
O6 C14 C15 . 118.05(10)
C13 C14 C15 . 118.87(10)
C16 C15 C14 . 118.63(11)
C16 C15 H15 . 120.7
C14 C15 H15 . 120.7
N2 C16 C15 . 121.29(10)
N2 C16 H16 . 119.4
C15 C16 H16 . 119.4
loop_
_geom_bond_atom_site_label_1
_geom_bond_atom_site_label_2
_geom_bond_site_symmetry_2
_geom_bond_distance
Cl1 C2 . 1.7363(11)
Cl2 C5 . 1.7438(11)
O1 C1 . 1.2508(13)
O2 C3 . 1.2532(12)
O3 C4 . 1.2390(13)
O4 C6 . 1.2586(13)
O5 C9 . 1.3223(13)
O5 H5 . 0.907(18)
O6 C14 . 1.3208(13)
O6 H6 . 0.852(19)
N1 C11 . 1.3456(15)
N1 C7 . 1.3469(15)
N1 H1 . 0.918(18)
N2 C16 . 1.3430(16)
N2 C12 . 1.3511(15)
N2 H2 . 0.877(18)
C1 C2 . 1.3997(14)
C1 C3 2 1.5410(15)
C2 C3 . 1.3970(15)
C4 C5 . 1.4165(14)
C4 C6 2_856 1.5426(15)
C5 C6 . 1.3924(15)
C7 C8 . 1.3722(16)
C7 H7 . 0.9500
C8 C9 . 1.4035(15)
C8 H8 . 0.9500
C9 C10 . 1.4065(16)
C10 C11 . 1.3703(16)
C10 H10 . 0.9500
C11 H11 . 0.9500
C12 C13 . 1.3693(15)
C12 H12 . 0.9500
C13 C14 . 1.4009(16)
C13 H13 . 0.9500
C14 C15 . 1.4126(15)
C15 C16 . 1.3671(15)
C15 H15 . 0.9500
C16 H16 . 0.9500
loop_
_geom_hbond_atom_site_label_D
_geom_hbond_atom_site_label_H
_geom_hbond_atom_site_label_A
_geom_hbond_site_symmetry_A
_geom_hbond_distance_DH
_geom_hbond_distance_HA
_geom_hbond_distance_DA
_geom_hbond_angle_DHA
_geom_hbond_publ_flag
O5 H5 O1 2_555 0.905(17) 1.640(17) 2.5208(13) 163.2(17) y
O6 H6 O2 . 0.852(17) 1.800(17) 2.6510(13) 177.3(18) y
N1 H1 O4 . 0.919(17) 1.810(17) 2.7000(13) 162.3(16) y
N2 H2 O4 1_565 0.876(18) 2.156(17) 2.9603(14) 152.3(15) y
N2 H2 O3 2_866 0.876(18) 2.176(17) 2.8384(14) 132.1(14) y
C7 H7 Cl2 . 0.95 2.81 3.4540(12) 126 y
C12 H12 O3 2_766 0.95 2.32 3.1541(14) 146 y
C13 H13 O2 . 0.95 2.49 3.1685(14) 128 y
C16 H16 Cl1 2_765 0.95 2.77 3.4427(12) 128 y
loop_
_geom_torsion_atom_site_label_1
_geom_torsion_atom_site_label_2
_geom_torsion_atom_site_label_3
_geom_torsion_atom_site_label_4
_geom_torsion_site_symmetry_1
_geom_torsion_site_symmetry_4
_geom_torsion
O1 C1 C2 C3 . . -179.19(11)
C3 C1 C2 C3 2 . 1.29(18)
O1 C1 C2 Cl1 . . -1.30(16)
C3 C1 C2 Cl1 2 . 179.17(7)
C1 C2 C3 O2 . . 178.00(11)
Cl1 C2 C3 O2 . . 0.11(16)
C1 C2 C3 C1 . 2 -1.27(17)
Cl1 C2 C3 C1 . 2 -179.16(7)
O3 C4 C5 C6 . . 179.64(11)
C6 C4 C5 C6 2_856 . -0.41(17)
O3 C4 C5 Cl2 . . 0.75(16)
C6 C4 C5 Cl2 2_856 . -179.29(7)
C4 C5 C6 O4 . . -179.11(10)
Cl2 C5 C6 O4 . . -0.23(16)
C4 C5 C6 C4 . 2_856 0.40(17)
Cl2 C5 C6 C4 . 2_856 179.28(7)
C11 N1 C7 C8 . . 1.17(18)
N1 C7 C8 C9 . . 0.81(18)
C7 C8 C9 O5 . . 179.64(10)
C7 C8 C9 C10 . . -2.23(17)
O5 C9 C10 C11 . . 179.80(10)
C8 C9 C10 C11 . . 1.75(17)
C7 N1 C11 C10 . . -1.68(17)
C9 C10 C11 N1 . . 0.18(17)
C16 N2 C12 C13 . . -0.23(17)
N2 C12 C13 C14 . . 0.54(17)
C12 C13 C14 O6 . . 179.17(11)
C12 C13 C14 C15 . . -0.92(17)
O6 C14 C15 C16 . . -179.08(11)
C13 C14 C15 C16 . . 1.01(17)
C12 N2 C16 C15 . . 0.33(18)
C14 C15 C16 N2 . . -0.72(18)
