#------------------------------------------------------------------------------
#$Date: 2019-12-26 20:51:09 +0200 (Thu, 26 Dec 2019) $
#$Revision: 246083 $
#$URL: file:///home/coder/svn-repositories/cod/cif/2/31/16/2311686.cif $
#------------------------------------------------------------------------------
#
# This file is available in the Crystallography Open Database (COD),
# http://www.crystallography.net/. The original data for this entry
# were provided by IUCr Journals, http://journals.iucr.org/.
#
# The file may be used within the scientific community so long as
# proper attribution is given to the journal article from which the
# data were obtained.
#
data_2311686
loop_
_publ_author_name
'Rychkov, Denis'
'Arkhipov, Sergey'
'Boldyreva, Elena'
_publ_section_title
;
 Structure-forming units of amino acid maleates. Case study of L-valinium
 hydrogen maleate.
;
_journal_coeditor_code           XK5024
_journal_issue                   'Pt 1'
_journal_name_full
'Acta crystallographica Section B, Structural science, crystal engineering and materials'
_journal_page_first              160
_journal_page_last               163
_journal_paper_doi               10.1107/S2052520615021022
_journal_volume                  72
_journal_year                    2016
_chemical_formula_moiety         'C5 H11 N O2'
_chemical_formula_sum            'C5 H11 N O2'
_chemical_formula_weight         117.15
_chemical_name_systematic        L-valine
_space_group_crystal_system      monoclinic
_space_group_IT_number           4
_space_group_name_Hall           'P 2yb'
_space_group_name_H-M_alt        'P 1 21 1'
_atom_sites_solution_hydrogens   geom
_audit_creation_method
;
Olex2 1.2
(compiled 2015.09.30 svn.r3233 for OlexSys, GUI svn.r5103)
;
_cell_angle_alpha                90
_cell_angle_beta                 90.803(14)
_cell_angle_gamma                90
_cell_formula_units_Z            4
_cell_length_a                   9.6697(16)
_cell_length_b                   5.2749(9)
_cell_length_c                   12.063(2)
_cell_measurement_temperature    298
_cell_volume                     615.23(18)
_computing_molecular_graphics    'Olex2 (Dolomanov et al., 2009)'
_computing_publication_material  'Olex2 (Dolomanov et al., 2009)'
_computing_structure_refinement  'ShelXL (Sheldrick, 2015)'
_computing_structure_solution    'ShelXS (Sheldrick, 2008)'
_diffrn_ambient_temperature      298
_diffrn_measured_fraction_theta_full 1.000
_diffrn_measured_fraction_theta_max 1.000
_diffrn_measurement_device_type  'Stoe IPDS II'
_diffrn_measurement_method       'rotation method'
_diffrn_radiation_type           MoK\a
_diffrn_radiation_wavelength     0.71073
_diffrn_reflns_av_R_equivalents  0.0416
_diffrn_reflns_limit_h_max       12
_diffrn_reflns_limit_h_min       -12
_diffrn_reflns_limit_k_max       6
_diffrn_reflns_limit_k_min       -6
_diffrn_reflns_limit_l_max       14
_diffrn_reflns_limit_l_min       -15
_diffrn_reflns_number            4649
_diffrn_reflns_theta_full        25.242
_diffrn_reflns_theta_max         26.369
_diffrn_reflns_theta_min         1.688
_exptl_absorpt_coefficient_mu    0.097
_exptl_absorpt_correction_type   none
_exptl_crystal_colour            'clear light colourless'
_exptl_crystal_density_diffrn    1.265
_exptl_crystal_description       trapezoid
_exptl_crystal_F_000             256
_exptl_crystal_size_max          0.35
_exptl_crystal_size_mid          0.25
_exptl_crystal_size_min          0.1
_refine_diff_density_max         0.132
_refine_diff_density_min         -0.152
_refine_ls_extinction_method     none
_refine_ls_goodness_of_fit_ref   0.783
_refine_ls_hydrogen_treatment    constr
_refine_ls_matrix_type           full
_refine_ls_number_parameters     151
_refine_ls_number_reflns         2516
_refine_ls_number_restraints     1
_refine_ls_restrained_S_all      0.783
_refine_ls_R_factor_all          0.0912
_refine_ls_R_factor_gt           0.0370
_refine_ls_shift/su_max          0.000
_refine_ls_shift/su_mean         0.000
_refine_ls_structure_factor_coef Fsqd
_refine_ls_weighting_details
'w=1/[\s^2^(Fo^2^)+(0.0239P)^2^] where P=(Fo^2^+2Fc^2^)/3'
_refine_ls_weighting_scheme      calc
_refine_ls_wR_factor_gt          0.0610
_refine_ls_wR_factor_ref         0.0708
_reflns_number_gt                1333
_reflns_number_total             2516
_reflns_threshold_expression     'I > 2\s(I)'
_cod_data_source_file            xk5024sup1.cif
_cod_data_source_block           lval_all
_cod_original_cell_volume        615.22(18)
_cod_database_code               2311686
_shelx_space_group_comment
;
The symmetry employed for this shelxl refinement is uniquely defined
by the following loop, which should always be used as a source of
symmetry information in preference to the above space-group names.
They are only intended as comments.
;
_shelx_hkl_file
;
  -4  -6   1    0.45   11.80   2 0.67428-0.97029-0.68851-0.12315 0.27645-0.22184
  -4  -4   1    9.20    8.90   2 0.67195-0.96603-0.68994 0.15020 0.27861-0.22382
  -3  -4  12   -8.79   12.16   4 0.67761-0.88562-0.68646 0.14897 0.27334 0.42742
  -2  -1   2  510.16   11.38   3 0.67259-0.81838-0.68954 0.55478 0.27801-0.16137
  -1  -1  11    8.49    9.74   3 0.67579-0.74017-0.68758 0.55266 0.27503 0.37262
   0  -3  -7   29.04   19.30   9 0.70669-0.71413-0.66726 0.26411 0.24515-0.65821
   0  -2  15   10.95   12.49   2 0.67331-0.66221-0.68910 0.41929 0.27734 0.61169
   0  -1  13   -5.29   10.38   3 0.67530-0.66569-0.68789 0.55220 0.27550 0.49255
   2  -3  -9   27.70   11.95   4 0.68039-0.54171-0.68472 0.28024 0.27072-0.79999
   3   0  -5    3.94    8.41   3 0.67352-0.45691-0.68898 0.68897 0.27715-0.56898
   4  -1  -8   47.07    8.93   3 0.67673-0.39083-0.68700 0.55172 0.27416-0.74219
   4   0  15   29.24   17.08   6 0.68795-0.38043-0.67989 0.67853 0.26353 0.62300
   6  -1  -9   28.50    9.94   3 0.67544-0.24265-0.68780 0.55299 0.27536-0.80039
   8   1  -5   49.96    9.63   3 0.67537-0.09250-0.68784 0.82136 0.27543-0.56411
   8   2   0   22.95    9.19   3 0.67309-0.08359-0.68924 0.95944 0.27755-0.27039
   9   1  -5    6.64    7.74   3 0.67174-0.01343-0.69006 0.82526 0.27880-0.56473
  10   1  -5    1.56   10.36   3 0.67414 0.05810-0.68860 0.82441 0.27658-0.56214
  12   2   1   -5.36   11.73   3 0.67549 0.20621-0.68777 0.95634 0.27532-0.20420
  -4  -5   9   13.51   10.56   4 0.67727-0.96378-0.68667 0.01243 0.27366 0.25289
  -4  -4   8    3.69    9.52   4 0.67933-0.96686-0.68538 0.14593 0.27171 0.19594
  -3  -2   2   11.01    7.00   4 0.67807-0.89752-0.68617 0.41630 0.27291-0.15797
  -2  -3  13   -3.66   12.07   4 0.68029-0.81679-0.68478 0.27964 0.27081 0.49314
  -2  -1   7  118.73    9.62   4 0.68009-0.82050-0.68491 0.55110 0.27101 0.14038
   1  -2  -7  174.92   12.59   5 0.68607-0.61934-0.68110 0.41214 0.26533-0.67686
   2  -2  -8  165.16   10.92   5 0.68348-0.54435-0.68276 0.41371 0.26780-0.73730
   2   0  13   14.84   12.14   5 0.68478-0.52665-0.68193 0.68139 0.26656 0.50086
   4  -4 -11    3.62   14.65   5 0.68447-0.39940-0.68213 0.14296 0.26686-0.91107
   4   0  -6  982.86   13.39   4 0.68081-0.39253-0.68445 0.68397 0.27032-0.62034
   5  -2 -10    6.36   10.07   4 0.67972-0.32008-0.68514 0.41536 0.27135-0.85588
   7   2   9    5.23   19.30   6 0.69396-0.17129-0.67595 0.94403 0.25773 0.27949
   9  -2 -11    0.15   13.29   5 0.68335-0.02948-0.68285 0.41369 0.26792-0.91026
  11   1  -5    1.29   10.78   4 0.67991 0.12597-0.68502 0.82066 0.27117-0.55553
  11   2   0   -2.26   11.35   3 0.67732 0.13157-0.68664 0.95552 0.27361-0.26207
  -4  -6   2   -1.75   11.28   5 0.68724-0.98185-0.68035-0.13157 0.26421-0.15034
  -4  -5   1   36.96   10.63   5 0.68634-0.98068-0.68093 0.00788 0.26507-0.20920
  -4  -5   8   22.12   11.72   5 0.68822-0.97590-0.67971 0.00536 0.26327 0.20447
  -4  -4   2   46.40    9.55   5 0.68813-0.98077-0.67978 0.14104 0.26336-0.14865
  -3  -3  -1   23.75    9.08   5 0.68547-0.90758-0.68149 0.27819 0.26590-0.32720
  -3  -2   7   83.23    7.92   4 0.68299-0.89675-0.68308 0.41472 0.26827 0.14185
  -2  -2  11   17.17   10.14   5 0.68466-0.82206-0.68201 0.41355 0.26667 0.37985
   0   0   9   56.20    9.24   5 0.68684-0.67881-0.68061 0.68054 0.26459 0.26631
   2   0  -4  678.45   13.53   5 0.68596-0.54192-0.68118 0.68179 0.26544-0.49896
   2   1   8  160.59   14.12   8 0.70017-0.54509-0.67177 0.80606 0.25164 0.22289
   3   0  14    3.73   13.62   5 0.68765-0.45469-0.68008 0.68066 0.26381 0.56800
   5  -3 -11   39.31   12.78   6 0.68977-0.33132-0.67871 0.27489 0.26178-0.90714
   5   2   4  136.08   10.74   5 0.68936-0.31764-0.67898 0.94806 0.26218-0.02141
   5   2   5   18.61   10.86   5 0.68969-0.31723-0.67876 0.94742 0.26186 0.03745
   6   2   1   29.14    8.50   5 0.68808-0.24607-0.67981 0.94942 0.26341-0.19849
   6   2   8   55.58   17.96   7 0.69786-0.24815-0.67334 0.94163 0.25392 0.22399
   7   1  -5  180.02    9.28   5 0.68601-0.17627-0.68115 0.81557 0.26539-0.55358
   7   2   0   26.07    9.15   4 0.68422-0.16928-0.68230 0.95124 0.26710-0.26021
   8  -2 -11  -11.29   11.89   5 0.68591-0.10659-0.68121 0.41036 0.26548-0.90708
   8   0  -8    5.68   10.09   5 0.68846-0.10627-0.67956 0.67980 0.26304-0.72708
   9   0  -8    7.06    8.67   5 0.68392-0.02809-0.68249 0.68276 0.26738-0.73042
   9   2  -1   16.25    9.91   5 0.68834-0.02686-0.67964 0.94952 0.26316-0.31290
  10   0  -8    7.60    9.43   5 0.68372 0.04534-0.68261 0.68242 0.26756-0.72885
  -4  -6   7   13.91   11.41   6 0.68943-0.97837-0.67893-0.13052 0.26211 0.14679
  -4  -4   7    0.04    8.43   6 0.68875-0.97726-0.67937 0.13919 0.26276 0.14625
  -3  -3  10   30.25    8.61   5 0.68869-0.90061-0.67941 0.27486 0.26282 0.32405
  -3  -2   3  251.21    9.94   6 0.69179-0.91032-0.67738 0.40742 0.25983-0.08572
  -3  -2   6   14.68    8.32   6 0.69074-0.90690-0.67807 0.40851 0.26084 0.09051
  -2  -1   3  675.41   12.73   6 0.69269-0.83758-0.67679 0.54155 0.25895-0.08368
  -2  -1   6    3.56    8.37   6 0.69095-0.83333-0.67794 0.54309 0.26065 0.09137
  -1  -2  13   23.61    9.97   6 0.69134-0.75357-0.67768 0.40800 0.26026 0.50483
   1  -1  14   -2.58   11.43   7 0.69495-0.61035-0.67529 0.53960 0.25676 0.57131
   3  -2  -9   34.42   11.21   7 0.69832-0.48621-0.67302 0.40463 0.25346-0.78126
   8   2  -1    9.45    8.89   6 0.69403-0.10588-0.67590 0.94576 0.25766-0.30859
   9  -1 -10    7.26   11.00   7 0.69407-0.04037-0.67588 0.54160 0.25762-0.84015
  10  -1 -10   15.47   12.45   6 0.69293 0.03467-0.67663 0.54202 0.25873-0.83908
  10   2  -1    9.88    8.40   5 0.68876 0.04614-0.67936 0.94894 0.26275-0.31137
  11   0  -8   10.63   10.48   6 0.68933 0.11378-0.67899 0.67935 0.26220-0.72327
  12   1  -5    7.00   11.00   6 0.68937 0.19007-0.67897 0.81458 0.26216-0.54530
  12   2   0  -15.10   12.15   7 0.69467 0.19446-0.67548 0.94886 0.25704-0.24596
  -4  -6   3    6.97   12.21   7 0.69815-0.98880-0.67218-0.13460 0.25548-0.08250
  -4  -6   4   -2.26   11.75   7 0.69799-0.99047-0.67229-0.13893 0.25564-0.02294
  -4  -6   5    8.22   11.53   7 0.69745-0.98932-0.67265-0.13804 0.25617 0.03562
  -4  -6   6   -1.23   10.20   7 0.69510-0.98505-0.67423-0.13620 0.25846 0.09210
  -4  -5   2   82.69   10.18   7 0.69843-0.99210-0.67199-0.00207 0.25521-0.14088
  -4  -5   7   23.87   11.27   7 0.69656-0.98584-0.67326-0.00131 0.25704 0.15237
  -4  -4   3   -0.73    9.06   7 0.69542-0.98835-0.67402 0.13397 0.25814-0.08511
  -4  -4   6    5.72    8.46   6 0.69509-0.98496-0.67424 0.13417 0.25847 0.09164
  -3  -6  -2    5.11   12.61   8 0.70246-0.92419-0.66923-0.13691 0.25124-0.37119
  -3  -4  -2  345.85   12.28   7 0.69990-0.92332-0.67099 0.13243 0.25377-0.37448
  -3  -4  11   -5.60    9.77   7 0.69454-0.90583-0.67461 0.13378 0.25900 0.38723
  -3  -2   4   71.09    8.79   7 0.69668-0.91427-0.67317 0.40370 0.25692-0.02449
  -3  -2   5  216.39    9.50   7 0.69631-0.91313-0.67342 0.40344 0.25728 0.03417
  -2  -1   5  665.48   12.32   7 0.69884-0.84161-0.67171 0.53642 0.25480 0.03792
   1   0  11   83.67   11.19   8 0.70397-0.61964-0.66818 0.66773 0.24973 0.40057
   2  -5 -10    2.75   21.59  10 0.71511-0.57806-0.66026-0.01089 0.23852-0.82480
   3  -3 -10   16.92   12.19   9 0.70552-0.49434-0.66710 0.26406 0.24819-0.83589
   4   1  -3  102.64    7.46   6 0.69438-0.40225-0.67472 0.81075 0.25916-0.43146
   5   0  -7  167.78   10.05   7 0.69725-0.33591-0.67279 0.67429 0.25636-0.66316
   5   1  -4  120.61    7.35   6 0.69444-0.32985-0.67468 0.81057 0.25910-0.48925
   5   2   3  112.92   10.09   7 0.69684-0.32617-0.67307 0.94244 0.25677-0.07366
   7  -2 -11    0.76   12.22   8 0.70040-0.19500-0.67064 0.40342 0.25327-0.89731
   7   0  -8    4.33    9.60   7 0.69809-0.19059-0.67222 0.67297 0.25554-0.71819
   8  -1 -10    3.13   11.37   7 0.69799-0.11880-0.67229 0.53849 0.25564-0.83654
   9   2  10    1.41   21.07  10 0.71213-0.03986-0.66242 0.93172 0.24155 0.35898
  11   2  -1    5.06    9.10   7 0.69483 0.11423-0.67441 0.94536 0.25872-0.30526
  -4  -5   3   28.00    9.93   8 0.70497-0.99820-0.66719-0.00712 0.24853-0.07510
  -4  -5   6    6.22   11.79   8 0.70266-0.99334-0.66880-0.00562 0.25083 0.09987
  -4  -4   4   73.89    7.80   7 0.69942-0.99103-0.67102 0.13176 0.25403-0.02168
  -4  -4   5    3.95    8.28   7 0.69912-0.98965-0.67123 0.13192 0.25433 0.03706
  -3  -5  11  -15.13   10.51   8 0.70019-0.91270-0.67050-0.00475 0.25328 0.39458
  -2  -4  13    3.68   12.63   7 0.70064-0.83871-0.67019 0.13026 0.25283 0.51536
  -2  -3  12   14.05   11.23   8 0.70455-0.84149-0.66749 0.26247 0.24896 0.45821
  -2  -1   4  157.72    8.15   7 0.69952-0.84342-0.67096 0.53576 0.25394-0.01960
  -1  -3  14   -6.56   11.97   8 0.70296-0.76475-0.66859 0.26271 0.25054 0.57570
  -1  -2  -4  362.82   35.03  20 0.76286-0.84049-0.62135 0.35240 0.18638-0.42350
  -1  -1  10    4.72    8.97   8 0.70404-0.76867-0.66785 0.53244 0.24947 0.34015
   2  -1  15   -3.02   12.98   9 0.70530-0.54545-0.66696 0.53067 0.24820 0.63904
   3   1  10    6.26   13.92  11 0.71895-0.48844-0.65715 0.79088 0.23437 0.35861
   5  -1  -9   25.70    9.61   8 0.70150-0.34183-0.66960 0.53599 0.25198-0.77716
   5   2   6   20.98   13.50   9 0.70806-0.33373-0.66503 0.93435 0.24545 0.11451
   9   1  -6   32.77    9.41   8 0.70338-0.04693-0.66830 0.80372 0.25012-0.59443
  10   1  -6   14.31   10.61   8 0.70371 0.02786-0.66807 0.80466 0.24979-0.59339
  12   2  -1   -6.51   12.61   8 0.70360 0.17802-0.66815 0.93828 0.24990-0.29561
  -4  -5   4   85.86   10.62   9 0.70764-0.99998-0.66537-0.00771 0.24590-0.01227
  -4  -5   5   34.80   10.36   9 0.70785-0.99808-0.66522-0.00715 0.24569 0.04609
  -3  -7   0    7.58   14.65  10 0.71368-0.93359-0.66105-0.27868 0.23980-0.24167
  -3  -3   9   17.17    7.93   8 0.70529-0.91841-0.66702 0.26210 0.24825 0.28018
  -2  -2  10    1.43    8.63   9 0.70803-0.84644-0.66509 0.39429 0.24551 0.34249
   5   2   2   41.52   10.09   9 0.71105-0.34047-0.66294 0.93286 0.24246-0.11898
   6   1  -5   14.56    7.15   8 0.70528-0.26762-0.66703 0.80282 0.24826-0.53698
   6   1  13    0.32   20.49  16 0.74235-0.28879-0.63897 0.77115 0.20954 0.56132
   6   2   0  119.76    9.47   9 0.70839-0.26606-0.66484 0.93468 0.24515-0.23893
   7  -3 -12   -8.01   13.26   9 0.70822-0.20520-0.66496 0.26116 0.24532-0.94649
   7  -1 -10    3.91   10.28  10 0.71059-0.20434-0.66327 0.53025 0.24294-0.82624
   7   2  -1   26.34    9.17   9 0.70661-0.19149-0.66609 0.93612 0.24693-0.29777
   8   1  -6   37.60    9.24   9 0.71006-0.12654-0.66365 0.79946 0.24346-0.58963
   9   2  -2  129.32   11.07   9 0.70851-0.04825-0.66475 0.93421 0.24503-0.35485
  10   2  -2   -1.75   10.59   9 0.70840 0.02628-0.66483 0.93576 0.24514-0.35223
  11   1  -6   24.71   11.21   8 0.70619 0.09835-0.66639 0.80195 0.24735-0.58864
  -3  -5  -2   12.27   11.30  10 0.71376-0.93807-0.66110-0.01271 0.23988-0.36089
  -3  -4  10    2.30    8.85  10 0.71143-0.92439-0.66277 0.12214 0.24224 0.34618
  -2  -7  -3    5.89   16.00  11 0.71968-0.87154-0.65676-0.28609 0.23382-0.41248
  -1  -6  -6   14.02   17.91  12 0.72437-0.80566-0.65323-0.15463 0.22894-0.58454
   0  -2  14    3.21   11.96  10 0.71381-0.70044-0.66106 0.39076 0.23983 0.58493
   0  -1  12   13.48    8.83  10 0.71297-0.70178-0.66167 0.52599 0.24069 0.46747
   0   0   8  209.20   11.36  11 0.71708-0.70964-0.65867 0.65835 0.23649 0.23590
   3   1  -2  228.27    9.93  10 0.71307-0.49381-0.66160 0.79717 0.24059-0.35418
   6  -2 -11   13.27   11.98  10 0.71523-0.28418-0.66003 0.39233 0.23838-0.87945
   8   2  -2   17.67    8.78  10 0.71550-0.12802-0.65983 0.93013 0.23811-0.34676
  11   2  -2   -2.90   10.49  10 0.71343 0.09613-0.66134 0.93317 0.24022-0.34642
  12   1  -6   14.36   12.65  10 0.71404 0.16409-0.66090 0.79703 0.23960-0.57997
  -3  -5  10    3.81   11.52  12 0.72069-0.93023-0.65594-0.01578 0.23283 0.35219
  -3  -3   0   91.30    8.87  11 0.72012-0.94178-0.65636 0.25203 0.23341-0.23570
  -3  -3   8   -5.04    9.37  11 0.71951-0.93442-0.65681 0.25068 0.23404 0.23659
  -2  -6  -4   -4.16   14.20  12 0.72491-0.87764-0.65277-0.15719 0.22844-0.46673
  -1  -2  12   11.90   10.98  11 0.72001-0.78276-0.65645 0.38607 0.23353 0.47433
   4  -2 -10   11.57   11.12  11 0.72030-0.43529-0.65623 0.38805 0.23324-0.81917
   6   0  -8   30.44    8.67  11 0.71845-0.28324-0.65760 0.65882 0.23514-0.70164
   8   2  10    4.68   25.95  17 0.75105-0.15210-0.63175 0.90183 0.20012 0.40033
  10   0  -9   -0.65   11.71  11 0.71960 0.00718-0.65675 0.65810 0.23395-0.75352
  12   2  -2    0.02   11.81  10 0.71655 0.16155-0.65899 0.92606 0.23709-0.34037
  -3  -6  -1    9.83   12.52  12 0.72672-0.94933-0.65126-0.15643 0.22659-0.28807
  -2  -4  12   16.71   12.27  11 0.72347-0.86224-0.65374 0.11285 0.23000 0.47984
   1  -2  15    6.17   12.64  13 0.72642-0.63879-0.65149 0.38170 0.22690 0.65696
   5  -4 -12    8.00   15.42  14 0.73227-0.37584-0.64697 0.10874 0.22071-0.92605
   5   0  15   -2.25   15.54  12 0.72727-0.34549-0.65085 0.65182 0.22602 0.66837
   6  -3 -12   -5.87   12.60  12 0.72727-0.29700-0.65085 0.24834 0.22602-0.92665
   7   1  -6   77.20    7.66  11 0.72215-0.21296-0.65473 0.78999 0.23137-0.57852
   9   0  -9    2.38    9.71  12 0.72195-0.06803-0.65488 0.65628 0.23157-0.75302
  11   0  -9    4.86   12.90  12 0.72263 0.07932-0.65437 0.65624 0.23087-0.74989
  -3  -4   9   11.33    8.52  13 0.72775-0.94127-0.65056 0.11093 0.22549 0.30352
  -2  -3  11    7.70    9.08  12 0.72721-0.86520-0.65097 0.24596 0.22605 0.42232
  -2  -2   9  103.59    8.32  13 0.72772-0.86790-0.65058 0.38119 0.22552 0.30278
  -1  -3  13    8.02   11.44  14 0.73155-0.79325-0.64761 0.24268 0.22146 0.54516
  -1  -1   9  167.02   10.05  13 0.72943-0.79534-0.64927 0.51409 0.22371 0.30600
   1  -4  -9   25.49   17.98  16 0.74708-0.68295-0.63507 0.09750 0.20459-0.73444
   2  -4 -10    0.67   15.56  15 0.73966-0.60246-0.64117 0.10334 0.21273-0.80071
   2   0  12   -4.06   11.22  13 0.73207-0.57387-0.64721 0.64698 0.22091 0.49113
   2   1   0  231.81   11.77  13 0.72929-0.58185-0.64938 0.78461 0.22386-0.22039
   3  -1  -8  164.88    9.62  13 0.73012-0.51676-0.64873 0.51546 0.22298-0.69145
   4  -3 -11   -3.52   12.65  14 0.73220-0.44895-0.64711 0.24265 0.22077-0.86693
   5   2   1  178.56    9.59  13 0.72804-0.35905-0.65034 0.92003 0.22518-0.15993
   6  -1 -10    6.07    9.71  13 0.72822-0.29578-0.65020 0.51669 0.22499-0.80822
   6   2  -1    9.76    8.51  13 0.73154-0.29074-0.64762 0.91799 0.22147-0.27356
   7   2  -2   94.77    9.97  13 0.73016-0.21725-0.64870 0.91877 0.22293-0.33296
   8   0  -9    5.36    9.86  14 0.73153-0.14869-0.64763 0.65051 0.22148-0.74751
   9   2  -3    8.82    9.86  13 0.72945-0.07026-0.64925 0.91875 0.22369-0.39030
  10   2  -3   35.75   10.61  13 0.72825 0.00604-0.65018 0.92075 0.22496-0.39099
  11   2  -3   15.91   11.45  13 0.73057 0.07676-0.64838 0.91882 0.22250-0.38721
  -3  -6   8    6.38   13.48  14 0.73469-0.94997-0.64504-0.16402 0.21807 0.25210
  -3  -5   9   -0.20    9.94  14 0.73261-0.94596-0.64668-0.02739 0.22029 0.30840
  -3  -4  -1  222.60   10.41  14 0.73619-0.95919-0.64384 0.10472 0.21645-0.27708
  -3  -3   7  103.69    7.80  14 0.73280-0.94759-0.64653 0.24269 0.22009 0.19056
  -2  -4  -4   29.08   13.07  16 0.74507-0.89720-0.63663 0.09825 0.20677-0.44433
   1  -1  13    6.53   10.57  14 0.73447-0.64936-0.64521 0.51020 0.21830 0.55205
   2  -1  -7  116.47    9.58  14 0.73341-0.59292-0.64605 0.51226 0.21944-0.63017
   3  -5 -11   -1.80   18.95  16 0.74572-0.53636-0.63609-0.03601 0.20605-0.85155
   3   0  -6  283.83    9.85  14 0.73645-0.52126-0.64364 0.64431 0.21617-0.56726
   4   0  -7  138.59    9.55  14 0.73534-0.44778-0.64452 0.64484 0.21737-0.62616
   5   1  -5   64.50    8.34  14 0.73395-0.36950-0.64563 0.78084 0.21886-0.50921
   8  -2 -12   -1.39   12.71  13 0.73261-0.15717-0.64668 0.37929 0.22029-0.91445
   9  -1 -11   -4.98   11.78  14 0.73521-0.08419-0.64462 0.51136 0.21750-0.85688
   9   1  -7    9.02    9.85  14 0.73581-0.07832-0.64415 0.78113 0.21686-0.62121
  10   1  -7   11.47    9.00  13 0.73209-0.00208-0.64708 0.78301 0.22084-0.62276
  11   1  -7    6.98   11.64  13 0.73342 0.06988-0.64604 0.78162 0.21943-0.61962
  -3  -6   0    4.87   11.51  15 0.74279-0.96576-0.63852-0.17036 0.20921-0.21203
  -3  -5  -1   12.68   11.11  16 0.74371-0.96635-0.63776-0.03546 0.20820-0.26998
  -3  -4   8   -1.32    9.02  14 0.73822-0.95643-0.64223 0.10021 0.21419 0.25858
  -3  -3   1   16.43    8.47  15 0.74040-0.96113-0.64047 0.23610 0.21182-0.15540
   0  -2  -6   25.07   13.38  16 0.74852-0.75440-0.63375 0.36528 0.20288-0.55648
   0  -1  -4  138.67   13.79  16 0.74441-0.74786-0.63718 0.50282 0.20743-0.44391
   1   0  10   36.98    9.53  16 0.74345-0.66052-0.63798 0.63776 0.20849 0.38339
   4  -1  -9   63.11   10.00  15 0.73946-0.45375-0.64123 0.50738 0.21285-0.73944
   4   0  14   -7.62   14.92  16 0.74572-0.43964-0.63610 0.63550 0.20599 0.62643
   4   1  -4  165.96    7.90  14 0.73719-0.44583-0.64305 0.77859 0.21530-0.44778
   4   1  11   20.91   15.02  18 0.75206-0.44696-0.63076 0.76506 0.19892 0.45456
   5   1  12    4.40   16.86  17 0.75090-0.37141-0.63174 0.76729 0.20022 0.51529
   7   0  -9   49.90   10.55  15 0.74129-0.23450-0.63974 0.64191 0.21085-0.73380
   8   2  -3   26.42    9.39  15 0.73847-0.15145-0.64203 0.91261 0.21392-0.38222
  12   2  -3    6.59   10.27  15 0.73830 0.14379-0.64216 0.91412 0.21410-0.37824
  -3  -6   7    5.51   12.36  16 0.74546-0.96077-0.63631-0.17170 0.20612 0.20455
  -3  -5   8   17.35   10.52  16 0.74457-0.95991-0.63705-0.03739 0.20710 0.26321
  -3  -3   6   40.34    7.43  16 0.74260-0.95878-0.63866 0.23438 0.20925 0.14285
  -2  -7  -2   -2.73   14.99  16 0.74535-0.89835-0.63640-0.30969 0.20623-0.32673
  -2  -5  -4    4.60   13.04  18 0.75539-0.90711-0.62788-0.04477 0.19499-0.43260
  -2  -4  11    7.29   10.64  16 0.74592-0.88423-0.63593 0.09628 0.20560 0.44284
  -2  -3  -3   55.93   11.77  18 0.75305-0.90395-0.62989 0.22592 0.19764-0.37619
  -2  -2  -1  114.27    9.51  16 0.74655-0.89520-0.63540 0.36591 0.20490-0.26615
  -2  -2   8  159.17    9.69  16 0.74671-0.88700-0.63526 0.36550 0.20472 0.26587
  -1  -4  -6   38.17   19.33  22 0.77237-0.85274-0.61254 0.07512 0.17522-0.52986
  -1  -2  11    7.24    9.41  16 0.74610-0.81015-0.63577 0.36544 0.20540 0.44417
   0  -2  13  -10.61    9.68  16 0.74482-0.73346-0.63684 0.36588 0.20682 0.56017
   0  -1  11   39.39    9.91  16 0.74442-0.73429-0.63717 0.50284 0.20726 0.44254
   0   0   7  191.03   10.01  16 0.74462-0.73826-0.63700 0.63662 0.20704 0.20675
   1   0  -3  326.78   12.66  16 0.74458-0.67273-0.63704 0.63805 0.20708-0.38346
   2  -1  14   -1.22   11.83  17 0.74782-0.58879-0.63434 0.49805 0.20349 0.62601
   3  -1  15   -3.56   14.26  17 0.74833-0.51506-0.63391 0.49791 0.20293 0.68843
   3   0  13    6.72   11.96  16 0.74711-0.51428-0.63493 0.63454 0.20429 0.56718
   5  -2 -11    5.41   10.21  15 0.74334-0.38558-0.63806 0.36988 0.20845-0.85123
   5   0  -8   26.11    9.77  16 0.74564-0.38467-0.63616 0.63771 0.20591-0.67321
   5   2   0   27.88    8.18  16 0.74758-0.37954-0.63454 0.90446 0.20377-0.19815
   5   2   7   41.80   21.37  21 0.77081-0.39598-0.61399 0.88322 0.17707 0.24147
   6   1  -6   18.57    7.41  15 0.74238-0.30580-0.63885 0.77497 0.20950-0.55778
   8  -1 -11    4.48    9.93  15 0.74235-0.16358-0.63888 0.50571 0.20954-0.84985
   8   1  -7    6.71    8.25  15 0.74240-0.15928-0.63883 0.77508 0.20948-0.61430
  -3  -6   6    7.03   11.88  17 0.74990-0.96984-0.63255-0.17927 0.20111 0.15234
  -3  -3   2   85.88    9.28  17 0.75111-0.97083-0.63153 0.22750 0.19975-0.08499
  -3  -3   5   32.41    9.11  17 0.75034-0.96751-0.63219 0.22755 0.20062 0.09086
  -2  -5  11   -3.93   11.86  17 0.74986-0.88712-0.63259-0.04132 0.20116 0.44608
  -2  -3  10    9.94    8.68  17 0.74800-0.88693-0.63416 0.22924 0.20323 0.38595
  -1  -4  13    6.99   10.88  17 0.74798-0.81082-0.63417 0.09453 0.20325 0.56459
   0  -3  14    7.39   11.85  16 0.74756-0.73589-0.63453 0.22960 0.20371 0.62472
   2   1   7   44.66   13.47  19 0.75972-0.60541-0.62404 0.75893 0.18997 0.22573
   3  -4 -11   -0.44   14.55  16 0.74792-0.53702-0.63423 0.09739 0.20332-0.84614
   7  -2 -12    1.99   12.92  18 0.75256-0.24835-0.63029 0.36323 0.19812-0.90193
  10   2  -4   74.69   12.05  16 0.74842-0.01590-0.63381 0.90417 0.20276-0.42801
  11   2  -4   17.04   11.77  16 0.74885 0.05756-0.63344 0.90317 0.20228-0.42568
  -3  -6   1    6.60   11.12  18 0.75465-0.97617-0.62846-0.17981 0.19574-0.13930
  -3  -5   7    4.62   11.10  19 0.75693-0.97156-0.62648-0.04718 0.19314 0.21734
  -3  -4   0   11.85   10.28  19 0.75795-0.97985-0.62559 0.08744 0.19198-0.19391
  -3  -4   7   16.29    8.55  17 0.75312-0.96912-0.62978 0.09025 0.19747 0.21355
  -3  -3   3   22.06    9.02  18 0.75543-0.97419-0.62779 0.22375 0.19485-0.02022
  -3  -3   4   48.32    8.88  18 0.75449-0.97246-0.62860 0.22494 0.19592 0.03818
  -1  -3  12   -3.48   10.92  19 0.75789-0.81977-0.62564 0.22114 0.19204 0.51459
  -1  -1   8   99.39    7.89  17 0.75266-0.81884-0.63018 0.49569 0.19799 0.27345
   1  -3  15   -2.51   13.83  20 0.76281-0.67402-0.62127 0.21793 0.18638 0.69466
   2   0  -5  117.41    9.28  18 0.75547-0.61281-0.62775 0.62835 0.19481-0.48766
   5  -3 -12   -1.05   13.29  19 0.75814-0.40256-0.62542 0.22167 0.19176-0.89430
   5  -1 -10   35.66   10.00  18 0.75555-0.39728-0.62768 0.49396 0.19471-0.77944
   6   2  -2  194.83    9.68  18 0.75349-0.31343-0.62947 0.89927 0.19705-0.30889
   7  -1 -11   13.07   10.84  18 0.75584-0.25060-0.62743 0.49433 0.19439-0.83632
   7   1  -7   28.76    9.89  18 0.75517-0.24657-0.62802 0.76293 0.19515-0.60144
   7   2  -3   25.30    7.51  17 0.75308-0.24104-0.62982 0.90014 0.19751-0.36617
   9   2  -4   27.12    8.94  17 0.75242-0.09367-0.63039 0.90128 0.19826-0.42481
  10   0 -10    6.52   12.68  17 0.75339-0.02600-0.62955 0.63101 0.19716-0.77617
  12   2  -4   -1.77   12.48  19 0.75768 0.12679-0.62583 0.89975 0.19229-0.41690
  -3  -6   2    7.15   11.68  19 0.75972-0.98131-0.62404-0.18492 0.18997-0.07453
  -3  -6   3    2.38   11.43  19 0.76085-0.98261-0.62304-0.18759 0.18867-0.01370
  -3  -6   4   18.54   10.99  20 0.76216-0.98084-0.62187-0.18668 0.18715 0.04660
  -3  -6   5    8.78   10.95  18 0.75870-0.97653-0.62495-0.18312 0.19115 0.10138
  -3  -5   0   40.00    9.83  19 0.76088-0.98338-0.62301-0.04966 0.18864-0.19041
  -1  -5  -6    1.61   16.97  21 0.77233-0.85339-0.61254-0.06133 0.17520-0.53101
   1  -2  14    9.52   11.52  19 0.75865-0.67266-0.62498 0.35511 0.19120 0.63759
   1  -1  -6  403.68   13.29  19 0.76319-0.69537-0.62094 0.48675 0.18596-0.53865
   3   1  -3  980.40   13.07  18 0.75716-0.53830-0.62630 0.76187 0.19291-0.36705
   6   0  -9    5.02   10.12  18 0.75909-0.32550-0.62460 0.62525 0.19069-0.71428
   8   2  -4   23.99   10.15  19 0.76109-0.17543-0.62282 0.89351 0.18839-0.41610
   9   0 -10   -3.93   10.88  19 0.75777-0.10456-0.62577 0.62752 0.19221-0.77348
  10   1  -8    4.42   11.36  19 0.76085-0.03109-0.62304 0.75980 0.18867-0.65043
  11   1  -8   12.71   11.54  19 0.76047 0.04205-0.62338 0.75978 0.18911-0.64886
  -3  -5   6   20.52   10.44  20 0.76444-0.98176-0.61984-0.05440 0.18455 0.16750
  -3  -4   6   11.79    7.86  20 0.76315-0.97991-0.62101 0.08153 0.18605 0.16577
  -2  -7  -1   10.62   13.70  21 0.77048-0.91926-0.61430-0.32587 0.17745-0.23734
  -2  -6  -3    3.17   12.52  21 0.76862-0.91982-0.61602-0.19063 0.17964-0.35795
  -2  -5  10   -2.87   11.45  20 0.76544-0.90527-0.61894-0.05681 0.18339 0.40718
  -2  -4  10   -1.08   10.15  20 0.76511-0.90418-0.61923 0.07946 0.18376 0.40516
  -2  -2   7  367.79    9.09  20 0.76297-0.90412-0.62117 0.35190 0.18626 0.22529
   2  -2  15    5.19   13.19  19 0.76319-0.60351-0.62097 0.35143 0.18600 0.70529
   8   0 -10   -0.57   11.16  20 0.76544-0.18661-0.61894 0.62041 0.18339-0.76497
   9   1  -8  -11.00   10.25  20 0.76495-0.10894-0.61938 0.75616 0.18395-0.64747
  -3  -5   1   15.13    9.04  21 0.77181-0.99285-0.61302-0.06063 0.17595-0.11947
  -3  -5   5   27.67   10.11  22 0.77223-0.98946-0.61262-0.06040 0.17545 0.11707
  -3  -4   1  534.15   12.16  21 0.77045-0.99131-0.61428 0.07577 0.17756-0.12173
  -3  -4   5   51.95    9.48  21 0.77114-0.98844-0.61365 0.07423 0.17675 0.11546
  -2  -3   9   24.19    8.25  20 0.76743-0.90670-0.61708 0.21239 0.18113 0.34879
  -1  -4  12   13.90   11.78  21 0.77140-0.83477-0.61340 0.07339 0.17643 0.53223
  -1  -2  10   39.82    8.56  21 0.77151-0.83628-0.61330 0.34341 0.17631 0.41249
   0   0   6  236.81   10.41  21 0.77068-0.76542-0.61408 0.61338 0.17730 0.17690
   1  -1  12    4.16    9.37  21 0.77048-0.68638-0.61426 0.47897 0.17753 0.53458
   3  -2 -10   21.88   11.21  22 0.77331-0.56230-0.61160 0.34395 0.17415-0.76065
   4  -4 -12   12.97   17.45  22 0.77424-0.49147-0.61072 0.07417 0.17304-0.87533
   5   1  -6    8.04    8.85  21 0.77058-0.40744-0.61417 0.75030 0.17742-0.52672
   5   2  -1  397.30    9.66  20 0.76767-0.40011-0.61686 0.88709 0.18085-0.23443
   6  -2 -12   -0.20   11.07  21 0.77024-0.34058-0.61448 0.34582 0.17782-0.87971
  10   2  -5   15.04   11.40  20 0.76870-0.03639-0.61591 0.88621 0.17963-0.46338
  11   2  -5    0.20   12.27  21 0.77000 0.03664-0.61471 0.88665 0.17810-0.46165
  -3  -5   2   29.92    9.49  22 0.77702-0.99723-0.60812-0.06566 0.16988-0.05396
  -3  -5   4    2.07   10.00  23 0.77696-0.99482-0.60818-0.06549 0.16995 0.06369
  -3  -4   2  149.23    9.82  22 0.77685-0.99664-0.60828 0.07020 0.17007-0.05469
  -3  -4   4   16.41    8.83  22 0.77623-0.99429-0.60888 0.07046 0.17083 0.06262
  -1  -1   7  359.82   10.38  22 0.77384-0.84149-0.61115 0.47632 0.17370 0.23799
   0  -3  13    4.44   10.88  23 0.77718-0.76514-0.60797 0.20304 0.16968 0.59811
   0  -2  12    5.18    9.89  22 0.77367-0.76301-0.61132 0.34104 0.17392 0.53563
   0  -1  10   17.41    9.12  22 0.77566-0.76609-0.60942 0.47443 0.17152 0.41922
   2  -2  -9   98.42   11.12  22 0.77505-0.63685-0.61000 0.34263 0.17225-0.70047
   2   0  11   25.94   10.82  23 0.77893-0.62150-0.60628 0.60552 0.16755 0.48493
   2   1  -1  597.20   14.01  22 0.77416-0.62767-0.61085 0.74610 0.17333-0.22891
   4   1  -5  191.17    9.57  22 0.77428-0.48481-0.61073 0.74620 0.17317-0.46328
   4   2   3   92.11   11.77  23 0.78057-0.48327-0.60468 0.87418 0.16555 0.01624
   6  -1 -11    6.16   10.87  22 0.77536-0.34385-0.60971 0.47676 0.17189-0.81456
   6   1  -7   42.80    8.82  22 0.77528-0.34105-0.60978 0.74529 0.17197-0.57835
   6   2  -3   74.95    9.19  22 0.77617-0.33779-0.60894 0.87898 0.17091-0.34135
   7   2  -4   22.06    9.00  22 0.77582-0.26478-0.60927 0.87930 0.17133-0.40005
   8   1  -8   36.67    8.82  21 0.77280-0.19160-0.61214 0.74872 0.17495-0.63810
   9  -1 -12   11.81   13.23  22 0.77343-0.12213-0.61154 0.47874 0.17420-0.87175
   9   2  -5   29.26   10.09  22 0.77406-0.11484-0.61095 0.88222 0.17344-0.45914
  12   2  -5    5.66   13.55  22 0.77310 0.10661-0.61185 0.88321 0.17459-0.45655
  -3  -5   3    5.66    9.80  23 0.77790-0.99768-0.60716-0.06670 0.16844 0.00633
  -3  -4   3   10.30    8.96  23 0.77891-0.99729-0.60618 0.06793 0.16720 0.00705
  -2  -7   0    4.03   12.62  22 0.77807-0.92917-0.60699-0.33725 0.16823-0.16950
  -2  -2   0    4.19    9.31  24 0.78421-0.93072-0.60097 0.33258 0.16069-0.16254
  -2  -2   6    0.84    6.96  23 0.77692-0.91963-0.60810 0.33737 0.16962 0.18322
  -1  -3  11   -0.13   10.25  23 0.77951-0.84410-0.60560 0.20073 0.16648 0.48313
  -1  -1  -1  773.88   23.67  24 0.78512-0.85992-0.60006 0.46507 0.15955-0.22011
   1   0   9    3.70    9.51  24 0.78204-0.70007-0.60312 0.60248 0.16337 0.36933
   3   1   9   12.64   12.59  25 0.78664-0.55693-0.59854 0.73335 0.15767 0.37809
   4  -2 -11    7.78   11.78  22 0.77914-0.49509-0.60596 0.33821 0.16693-0.80785
   4   2   2   96.34   10.43  24 0.78207-0.48533-0.60309 0.87272 0.16333-0.04045
   7   0 -10   33.50   10.58  23 0.77939-0.27267-0.60571 0.60802 0.16662-0.75006
   7   1  13    1.68   20.66  28 0.80025-0.27311-0.58433 0.71849 0.14025 0.63379
  -2  -7   1   -5.82   13.48  25 0.78647-0.93535-0.59850-0.34546 0.15756-0.09983
  -2  -6   8    7.73   12.56  25 0.78538-0.92407-0.59960-0.20515 0.15892 0.30987
  -2  -5   9    8.13    9.22  23 0.78138-0.92212-0.60357-0.07048 0.16388 0.36663
  -2  -4   9    7.42    7.77  24 0.78197-0.92208-0.60299 0.06372 0.16315 0.36696
  -2  -3   8   11.45    8.45  24 0.78376-0.92470-0.60121 0.19653 0.16094 0.31009
   2  -3 -10   10.14   12.12  25 0.78852-0.65139-0.59642 0.19351 0.15499-0.74344
   2  -1  13    0.88   11.00  26 0.79087-0.63131-0.59402 0.45857 0.15203 0.61390
   3  -3 -11    3.86   13.73  25 0.78916-0.57931-0.59578 0.19318 0.15419-0.80063
   4   0  -8   13.92    7.81  23 0.78161-0.49426-0.60334 0.60453 0.16359-0.63181
   4   2   4   94.28   13.04  25 0.79009-0.49116-0.59482 0.86454 0.15301 0.08753
   6  -3 -13    3.12   14.35  25 0.78900-0.35943-0.59593 0.19319 0.15438-0.91845
   8  -1 -12    3.19   12.63  23 0.78191-0.20392-0.60304 0.47013 0.16322-0.86206
   8   2  -5   21.84    9.29  24 0.78240-0.19711-0.60256 0.87304 0.16262-0.44912
  10   0 -11   -4.47   13.67  24 0.78446-0.05949-0.60052 0.60212 0.16007-0.79762
  -2  -7   2    3.01   12.89  24 0.78684-0.93751-0.59820-0.34924 0.15728-0.03989
  -2  -7   3   -2.74   12.97  25 0.78930-0.93698-0.59570-0.34969 0.15419 0.02218
  -2  -6  -2   -3.03   12.99  26 0.79119-0.94246-0.59376-0.21589 0.15180-0.27159
  -2  -2   5  171.96    9.32  25 0.78870-0.93190-0.59631 0.32675 0.15495 0.13784
   0  -4  13    9.68   12.91  25 0.78780-0.77756-0.59723 0.05774 0.15608 0.61368
   1  -3  14   11.62   12.58  26 0.78978-0.70349-0.59521 0.19145 0.15358 0.67266
   1  -2  13   15.77   11.09  25 0.79065-0.70566-0.59432 0.32442 0.15249 0.61756
   3  -1  -9   12.49    9.18  25 0.78923-0.57675-0.59576 0.46284 0.15427-0.68170
   3   0  -7  121.68    7.94  24 0.78633-0.57220-0.59871 0.59970 0.15792-0.56756
   4  -1  15    4.10   13.47  25 0.78831-0.48032-0.59671 0.46201 0.15544 0.73668
   4   2   1   65.75    9.93  25 0.79065-0.49500-0.59431 0.86403 0.15248-0.08881
   5   0  -9  248.28   10.30  24 0.78677-0.42748-0.59827 0.59922 0.15737-0.68332
   5   0  14    2.49   15.08  26 0.79448-0.41329-0.59034 0.59037 0.14760 0.68521
   5   2  -2  248.33    9.75  25 0.78702-0.42052-0.59802 0.86775 0.15706-0.26922
   7   1  -8   16.97    8.18  24 0.78638-0.27776-0.59866 0.73506 0.15785-0.62285
   9   0 -11    8.16   12.68  25 0.79039-0.13757-0.59458 0.59700 0.15281-0.79288
  10   1  -9    2.50   11.69  25 0.78726-0.05858-0.59777 0.73472 0.15675-0.67739
  10   2  -6    3.01   10.98  25 0.78960-0.05788-0.59539 0.86664 0.15381-0.49720
  11   1  -9    3.25   11.50  25 0.78640 0.01545-0.59864 0.73587 0.15783-0.67754
  11   2  -6    8.31   11.28  25 0.78790 0.01640-0.59713 0.86776 0.15596-0.49749
  11   3   2   -2.83   12.67  26 0.79096 0.02140-0.59399 0.99959 0.15208-0.02201
  11   3   3   -6.12   13.38  26 0.79108 0.02204-0.59387 0.99908 0.15194 0.03713
  -2  -6   7   10.62   12.17  26 0.79438-0.93574-0.59049-0.21779 0.14788 0.26442
  -2  -5  -3   96.68   12.24  27 0.79571-0.94771-0.58908-0.08416 0.14616-0.32349
  -1  -6  -5    2.81   13.45  27 0.79718-0.87787-0.58753-0.22019 0.14427-0.44007
  -1  -5  11   15.02   11.31  26 0.79142-0.85575-0.59357-0.08026 0.15165 0.49777
  -1  -4  11    0.78   10.79  26 0.79198-0.85668-0.59299 0.05345 0.15095 0.49899
  -1  -2   9  133.34    9.90  26 0.79360-0.85881-0.59130 0.32243 0.14888 0.38217
  -1  -1   6  422.86   11.08  26 0.79293-0.86100-0.59200 0.45732 0.14973 0.20384
   0  -6  -7   -1.22   19.15  32 0.81762-0.82420-0.56454-0.23993 0.11676-0.52667
   0   0   5 2010.39   21.76  26 0.79435-0.78963-0.59051 0.59009 0.14791 0.14791
   3  -1  14    2.30   12.43  26 0.79311-0.56007-0.59182 0.45555 0.14951 0.68137
   3   0  12    0.09   11.46  26 0.79623-0.56406-0.58854 0.58847 0.14549 0.56795
   3   1  -4  657.30   12.19  26 0.79386-0.57620-0.59103 0.72667 0.14854-0.38162
   4  -1 -10  109.94   10.16  25 0.79168-0.50737-0.59330 0.45998 0.15132-0.73661
   9   1  -9   -6.37   10.84  26 0.79288-0.13801-0.59205 0.72949 0.14979-0.67270
   9   2  -6   17.42   10.51  26 0.79488-0.13702-0.58996 0.86143 0.14723-0.49180
  10   3   1   -8.00   12.03  27 0.79541-0.05754-0.58941 0.99544 0.14655-0.07654
  10   3   2    1.05   11.66  25 0.79152-0.05233-0.59347 0.99830 0.15153-0.02217
  10   3   3    5.49   11.30  26 0.79303-0.05252-0.59189 0.99765 0.14960 0.03888
  10   3   4    1.12   13.39  25 0.79153-0.05355-0.59345 0.99373 0.15151 0.09460
  11   3   1    0.16   12.53  26 0.79341 0.01788-0.59150 0.99692 0.14912-0.07801
  11   3   4   12.46   14.34  27 0.79725 0.01863-0.58745 0.99423 0.14417 0.10489
  -2  -5   8   21.12    9.37  27 0.79552-0.93684-0.58920-0.08474 0.14619 0.32510
  -2  -4  -3   14.48   10.49  28 0.80028-0.95168-0.58411 0.04587 0.14001-0.31844
  -2  -4   8   50.94    9.25  27 0.79747-0.93864-0.58712 0.04873 0.14366 0.32604
  -2  -3   7   32.40    8.20  27 0.79905-0.94077-0.58543 0.18111 0.14161 0.26983
  -2  -2   1   22.27    8.58  27 0.79812-0.94503-0.58643 0.31696 0.14282-0.08560
  -2  -2   4  189.13    9.35  27 0.79715-0.94153-0.58746 0.31775 0.14408 0.08956
   1  -2  -8   28.22   10.67  27 0.79992-0.73435-0.58449 0.31625 0.14047-0.61167
   2  -2  14    1.94   12.74  28 0.80156-0.64128-0.58272 0.31288 0.13833 0.68914
   2  -1  -8    8.93    9.72  28 0.80025-0.66076-0.58414 0.45053 0.14004-0.61016
   4  -3 -12    3.91   12.93  28 0.80212-0.52022-0.58210 0.17986 0.13758-0.84302
   4   0  13    5.45   13.46  29 0.80507-0.49828-0.57885 0.57765 0.13367 0.63658
   5  -2 -12    6.19   10.92  27 0.79812-0.44180-0.58643 0.31910 0.14283-0.84540
   6   0 -10   24.15   10.55  27 0.79812-0.36560-0.58643 0.58841 0.14282-0.72699
   6   2  -4   95.40   10.01  27 0.79759-0.35950-0.58699 0.85755 0.14350-0.37268
   7  -2 -13   -1.30   12.17  27 0.79730-0.29488-0.58731 0.31900 0.14389-0.90548
   7  -1 -12    1.35   12.05  27 0.79737-0.29368-0.58723 0.45401 0.14380-0.84602
   7   2  -5   54.76   10.23  27 0.79726-0.28669-0.58735 0.85778 0.14394-0.43091
   8   0 -11   13.76   11.12  27 0.79939-0.22054-0.58506 0.58764 0.14117-0.78231
   9   3   2   -1.95   11.44  27 0.79933-0.13345-0.58513 0.99067 0.14124-0.01301
   9   3   3   19.67   11.85  28 0.80008-0.13338-0.58432 0.98943 0.14026 0.04706
  10   3   0    0.75   12.74  26 0.79601-0.06191-0.58867 0.98922 0.14555-0.13385
  11   3   0   -0.44   11.69  27 0.79811 0.01148-0.58644 0.99155 0.14283-0.13065
  -2  -6   6    6.50   12.07  28 0.80133-0.94649-0.58297-0.22802 0.13866 0.21598
  -2  -3  -2  160.66   11.35  29 0.80470-0.95484-0.57927 0.17509 0.13420-0.25369
  -2  -2   3  939.89   13.69  28 0.80289-0.94803-0.58126 0.31113 0.13660 0.03869
  -1  -7  -3   -3.78   14.76  28 0.80276-0.88285-0.58140-0.36264 0.13676-0.31466
  -1  -3  10    6.01    9.73  28 0.80137-0.86642-0.58292 0.17827 0.13860 0.45146
   0  -3  12   21.57   10.93  28 0.80174-0.79144-0.58252 0.17797 0.13811 0.57122
   0  -2  11   -4.56    9.78  28 0.80161-0.79181-0.58266 0.31185 0.13828 0.51084
   0  -1   9   91.07    9.53  28 0.80345-0.79518-0.58065 0.44567 0.13585 0.39564
   3  -2  15    4.03   12.37  28 0.80125-0.56690-0.58306 0.31322 0.13876 0.75176
   4   2   0  459.15   11.85  28 0.80287-0.50736-0.58128 0.85168 0.13663-0.13190
   5  -1 -11    2.63   10.18  28 0.80191-0.44437-0.58234 0.44953 0.13790-0.78185
   5   1  -7   13.82    8.90  28 0.80196-0.44000-0.58228 0.71815 0.13783-0.54558
   8   1  -9   30.24   10.82  28 0.80118-0.21981-0.58314 0.72009 0.13886-0.66196
   9   3   1   15.67   10.98  28 0.80117-0.13652-0.58315 0.98810 0.13887-0.06944
   9   3   4   -4.12   14.26  28 0.80431-0.13711-0.57970 0.98351 0.13472 0.11139
  10   3   5    7.18   15.00  28 0.80458-0.06345-0.57940 0.98253 0.13435 0.17162
  11   3   5    1.61   14.39  29 0.80447 0.00985-0.57952 0.98475 0.13450 0.17255
  -2  -6  -1    2.35   10.45  29 0.80747-0.95735-0.57622-0.23155 0.13056-0.19075
  -2  -5   7    1.30   10.79  29 0.80809-0.94996-0.57553-0.09824 0.12973 0.28231
  -2  -2   2  277.93    9.54  28 0.80401-0.95007-0.58007 0.30967 0.13518-0.01874
   1  -3  -9   17.03   13.54  30 0.81249-0.74822-0.57050 0.16826 0.12375-0.65334
   1  -1  11   13.78    9.14  29 0.80506-0.72099-0.57892 0.44457 0.13379 0.51785
   2   0  -6  335.44   10.79  29 0.80773-0.66596-0.57592 0.57697 0.13020-0.48224
   4   1  -6  106.57    8.87  29 0.80720-0.51878-0.57653 0.71180 0.13093-0.48084
   5   2  -3  106.34    9.02  29 0.80755-0.44187-0.57613 0.84634 0.13045-0.30254
   6   1  -8   45.48    9.48  29 0.80535-0.37069-0.57859 0.71429 0.13339-0.59941
   8   2  -6   18.79    8.66  28 0.80423-0.22012-0.57983 0.85102 0.13489-0.48051
   9   3   0    8.73   11.17  29 0.80586-0.14252-0.57802 0.98227 0.13271-0.12267
  10   3  -1    2.77   10.99  28 0.80593-0.07133-0.57795 0.98132 0.13263-0.18025
  11   2  -7    4.65   12.31  28 0.80508-0.00409-0.57889 0.84749 0.13376-0.53205
  11   3  -1    3.67   11.83  30 0.80792 0.00461-0.57572 0.98442 0.12995-0.17722
  12   3  -1  -11.52   13.44  29 0.80707 0.07477-0.57667 0.98162 0.13110-0.17686
  -2  -6   5   -8.94   11.00  30 0.81060-0.95505-0.57250-0.23591 0.12602 0.16812
  -2  -4   7   10.56    9.71  30 0.81049-0.95292-0.57263 0.03313 0.12617 0.28610
  -1  -6   9   10.89   13.22  30 0.81109-0.87771-0.57194-0.23517 0.12535 0.40533
  -1  -5  10   -5.87    9.53  30 0.80850-0.87430-0.57490-0.09981 0.12887 0.46187
  -1  -4  10    4.01   10.40  31 0.81261-0.87683-0.57019 0.03152 0.12327 0.46577
  -1  -1   5 1039.61   14.68  30 0.80958-0.87900-0.57367 0.43877 0.12741 0.16668
   0  -4  12    9.89   12.01  30 0.81010-0.80103-0.57308 0.03273 0.12670 0.58493
   1   0  -4   30.00    8.69  30 0.81151-0.74125-0.57146 0.57257 0.12478-0.35934
   2   1  -2  504.73   11.65  30 0.80885-0.66265-0.57450 0.71019 0.12840-0.24364
   8   3   2   10.97   11.11  30 0.81240-0.22113-0.57044 0.97462 0.12357 0.00322
  10   1 -10   -0.11   12.15  29 0.80861-0.08467-0.57477 0.70855 0.12873-0.70249
  10   2  -7    4.26   11.49  30 0.80946-0.07893-0.57380 0.84550 0.12757-0.53004
  -2  -6   0    4.31   11.39  31 0.81576-0.96535-0.56654-0.24159 0.11878-0.11999
  -2  -6   4   -1.26   10.88  32 0.81701-0.96166-0.56506-0.24259 0.11704 0.11784
  -2  -5  -2   39.15   11.65  32 0.81920-0.97027-0.56245-0.11024 0.11397-0.23211
  -2  -3   6   82.75    7.49  30 0.81259-0.95507-0.57024 0.16571 0.12315 0.22841
  -1  -2   8   28.24    9.03  31 0.81416-0.88086-0.56841 0.29870 0.12098 0.35070
   0   0   4 9999.99   50.02  31 0.81591-0.81231-0.56636 0.56580 0.11856 0.11836
   1  -3  13   23.45   11.09  31 0.81559-0.73057-0.56673 0.16190 0.11901 0.65089
   1   0   8    5.09    9.97  32 0.81818-0.73690-0.56367 0.56310 0.11540 0.35831
   4   2   5   57.70   15.15  33 0.82474-0.52494-0.55568 0.82527 0.10608 0.19277
   5  -3 -13    2.90   13.86  32 0.81716-0.46235-0.56488 0.16319 0.11682-0.87882
   6  -2 -13    6.19   12.56  31 0.81644-0.38770-0.56574 0.29890 0.11783-0.87813
   6  -1 -12   -4.27   10.75  31 0.81534-0.38634-0.56703 0.43369 0.11936-0.82017
   7   0 -11    2.02    9.12  31 0.81271-0.30844-0.57010 0.57190 0.12299-0.76515
   7   1  -9   27.87   10.23  31 0.81410-0.30689-0.56849 0.70514 0.12108-0.64413
   8   3   1   13.29    9.35  31 0.81460-0.22356-0.56790 0.97291 0.12038-0.05248
   8   3   3   34.53   11.41  31 0.81586-0.22385-0.56642 0.97130 0.11864 0.06756
   9   2  -7    8.44   10.88  30 0.81308-0.15703-0.56967 0.83885 0.12248-0.52420
   9   3  -1   15.70   10.63  31 0.81432-0.15142-0.56823 0.97400 0.12078-0.16991
   9   3   5    3.68   13.49  31 0.81585-0.14848-0.56643 0.97010 0.11865 0.18605
  10   3  -2   13.36   11.30  31 0.81677-0.08112-0.56535 0.97151 0.11738-0.22441
  11   3  -2   18.64   11.95  31 0.81415-0.00472-0.56842 0.97425 0.12100-0.22682
  -2  -6   1   11.37   11.01  32 0.81988-0.96879-0.56173-0.24721 0.11304-0.05498
  -2  -6   3    7.08   10.67  33 0.82061-0.96646-0.56084-0.24685 0.11200 0.06408
  -2  -5   6   12.83   10.09  32 0.81799-0.96153-0.56399-0.11004 0.11569 0.23754
  -1  -7  -2    9.19   13.91  32 0.82012-0.89907-0.56144-0.38253 0.11270-0.23094
   1  -2  12   24.59   10.15  32 0.82043-0.73586-0.56106 0.29096 0.11226 0.59820
   2   0  10   -0.09    9.75  32 0.81933-0.66315-0.56239 0.56250 0.11381 0.48025
   2   1   6    3.14   13.44  34 0.82834-0.67501-0.55127 0.68578 0.10088 0.25574
   4   1  10   30.57   13.96  35 0.82923-0.52504-0.55013 0.68446 0.09957 0.49442
   4   2  -1   74.03    7.56  31 0.81687-0.52268-0.56533 0.83561 0.11726-0.17161
   6   1  12    5.59   17.28  36 0.83504-0.38205-0.54260 0.67599 0.09095 0.62183
   6   2  -5   77.28    8.76  32 0.81805-0.38080-0.56392 0.83383 0.11561-0.40483
   7   2  -6   64.46    9.72  32 0.81827-0.30866-0.56366 0.83366 0.11530-0.46262
   8  -1 -13   10.64   13.63  32 0.81843-0.24200-0.56347 0.43136 0.11508-0.87321
   8   3   0    0.40    9.23  32 0.81993-0.22955-0.56166 0.96763 0.11296-0.10421
   8   3   4   12.58   12.54  33 0.82246-0.22865-0.55859 0.96269 0.10937 0.13549
   9   0 -12    7.72   12.37  32 0.81907-0.16845-0.56270 0.56493 0.11418-0.81089
   9   1 -10    2.18   11.24  33 0.82114-0.16470-0.56021 0.70062 0.11126-0.69743
  10   3   6    1.91   15.14  33 0.82294-0.08069-0.55801 0.96225 0.10869 0.25635
  -2  -6   2   14.01   11.41  33 0.82235-0.96908-0.55868-0.24835 0.10956 0.00733
  -2  -4   6   46.03    9.33  33 0.82234-0.96563-0.55869 0.02016 0.10957 0.24341
  -2  -3   5  174.61    9.79  33 0.82337-0.96707-0.55743 0.15339 0.10811 0.18535
  -1  -6   8   -7.80   12.68  33 0.82330-0.89105-0.55751-0.25232 0.10820 0.36504
  -1  -5   9    0.18   11.02  33 0.82351-0.89091-0.55726-0.11857 0.10791 0.42496
  -1  -3   9   18.36    8.06  32 0.82084-0.88699-0.56052 0.15564 0.11170 0.41939
  -1  -1   4  809.44   14.07  33 0.82423-0.89432-0.55636 0.42158 0.10687 0.12785
   1  -4  13    1.55   14.24  34 0.82456-0.73879-0.55595 0.01706 0.10639 0.66173
   2  -3  14    1.04   12.17  34 0.82467-0.66474-0.55582 0.15221 0.10624 0.72005
   2  -1  12    3.00   10.01  34 0.82501-0.66602-0.55539 0.41960 0.10574 0.60406
   4   0  -9   86.10    8.42  32 0.82074-0.53613-0.56064 0.56164 0.11184-0.63831
   5   0 -10    7.55    9.69  33 0.82383-0.46515-0.55686 0.55923 0.10744-0.69347
   9   3  -2    9.48   10.46  33 0.82244-0.16079-0.55857 0.96325 0.10943-0.21733
  11   3  -3    8.89   12.20  33 0.82317-0.01601-0.55767 0.96241 0.10839-0.27278
  -2  -5   5    8.90   10.19  35 0.82840-0.97115-0.55113-0.12041 0.10081 0.19218
  -2  -4  -2    2.29    9.69  34 0.82816-0.97856-0.55145 0.01296 0.10117-0.22080
  -2  -3  -1  233.43   11.88  35 0.82921-0.97824-0.55011 0.14667 0.09963-0.15974
   0  -5  11    3.27   12.70  33 0.82562-0.81839-0.55463-0.12181 0.10485 0.54927
   0  -3  11   -2.67    8.84  34 0.82501-0.81584-0.55539 0.14973 0.10574 0.54480
   0  -2  10   29.85    9.27  34 0.82590-0.81737-0.55429 0.28460 0.10445 0.48626
   3   0  -8   75.71    9.22  34 0.82740-0.61446-0.55240 0.55395 0.10227-0.57061
   3   1  -5   57.22    7.18  33 0.82495-0.60885-0.55547 0.69121 0.10582-0.39700
   5   2  -4  128.37    8.95  34 0.82621-0.46163-0.55390 0.82386 0.10400-0.33427
   6   0  14   -5.79   16.89  36 0.83317-0.37968-0.54500 0.54421 0.09377 0.74045
   8   1 -10    1.26   10.91  34 0.82716-0.24720-0.55271 0.68954 0.10263-0.68496
   8   2  -7    2.12    7.96  34 0.82491-0.24227-0.55552 0.82725 0.10588-0.51089
   8   3  -1   39.85    9.44  34 0.82594-0.23716-0.55424 0.95909 0.10440-0.15578
  10   2  -8   -2.85   11.51  34 0.82763-0.09969-0.55212 0.82268 0.10195-0.56207
  10   3  -3   25.57   10.88  34 0.82666-0.09196-0.55334 0.95915 0.10335-0.26954
  -2  -5  -1    5.27    9.60  35 0.83260-0.98234-0.54570-0.12733 0.09459-0.15488
  -1  -7  -1  -15.75   13.44  35 0.83131-0.90829-0.54737-0.39601 0.09650-0.15567
  -1  -6  -4   10.13   12.88  35 0.83258-0.91232-0.54573-0.26174 0.09462-0.33092
  -1  -4   9   35.11    8.42  34 0.82888-0.89523-0.55048 0.01119 0.10008 0.43119
   0  -4  11   11.92   11.25  35 0.83057-0.82271-0.54832 0.00776 0.09760 0.55529
   0  -1   8   72.28    8.10  35 0.82925-0.82236-0.55001 0.41575 0.09954 0.37229
   2  -2  13   14.25   11.84  35 0.83195-0.67283-0.54654 0.27652 0.09555 0.67427
   3  -2 -11    5.99   11.21  35 0.83228-0.62218-0.54611 0.27831 0.09506-0.74127
   3  -1  13   25.64   10.55  35 0.83194-0.59879-0.54656 0.41204 0.09557 0.67558
   4  -1  14   11.49   12.14  36 0.83247-0.52490-0.54587 0.41046 0.09478 0.73581
   4   2  -2  190.44    9.58  35 0.83164-0.53869-0.54694 0.81699 0.09601-0.20959
   5   1  -8    2.88    8.86  35 0.82995-0.46890-0.54912 0.68479 0.09851-0.56471
   5   1  11   25.90   15.82  38 0.84124-0.46295-0.53415 0.66768 0.08147 0.57307
   6   0 -11   -2.05   10.84  35 0.83118-0.39965-0.54754 0.54980 0.09670-0.73977
   7  -1 -13   12.52   12.28  35 0.83259-0.32978-0.54571 0.41373 0.09460-0.85390
   8   0 -12   11.54   11.50  35 0.82949-0.25162-0.54971 0.55242 0.09919-0.79897
   9   3   6   12.22   15.27  36 0.83445-0.16608-0.54327 0.94632 0.09182 0.27154
  -2  -5   4   45.26   10.41  36 0.83355-0.97952-0.54427-0.12817 0.09300 0.14232
  -2  -4   5   -6.64    7.58  36 0.83284-0.97648-0.54519 0.00550 0.09405 0.19989
  -2  -3   4  275.64    8.68  35 0.83282-0.97710-0.54523 0.14134 0.09409 0.14060
  -1  -7   0   -0.51   13.43  37 0.83779-0.91384-0.53864-0.40233 0.08659-0.08613
  -1  -7   3   15.15   13.90  36 0.83543-0.91062-0.54179-0.40327 0.09017 0.08793
  -1  -6   7    8.46   12.47  36 0.83442-0.90450-0.54312-0.26526 0.09168 0.32216
  -1  -5  -5    0.30   13.19  39 0.84591-0.92484-0.52742-0.14288 0.07397-0.36800
  -1  -3  -5   98.34   17.26  41 0.85207-0.93135-0.51850 0.11517 0.06406-0.35941
  -1  -2   7  165.08    8.10  36 0.83287-0.90075-0.54515 0.27611 0.09401 0.31821
  -1  -1   0 3100.57   33.88  36 0.83387-0.90791-0.54385 0.40895 0.09252-0.09381
  -1  -1   3 1734.11   18.84  36 0.83560-0.90676-0.54157 0.40660 0.08992 0.08603
   0   0   3  617.54   16.62  36 0.83616-0.83354-0.54082 0.54027 0.08907 0.08880
   1  -1  -7  331.14   11.71  36 0.83423-0.76772-0.54337 0.40998 0.09197-0.50333
   1  -1  10   46.46    9.44  36 0.83629-0.75350-0.54065 0.40635 0.08887 0.50232
   3  -2  14    6.82   12.20  36 0.83523-0.60185-0.54206 0.27220 0.09048 0.74002
   3  -1 -10   26.91    9.92  37 0.83731-0.62662-0.53929 0.40639 0.08732-0.67437
   4  -2 -12    3.86   10.46  36 0.83468-0.55227-0.54278 0.27570 0.09130-0.79530
   4  -1 -11    1.07    9.48  36 0.83518-0.55133-0.54213 0.40945 0.09055-0.73531
   4   1  -7   23.07    8.72  36 0.83562-0.54803-0.54154 0.67710 0.08988-0.49860
   6   1  -9   31.03    8.53  35 0.83287-0.39982-0.54516 0.68171 0.09401-0.61879
   7   3   1   47.09    9.19  36 0.83556-0.31925-0.54163 0.94655 0.08998-0.02390
   7   3   2   38.26   11.08  36 0.83586-0.31826-0.54122 0.94609 0.08952 0.03572
   8   3  -2    9.63   10.51  36 0.83391-0.24577-0.54380 0.94851 0.09246-0.20174
   8   3   5   36.26   12.92  37 0.83769-0.24327-0.53878 0.94336 0.08675 0.21697
   9   2  -8    3.95   10.83  36 0.83469-0.17841-0.54277 0.81519 0.09128-0.55437
   9   3  -3    7.50   10.49  36 0.83354-0.17239-0.54429 0.95060 0.09302-0.26052
  11   3  -4    6.07   12.13  36 0.83562-0.02689-0.54153 0.94941 0.08988-0.31463
  -2  -5   0   26.10    9.22  37 0.83966-0.98859-0.53601-0.13681 0.08369-0.08484
  -2  -5   3    6.60   10.51  37 0.83885-0.98534-0.53712-0.13642 0.08494 0.09097
  -2  -3   0  174.43    9.67  37 0.84032-0.98866-0.53511 0.13032 0.08267-0.08490
  -2  -3   3  105.93    9.31  37 0.83948-0.98515-0.53625 0.13120 0.08396 0.09109
  -1  -7   1    2.44   12.96  38 0.84015-0.91501-0.53534-0.40619 0.08294-0.02352
  -1  -7   2   15.93   14.06  38 0.84022-0.91378-0.53524-0.40605 0.08282 0.03556
  -1  -5   8    1.62   10.12  37 0.83808-0.90649-0.53815-0.13576 0.08611 0.38648
  -1  -3   8   35.56    8.46  37 0.83848-0.90607-0.53761 0.13319 0.08550 0.38595
   1  -3  12   15.79   10.61  37 0.83998-0.75648-0.53557 0.13080 0.08320 0.62797
   2  -2 -10   -4.88   10.90  38 0.84099-0.70449-0.53420 0.26553 0.08164-0.66884
   2   1  -3  659.08   12.15  37 0.83724-0.69184-0.53928 0.67533 0.08739-0.26177
   3  -4 -12   -5.17   15.51  39 0.84447-0.63675-0.52935-0.00893 0.07620-0.78107
   3   0  11    3.80   11.16  37 0.84030-0.60919-0.53514 0.53525 0.08271 0.57274
   5  -1 -12    4.26   11.73  36 0.83719-0.48110-0.53935 0.40653 0.08747-0.78413
   6   2  -6   28.41    8.71  37 0.83763-0.40064-0.53875 0.80943 0.08679-0.43455
   7   1 -10    7.77   10.92  37 0.83960-0.33359-0.53609 0.67273 0.08378-0.66566
   7   2  -7   19.13    9.40  37 0.83778-0.32837-0.53855 0.80932 0.08656-0.49175
   7   3   0   -4.78    9.52  37 0.83846-0.32197-0.53763 0.94304 0.08552-0.07795
   7   3   3    9.76   11.16  37 0.83970-0.32053-0.53596 0.94009 0.08363 0.10097
  10   3  -4    5.41   11.49  37 0.83744-0.10397-0.53901 0.94503 0.08709-0.31214
  -2  -5   1   74.98    9.98  38 0.84202-0.99040-0.53273-0.14115 0.08003-0.02309
  -2  -5   2   52.63    9.81  38 0.84184-0.98926-0.53299-0.14011 0.08031 0.03568
  -2  -4  -1    5.59    8.47  38 0.84314-0.99240-0.53118-0.00714 0.07829-0.13871
  -2  -4   4   10.13    7.51  38 0.84065-0.98573-0.53463-0.00449 0.08216 0.15268
  -2  -3   1  184.99    9.37  39 0.84432-0.99169-0.52953 0.12546 0.07644-0.01911
  -2  -3   2  372.70   10.57  38 0.84376-0.99016-0.53031 0.12576 0.07731 0.03848
  -1  -1   2 1562.73   19.47  38 0.84331-0.91578-0.53094 0.39510 0.07802 0.03897
   5  -2 -13    5.98   13.63  38 0.84296-0.48783-0.53143 0.26469 0.07857-0.83944
   5   0  13   -4.54   13.54  38 0.84351-0.46313-0.53067 0.53166 0.07771 0.69964
   7   0 -12   18.14   11.33  38 0.84305-0.33907-0.53131 0.53436 0.07843-0.77974
   7   3  -1   78.35    9.43  38 0.84395-0.32950-0.53005 0.93537 0.07702-0.12745
   8   2  -8   -5.30   10.14  38 0.84303-0.26230-0.53134 0.80196 0.07846-0.54096
   9   1 -11   -8.01   12.89  39 0.84452-0.18934-0.52925 0.66995 0.07612-0.72138
  -2  -4   3   22.87    9.75  39 0.84705-0.99284-0.52585-0.01298 0.07238 0.10358
  -1  -6   6    7.90   10.81  39 0.84495-0.91524-0.52883-0.27957 0.07570 0.27881
  -1  -4   8   32.92    8.10  38 0.84449-0.91205-0.52947-0.01000 0.07642 0.39578
  -1  -1   1 1680.49   21.69  39 0.84470-0.91807-0.52918 0.39374 0.07610-0.01828
   0  -6   9   -4.40   11.49  39 0.84470-0.83820-0.52918-0.27970 0.07610 0.45695
   0  -5  10   -3.65    9.96  39 0.84460-0.83689-0.52931-0.14517 0.07624 0.51557
   0  -3  10    5.39   10.13  39 0.84618-0.83819-0.52708 0.12228 0.07375 0.51764
   1  -4  12   15.59   11.77  39 0.84609-0.76232-0.52721-0.01136 0.07389 0.63521
   1  -2  11    1.45   10.26  39 0.84692-0.76405-0.52603 0.25599 0.07258 0.57888
   2  -4 -11    9.44   18.29  42 0.85784-0.72256-0.50983-0.02764 0.05468-0.70196
   2   0  -7  540.78   11.57  39 0.84783-0.70726-0.52473 0.52631 0.07113-0.48146
   4   0  12    1.57   12.85  39 0.84844-0.54341-0.52384 0.52432 0.07014 0.64497
   4   2  -3   21.53    8.63  39 0.84718-0.55559-0.52565 0.79603 0.07216-0.24457
   5   2  -5  194.91    8.38  38 0.84487-0.48124-0.52894 0.79939 0.07582-0.36528
   8   3  -3    4.51    8.49  38 0.84436-0.25723-0.52965 0.93536 0.07662-0.24528
   9   3  -4   13.72    9.16  38 0.84445-0.18460-0.52952 0.93575 0.07648-0.30312
  10   2  -9    6.49   11.70  38 0.84473-0.11918-0.52913 0.79828 0.07604-0.59294
  10   3   7    1.11   16.56  40 0.85159-0.10806-0.51926 0.92524 0.06505 0.35969
  11   3  -5    4.69   12.28  39 0.84691-0.03968-0.52604 0.93406 0.07259-0.35662
  -2  -4   0   40.22    9.50  40 0.84962-0.99843-0.52207-0.01610 0.06815-0.07019
  -2  -4   1   31.45    8.64  41 0.85196-0.99982-0.51864-0.01981 0.06436-0.00686
  -2  -4   2   26.98    9.09  40 0.85079-0.99773-0.52036-0.01825 0.06626 0.04993
  -1  -6  -3    2.99   13.84  40 0.85178-0.93073-0.51891-0.28891 0.06465-0.24192
  -1  -5   7    7.81   10.56  40 0.85139-0.91988-0.51948-0.15394 0.06528 0.34762
  -1  -2   6   14.45    8.90  40 0.85002-0.91912-0.52149 0.25090 0.06751 0.28659
   0  -7  -4    7.45   16.11  40 0.85228-0.85993-0.51817-0.42502 0.06383-0.29931
   0  -4  10    6.25   10.52  40 0.84956-0.84264-0.52216-0.01835 0.06825 0.52496
   0  -2   9    8.27    8.20  40 0.84857-0.84125-0.52359 0.25353 0.06984 0.46252
   1   0   7  123.54   10.97  41 0.85292-0.77281-0.51721 0.51697 0.06278 0.35188
   2  -3  13    8.05   10.86  39 0.84869-0.69101-0.52342 0.11892 0.06965 0.70152
   2  -1  -9  282.06   10.63  40 0.85008-0.71191-0.52139 0.38830 0.06740-0.59543
   3  -3 -12    6.78   13.47  41 0.85402-0.64546-0.51556 0.11361 0.06096-0.76522
   3  -3  14   -4.01   12.02  41 0.85216-0.61940-0.51834 0.11422 0.06402 0.76644
   3   1   8  321.97   16.37  42 0.85771-0.62930-0.50995 0.64481 0.05480 0.42009
   6  -1 -13   -0.23   11.42  41 0.85198-0.42297-0.51861 0.38676 0.06432-0.82598
   7   3  -2   26.30    9.20  40 0.85109-0.33734-0.51992 0.92511 0.06577-0.17548
   7   3   4    2.99   11.10  40 0.85145-0.33154-0.51939 0.92410 0.06518 0.17853
   8   1 -11    6.96   12.02  40 0.85004-0.27175-0.52145 0.65799 0.06747-0.70668
  10   3  -5   13.39   11.60  40 0.84915-0.11650-0.52275 0.92908 0.06891-0.35329
  -1  -6   5   23.40   11.60  41 0.85318-0.92482-0.51679-0.29160 0.06203 0.23342
  -1  -3   7   20.14    8.55  42 0.85489-0.92286-0.51421 0.10979 0.05920 0.35346
   0  -1  -5   89.90   12.45  42 0.85718-0.86197-0.51072 0.37714 0.05537-0.34998
   0  -1   7  165.08    9.53  41 0.85416-0.84765-0.51531 0.38030 0.06040 0.35318
   0   0   2 1614.29   29.06  41 0.85460-0.85302-0.51465 0.51395 0.05968 0.05977
   2  -4  13    1.26   12.20  41 0.85329-0.69529-0.51661-0.02259 0.06184 0.70736
   2  -1  11   27.64   10.05  42 0.85597-0.69927-0.51258 0.37820 0.05740 0.59353
   3   1  -6   38.17    7.25  40 0.85163-0.63591-0.51908 0.65534 0.06457-0.41543
   4  -3 -13   -4.02   14.65  41 0.85594-0.57487-0.51262 0.11089 0.05745-0.81963
   4   0 -10  167.90   10.59  41 0.85320-0.56824-0.51676 0.51821 0.06200-0.64747
   5   0 -11    7.04    9.76  41 0.85462-0.49710-0.51462 0.51697 0.05964-0.70429
   8   3  -4   11.74    9.68  41 0.85508-0.26880-0.51393 0.92044 0.05889-0.28665
   9   2  -9   34.19   11.03  41 0.85300-0.19783-0.51706 0.78944 0.06233-0.58448
  -1  -4   7   37.92    9.51  42 0.85846-0.92693-0.50870-0.03007 0.05302 0.35952
   0  -6  -6   15.49   15.87  44 0.86393-0.87208-0.50003-0.30684 0.04361-0.39677
   0  -6   8   -3.04   12.29  42 0.85724-0.85175-0.51059-0.29891 0.05509 0.41903
   1  -5  11    6.67   12.15  43 0.85815-0.77575-0.50919-0.16434 0.05356 0.59777
   1   0  -5  310.17   11.26  41 0.85558-0.78612-0.51312 0.51452 0.05787-0.35191
   2   0   9    0.02    9.49  44 0.86123-0.70518-0.50436 0.50373 0.04830 0.48470
   5   1  -9   20.97    7.93  42 0.85556-0.49565-0.51316 0.64950 0.05790-0.58360
   6  -2 -14    5.35   13.36  42 0.85691-0.42950-0.51110 0.24455 0.05565-0.87601
   6   1 -10   11.57   10.72  42 0.85670-0.42413-0.51142 0.64775 0.05600-0.63911
   6   2  -7   26.32    9.09  42 0.85609-0.41965-0.51235 0.78336 0.05702-0.46399
   7   2  -8   39.80    9.62  42 0.85672-0.34863-0.51140 0.78257 0.05597-0.52074
   8   0 -13  -13.32   12.32  42 0.85689-0.28052-0.51112 0.51340 0.05568-0.81555
   8   3   6   11.12   13.97  43 0.86062-0.26540-0.50533 0.90912 0.04935 0.31302
   9   3  -5   12.93    9.60  41 0.85519-0.19650-0.51371 0.91934 0.05851-0.34362
  11   3  -6   11.40   13.40  43 0.85810-0.05306-0.50926 0.91728 0.05364-0.39643
  -1  -6  -2    4.38   12.07  43 0.86180-0.94090-0.50342-0.30584 0.04724-0.16584
  -1  -6   4   -3.35   11.22  43 0.86037-0.93282-0.50567-0.30235 0.04969 0.18643
  -1  -4  -5  118.30   14.92  45 0.86729-0.94734-0.49448-0.04401 0.03760-0.33225
   0  -5   9    1.25   10.20  44 0.86225-0.85343-0.50269-0.16687 0.04645 0.48157
   2  -3 -11    5.28   13.51  45 0.86640-0.73115-0.49595 0.09313 0.03918-0.68692
   2  -2  12   42.66   10.29  43 0.85905-0.70192-0.50775 0.23974 0.05195 0.65857
   2   1  -4  158.38    9.57  43 0.86118-0.71746-0.50440 0.64001 0.04831-0.28160
   3   0  -9    7.62    8.74  43 0.86063-0.64814-0.50526 0.50664 0.04925-0.57737
   4   1  -8   49.39    9.39  43 0.86035-0.57356-0.50571 0.64147 0.04973-0.51685
   5  -1  14    3.01   13.36  43 0.86195-0.48166-0.50317 0.36881 0.04698 0.78617
   6   0 -12    3.28   10.04  43 0.86047-0.42942-0.50551 0.50804 0.04952-0.75299
   7   3  -3   28.17    9.56  43 0.85942-0.34590-0.50717 0.91232 0.05132-0.22104
  10   3  -6    2.11   12.63  43 0.86066-0.13028-0.50522 0.91153 0.04920-0.39227
  -1  -5   6    2.01    8.65  44 0.86207-0.93182-0.50297-0.17113 0.04669 0.30732
   0  -7  -3   -2.93   16.58  46 0.87099-0.87414-0.48822-0.44879 0.03084-0.20527
   1  -4  11    3.47   10.91  43 0.86329-0.78233-0.50102-0.03944 0.04458 0.60960
   1  -3  11   13.16    8.61  44 0.86246-0.78009-0.50235 0.09805 0.04602 0.60524
   1  -1   9   13.41    8.85  44 0.86414-0.78278-0.49964 0.36465 0.04309 0.48981
   3  -2  13    3.28   11.76  45 0.86507-0.63286-0.49812 0.22863 0.04145 0.72893
   3  -1  12   45.76   11.47  45 0.86572-0.63441-0.49706 0.36324 0.04031 0.67089
   4  -2  14    4.41   12.89  43 0.86263-0.55683-0.50208 0.23294 0.04573 0.78776
   4   2  -4   62.18    7.72  43 0.86172-0.57094-0.50354 0.77379 0.04730-0.27889
   5   2  -6   42.96    7.31  43 0.86197-0.50005-0.50312 0.77331 0.04686-0.39523
   6   3   0  113.91   10.14  44 0.86375-0.42162-0.50028 0.90494 0.04378-0.03708
   6   3   1   15.29    8.74  44 0.86389-0.42024-0.50005 0.90559 0.04353 0.02186
   7   1 -11   20.15   11.01  44 0.86331-0.35760-0.50098 0.63821 0.04454-0.68693
   8   2  -9   -1.63    9.17  44 0.86199-0.28132-0.50310 0.77500 0.04683-0.56988
   9   3   7    4.46   16.01  45 0.86797-0.19827-0.49333 0.89825 0.03630 0.38656
  -1  -6  -1   10.90   11.12  45 0.86833-0.94618-0.49290-0.31625 0.03585-0.09512
  -1  -6   3    0.84    9.98  45 0.86692-0.93873-0.49525-0.31184 0.03837 0.13833
  -1  -5  -4   10.27   11.79  46 0.87158-0.95056-0.48737-0.18516 0.02995-0.26599
  -1  -2   5  111.45    7.55  45 0.86554-0.93533-0.49752 0.22756 0.04081 0.25349
   0  -4   9   -4.59    9.61  45 0.86726-0.86055-0.49470-0.04475 0.03778 0.49416
   0  -3   9   70.70    8.43  44 0.86552-0.85812-0.49755 0.09376 0.04085 0.49071
   1  -2  -9  111.80   13.02  46 0.87093-0.80680-0.48850 0.21973 0.03115-0.56033
   4  -1  13    2.68   11.30  45 0.86760-0.56158-0.49412 0.35933 0.03716 0.73513
   6   3  -1  259.63   10.85  45 0.86719-0.42567-0.49481 0.89975 0.03789-0.09126
   6   3   2   41.58    8.83  45 0.86666-0.42205-0.49569 0.90051 0.03884 0.08520
   7   3   5   11.40   12.05  46 0.87077-0.34983-0.48876 0.89358 0.03143 0.27118
   8   3  -5   -0.19    9.06  45 0.86562-0.28107-0.49739 0.90334 0.04067-0.32723
   9   3  -6   -1.55   11.66  45 0.86726-0.20931-0.49470 0.90119 0.03778-0.38250
  -1  -6   0    1.49   11.76  45 0.87010-0.94788-0.48986-0.32101 0.03265-0.03289
  -1  -6   1   28.05   10.98  47 0.87195-0.94694-0.48669-0.32127 0.02927 0.02974
  -1  -6   2   23.42   10.77  46 0.87033-0.94394-0.48947-0.31752 0.03223 0.08558
  -1  -5   5   17.42   10.22  46 0.87142-0.94247-0.48760-0.18639 0.03023 0.26484
  -1  -4   6   11.55    9.29  46 0.87062-0.94051-0.48897-0.04972 0.03170 0.32176
  -1  -3   6    8.22    6.92  46 0.86891-0.93831-0.49187 0.08720 0.03479 0.31896
   0  -6   7   -7.00   10.74  46 0.86883-0.86435-0.49200-0.31684 0.03494 0.37946
   0  -5  -7   18.29   17.10  49 0.88069-0.88960-0.47097-0.20157 0.01271-0.42486
   0  -2   8   42.66    9.10  46 0.86954-0.86295-0.49081 0.22140 0.03366 0.43897
   0   0   1 3010.23   53.73  46 0.87134-0.87074-0.48773 0.48698 0.03038 0.03078
   1  -6  -8   -0.90   19.97  47 0.87510-0.81265-0.48116-0.32817 0.02341-0.49553
   1  -2  10   60.42    9.79  46 0.87136-0.78862-0.48770 0.21874 0.03034 0.56096
   3   2   0   43.74    8.52  46 0.87122-0.64894-0.48794 0.75866 0.03060-0.02742
   3   2   1  120.75    9.63  46 0.87138-0.64843-0.48767 0.75803 0.03031 0.03231
   4  -1 -12    4.98   10.47  46 0.86996-0.58676-0.49010 0.35715 0.03290-0.73547
   7   0 -13   19.52   10.75  45 0.86911-0.36601-0.49154 0.49425 0.03444-0.79413
   7   3  -4    6.46    8.43  45 0.86883-0.35626-0.49200 0.89737 0.03494-0.26335
   9   2 -10   -0.59   11.88  47 0.87223-0.21582-0.48620 0.76212 0.02875-0.61392
   0  -7  -2    4.01   13.50  48 0.87657-0.88006-0.47854-0.46123 0.02053-0.13678
   0  -7   3   -5.43   13.49  47 0.87379-0.87368-0.48348-0.46004 0.02574 0.15268
   0  -5   8    5.12   10.38  48 0.87451-0.86780-0.48221-0.18938 0.02440 0.44696
   0  -2  -7   80.89   14.72  49 0.87932-0.88640-0.47352 0.20533 0.01526-0.42784
   1  -6   9   11.56   12.74  46 0.87245-0.79321-0.48581-0.32280 0.02822 0.50571
   1  -5  10   -1.29   11.40  47 0.87370-0.79258-0.48363-0.19113 0.02591 0.56748
   2  -4  12   -6.91   12.54  48 0.87537-0.71721-0.48069-0.05554 0.02280 0.68344
   2  -3  12   10.67    9.29  47 0.87228-0.71495-0.48612 0.08172 0.02855 0.68258
   3  -1 -11   42.01   10.00  47 0.87433-0.66499-0.48254 0.35011 0.02475-0.66960
   3   1  -7  202.24   10.04  47 0.87398-0.65968-0.48315 0.61889 0.02540-0.43473
   4  -3  14   11.45   14.29  47 0.87538-0.56916-0.48067 0.07653 0.02277 0.80924
   4  -2 -13   -0.45   12.19  47 0.87378-0.59240-0.48350 0.21665 0.02576-0.78508
   5  -1 -13   10.77   10.95  47 0.87335-0.51789-0.48425 0.35176 0.02656-0.78769
   6   2  -8   23.94    9.44  47 0.87325-0.43818-0.48443 0.75573 0.02675-0.49260
   6   3  -2  225.63   10.65  46 0.87233-0.43210-0.48604 0.89072 0.02846-0.14056
   6   3   3  100.45   11.22  47 0.87530-0.43037-0.48081 0.88539 0.02293 0.16070
   7   1  12    8.87   17.39  51 0.88503-0.35905-0.46268 0.59675 0.00397 0.71002
   7   2  -9   24.00   10.18  47 0.87369-0.36616-0.48366 0.75498 0.02594-0.54928
   8   1 -12    9.09   11.44  46 0.87188-0.29399-0.48681 0.62415 0.02928-0.72860
  10   3  -7   10.28   11.15  46 0.87212-0.14164-0.48640 0.89253 0.02884-0.43076
   0  -7  -1    6.84   13.13  48 0.87872-0.88299-0.47464-0.46815 0.01644-0.07405
   0  -7   2    2.88   12.66  48 0.87768-0.87876-0.47653-0.46604 0.01842 0.10112
   0  -1   6  133.91    9.53  48 0.87626-0.87138-0.47912 0.34343 0.02114 0.33322
   3  -4  13   -2.96   12.38  48 0.87660-0.64526-0.47850-0.06049 0.02049 0.75142
   3  -3  13   12.40   11.68  48 0.87651-0.64458-0.47866 0.07450 0.02066 0.75020
   3  -2 -12    1.15   11.92  48 0.87619-0.66702-0.47923 0.21178 0.02126-0.72459
   3   2  -1  175.10    8.87  47 0.87533-0.65462-0.48076 0.75104 0.02288-0.07789
   3   2   2  334.16   13.77  49 0.87886-0.65522-0.47439 0.74420 0.01618 0.10606
   4   2  -5   78.69    7.38  48 0.87553-0.58447-0.48041 0.75110 0.02251-0.31306
   5   1 -10   40.50   10.20  48 0.87771-0.51912-0.47649 0.61345 0.01838-0.60268
   8   3  -6   11.87   10.98  48 0.87628-0.29201-0.47908 0.88502 0.02110-0.36641
  -1  -5   4   39.44   10.02  49 0.87950-0.95145-0.47325-0.19990 0.01490 0.22153
  -1  -2   4  665.73   11.22  49 0.87871-0.94975-0.47472 0.20481 0.01645 0.21860
   0  -7   0    5.35   11.97  50 0.88151-0.88319-0.46949-0.47165 0.01098-0.00922
   0  -7   1   11.09   13.03  49 0.88003-0.88191-0.47228-0.47022 0.01389 0.04678
   0  -6   6   17.65   10.66  49 0.87862-0.87537-0.47488-0.33352 0.01661 0.33897
   1  -1  -8   99.87   11.16  49 0.88098-0.81507-0.47049 0.33779 0.01202-0.48254
   2   0  -8  105.19    7.81  48 0.87843-0.73873-0.47522 0.47722 0.01697-0.48634
   3   0  10    3.10   10.10  50 0.88309-0.65232-0.46649 0.46566 0.00785 0.58515
   4   0 -11   60.91    9.50  49 0.88083-0.59745-0.47078 0.47319 0.01233-0.65643
   5  -2 -14   11.33   14.58  50 0.88150-0.52757-0.46951 0.20251 0.01100-0.83334
   5   0 -12   -0.98   10.37  49 0.88011-0.52419-0.47213 0.47341 0.01373-0.71598
   5   2  -7   14.62    7.04  48 0.87818-0.51707-0.47568 0.74683 0.01745-0.42495
   6  -1 -14    3.29   12.66  48 0.87894-0.45183-0.47428 0.34219 0.01599-0.83104
   6   0  13   20.24   14.71  50 0.88238-0.42844-0.46786 0.46760 0.00927 0.76460
   6   1 -11    2.33    8.88  49 0.87856-0.44780-0.47499 0.61144 0.01673-0.65929
   6   3  -3   23.04    9.18  49 0.87900-0.43930-0.47417 0.87922 0.01587-0.18649
   7   3  -5   50.48    8.72  48 0.87861-0.36759-0.47489 0.88038 0.01663-0.30382
   8   2 -10    3.58    9.88  49 0.87848-0.29910-0.47513 0.74710 0.01688-0.59850
   9   3  -7    1.64   10.17  48 0.87817-0.22147-0.47570 0.88156 0.01747-0.42052
  -1  -5  -3   25.47   12.08  51 0.88558-0.96413-0.46167-0.21107 0.00298-0.17997
  -1  -4   5   88.18    7.75  50 0.88142-0.95216-0.46968-0.07017 0.01130 0.28268
  -1  -3   5    1.14    7.02  50 0.88170-0.95167-0.46915 0.06373 0.01074 0.28413
   0  -4   8   20.39    7.90  50 0.88189-0.87605-0.46879-0.07085 0.01037 0.46317
   0  -3   8   55.24    8.73  50 0.88249-0.87640-0.46764 0.06249 0.00917 0.46269
   1  -4  10   18.86   10.59  50 0.88206-0.80044-0.46847-0.07099 0.01004 0.58248
   1  -3  10   24.41   10.22  50 0.88217-0.80074-0.46825 0.06386 0.00981 0.58208
   2  -5  11  -10.57   12.21  50 0.88294-0.72696-0.46679-0.20719 0.00829 0.64382
   2  -2  11   -0.01    9.47  50 0.88324-0.72672-0.46622 0.19482 0.00770 0.64577
   2  -1  10   41.79    9.79  51 0.88452-0.72853-0.46374 0.32815 0.00512 0.58751
   2   1  -5  640.02   11.22  49 0.88135-0.73840-0.46981 0.60632 0.01144-0.30379
   3   2  -2   15.47    8.37  50 0.88202-0.66208-0.46854 0.73889 0.01011-0.12517
   4   1  -9   54.90    9.21  50 0.88193-0.59540-0.46871 0.60552 0.01029-0.53682
   6   0 -13   -0.41   13.40  51 0.88451-0.45607-0.46375 0.46569 0.00514-0.76578
   7   1 -12    9.79   11.75  50 0.88248-0.37922-0.46767 0.60420 0.00921-0.70709
  10   3  -8   -5.04   13.09  49 0.88155-0.15517-0.46943 0.87157 0.01104-0.46836
  10   3   8    3.43   21.51  52 0.88845-0.14438-0.45595 0.85964-0.00291 0.48521
  -1  -5   3    7.71   10.11  51 0.88611-0.95896-0.46051-0.21321 0.00173 0.17540
   0  -6  -5    2.73   13.96  53 0.89079-0.89642-0.45104-0.35352-0.00799-0.28454
   0  -6   5   -0.56   11.28  51 0.88634-0.88481-0.46006-0.35079 0.00127 0.29635
   0  -5   7   10.98    9.82  51 0.88532-0.88081-0.46206-0.21185 0.00334 0.41110
   1  -6   8   -1.73   10.70  51 0.88445-0.80581-0.46377-0.34566 0.00511 0.47036
   1  -5  -9    6.32   26.06  60 0.90904-0.84590-0.40867-0.26311-0.05040-0.47834
   1   0  -6   54.66    8.71  51 0.88665-0.81820-0.45944 0.46132 0.00063-0.35350
   1   0   6   37.18    8.61  51 0.88614-0.80669-0.46045 0.46006 0.00167 0.35405
   2  -2 -11   25.90   12.18  52 0.88913-0.75299-0.45445 0.18738-0.00450-0.64234
   2  -1 -10   72.48    9.80  51 0.88708-0.74931-0.45860 0.32623-0.00024-0.58741
   5  -2  14   -1.57   12.41  51 0.88663-0.50634-0.45949 0.18989 0.00068 0.83229
   6  -1  14    8.92   14.65  52 0.88729-0.43313-0.45817 0.32331-0.00068 0.83323
   6   3  -4   27.53    8.91  51 0.88697-0.44819-0.45882 0.86479-0.00001-0.22968
   9   2 -11    1.43   13.06  51 0.88581-0.23290-0.46111 0.73370 0.00235-0.64245
   0  -2   7  102.01    8.96  52 0.88827-0.88297-0.45618 0.18583-0.00272 0.41555
   1  -5   9    7.53   10.17  52 0.88841-0.80824-0.45588-0.21723-0.00302 0.53590
   1  -1   8   89.87    8.86  52 0.88965-0.80898-0.45336 0.31801-0.00561 0.47934
   3  -2  12   11.74   10.57  53 0.88997-0.65881-0.45271 0.18280-0.00628 0.71842
   3   0 -10   40.36    9.39  51 0.88745-0.67569-0.45783 0.46033-0.00102-0.58549
   4   0  11   69.73   11.88  53 0.89094-0.58609-0.45070 0.45116-0.00834 0.66162
   4   1   9   60.58   13.30  54 0.89356-0.59029-0.44519 0.57997-0.01395 0.54904
   4   2  -6   52.38    8.65  52 0.88934-0.59983-0.45399 0.72549-0.00496-0.34405
   5   0  12    1.53   12.45  51 0.88806-0.50930-0.45660 0.45741-0.00229 0.71899
   6   2  -9   48.93   10.27  52 0.88856-0.45478-0.45559 0.72690-0.00333-0.52097
   6   3   4   67.28   12.66  52 0.89014-0.44370-0.45237 0.85688-0.00663 0.24922
   7   2 -10    4.91   10.61  52 0.88960-0.38289-0.45347 0.72562-0.00551-0.57746
   7   3  -6   11.38   10.66  52 0.88925-0.37829-0.45418 0.86165-0.00477-0.34271
   8   3  -7    0.68    9.58  52 0.88733-0.30444-0.45806 0.86462-0.00079-0.40390
   9   3  -8   11.06   11.86  52 0.88960-0.23341-0.45347 0.86027-0.00551-0.45705
  -1  -5  -2   -3.62   10.66  54 0.89295-0.97027-0.44649-0.22755-0.01258-0.10535
  -1  -5   2   -2.68    9.45  53 0.89144-0.96486-0.44968-0.22389-0.00934 0.12756
  -1  -4  -4  106.16   12.96  55 0.89577-0.97476-0.44040-0.09796-0.01877-0.21729
  -1  -4   4   35.80    7.69  53 0.89043-0.96223-0.45177-0.08726-0.00719 0.24378
  -1  -2   3  151.70    8.19  53 0.89041-0.96225-0.45182 0.18174-0.00714 0.18422
   1  -2   9  145.92   10.26  53 0.89213-0.81046-0.44822 0.17899-0.01082 0.54370
   2  -4  11    5.44   11.18  52 0.89042-0.73515-0.45180-0.08785-0.00717 0.66094
   2  -3  11    2.05    9.98  54 0.89267-0.73599-0.44709 0.04270-0.01198 0.66368
   3   2  -3  259.92    8.53  52 0.89025-0.67106-0.45214 0.72291-0.00681-0.16699
   4  -2  13   -4.41   10.93  53 0.89130-0.58611-0.44997 0.17935-0.00904 0.77998
   7   0 -14   10.85   13.29  53 0.89136-0.38925-0.44983 0.45270-0.00918-0.80848
   8   1 -13   -9.94   12.57  53 0.89139-0.31447-0.44977 0.58754-0.00924-0.75086
  10   4   0   -0.28   12.86  53 0.89212-0.15544-0.44826 0.98702-0.01079 0.02131
  -1  -5  -1   12.51   10.18  55 0.89579-0.97282-0.44016-0.23345-0.01896-0.04015
  -1  -5   1   11.33    9.66  54 0.89481-0.96947-0.44231-0.23102-0.01678 0.07583
  -1  -3   4   25.26    7.13  53 0.89274-0.96363-0.44674 0.04262-0.01229 0.24780
  -1  -2  -3  155.84   16.22  57 0.90079-0.97791-0.42883 0.15948-0.03035-0.14701
   0  -6   4   -0.60   11.60  53 0.89288-0.89408-0.44644-0.36424-0.01258 0.25121
   0  -4   7   10.31    9.09  54 0.89513-0.89018-0.44160-0.09761-0.01750 0.43161
   1  -6   7    2.66   12.31  54 0.89451-0.81737-0.44296-0.36781-0.01612 0.43327
   1  -3 -10    3.27   14.87  56 0.90077-0.83788-0.42889 0.02619-0.03029-0.55843
   2   0   8    2.43    9.68  54 0.89520-0.74046-0.44144 0.44104-0.01766 0.49227
   3  -4  12   13.78   12.25  54 0.89504-0.66460-0.44179-0.09764-0.01730 0.73057
   3  -1  11   14.35    9.61  54 0.89438-0.66375-0.44324 0.30814-0.01584 0.66926
   3   1  -8  168.90    9.94  53 0.89308-0.67927-0.44603 0.58197-0.01301-0.45600
   3   2   3  207.40   14.62  56 0.89875-0.67401-0.43355 0.70349-0.02562 0.20610
   5  -1  13    7.43   13.24  55 0.89597-0.51605-0.43977 0.30476-0.01936 0.79093
   5   2  -8    6.65    7.71  53 0.89262-0.53130-0.44701 0.71880-0.01201-0.45529
   5   3  -1   39.69    9.18  54 0.89460-0.52680-0.44275 0.84779-0.01634-0.03675
   5   3   0  371.45   11.27  54 0.89396-0.52481-0.44413 0.84890-0.01493 0.02063
   6   1  11   16.10   13.77  57 0.90013-0.44769-0.43036 0.56501-0.02882 0.68353
   6   3  -5  201.33   10.43  54 0.89477-0.45696-0.44239 0.84836-0.01671-0.27127
   8   2 -11    3.16   11.85  53 0.89305-0.31376-0.44609 0.71774-0.01295-0.62667
   8   3   7    2.65   17.97  57 0.90183-0.30493-0.42639 0.83196-0.03279 0.45518
  10   4  -2   10.21   12.59  54 0.89433-0.15944-0.44334 0.98283-0.01574-0.09133
  10   4  -1    3.24   12.00  53 0.89312-0.15641-0.44594 0.98668-0.01310-0.03515
  10   4   1   12.84   13.58  55 0.89563-0.15606-0.44051 0.98283-0.01860 0.08863
  -1  -5   0    2.36    9.55  55 0.89602-0.97236-0.43972-0.23416-0.01956 0.01958
   0  -5   6   74.01    9.44  55 0.89566-0.89273-0.44051-0.23269-0.01876 0.37396
   0  -3   7   26.27    8.82  55 0.89750-0.89210-0.43644 0.03215-0.02287 0.43635
   0  -1   5   96.10    9.78  55 0.89679-0.89276-0.43803 0.30308-0.02127 0.31608
   1  -4   9   95.35   10.04  55 0.89745-0.81715-0.43655-0.10214-0.02276 0.55506
   2  -5  10    5.50   11.29  55 0.89739-0.74276-0.43669-0.23666-0.02262 0.61592
   3  -3  12   21.70   11.38  55 0.89730-0.66635-0.43687 0.03268-0.02243 0.73422
   4  -3 -14   -3.81   15.48  55 0.89706-0.61650-0.43741 0.03662-0.02189-0.79605
   4  -3  13    5.37   11.69  55 0.89719-0.59206-0.43714 0.03272-0.02216 0.79570
   4  -1  12   13.01   10.10  55 0.89742-0.59239-0.43661 0.30181-0.02270 0.73629
   5   1 -11    4.50    9.73  55 0.89641-0.53786-0.43885 0.57566-0.02043-0.62357
   5   1  10   48.49   14.58  58 0.90293-0.52499-0.42385 0.55970-0.03547 0.63040
   5   3  -2   64.30    9.32  55 0.89715-0.53053-0.43721 0.84209-0.02209-0.09006
   5   3   1    4.34    8.53  55 0.89745-0.52711-0.43654 0.84252-0.02277 0.08709
   6   1 -12   -3.89   10.67  55 0.89696-0.46711-0.43765 0.57406-0.02165-0.67940
   7   3   6    0.31   14.65  56 0.90029-0.37820-0.43007 0.83454-0.02927 0.39061
   8   3  -8    8.85   10.83  55 0.89712-0.31499-0.43729 0.84279-0.02201-0.44074
  10   4  -3   -1.59   13.81  56 0.89814-0.16365-0.43499 0.97629-0.02433-0.14209
  10   4   2    6.32   14.07  56 0.89872-0.15914-0.43368 0.97391-0.02564 0.15438
  -1  -4   3   64.12    8.53  56 0.89825-0.97099-0.43465-0.10374-0.02465 0.20166
  -1  -3  -4   25.66   13.04  58 0.90484-0.98351-0.41910 0.01605-0.04016-0.19550
   0  -6  -4   -1.25   13.07  58 0.90224-0.90749-0.42538-0.37963-0.03392-0.19995
   0  -6   3   11.57   10.34  56 0.89944-0.90032-0.43194-0.37845-0.02737 0.20649
   1  -3   9  126.09   10.88  56 0.89952-0.81851-0.43176 0.02802-0.02755 0.56051
   2   1  -6    5.71    6.59  56 0.89814-0.75621-0.43491 0.57090-0.02438-0.32810
   2   1   5  117.10   17.09  59 0.90772-0.75533-0.41183 0.54651-0.04733 0.34477
   3  -3 -13    1.13   14.11  56 0.90067-0.69315-0.42909 0.02772-0.03022-0.73117
   3   2  -4   65.64    8.60  56 0.89876-0.68026-0.43351 0.70417-0.02579-0.20733
   4  -1 -13    6.10   10.52  56 0.89905-0.61740-0.43283 0.30050-0.02647-0.73638
   4   1 -10  125.04    9.81  56 0.90023-0.61557-0.43011 0.56628-0.02920-0.55665
   5  -1 -14    9.31   12.93  56 0.89984-0.54553-0.43102 0.29899-0.02829-0.79134
   7   3  -7   65.19    8.85  55 0.89805-0.38930-0.43510 0.84063-0.02419-0.38118
   9   3  -9    4.60   12.37  57 0.90050-0.24505-0.42949 0.83748-0.02982-0.49230
   9   4  -1    4.48   11.90  56 0.89962-0.23709-0.43152 0.97055-0.02779-0.02154
   9   4   0   12.18   11.96  56 0.90063-0.23643-0.42919 0.96979-0.03012 0.03978
  -1  -3   3  170.33    9.71  57 0.90190-0.97377-0.42615 0.02174-0.03321 0.21042
  -1  -2   2  102.94    8.64  57 0.90048-0.97303-0.42949 0.15941-0.02987 0.14755
   0   0  -1 2846.28   52.25  56 0.90082-0.90107-0.42871 0.43036-0.03065-0.03034
   1  -7  -4    1.30   14.38  58 0.90421-0.83677-0.42058-0.51942-0.03875-0.19400
   1  -7   3    6.94   12.68  57 0.90227-0.82857-0.42528-0.51509-0.03407 0.21350
   1  -5   8   17.01    9.42  57 0.90050-0.82124-0.42945-0.24406-0.02991 0.50421
   2   0  -9    1.65    8.57  57 0.90217-0.76353-0.42551 0.42697-0.03385-0.49520
   3  -5  11   -6.51   12.77  57 0.90184-0.67310-0.42630-0.24784-0.03306 0.68713
   3  -1 -12   19.10   11.28  57 0.90270-0.69374-0.42424 0.29162-0.03511-0.66912
   4   0 -12    9.39   10.09  57 0.90252-0.61945-0.42468 0.42675-0.03467-0.66822
   4   2  -7   57.70    8.73  57 0.90119-0.61284-0.42784 0.69792-0.03152-0.37776
   5   0 -13   32.67   11.54  57 0.90208-0.54688-0.42572 0.42826-0.03363-0.72778
   5   3  -3   77.82    9.64  57 0.90110-0.53443-0.42804 0.83318-0.03132-0.14118
   5   3   2   36.13    9.77  57 0.90323-0.53232-0.42297 0.82774-0.03637 0.15865
   6   2 -10    8.74   10.25  57 0.90269-0.46981-0.42426 0.69650-0.03509-0.54910
   7   1 -13    2.54   11.84  57 0.90173-0.39800-0.42656 0.56523-0.03280-0.72887
   9   4  -2   28.25   12.85  57 0.90125-0.23905-0.42770 0.96759-0.03166-0.07664
   9   4   1   60.97   12.54  57 0.90283-0.23887-0.42393 0.96415-0.03541 0.10290
  10   4  -4  -12.36   13.77  57 0.90192-0.16850-0.42610 0.96712-0.03326-0.19202
  -1  -4   2   19.97    9.00  58 0.90477-0.97788-0.41923-0.11909-0.04014 0.15879
   0  -6   2   -7.37    9.92  58 0.90484-0.90589-0.41905-0.38937-0.04031 0.15987
   0  -5   5   21.84   10.07  58 0.90477-0.90220-0.41922-0.25351-0.04014 0.33719
   0  -2   6   20.33    8.59  58 0.90440-0.89942-0.42013 0.15219-0.03924 0.39392
   0  -1  -6  121.90   12.97  59 0.90636-0.91220-0.41527 0.28193-0.04405-0.30937
   1  -6   6   29.30   11.68  58 0.90429-0.82785-0.42041-0.38755-0.03896 0.39567
   2  -2  10    7.51    9.45  58 0.90448-0.74878-0.41994 0.15007-0.03943 0.63273
   3  -4 -13    1.79   18.82  61 0.91011-0.70376-0.40551-0.13118-0.05362-0.70956
   6   0 -14   -5.40   12.30  58 0.90496-0.47643-0.41875 0.42165-0.04061-0.77888
   6   3  -6   83.24    8.65  57 0.90294-0.46689-0.42369 0.82881-0.03571-0.31298
   7   0  13   -7.08   14.85  59 0.90660-0.38013-0.41464 0.41375-0.04467 0.81967
   7   2 -11   -7.26   10.17  58 0.90314-0.39791-0.42321 0.69472-0.03619-0.60514
   9   4  -3   27.60   12.47  58 0.90423-0.24276-0.42054 0.96143-0.03883-0.12860
  10   4   3    3.31   14.43  58 0.90535-0.16570-0.41780 0.95753-0.04155 0.22924
  -1  -4  -3   30.87   10.35  60 0.90782-0.98586-0.41139-0.12685-0.04792-0.12887
   0  -6  -3   12.23   12.90  60 0.90753-0.91286-0.41215-0.39508-0.04717-0.12832
   0  -4   6   29.82    8.65  59 0.90643-0.90266-0.41495-0.12297-0.04443 0.39905
   1  -7  -3    2.89   14.91  58 0.90613-0.84067-0.41571-0.53119-0.04368-0.13169
   1  -7   2    2.33   12.13  60 0.90728-0.83358-0.41279-0.52540-0.04655 0.16686
   1   1  -1 1698.38   22.44  59 0.90648-0.83297-0.41482 0.55041-0.04455-0.01223
   2  -6   8   -3.40   10.98  59 0.90550-0.75337-0.41729-0.39190-0.04212 0.51856
   2  -4  10    6.80   10.63  59 0.90628-0.75125-0.41535-0.12328-0.04403 0.63700
   4  -2 -14   10.77   14.04  59 0.90722-0.62681-0.41295 0.14603-0.04639-0.77515
   5   2  -9   43.60    8.64  58 0.90534-0.54546-0.41768 0.68887-0.04173-0.48459
   5   3  -4  197.12   10.01  59 0.90630-0.54156-0.41529 0.82006-0.04409-0.18650
   7   3  -8   16.43   10.45  59 0.90717-0.39841-0.41307 0.81902-0.04628-0.41793
   8   2 -12    6.27   13.00  60 0.90760-0.32915-0.41197 0.68610-0.04736-0.65400
   8   3  -9   -4.49   11.24  59 0.90692-0.32632-0.41370 0.81943-0.04565-0.47588
   9   4   2    8.70   12.19  59 0.90742-0.24125-0.41244 0.95274-0.04690 0.17456
  10   4  -5   10.11   13.45  59 0.90627-0.17321-0.41536 0.95572-0.04402-0.23993
  -1  -4   1   74.09    9.45  60 0.90939-0.98367-0.40732-0.13177-0.05193 0.11033
  -1  -3   2   54.52    8.43  60 0.90963-0.98253-0.40668 0.00193-0.05256 0.16999
  -1  -2   1  408.70   10.81  60 0.90811-0.98196-0.41068 0.14045-0.04863 0.10650
   0  -6  -2   -0.24   11.15  60 0.91002-0.91539-0.40564-0.40271-0.05357-0.06299
   0  -6   1    5.28   10.84  60 0.90888-0.91015-0.40867-0.39800-0.05061 0.11115
   0  -5  -6   60.25   14.35  62 0.91357-0.92194-0.39586-0.27696-0.06307-0.28836
   1  -7   1   -9.44   13.86  60 0.90904-0.83733-0.40825-0.53496-0.05102 0.11288
   1  -6  -7   10.68   16.79  62 0.91336-0.84926-0.39645-0.41091-0.06251-0.34803
   1   0  -7   18.21    8.50  60 0.90861-0.84142-0.40936 0.41106-0.04993-0.36189
   1   1   0 3099.04   33.89  60 0.90883-0.83403-0.40879 0.54472-0.05049 0.05286
   2  -5   9    0.75   10.80  60 0.90945-0.75591-0.40715-0.26665-0.05210 0.58721
   2  -3  10   12.37   10.47  60 0.90925-0.75366-0.40770 0.00317-0.05156 0.64487
   2  -1   9   15.96    9.22  60 0.90865-0.75362-0.40925 0.27384-0.05003 0.58344
   3  -2 -13    2.08   12.90  60 0.90991-0.70223-0.40594 0.13898-0.05328-0.70941
   3   0 -11    6.32    9.62  60 0.90828-0.69785-0.41022 0.41212-0.04909-0.59626
   3   1  -9   15.50    9.64  60 0.90901-0.69637-0.40832 0.54486-0.05095-0.47674
   3   2  -5  224.99    8.36  59 0.90769-0.69084-0.41176 0.68277-0.04758-0.24361
   5  -2  13    2.55   12.61  60 0.90988-0.53023-0.40602 0.13641-0.05320 0.82748
   8   1  12    9.19   17.88  62 0.91273-0.31137-0.39824 0.53397-0.06077 0.77908
   8   2  10   10.26   26.55  70 0.92759-0.32857-0.34977 0.61990-0.10672 0.70487
   8   4  -1   19.72   11.73  60 0.90964-0.32107-0.40665 0.94590-0.05258 0.00274
   9   3   8    7.00   24.61  65 0.91923-0.24789-0.37894 0.78450-0.07932 0.56152
   9   4  -4    0.67   10.88  60 0.90866-0.24783-0.40925 0.95273-0.05004-0.17706
  -1  -4  -2   93.96   10.10  62 0.91234-0.98989-0.39919-0.13913-0.05989-0.05714
  -1  -4   0   61.81    8.92  62 0.91227-0.98787-0.39937-0.13875-0.05972 0.06059
   0  -6  -1   10.86   10.94  61 0.91169-0.91503-0.40097-0.40634-0.05816 0.00085
   0  -6   0    8.35   11.06  60 0.91024-0.91368-0.40493-0.40358-0.05431 0.05604
   0  -3   6   55.60    7.28  61 0.91003-0.90630-0.40548 0.00127-0.05378 0.40787
   0   0  -2 1598.38   29.80  61 0.91196-0.91327-0.40022 0.40181-0.05889-0.05925
   1  -7  -2    1.30   13.49  61 0.91112-0.84216-0.40255-0.54020-0.05663-0.05875
   1  -7  -1   -1.16   12.16  61 0.91137-0.84185-0.40184-0.54251-0.05732 0.00095
   1  -7   0    1.17   13.26  62 0.91229-0.83997-0.39932-0.54037-0.05976 0.06263
   1  -6   5   -1.15   11.76  61 0.91141-0.83612-0.40174-0.40886-0.05741 0.35629
   1  -5   7   -1.96    9.80  61 0.91104-0.83266-0.40275-0.27093-0.05643 0.47168
   1  -4   8   58.39    8.30  61 0.91000-0.83098-0.40555-0.13339-0.05370 0.52755
   1  -2 -10   21.27   13.38  62 0.91409-0.85109-0.39423 0.12646-0.06469-0.52282
   1  -2   8  128.04    8.56  61 0.90993-0.83009-0.40574 0.13621-0.05351 0.52617
   1  -1  -9  149.78   10.90  61 0.91169-0.84743-0.40098 0.26805-0.05816-0.47079
   1  -1   7   97.37    8.97  61 0.91131-0.83161-0.40200 0.26738-0.05716 0.47099
   1   1  -2 1497.67   18.54  60 0.91007-0.83718-0.40536 0.54188-0.05388-0.06247
   2  -3 -12    8.15   15.40  63 0.91589-0.78179-0.38899-0.01341-0.06974-0.63601
   2   1  -7  117.69    9.14  61 0.91186-0.77130-0.40050 0.53654-0.05862-0.35174
   3  -4  11    5.46   11.96  61 0.91032-0.68114-0.40471-0.13480-0.05453 0.70925
   3  -2  11   18.61    9.65  61 0.91073-0.68035-0.40359 0.13377-0.05561 0.70871
   4  -4  12   10.75   12.26  61 0.91173-0.60749-0.40086-0.13871-0.05828 0.77287
   4  -2  12   23.42   12.41  61 0.91210-0.60709-0.39984 0.12991-0.05926 0.77335
   5   1 -12   -1.92   10.47  61 0.91148-0.55514-0.40154 0.53743-0.05761-0.64326
   6   3  -7    7.25    9.16  61 0.91063-0.47392-0.40387 0.80979-0.05534-0.35141
   6   3   5   23.58   13.25  62 0.91320-0.46555-0.39678 0.80137-0.06223 0.36268
   8   4  -2    8.24   10.50  61 0.91152-0.32141-0.40144 0.94473-0.05771-0.05234
   8   4   0   22.72   11.13  61 0.91063-0.31987-0.40387 0.94366-0.05535 0.06372
   9   3 -10    2.06   10.74  61 0.91007-0.25614-0.40536 0.81329-0.05388-0.52693
   9   4  -5    9.58   11.49  61 0.91166-0.25266-0.40106 0.94113-0.05808-0.22697
  -1  -4  -1   45.05    9.08  62 0.91370-0.98998-0.39551-0.14299-0.06342 0.00607
  -1  -2  -2  125.98   11.47  63 0.91511-0.99147-0.39146 0.12196-0.06733-0.05133
  -1  -2   0  461.16   12.54  62 0.91411-0.98848-0.39433 0.12489-0.06457 0.06426
   0  -5   4    6.69    8.55  62 0.91248-0.91074-0.39893-0.27459-0.06011 0.29729
   1  -3   8  108.34    9.35  62 0.91402-0.83394-0.39459-0.00913-0.06431 0.53853
   2  -1 -11    8.95    9.57  62 0.91360-0.77709-0.39579 0.26283-0.06316-0.58341
   3  -3  11   11.54   10.52  63 0.91432-0.68437-0.39373-0.01056-0.06515 0.71815
   3   0   9   14.23    9.65  63 0.91429-0.68476-0.39383 0.39396-0.06505 0.59985
   3   1   7  544.89   18.42  64 0.91752-0.68975-0.38427 0.51877-0.07424 0.49059
   4   2  -8   66.36    7.77  61 0.91244-0.62584-0.39904 0.66933-0.06001-0.40791
   5  -3  13   11.34   12.65  63 0.91436-0.53486-0.39361-0.00995-0.06526 0.83632
   5   3  -5  106.78    8.60  61 0.91225-0.54858-0.39956 0.80468-0.05950-0.23037
   5   3   3   59.52   10.87  62 0.91472-0.54286-0.39258 0.79743-0.06626 0.24745
   6  -1  13    4.33   13.25  63 0.91514-0.46202-0.39138 0.25691-0.06742 0.84041
   6   1 -13   14.35   10.72  62 0.91284-0.48285-0.39793 0.53577-0.06108-0.69999
   8   4  -3   28.49    9.93  61 0.91251-0.32507-0.39885 0.93912-0.06019-0.10814
   8   4   1   13.01   11.44  62 0.91421-0.32249-0.39404 0.93515-0.06485 0.13224
   9   4   3    9.72   12.86  62 0.91426-0.24789-0.39390 0.93323-0.06498 0.25116
  10   4   4   -5.64   15.40  63 0.91563-0.17485-0.38994 0.93061-0.06880 0.31515
  -1  -3  -3   65.37   11.63  65 0.91851-0.99624-0.38092-0.02243-0.07730-0.10062
  -1  -3   1   45.54    8.78  63 0.91550-0.98951-0.39001-0.01436-0.06860 0.12812
  -1  -2  -1  107.96   10.54  64 0.91675-0.99237-0.38632 0.11636-0.07214 0.01179
   0  -4   5   43.59    8.97  63 0.91606-0.91271-0.38837-0.15093-0.07017 0.36662
   0  -1   4  150.15    8.61  63 0.91470-0.91143-0.39234 0.25708-0.06635 0.30324
   1   0   5  169.87   11.24  63 0.91621-0.83758-0.38792 0.38755-0.07060 0.36750
   1   1  -3 1815.79   19.32  63 0.91594-0.84406-0.38872 0.52522-0.06983-0.10650
   2  -6   7    8.96   11.98  64 0.91585-0.76366-0.38898-0.41607-0.06959 0.48457
   3  -5  10   -4.55   10.84  63 0.91447-0.68639-0.39301-0.28175-0.06570 0.66097
   4  -3  12   -2.41   10.89  63 0.91538-0.61143-0.39037-0.01479-0.06825 0.78127
   4   1 -11    0.81   10.32  63 0.91509-0.63067-0.39123 0.52842-0.06742-0.57742
   6   0  12   29.96   13.09  64 0.91766-0.46466-0.38354 0.38345-0.07479 0.78889
   6   2 -11   11.01   10.06  62 0.91432-0.48207-0.39344 0.66545-0.06529-0.57696
   7   1 -14    8.63   13.55  62 0.91470-0.41327-0.39237 0.52924-0.06633-0.74765
   7   2 -12   -3.36   12.11  63 0.91545-0.41069-0.39017 0.66265-0.06844-0.63266
   7   3  -9    7.37   10.18  63 0.91610-0.40815-0.38823 0.79550-0.07030-0.45344
   8   4  -4   37.52   11.57  63 0.91545-0.32937-0.39015 0.93063-0.06846-0.15951
   1  -6   4   21.35   11.23  65 0.91835-0.84385-0.38110-0.42719-0.07718 0.31617
   3  -1  10    5.25    9.08  64 0.91806-0.68790-0.38200 0.24673-0.07632 0.66974
   3   2  -6   18.49    6.59  63 0.91609-0.69987-0.38798 0.65950-0.07060-0.28053
   5   2 -10   10.99    9.08  63 0.91638-0.55686-0.38710 0.65905-0.07143-0.51321
   8   3 -10   -8.02   10.13  64 0.91644-0.33615-0.38694 0.79489-0.07159-0.51029
   8   4   2    8.41   12.25  64 0.91833-0.32607-0.38117 0.92029-0.07711 0.20323
   9   4  -6   -5.18   12.38  64 0.91725-0.25816-0.38449 0.92806-0.07393-0.27124
  -1  -3   0   62.43    8.73  65 0.92000-0.99498-0.37587-0.02775-0.08213 0.08098
   0  -5   3   67.76    8.75  65 0.91847-0.91870-0.38073-0.29248-0.07750 0.25497
   0  -2   5  199.69    8.33  65 0.91834-0.91484-0.38111 0.11084-0.07714 0.37201
   1  -5   6   11.36    9.88  65 0.91914-0.84290-0.37861-0.29714-0.07953 0.43762
   2  -5   8    1.15   10.12  65 0.91951-0.76699-0.37744-0.29832-0.08064 0.55776
   2  -4   9    4.55    8.56  64 0.91844-0.76489-0.38081-0.15886-0.07743 0.61282
   2  -2 -12   31.72   12.43  65 0.92043-0.78581-0.37449 0.10809-0.08344-0.62141
   2   0 -10   42.98    9.68  65 0.91984-0.78243-0.37639 0.37899-0.08164-0.50543
   4  -1 -14   15.86   12.99  65 0.92007-0.63971-0.37565 0.24411-0.08234-0.73892
   4   0 -13   12.11   10.79  65 0.92011-0.63818-0.37551 0.37855-0.08247-0.68024
   4   0  10  116.80   12.60  66 0.92155-0.61824-0.37080 0.37035-0.08693 0.68088
   5  -1 -15    1.83   14.21  66 0.92084-0.56751-0.37314 0.24199-0.08471-0.79607
   5  -1  12   -2.42   10.64  65 0.91945-0.54102-0.37765 0.24158-0.08044 0.79540
   5   0 -14   -5.25   12.63  65 0.91935-0.56536-0.37795 0.38029-0.08015-0.74086
   5   3  -6   39.50    8.09  64 0.91825-0.55524-0.38142 0.78783-0.07685-0.27099
   6   3  -8    6.14    8.13  65 0.91851-0.48294-0.38059 0.78765-0.07764-0.38845
   8   4  -5    2.16   11.20  65 0.91905-0.33283-0.37889 0.92028-0.07926-0.20744
  -1  -3  -2    8.31    9.54  67 0.92239-0.99941-0.36787-0.03602-0.08968-0.02817
  -1  -3  -1  353.92   12.14  67 0.92231-0.99847-0.36813-0.03535-0.08943 0.02966
   0  -3   5   78.42    8.35  66 0.92091-0.91842-0.37281-0.03160-0.08501 0.37991
   0   0  -3  602.53   17.65  66 0.92197-0.92419-0.36927 0.37118-0.08836-0.08839
   1  -4   7    2.61    8.90  65 0.92043-0.84286-0.37437-0.16559-0.08353 0.49992
   2  -7   3    5.36   12.60  66 0.92090-0.77508-0.37283-0.57056-0.08499 0.26690
   2  -2   9   30.60    9.22  66 0.92144-0.76680-0.37105 0.10130-0.08668 0.62071
   3  -6   8    6.88   12.40  67 0.92179-0.69601-0.36988-0.43541-0.08778 0.56289
   3   1 -10   24.29    9.11  66 0.92192-0.71047-0.36943 0.50660-0.08821-0.49798
   4  -1  11   28.22    9.73  66 0.92089-0.61685-0.37285 0.23800-0.08498 0.73887
   4   3  -2   25.45    8.84  66 0.92176-0.62828-0.36999 0.77531-0.08768-0.02561
   4   3  -1  171.03    9.89  66 0.92172-0.62706-0.37013 0.77509-0.08755 0.03343
   5   0  11    5.79   11.52  67 0.92269-0.54445-0.36683 0.36643-0.09066 0.74374
   7   4  -2    4.55   10.81  66 0.92170-0.40608-0.37019 0.91206-0.08749-0.02360
   7   4  -1   16.36   10.54  66 0.92127-0.40520-0.37160 0.91154-0.08616 0.03465
   9   4  -7    1.78   12.97  65 0.92071-0.26435-0.37345 0.91186-0.08441-0.31726
   0  -5  -5   21.20   12.00  68 0.92563-0.93291-0.35651-0.31626-0.10045-0.19292
   0  -5   2  145.42   10.06  67 0.92372-0.92434-0.36336-0.31031-0.09403 0.21323
   1  -6   3   10.61   10.54  67 0.92310-0.85078-0.36554-0.44483-0.09198 0.27271
   1   1  -4  781.10   13.04  67 0.92232-0.85155-0.36819 0.50449-0.08949-0.14445
   1   1   1  769.37   22.94  68 0.92430-0.84874-0.36135 0.49670-0.09592 0.15728
   2  -6   6    9.15   11.85  67 0.92250-0.77288-0.36758-0.44071-0.09007 0.44826
   2  -3   9   57.46   10.31  67 0.92308-0.76931-0.36561-0.03908-0.09193 0.62571
   2   0   7    6.50    9.62  68 0.92439-0.77056-0.36101 0.36049-0.09624 0.51042
   2   1  -8   16.65    9.15  67 0.92309-0.78262-0.36557 0.50162-0.09196-0.37775
   3  -4  10   19.89   11.72  67 0.92344-0.69514-0.36437-0.17453-0.09309 0.68738
   3  -1 -13    2.51   11.58  68 0.92419-0.71626-0.36171 0.22951-0.09558-0.66976
   4   2  -9    4.67    8.12  66 0.92205-0.63499-0.36913 0.64100-0.08861-0.43877
   4   3  -3   12.78    9.15  67 0.92328-0.63088-0.36492 0.77031-0.09257-0.08015
   4   3   0  124.92   10.32  67 0.92393-0.62823-0.36264 0.76753-0.09471 0.09930
   6  -2  13    2.75   13.41  68 0.92466-0.47201-0.36005 0.09116-0.09714 0.86889
   7   4  -3   14.91   10.23  66 0.92237-0.40771-0.36802 0.90863-0.08965-0.08038
   7   4   0   41.98   10.73  67 0.92307-0.40607-0.36564 0.90580-0.09189 0.09946
   8   4  -6    7.05   12.34  68 0.92375-0.33827-0.36326 0.90717-0.09413-0.25259
   9   4   4    8.99   15.03  67 0.92426-0.25630-0.36146 0.90118-0.09582 0.34073
   0  -4  -7   10.41   16.20  73 0.93241-0.94057-0.32891-0.20870-0.12583-0.28518
   0  -4   4    7.47    7.96  68 0.92399-0.92213-0.36251-0.17652-0.09478 0.33184
   1  -6  -6   11.47   14.32  69 0.92632-0.86134-0.35404-0.45334-0.10269-0.24853
   1  -2   7   73.65    8.81  68 0.92459-0.84596-0.36040 0.09009-0.09675 0.51131
   1   0  -8    8.49    8.68  68 0.92441-0.85819-0.36105 0.36256-0.09615-0.37435
   2  -7   2   -7.66   12.42  68 0.92504-0.77915-0.35876-0.58550-0.09829 0.22068
   2  -4 -12   13.88   25.53  73 0.93289-0.79933-0.32671-0.21023-0.12783-0.57622
   3  -5   9   -6.39   11.48  68 0.92490-0.69837-0.35928-0.31474-0.09780 0.63371
   3   0 -12    5.13   10.51  68 0.92461-0.71499-0.36033 0.36276-0.09682-0.60801
   3   2  -7   81.15    8.04  67 0.92391-0.70939-0.36279 0.63385-0.09451-0.31500
   4  -4  11    3.82   12.51  68 0.92507-0.62228-0.35867-0.18012-0.09838 0.75280
   5  -4  12    0.63   11.02  68 0.92405-0.54693-0.36230-0.17764-0.09498 0.81020
   5   1 -13    4.70   11.36  68 0.92524-0.56914-0.35804 0.49642-0.09896-0.66381
   5   3  -7   96.17    8.57  67 0.92412-0.56211-0.36207 0.76788-0.09519-0.31220
   6   1 -14   10.56   12.58  68 0.92476-0.49586-0.35979 0.49707-0.09733-0.71958
   6   2 -12    5.99   11.93  68 0.92503-0.49296-0.35882 0.63215-0.09824-0.60490
   7   3 -10   -2.56    9.30  68 0.92397-0.41707-0.36261 0.77007-0.09469-0.48838
   7   4  -4   19.58   10.54  68 0.92455-0.41061-0.36053 0.90171-0.09664-0.13247
   8   3 -11    7.67   12.89  68 0.92474-0.34379-0.35986 0.76861-0.09726-0.54465
   8   4   3    9.78   13.89  69 0.92648-0.33255-0.35345 0.89417-0.10325 0.28847
   1  -5   5    0.26   10.01  69 0.92676-0.85129-0.35234-0.32348-0.10438 0.40296
   1  -3   7   12.65    7.26  69 0.92572-0.84725-0.35624-0.04847-0.10075 0.51594
   2   2  -2  267.18   10.88  69 0.92695-0.78075-0.35162 0.62171-0.10505-0.01071
   3  -2  10    9.97    9.42  70 0.92725-0.69801-0.35045 0.08079-0.10613 0.69991
   4  -5  10    8.02   12.58  70 0.92731-0.62583-0.35025-0.32279-0.10632 0.70187
   4   1 -12    2.64   10.47  69 0.92709-0.64335-0.35109 0.48852-0.10554-0.59844
   4   3  -4   54.15    8.00  68 0.92573-0.63363-0.35620 0.76192-0.10079-0.13043
   5   2 -11    5.04   10.34  69 0.92673-0.56775-0.35245 0.62614-0.10428-0.54199
   6   3  -9   17.13    8.94  68 0.92559-0.49079-0.35672 0.76384-0.10030-0.42486
   7  -1  13    8.23   13.93  70 0.92745-0.40058-0.34968 0.21551-0.10685 0.88327
   7   1  11    1.77   15.96  73 0.93230-0.40725-0.32936 0.46356-0.12553 0.77845
   7   2 -13    9.32   11.97  69 0.92585-0.42172-0.35576 0.62928-0.10120-0.65909
   7   4   1   31.37   10.73  69 0.92654-0.40875-0.35319 0.89364-0.10359 0.16878
  10   4   5   -4.98   16.74  68 0.92603-0.18566-0.35509 0.89214-0.10182 0.40534
   0  -5   1  171.72   10.23  70 0.92764-0.92929-0.34919-0.32484-0.10735 0.16759
   0  -2  -8   42.17   13.71  72 0.93131-0.94004-0.33398 0.06534-0.12134-0.34939
   1  -6   2   -4.23    9.82  71 0.92905-0.85501-0.34356-0.46006-0.11255 0.23248
   2  -7   1   -8.02   13.41  70 0.92827-0.78323-0.34671-0.59671-0.10964 0.17280
   2  -5   7    5.55   10.24  70 0.92798-0.77706-0.34783-0.32808-0.10860 0.52699
   2  -1   8  168.57    9.37  70 0.92780-0.77367-0.34855 0.21321-0.10794 0.58252
   2   2  -3  936.48   13.82  70 0.92823-0.78239-0.34687 0.61785-0.10949-0.06481
   2   2  -1   21.08    8.81  70 0.92772-0.77978-0.34886 0.61970-0.10765 0.05196
   3  -6   7    1.55   12.15  70 0.92874-0.70411-0.34482-0.46352-0.11139 0.52974
   3  -3  10    6.62    9.52  70 0.92760-0.69886-0.34934-0.05545-0.10720 0.70202
   4  -2 -15    0.09   14.82  71 0.92911-0.65020-0.34332 0.07541-0.11277-0.76638
   4  -2  11   29.34   10.05  71 0.92906-0.62497-0.34350 0.07488-0.11260 0.76643
   4   3   1  131.59   10.71  70 0.92874-0.63194-0.34481 0.74985-0.11140 0.17483
   5  -3  12   -4.81   12.05  70 0.92827-0.55033-0.34671-0.05876-0.10964 0.82413
   5  -2  12   16.02   10.94  70 0.92783-0.54941-0.34843 0.07881-0.10805 0.82244
   7   4  -5   36.75    9.66  69 0.92736-0.41568-0.35024 0.89138-0.10637-0.18177
   8   4  -7    1.14   11.35  70 0.92746-0.34384-0.34986 0.89176-0.10673-0.29791
   0  -5  -4    6.08   11.40  71 0.93038-0.93736-0.33792-0.33639-0.11776-0.11706
   0  -3   4  218.94    9.41  71 0.93019-0.92728-0.33874-0.06477-0.11701 0.35428
   0  -2   4   67.23    8.86  71 0.92992-0.92699-0.33985 0.07104-0.11598 0.35229
   0  -1  -7  146.25   11.78  71 0.93034-0.93751-0.33808 0.20421-0.11761-0.29492
   0   0  -4 9770.95   50.16  71 0.93036-0.93387-0.33798 0.33918-0.11770-0.11842
   1  -4   6   48.91    9.00  71 0.92984-0.85224-0.34019-0.19718-0.11567 0.47230
   1  -1 -10    8.08    9.92  72 0.93112-0.86765-0.33472 0.20148-0.12069-0.46763
   1  -1   6   17.45    7.11  70 0.92899-0.85011-0.34372 0.20945-0.11242 0.46739
   1   1  -5  990.21   13.64  70 0.92898-0.85930-0.34375 0.48043-0.11240-0.18161
   2  -7   0   -3.98   13.88  71 0.93039-0.78698-0.33786-0.60519-0.11781 0.12231
   2  -6   5   -2.25   10.19  71 0.92895-0.77935-0.34387-0.46499-0.11229 0.41141
   2  -4   8    6.34    7.94  71 0.92918-0.77594-0.34294-0.19609-0.11314 0.58818
   3  -3 -14    0.23   16.98  73 0.93318-0.72743-0.32533-0.07714-0.12924-0.69373
   4  -3  11   22.92   10.16  71 0.92945-0.62579-0.34182-0.06219-0.11418 0.76752
   4   2 -10   19.68    9.99  71 0.92979-0.64394-0.34041 0.61118-0.11547-0.46885
   4   3  -5   25.66    7.25  70 0.92900-0.63839-0.34366 0.74913-0.11248-0.17858
   5   3  -8   32.50    9.84  71 0.92969-0.56900-0.34081 0.74612-0.11510-0.35208
   5   3   4   87.44   12.73  72 0.93104-0.55785-0.33509 0.74014-0.12035 0.36061
   0  -5   0    0.66    9.50  73 0.93162-0.93224-0.33249-0.33762-0.12268 0.12403
   0  -4   3    6.24    7.50  72 0.93052-0.92939-0.33733-0.20183-0.11826 0.29634
   0  -1   3  258.92    9.50  71 0.93038-0.92775-0.33793 0.20305-0.11770 0.29514
   1  -6  -5   35.01   13.35  73 0.93232-0.86675-0.32932-0.47787-0.12557-0.16598
   1  -6   1   10.36   11.01  72 0.93096-0.86025-0.33542-0.47410-0.12000 0.18226
   2  -7  -3    2.29   15.42  73 0.93210-0.79085-0.33033-0.61375-0.12465-0.04856
   2  -7  -1    6.55   13.48  72 0.93154-0.78934-0.33286-0.61166-0.12234 0.06785
   2  -1 -12    5.61   11.42  72 0.93160-0.79671-0.33259 0.20004-0.12259-0.58279
   2   2  -4  186.75    8.12  72 0.93075-0.78634-0.33633 0.60666-0.11917-0.11527
   2   2   0   -1.10    8.26  72 0.93150-0.78334-0.33304 0.60317-0.12218 0.12398
   3  -2 -14   -2.12   13.93  73 0.93205-0.72592-0.33057 0.06244-0.12443-0.69669
   3   2  -8   79.92    8.01  71 0.93062-0.71759-0.33688 0.60676-0.11867-0.35048
   7   3 -11   11.38   10.10  71 0.93066-0.42463-0.33671 0.74406-0.11882-0.52228
   7   4  -6    9.51    9.72  72 0.93052-0.41921-0.33731 0.87940-0.11827-0.22859
   7   4   2    2.42   11.64  73 0.93204-0.41287-0.33062 0.87181-0.12439 0.24967
   8   4  -8   17.43   12.31  72 0.93172-0.34877-0.33207 0.87483-0.12306-0.34068
   0  -5  -3   69.94   11.37  73 0.93306-0.93851-0.32558-0.34744-0.12900-0.04616
   0  -5  -2  155.11   10.97  74 0.93335-0.93784-0.32420-0.34947-0.13025 0.01452
   0  -5  -1  187.69   10.43  73 0.93245-0.93633-0.32840-0.34473-0.12644 0.06871
   1  -5   4    4.78    9.67  74 0.93315-0.85784-0.32513-0.34823-0.12941 0.36770
   2  -7  -2   -6.63   13.13  73 0.93258-0.79039-0.32781-0.61516-0.12697 0.01298
   2   0 -11   38.47    9.33  73 0.93254-0.79586-0.32801 0.33045-0.12679-0.51904
   2   1  -9  294.54   10.96  73 0.93229-0.79343-0.32916 0.46574-0.12575-0.40217
   3  -5   8    3.63   10.19  73 0.93233-0.70717-0.32898-0.34828-0.12591 0.60601
   3   1 -11   40.11    8.45  73 0.93193-0.72123-0.33078 0.46783-0.12427-0.52108
   3   2   4    4.77   15.42  76 0.93648-0.71079-0.30806 0.57799-0.14477 0.38388
   4   0 -14   21.01   11.58  73 0.93291-0.65215-0.32626 0.32935-0.12838-0.69292
   4   3  -6   12.96    8.79  72 0.93224-0.64189-0.32941 0.73450-0.12552-0.22388
   5   0 -15    7.27   12.76  73 0.93223-0.57855-0.32945 0.33291-0.12549-0.75373
   6   2 -13    2.34   12.91  73 0.93242-0.50270-0.32857 0.59957-0.12628-0.63038
   6   3 -10   17.08    9.27  72 0.93179-0.49837-0.33143 0.73895-0.12368-0.46004
   6   4  -3    4.24   10.55  73 0.93293-0.49221-0.32619 0.86796-0.12844-0.04260
   6   4  -2   12.56    9.77  73 0.93244-0.49073-0.32845 0.86906-0.12639 0.01448
   6   4  -1    3.47   10.79  73 0.93305-0.49059-0.32562 0.86523-0.12897 0.07604
   7  -2  13    3.87   12.89  73 0.93250-0.40499-0.32818 0.05826-0.12664 0.90548
   7   0  12    5.29   13.73  73 0.93286-0.40615-0.32653 0.32708-0.12814 0.84515
   1  -6  -4    3.18   12.73  74 0.93431-0.86909-0.31927-0.49066-0.13472-0.09881
   1  -6   0    4.39   10.70  75 0.93449-0.86291-0.31834-0.48560-0.13556 0.13842
   2  -6   4    1.15   12.04  74 0.93389-0.78563-0.32134-0.48762-0.13285 0.37307
   2  -3   8  154.46    9.63  74 0.93369-0.78057-0.32229-0.08167-0.13199 0.60748
   2  -2   8  360.56   10.67  75 0.93442-0.78035-0.31870 0.04956-0.13524 0.61018
   2   2  -5  156.85    9.49  74 0.93389-0.79013-0.32135 0.59207-0.13284-0.16039
   3  -4   9   50.71    8.92  74 0.93319-0.70581-0.32472-0.21389-0.12979 0.66512
   4  -1 -15    7.52   14.58  75 0.93466-0.65558-0.31746 0.18594-0.13635-0.74223
   4   1   8   19.64   12.47  76 0.93649-0.63346-0.30776 0.44248-0.14506 0.62154
   5   2 -12    4.17   11.74  74 0.93363-0.57580-0.32259 0.59431-0.13172-0.56969
   6  -1  12    9.96   11.81  74 0.93406-0.48129-0.32049 0.18584-0.13362 0.84781
   6   4  -4   15.64   10.98  74 0.93371-0.49379-0.32221 0.86314-0.13207-0.09782
   7   4  -7   10.78   11.47  74 0.93343-0.42279-0.32356 0.86470-0.13085-0.27454
   0  -4   2    7.51    8.78  75 0.93545-0.93560-0.31330-0.22602-0.14005 0.25929
   1  -6  -3    6.62   12.22  75 0.93562-0.86925-0.31237-0.49741-0.14089-0.03335
   1  -6  -1   23.08   11.45  75 0.93541-0.86564-0.31349-0.49446-0.13988 0.08465
   1  -3   6   14.11    8.45  75 0.93488-0.85720-0.31625-0.08870-0.13740 0.49381
   1   0  -9    6.19    8.60  75 0.93547-0.87081-0.31320 0.31479-0.14014-0.38985
   1   1  -6  404.52    9.83  74 0.93457-0.86611-0.31785 0.45381-0.13596-0.21733
   2  -5   6   66.21    9.86  75 0.93498-0.78480-0.31575-0.35814-0.13785 0.49577
   3  -6   6   21.43   10.87  75 0.93455-0.71122-0.31799-0.49069-0.13584 0.49542
   3  -1   9    7.47    8.83  75 0.93472-0.70560-0.31709 0.18264-0.13664 0.67169
   3   0 -13   -0.83   11.11  77 0.93687-0.72951-0.30548 0.30914-0.14704-0.62138
   4  -5   9    3.51   11.48  75 0.93534-0.63488-0.31386-0.35881-0.13955 0.67579
   4  -4  10    0.73    9.62  75 0.93460-0.63256-0.31769-0.22263-0.13611 0.73252
   4   3   2   24.31   10.54  75 0.93578-0.63712-0.31153 0.71715-0.14163 0.26360
   5  -5  10    4.34   12.51  76 0.93577-0.56026-0.31158-0.36122-0.14159 0.73795
   5  -4  11    8.54   10.91  75 0.93458-0.55784-0.31781-0.22102-0.13600 0.79176
   5   1 -14   14.21   11.96  75 0.93475-0.57995-0.31697 0.45550-0.13676-0.68445
   5   3  -9   16.52    8.08  74 0.93459-0.57366-0.31776 0.72426-0.13604-0.38940
   6   1  10   14.08   13.62  77 0.93760-0.48589-0.30118 0.43590-0.15087 0.74725
   6   4  -5   32.51    9.96  75 0.93548-0.49707-0.31316 0.85466-0.14017-0.14847
   6   4   0   48.95   10.14  75 0.93522-0.49233-0.31449 0.85457-0.13898 0.14460
   8   4  -9  -11.38   12.31  75 0.93529-0.35418-0.31415 0.85556-0.13928-0.38222
   8   4   4    3.15   14.12  75 0.93572-0.34090-0.31183 0.85243-0.14137 0.38574
   9   4   5    5.35   16.12  76 0.93653-0.26718-0.30741 0.84773-0.14532 0.44974
   0   0  -5 1959.08   22.24  76 0.93682-0.94119-0.30553 0.30710-0.14702-0.14847
   1  -6  -2   20.35   10.50  76 0.93624-0.86791-0.30881-0.49843-0.14409 0.02954
   1  -4   5  125.77    9.32  76 0.93641-0.86045-0.30784-0.23177-0.14495 0.44183
   1  -2 -11    8.16   13.10  77 0.93780-0.87626-0.29974 0.03218-0.15216-0.49500
   1  -2   6   77.57    7.44  76 0.93582-0.85778-0.31110 0.04105-0.14204 0.49774
   2  -4   7   12.56    9.33  77 0.93677-0.78462-0.30583-0.23349-0.14675 0.56314
   3  -1 -14    3.49   12.84  76 0.93646-0.72892-0.30757 0.17565-0.14519-0.67327
   3   0   8   70.27   10.04  77 0.93690-0.70828-0.30512 0.30491-0.14738 0.62275
   3   2  -9   32.63    9.38  76 0.93622-0.72272-0.30894 0.58074-0.14397-0.38340
   4   1 -13   19.28   10.06  76 0.93607-0.65369-0.30975 0.44777-0.14325-0.61991
   4   2 -11   -2.33   10.20  76 0.93642-0.65231-0.30781 0.57874-0.14498-0.49838
   4   3  -7    6.75    8.98  76 0.93607-0.64692-0.30973 0.71650-0.14327-0.26599
   5  -1  11   33.11   10.89  76 0.93668-0.55885-0.30633 0.17193-0.14630 0.80099
   6  -3  12    5.10   12.01  76 0.93666-0.48484-0.30645-0.09749-0.14619 0.86147
   7   3 -12    4.69   13.06  76 0.93648-0.43191-0.30749 0.71598-0.14527-0.55496
   0  -3   3  181.04    8.20  77 0.93673-0.93532-0.30541-0.09965-0.14712 0.32500
   1  -5  -8    7.02   16.32  79 0.93965-0.87700-0.28693-0.38540-0.16347-0.30561
   1  -5   3   34.31   10.48  77 0.93743-0.86328-0.30131-0.37246-0.15077 0.33087
   2  -6   3   -4.39   10.80  77 0.93743-0.79055-0.30134-0.50938-0.15075 0.33277
   2   2  -6   -1.68    8.66  77 0.93723-0.79489-0.30253 0.57367-0.14969-0.20254
   3  -3   9   23.16   10.12  77 0.93747-0.70912-0.30110-0.10341-0.15096 0.68607
   4  -6   7    2.96   12.44  77 0.93745-0.63935-0.30123-0.50712-0.15084 0.57075
   4  -1  10   26.01    9.02  77 0.93701-0.63341-0.30381 0.16961-0.14855 0.74311
   5   1   9    9.21   13.10  79 0.93900-0.56131-0.29138 0.42667-0.15956 0.69699
   6  -2  12   13.83   11.92  77 0.93738-0.48473-0.30164 0.03223-0.15048 0.86558
   6   0  11   21.66   13.00  78 0.93857-0.48584-0.29424 0.29439-0.15703 0.81313
   6   3 -11   -5.91   10.09  77 0.93681-0.50504-0.30495 0.71215-0.14753-0.49485
   6   4  -6    4.49   10.44  76 0.93694-0.49884-0.30424 0.84385-0.14817-0.19908
   7   4  -8   16.82    9.74  76 0.93671-0.42725-0.30554 0.84808-0.14701-0.31789
   7   4   3   27.87   13.01  77 0.93796-0.41771-0.29808 0.83794-0.15364 0.33769
   0  -2   3  156.66    9.48  78 0.93841-0.93676-0.29545 0.02613-0.15594 0.33280
   1  -3 -11    4.03   18.11  81 0.94133-0.88040-0.27426-0.12816-0.17450-0.47202
   2  -6  -8    7.19   16.69  80 0.94006-0.80432-0.28421-0.52234-0.16582-0.30147
   2  -2 -13   14.16   12.60  78 0.93877-0.80542-0.29313 0.02616-0.15799-0.60551
   2   2   1  125.87    9.54  78 0.93830-0.78888-0.29617 0.56589-0.15530 0.21692
   3  -2   9   52.16    9.35  78 0.93855-0.71000-0.29458 0.02517-0.15671 0.69152
   4  -3  10    7.06   10.09  78 0.93850-0.63571-0.29486-0.11042-0.15646 0.75385
   5  -3  11   10.02   10.48  78 0.93821-0.56120-0.29673-0.10785-0.15481 0.81165
   6   4   1    2.68    9.55  78 0.93860-0.49369-0.29425 0.83582-0.15700 0.22230
   7   3   7   27.09   25.48  82 0.94214-0.41835-0.26704 0.67152-0.18074 0.60078
   0  -4   1    6.65    8.71  79 0.93913-0.94033-0.29000-0.24884-0.16070 0.22095
   1   0   4  265.20   11.86  79 0.93939-0.86191-0.28823 0.28802-0.16226 0.39913
   1   1  -7  343.77   10.67  79 0.93912-0.87225-0.29004 0.42525-0.16066-0.25063
   2  -3 -13    6.80   17.27  80 0.94018-0.80682-0.28248-0.11811-0.16730-0.59299
   2   1 -10   65.27    8.23  78 0.93881-0.80173-0.29218 0.42820-0.15878-0.42805
   3  -7   1    8.22   13.52  80 0.93957-0.72089-0.28697-0.65380-0.16336 0.22805
   3  -6   5   15.63   11.59  79 0.93907-0.71652-0.29038-0.51712-0.16037 0.46062
   3  -5   7    8.53    9.21  79 0.93891-0.71380-0.29146-0.38224-0.15942 0.57755
   3   1 -12   17.17   10.07  78 0.93898-0.72935-0.29103 0.42829-0.15980-0.54439
   4  -2  10    0.84    9.16  79 0.93944-0.63626-0.28787 0.01659-0.16257 0.76019
   4   3  -8   16.47    8.92  79 0.93905-0.65072-0.29057 0.69696-0.16020-0.30749
   5  -2  11   53.90   11.58  79 0.93940-0.56135-0.28810 0.02064-0.16237 0.81747
   5   2 -13    9.71   11.85  79 0.93949-0.58337-0.28750 0.55988-0.16290-0.59725
   5   3 -10   12.78    8.92  78 0.93876-0.57895-0.29246 0.69963-0.15853-0.42605
   6   3   6  131.72   19.27  82 0.94217-0.49310-0.26581 0.67027-0.18176 0.54174
   6   4  -7    8.56   11.02  79 0.93936-0.50240-0.28841 0.83020-0.16210-0.24450
   7   4  -9   21.63   12.09  79 0.93942-0.43119-0.28801 0.82940-0.16245-0.36017
   2  -6   2   -6.75   10.21  80 0.94026-0.79480-0.28143-0.52930-0.16824 0.29098
   2  -5   5   74.79    9.17  80 0.93976-0.79162-0.28516-0.38814-0.16498 0.46223
   2  -1   7   40.48    8.21  80 0.94046-0.78708-0.27993 0.14429-0.16955 0.58497
   2   2  -7  370.68   10.46  80 0.94021-0.79911-0.28184 0.55300-0.16788-0.24186
   3  -4   8   -0.93    8.09  80 0.93975-0.71329-0.28525-0.25512-0.16490 0.64239
   3   3  -4   49.28    8.90  80 0.94033-0.72247-0.28093 0.68630-0.16868-0.06312
   3   3  -3   20.39    7.34  80 0.93976-0.71969-0.28518 0.69094-0.16497-0.00884
   3   3  -2   83.70    9.15  80 0.94009-0.71983-0.28274 0.68756-0.16710 0.05312
   4   0   9   19.75    9.97  80 0.94042-0.63700-0.28025 0.28031-0.16928 0.70527
   5   0  10    9.78   11.48  81 0.94056-0.56226-0.27918 0.27946-0.17021 0.76698
   6  -4  11   -0.28   12.17  79 0.93970-0.48861-0.28557-0.25605-0.16462 0.82692
   7   2   9    4.97   20.73  87 0.94434-0.41885-0.23873 0.50819-0.20488 0.74273
   8   0  12   -1.70   14.98  82 0.94119-0.34005-0.27402 0.27442-0.17469 0.89239
   9   5  -3    3.18   14.55  80 0.94007-0.27744-0.28289 0.95942-0.16697-0.00022
   9   5  -2    5.40   12.99  81 0.94056-0.27690-0.27912 0.95712-0.17026 0.06197
   0  -4  -6   31.82   13.12  83 0.94231-0.95067-0.26493-0.27308-0.18249-0.17012
   0  -1  -8   69.68   11.71  82 0.94160-0.94994-0.27142 0.13755-0.17689-0.29480
   1  -5   2    6.81    7.94  81 0.94077-0.86802-0.27834-0.39533-0.17088 0.29156
   1  -4   4   96.23    9.42  81 0.94131-0.86588-0.27390-0.26549-0.17474 0.41223
   1  -3   5  109.26    8.45  81 0.94133-0.86446-0.27381-0.13105-0.17482 0.47191
   1  -1 -11    3.85   10.54  81 0.94140-0.87864-0.27319 0.14033-0.17536-0.47033
   1  -1   5  181.32   10.33  81 0.94098-0.86338-0.27668 0.14054-0.17233 0.46844
   2  -3   7   25.70    8.80  81 0.94101-0.78910-0.27640-0.12855-0.17257 0.58823
   2  -1 -13    8.48   12.15  81 0.94138-0.80695-0.27331 0.14099-0.17525-0.58658
   2   0 -12   -0.43    8.93  80 0.94069-0.80509-0.27899 0.28113-0.17031-0.53459
   3  -7   0   -8.20   13.79  81 0.94107-0.72412-0.27593-0.66636-0.17297 0.17857
   3   2 -10   31.42    8.81  80 0.94070-0.72852-0.27887 0.55121-0.17042-0.41589
   4  -5   8   10.78    9.38  81 0.94076-0.64131-0.27844-0.39522-0.17079 0.64930
   4  -4   9    1.39   11.02  82 0.94149-0.63986-0.27243-0.26597-0.17601 0.71170
   4   0 -15   -0.06   12.72  81 0.94114-0.66173-0.27539 0.27867-0.17345-0.70660
   4   2 -12    9.24   10.61  81 0.94138-0.65778-0.27331 0.54577-0.17525-0.52835
   5  -5   9    2.66   12.23  80 0.94072-0.56647-0.27872-0.39875-0.17055 0.71378
   5  -4  10  -11.66   12.06  81 0.94118-0.56517-0.27506-0.26582-0.17373 0.77274
   5   1 -15   14.64   12.54  82 0.94141-0.58830-0.27312 0.41209-0.17542-0.70503
   5   4  -3   16.89    9.89  81 0.94124-0.57393-0.27451 0.81625-0.17421 0.00217
   6   3 -12    8.18   11.94  82 0.94133-0.50932-0.27381 0.68393-0.17482-0.52950
   7  -1  12   17.85   13.61  82 0.94149-0.41495-0.27238 0.13800-0.17606 0.89156
   8   1  11    6.68   16.77  85 0.94334-0.34347-0.25398 0.38848-0.19188 0.84752
   9   5  -1    8.41   13.52  81 0.94122-0.27732-0.27467 0.95048-0.17407 0.12479
   0  -4   0   20.61    9.08  82 0.94200-0.94367-0.26909-0.26977-0.17890 0.18097
   0  -3   2 1000.91   12.59  82 0.94170-0.94118-0.27172-0.13335-0.17662 0.29615
   0  -1   2  132.31    9.10  81 0.94155-0.94011-0.27300 0.13701-0.17551 0.29405
   0   0  -6  232.35   10.39  82 0.94172-0.94742-0.27159 0.27312-0.17673-0.17768
   1   0 -10   12.99    9.65  82 0.94209-0.87846-0.26824 0.26969-0.17963-0.40785
   2  -4   6    8.79    9.11  82 0.94211-0.79046-0.26808-0.27157-0.17977 0.53755
   2   0   6   59.02   10.38  83 0.94235-0.78926-0.26580 0.26533-0.18174 0.53805
   3  -7  -1    7.68   14.20  83 0.94262-0.72542-0.26316-0.67630-0.18401 0.13087
   3   3  -5   21.66    7.54  81 0.94155-0.72473-0.27305 0.67874-0.17547-0.11605
   3   3  -1   17.67    7.03  82 0.94162-0.71992-0.27242 0.67834-0.17601 0.11967
   4  -6   6    8.67   10.58  82 0.94167-0.64432-0.27201-0.53662-0.17637 0.53750
   4   1 -14   11.88   11.64  82 0.94206-0.66145-0.26849 0.40629-0.17942-0.64109
   4   3  -9    1.97    9.27  82 0.94203-0.65601-0.26876 0.67442-0.17918-0.34683
   5   4  -5   44.29   10.22  82 0.94221-0.57859-0.26714 0.80754-0.18058-0.10999
   5   4  -4   43.63    8.60  81 0.94155-0.57617-0.27305 0.81406-0.17547-0.05451
   5   4  -2  231.87    9.69  81 0.94160-0.57446-0.27260 0.81293-0.17586 0.06302
   6   4  -8    1.79    9.59  81 0.94154-0.50576-0.27315 0.81434-0.17538-0.28993
   6   4   2    3.63   11.60  82 0.94209-0.49679-0.26822 0.80721-0.17965 0.30335
   2  -6   1   -5.68   10.18  83 0.94279-0.79719-0.26225-0.54777-0.18486 0.24829
   2  -2   7  190.65   10.30  83 0.94272-0.79070-0.26296-0.00744-0.18425 0.59895
   3  -6   4   -1.22   10.59  83 0.94241-0.72046-0.26598-0.54345-0.18165 0.42351
   3   0 -14   17.26   11.95  84 0.94314-0.73636-0.25859 0.26165-0.18800-0.63559
   3   3  -6   43.94    8.44  83 0.94285-0.72676-0.26162 0.66735-0.18540-0.16466
   5   3 -11   36.34    9.73  82 0.94239-0.58417-0.26619 0.67282-0.18147-0.46197
   5   4  -1  296.75   10.95  83 0.94255-0.57445-0.26466 0.80424-0.18279 0.12877
   7  -2  12   15.98   13.20  84 0.94295-0.41681-0.26056-0.00866-0.18632 0.90192
   7   4 -10   -0.34   11.16  83 0.94248-0.43511-0.26533 0.80893-0.18221-0.40116
   9   5   0    9.94   12.67  83 0.94291-0.27782-0.26095 0.93799-0.18597 0.19552
   1  -5   1    7.06    9.09  84 0.94338-0.87092-0.25575-0.41662-0.19048 0.25208
   1  -2   5  122.77    9.11  84 0.94321-0.86611-0.25766-0.01284-0.18884 0.48519
   1   1  -8   85.62    7.92  83 0.94304-0.87673-0.25950 0.39660-0.18727-0.28299
   2  -6  -7   -3.99   14.87  85 0.94392-0.80625-0.24920-0.55926-0.19606-0.21336
   2  -5   4    9.40   10.60  84 0.94330-0.79498-0.25668-0.41793-0.18968 0.43011
   2   1 -11   12.80    9.22  84 0.94345-0.80649-0.25487 0.39154-0.19123-0.45481
   2   2  -8  164.63    8.78  83 0.94308-0.80250-0.25908 0.53054-0.18763-0.28188
   3  -5   6    5.14   10.29  84 0.94328-0.71876-0.25691-0.41602-0.18949 0.54792
   3  -2 -15   -0.92   15.16  85 0.94379-0.73884-0.25082-0.01578-0.19468-0.68601
   4   3   3   10.18   11.06  85 0.94371-0.64466-0.25184 0.65666-0.19381 0.37491
   5   4  -6    5.87    9.83  83 0.94308-0.57878-0.25911 0.79951-0.18760-0.16122
   6  -3  11    3.14   11.51  84 0.94360-0.49247-0.25318-0.15101-0.19267 0.84944
   6   4  -9   -3.76   10.96  84 0.94341-0.50945-0.25543 0.79591-0.19075-0.33292
   8   5  -4    4.47   12.74  83 0.94309-0.35564-0.25894 0.93277-0.18774-0.03975
   8   5  -3   19.88   12.50  84 0.94323-0.35481-0.25742 0.93319-0.18905 0.02030
   8   5  -2    6.90   12.71  84 0.94359-0.35420-0.25326 0.92941-0.19261 0.08287
   0  -4  -1    7.01    8.59  85 0.94380-0.94645-0.25050-0.28811-0.19496 0.13729
   3  -3   8  103.79    8.84  85 0.94364-0.71713-0.25241-0.15203-0.19333 0.66900
   3   1 -13    4.37   10.72  85 0.94395-0.73586-0.24846 0.38628-0.19669-0.56749
   3   2 -11   17.80    9.85  85 0.94390-0.73288-0.24910 0.52044-0.19615-0.44850
   3   3   0   78.82    9.02  85 0.94367-0.72127-0.25209 0.65704-0.19361 0.19719
   5   2 -14    9.56   11.66  85 0.94375-0.58810-0.25113 0.52375-0.19443-0.62554
   5   4   0   38.24    9.25  85 0.94396-0.57458-0.24830 0.78785-0.19683 0.20219
   6  -1  11   13.58   11.27  86 0.94405-0.49189-0.24709 0.11228-0.19786 0.85448
   7   4   4   33.73   13.59  86 0.94434-0.42369-0.24301 0.78258-0.20132 0.44421
   8   4   5   17.33   15.45  86 0.94427-0.34921-0.24406 0.78375-0.20042 0.50366
   8   5  -5    8.86   12.07  85 0.94392-0.35651-0.24891 0.92928-0.19631-0.09120
   0  -4  -5   49.08   12.27  87 0.94468-0.95164-0.23564-0.30277-0.20754-0.08541
   0  -2   2   43.12    6.79  85 0.94397-0.94299-0.24692-0.02213-0.19801 0.31608
   1  -5  -7    8.40   13.59  88 0.94485-0.88041-0.23239-0.43974-0.21027-0.19950
   1  -4   3   31.35    8.97  86 0.94436-0.86949-0.24113-0.29759-0.20291 0.38241
   2  -6   0    5.07   10.89  86 0.94406-0.80000-0.24567-0.56278-0.19907 0.20359
   3  -6   3    3.86   11.20  86 0.94425-0.72379-0.24286-0.56775-0.20145 0.38494
   3  -4   7   52.10    9.49  86 0.94426-0.71907-0.24281-0.29499-0.20149 0.61875
   3  -1 -15   11.26   13.55  86 0.94441-0.73941-0.24040 0.10856-0.20353-0.67688
   3  -1   8  330.00   10.89  86 0.94419-0.71640-0.24379 0.10995-0.20066 0.67583
   3   3  -7   88.12    7.45  85 0.94399-0.72967-0.24665 0.65212-0.19824-0.21091
   4  -6   5    4.94   13.22  86 0.94421-0.64796-0.24347-0.56541-0.20093 0.50321
   4  -5   7    1.99   10.40  85 0.94414-0.64502-0.24454-0.43212-0.20002 0.62179
   4  -3   9   -1.20   10.51  87 0.94441-0.64197-0.24040-0.16343-0.20352 0.73888
   4   3 -10    1.96    9.61  86 0.94417-0.65847-0.24413 0.65131-0.20037-0.38568
   5  -3  10   18.10   10.88  86 0.94427-0.56750-0.24264-0.16158-0.20164 0.79830
   5   4  -7    7.80    8.70  85 0.94405-0.58108-0.24584 0.78741-0.19893-0.20910
   6  -2  11    7.74   12.20  87 0.94454-0.49288-0.23821-0.03092-0.20538 0.86107
   6   3 -13   -0.82   11.42  86 0.94401-0.51465-0.24646 0.65417-0.19840-0.56234
   8   5  -6   11.62   12.52  86 0.94424-0.35837-0.24300 0.92220-0.20133-0.14484
   8   5  -1    2.28   12.67  87 0.94447-0.35408-0.23947 0.91963-0.20431 0.15419
   9   2  10   -0.52   21.27  87 0.94481-0.26977-0.23311 0.50529-0.20967 0.81305
   9   5   1   -5.16   14.91  87 0.94444-0.27873-0.23997 0.91768-0.20389 0.27259
   0  -4  -2    8.27    8.38  87 0.94459-0.94877-0.23724-0.30173-0.20621 0.08945
   0  -3   1  228.05    9.76  87 0.94463-0.94510-0.23655-0.16694-0.20679 0.26731
   0   0  -7  169.89   10.03  87 0.94458-0.95178-0.23751 0.23780-0.20598-0.20591
   1  -5   0    8.21    9.12  87 0.94468-0.87321-0.23571-0.43622-0.20749 0.21011
   3  -2   8   16.53    9.45  87 0.94474-0.71682-0.23460-0.03503-0.20843 0.68425
   4   2 -13    2.99   10.81  87 0.94463-0.66257-0.23655 0.51032-0.20679-0.55822
   5  -5   8   14.12   12.01  87 0.94464-0.57133-0.23635-0.43747-0.20696 0.68697
   5  -1  10   69.45   10.60  88 0.94489-0.56810-0.23153 0.09660-0.21100 0.80696
   5   3 -12    6.50   11.46  87 0.94467-0.58709-0.23580 0.64504-0.20742-0.49751
   6  -5   9   13.91   11.65  86 0.94445-0.49657-0.23962-0.43443-0.20420 0.74499
   6  -4  10    3.27   12.49  87 0.94475-0.49511-0.23434-0.30412-0.20865 0.80672
   6   4 -10   -1.29   11.47  87 0.94465-0.51140-0.23624 0.77628-0.20705-0.37478
   7   0  11   -4.22   14.61  88 0.94498-0.41940-0.22943 0.22868-0.21277 0.87028
   8  -1  12   -8.45   14.18  88 0.94481-0.34550-0.23311 0.09765-0.20968 0.92692
   9   0  12   -1.05   15.29  89 0.94512-0.27298-0.22608 0.22642-0.21556 0.92941
   0  -4  -4    5.38   10.13  89 0.94521-0.95073-0.22444-0.31361-0.21689-0.01766
   0  -4  -3    8.55    9.56  88 0.94511-0.94994-0.22714-0.31123-0.21464 0.03899
   0  -2  -9    8.65   14.43  90 0.94541-0.95548-0.21783-0.05045-0.22238-0.30750
   1  -3   4   25.20    8.16  88 0.94495-0.86946-0.23079-0.17350-0.21158 0.44922
   1   1  -9  159.55    9.96  88 0.94507-0.87978-0.22825 0.36535-0.21371-0.31594
   2  -6  -6   -7.75   13.99  89 0.94515-0.80658-0.22620-0.58143-0.21542-0.13456
   2  -6  -1   -2.14   10.85  88 0.94499-0.80105-0.23005-0.57708-0.21220 0.15727
   2  -4   5    5.80    8.76  88 0.94503-0.79471-0.22920-0.30939-0.21292 0.51103
   2  -3   6  124.35    9.49  88 0.94505-0.79368-0.22855-0.17615-0.21346 0.56992
   2   0 -13  -10.07   10.46  88 0.94504-0.81103-0.22894 0.22993-0.21313-0.55093
   2   2  -9   87.50    8.36  87 0.94484-0.80666-0.23319 0.50377-0.20957-0.31893
   3   3  -8    6.19    9.84  88 0.94507-0.73114-0.22819 0.63516-0.21376-0.25574
   4  -4   8    1.36    9.80  89 0.94515-0.64472-0.22603-0.30969-0.21556 0.68953
   4  -1   9   57.23    9.45  88 0.94507-0.64211-0.22816 0.09338-0.21379 0.74928
   5  -6   6    6.75   13.25  88 0.94500-0.57447-0.22976-0.57728-0.21245 0.57387
   5  -4   9    1.38   11.17  89 0.94515-0.56970-0.22603-0.31195-0.21556 0.75209
   5  -2  10    8.29    9.73  89 0.94515-0.56814-0.22611-0.04345-0.21550 0.81215
   5   3   5   46.75   15.15  90 0.94550-0.57109-0.21411 0.61897-0.22546 0.52541
   5   4  -8    3.76   10.55  88 0.94498-0.58274-0.23018 0.77301-0.21210-0.25552
   8  -2  12   -4.84   13.45  88 0.94503-0.34557-0.22916-0.04128-0.21295 0.93159
   8   5   0    1.65   12.09  88 0.94507-0.35380-0.22825 0.90511-0.21371 0.22237
   1  -5  -1   15.44    9.37  89 0.94539-0.87516-0.22052-0.45312-0.22022 0.16393
   1   0 -11   95.19   10.65  89 0.94539-0.88292-0.22080 0.22368-0.21999-0.42655
   2  -6  -5  -13.53   14.23  90 0.94551-0.80581-0.21600-0.59251-0.22397-0.06731
   2  -6  -2   -1.18   11.18  89 0.94537-0.80317-0.22138-0.58679-0.21951 0.10582
   2  -5   3  102.42    9.21  89 0.94519-0.79782-0.22651-0.44714-0.21523 0.39492
   2   2   2  155.65   13.28  90 0.94552-0.79547-0.21555 0.48509-0.22434 0.34468
   3  -5   5    6.92    9.98  89 0.94526-0.72202-0.22480-0.44931-0.21666 0.51698
   4  -2   9   11.19    9.15  89 0.94532-0.64299-0.22290-0.04646-0.21824 0.75365
   4   1 -15   16.87   12.24  89 0.94525-0.66524-0.22499 0.36271-0.21650-0.66332
   5   4   1   32.75   10.79  89 0.94540-0.57556-0.22037 0.75998-0.22035 0.28511
   6   4   3   -0.66   11.83  88 0.94525-0.49975-0.22486 0.76185-0.21661 0.39848
   7   5  -5    0.55   10.85  89 0.94534-0.43385-0.22227 0.89749-0.21876-0.06840
   7   5  -4    3.69   11.49  88 0.94524-0.43161-0.22532 0.90050-0.21622-0.01227
   7   5  -3    3.40   13.02  89 0.94537-0.43093-0.22137 0.89889-0.21951 0.04978
   9   4   6    9.32   18.57  90 0.94551-0.27567-0.21597 0.75526-0.22399 0.58688
   0  -1  -9   88.03   11.50  91 0.94564-0.95508-0.21074 0.07724-0.22829-0.30143
   1  -5  -6    4.88   12.06  92 0.94569-0.88001-0.20501-0.46663-0.23300-0.11763
   1  -2 -12    5.86   12.85  91 0.94566-0.88515-0.20940-0.05849-0.22939-0.47677
   2  -6  -4    6.79   12.00  91 0.94562-0.80535-0.21211-0.59563-0.22715-0.00461
   2  -6  -3    1.43   11.59  90 0.94559-0.80418-0.21401-0.59367-0.22559 0.05285
   2  -2 -14    6.28   14.11  90 0.94561-0.81260-0.21295-0.05390-0.22646-0.59413
   2   1 -12   13.61    9.99  90 0.94557-0.81016-0.21482 0.35183-0.22492-0.48110
   3  -6   2   14.45   10.54  90 0.94551-0.72587-0.21763-0.59046-0.22259 0.34607
   3   2 -12    3.65   10.38  91 0.94560-0.73693-0.21312 0.48629-0.22633-0.48023
   3   3   1   24.10    9.21  90 0.94557-0.72243-0.21482 0.61974-0.22492 0.28772
   4  -6   4   -0.09   11.82  90 0.94557-0.65022-0.21500-0.59345-0.22477 0.46750
   4   3 -11   -1.14    8.86  90 0.94546-0.66112-0.21937 0.62549-0.22115-0.42324
   4   4  -4   72.20    9.09  90 0.94559-0.65471-0.21377 0.75350-0.22579-0.00539
   5   4  -9   -0.36   10.61  90 0.94559-0.58479-0.21399 0.75593-0.22560-0.30033
   7  -3  11    6.55   12.26  90 0.94549-0.42095-0.21820-0.18599-0.22213 0.88129
   7   5  -6    2.01   11.66  90 0.94556-0.43407-0.21534 0.89222-0.22449-0.12220
   7   5  -2   14.36   11.28  90 0.94556-0.43012-0.21559 0.89282-0.22428 0.11365
   9   5   2    6.61   14.02  91 0.94563-0.27851-0.21127 0.88834-0.22785 0.35593
   1  -5  -2   -2.38    9.05  91 0.94565-0.87647-0.20838-0.46715-0.23018 0.11463
   1  -4   2   95.83    9.46  91 0.94565-0.87187-0.20865-0.32966-0.22996 0.35084
   1  -1 -12   21.77   11.30  92 0.94567-0.88527-0.20575 0.07238-0.23234-0.47404
   1   2  -4  675.87   12.11  91 0.94563-0.87515-0.21065 0.48058-0.22831-0.00635
   2  -1 -14   10.56   12.81  92 0.94568-0.81321-0.20515 0.07242-0.23283-0.59098
   3   0 -15   -9.29   12.37  91 0.94565-0.73990-0.20894 0.20999-0.22972-0.65115
   3   1 -14    4.90   11.22  91 0.94564-0.73809-0.20922 0.34594-0.22948-0.59086
   3   1   6  191.22   14.94  93 0.94566-0.71865-0.19659 0.33145-0.23983 0.59686
   3   3  -9    9.13    9.68  91 0.94563-0.73210-0.21039 0.61599-0.22852-0.29887
   4   4  -5   -6.04    9.64  91 0.94564-0.65493-0.20984 0.75168-0.22898-0.06230
   4   4  -3    0.24    9.36  92 0.94565-0.65237-0.20861 0.75237-0.22999 0.05641
   5   3 -13   -0.65   12.55  91 0.94565-0.59020-0.20905 0.61544-0.22962-0.53112
   6   2   8   52.49   18.64  97 0.94493-0.49439-0.17102 0.44088-0.26044 0.73863
   6   4 -11    6.40   10.26  91 0.94561-0.51333-0.21197 0.75458-0.22722-0.41559
   7   1  10   -0.99   12.84  92 0.94568-0.42007-0.20129 0.33677-0.23599 0.83410
   7   5  -7    1.38   12.45  91 0.94565-0.43599-0.20849 0.88307-0.23009-0.17449
   7   5  -1    7.43   11.80  91 0.94566-0.42952-0.20751 0.88163-0.23089 0.17918
   8   5   1    9.51   12.86  91 0.94567-0.35351-0.20609 0.88212-0.23206 0.29969
   9   1  11    5.98   16.38  93 0.94567-0.27294-0.19836 0.33386-0.23838 0.89640
   0  -3   0    1.44    8.24  92 0.94566-0.94739-0.20295-0.20184-0.23461 0.23545
   0   0  -8  206.07   10.40  92 0.94566-0.95330-0.20175 0.20395-0.23559-0.23609
   1  -5  -5   15.30   12.11  93 0.94562-0.87950-0.19512-0.47776-0.24100-0.05080
   1  -5  -3    9.83   10.55  93 0.94564-0.87766-0.19786-0.47614-0.23877 0.06417
   1   2  -5   97.74    7.46  91 0.94564-0.87601-0.20606 0.47681-0.23207-0.06189
   1   2  -3  159.24    8.15  91 0.94564-0.87421-0.20636 0.47693-0.23182 0.05602
   2  -5 -10    4.16   20.53  95 0.94535-0.81137-0.18232-0.49045-0.25136-0.33547
   2  -2   6  188.85    9.89  92 0.94566-0.79355-0.20231-0.06812-0.23514 0.59152
   2  -1   6    7.37    8.68  92 0.94566-0.79286-0.20198 0.06709-0.23541 0.59161
   2   2 -10   -3.06    7.49  91 0.94564-0.80752-0.20654 0.47789-0.23167-0.35619
   3  -4   6  164.27    9.70  92 0.94565-0.72125-0.20040-0.33907-0.23670 0.59380
   3  -3   7   43.29    9.16  92 0.94566-0.71971-0.20087-0.20402-0.23632 0.65248
   3   0   7   58.81   10.48  92 0.94565-0.71781-0.20052 0.20047-0.23660 0.65320
   4  -5   6   13.27    9.33  92 0.94565-0.64773-0.20534-0.46814-0.23266 0.59275
   4   2 -14    6.82   11.39  92 0.94566-0.66440-0.20212 0.47497-0.23529-0.58718
   4   4  -6   -0.44    9.99  92 0.94566-0.65593-0.20316 0.74527-0.23444-0.11591
   4   4  -2   48.49    9.62  92 0.94565-0.65104-0.20457 0.74488-0.23329 0.12027
   6   0  10   41.24   12.03  93 0.94563-0.49407-0.19581 0.19694-0.24044 0.83744
   7  -4  10   13.08   12.81  92 0.94566-0.42213-0.20146-0.33725-0.23583 0.83545
   0  -2   1  292.16   10.94  93 0.94565-0.94567-0.19378-0.07519-0.24203 0.30104
   1  -5  -4   17.33   11.53  94 0.94564-0.87848-0.19256-0.48020-0.24302 0.01075
   1  -2   4  377.44    9.49  93 0.94570-0.86938-0.19933-0.07067-0.23751 0.47470
   1  -1   4  171.20    8.87  93 0.94570-0.86885-0.19834 0.06306-0.23832 0.47559
   1   1 -10    8.46    9.77  93 0.94568-0.88124-0.19660 0.33258-0.23974-0.34851
   1   2  -6   16.40    8.98  93 0.94568-0.87723-0.19624 0.46703-0.24003-0.11334
   2  -5   2   32.91    8.42  93 0.94570-0.79936-0.19845-0.47435-0.23823 0.35965
   3  -6   1    8.58   11.13  93 0.94567-0.72647-0.19514-0.61262-0.24092 0.30513
   4   4  -7   -2.49    9.84  92 0.94570-0.65653-0.19906 0.73570-0.23773-0.16876
   5  -6   5   -0.37   10.81  93 0.94570-0.57491-0.19940-0.60896-0.23745 0.54010
   5  -5   7    9.35   10.85  93 0.94570-0.57328-0.19834-0.47589-0.23831 0.65953
   5   2   7   42.87   21.31 101 0.94312-0.56730-0.14440 0.41440-0.28136 0.69980
   5   4 -10    9.96   10.83  93 0.94566-0.58628-0.19475 0.73688-0.24124-0.34359
   6  -5   8   -4.24   11.31  93 0.94570-0.49811-0.19906-0.47530-0.23773 0.71877
   6  -3  10   24.18    9.36  93 0.94570-0.49552-0.19871-0.20538-0.23802 0.83623
   7  -2  11    9.65   12.10  93 0.94567-0.42129-0.19517-0.07319-0.24090 0.89690
   7  -1  11   -2.44   11.62  93 0.94568-0.42037-0.19601 0.06046-0.24021 0.89779
   7   5  -8   -3.42   13.45  92 0.94570-0.43758-0.19906 0.87153-0.23773-0.22444
   0  -1   1  226.64   12.22  94 0.94558-0.94516-0.18798 0.05303-0.24663 0.30551
   1   2  -2  101.49    8.61  93 0.94567-0.87308-0.19295 0.46319-0.24260 0.12627
   2  -4   4   36.12    7.39  94 0.94565-0.79792-0.19161-0.34581-0.24369 0.48281
   2   3  -5  163.53    9.62  94 0.94557-0.80293-0.18751 0.59224-0.24701-0.04601
   2   3  -4  265.34   10.30  94 0.94563-0.80126-0.19020 0.59476-0.24483 0.01092
   3  -5   4    3.76   10.16  94 0.94565-0.72361-0.19170-0.48241-0.24361 0.48481
   3   3 -10   13.08    9.93  94 0.94557-0.73334-0.18733 0.59369-0.24716-0.33978
   4  -6   3    1.86   11.52  93 0.94564-0.65149-0.19112-0.62111-0.24408 0.42912
   4  -3   8    5.58   10.03  94 0.94562-0.64501-0.18991-0.21470-0.24507 0.72345
   4   3 -12    0.98   10.34  94 0.94566-0.66227-0.19207 0.59819-0.24331-0.46014
   4   4  -1   11.56    9.69  94 0.94562-0.65020-0.18995 0.72987-0.24504 0.19000
   5  -3   9   16.47   10.52  94 0.94559-0.56991-0.18815-0.21492-0.24650 0.78430
   6  -4   9    7.85   11.78  93 0.94563-0.49661-0.19032-0.35046-0.24474 0.78700
   7   5   0   -0.03   12.51  93 0.94566-0.42955-0.19224 0.86348-0.24318 0.25011
   1  -3   3   81.24    7.30  95 0.94557-0.87043-0.18504-0.21957-0.24901 0.42787
   1   2  -7  163.89    9.61  95 0.94550-0.87783-0.18243 0.45311-0.25111-0.16108
   2   0 -14   -7.56   11.95  96 0.94535-0.81188-0.17827 0.17883-0.25446-0.56868
   2   3  -6   70.50    8.78  95 0.94546-0.80300-0.18115 0.58686-0.25215-0.10009
   2   3  -3  102.41    8.13  94 0.94558-0.80020-0.18533 0.59027-0.24878 0.07381
   3   2 -13   -0.91   11.36  95 0.94548-0.73706-0.18209 0.45293-0.25139-0.51225
   4  -4   7   11.46    7.71  94 0.94559-0.64639-0.18588-0.35308-0.24833 0.66729
   4   4  -8   14.92   10.22  95 0.94550-0.65699-0.18266 0.72324-0.25093-0.21673
   5  -4   8   -0.09   10.97  95 0.94548-0.57141-0.18209-0.35756-0.25139 0.73060
   5   0   9   10.29   10.59  96 0.94527-0.56851-0.17615 0.17651-0.25616 0.79308
   5   4   2  171.06   12.64  95 0.94539-0.57383-0.17912 0.71895-0.25378 0.37738
   6   5  -6   -0.12   11.76  95 0.94546-0.50822-0.18119 0.85519-0.25212-0.09466
   6   5  -5   11.53   11.02  95 0.94554-0.50660-0.18380 0.85985-0.25001-0.03866
   6   5  -4   21.78   11.14  95 0.94556-0.50559-0.18472 0.86041-0.24927 0.01961
   6   5  -3    5.54   11.24  95 0.94544-0.50455-0.18073 0.85664-0.25248 0.08177
   8   0  11   -6.14   12.83  96 0.94535-0.34608-0.17818 0.17795-0.25453 0.91467
   0   1  -5   88.69    9.44  96 0.94514-0.94938-0.17381 0.31003-0.25808-0.03691
   0   1  -4  141.04    9.79  96 0.94520-0.94817-0.17533 0.31209-0.25687 0.02085
   1  -4   1   47.91    9.09  96 0.94529-0.87336-0.17749-0.36145-0.25514 0.31580
   1   0 -12    7.55   10.95  97 0.94492-0.88453-0.16924 0.17104-0.26173-0.44789
   2  -3   5  107.69    7.59  95 0.94535-0.79483-0.17906-0.22548-0.25388 0.55143
   2   1 -13   17.64   11.39  96 0.94523-0.81029-0.17607 0.31256-0.25627-0.50802
   2   2 -11   23.19   10.24  96 0.94531-0.80804-0.17802 0.44917-0.25471-0.39211
   2   3  -2  377.18   10.68  96 0.94510-0.79796-0.17287 0.57867-0.25884 0.14366
   3  -6   0    5.73   11.88  96 0.94513-0.72658-0.17368-0.63269-0.25819 0.26289
   4   0   8   66.47    8.96  96 0.94519-0.64292-0.17507 0.17518-0.25708 0.73380
   5   4 -11   15.32   11.68  96 0.94523-0.58637-0.17601 0.71601-0.25632-0.38587
   6  -2  10   13.28   10.36  96 0.94522-0.49439-0.17580-0.09376-0.25649 0.85605
   6   5  -2   -0.29   12.39  96 0.94519-0.50366-0.17511 0.84797-0.25704 0.14540
   8   5   2   28.75   13.72  96 0.94508-0.35235-0.17241 0.84769-0.25920 0.38630
   9   5   3   10.49   15.71  97 0.94481-0.27705-0.16706 0.84407-0.26347 0.45101
   0  -3  -1  224.18   10.40  97 0.94473-0.94694-0.16702-0.23756-0.26345 0.20454
   0   0  -9   49.83   10.00  97 0.94462-0.95331-0.16501 0.16694-0.26505-0.26582
   2  -5   1    4.47    8.17  97 0.94496-0.79921-0.17154-0.50186-0.25985 0.32245
   2   3  -7   28.70    6.91  97 0.94495-0.80310-0.17141 0.57695-0.25995-0.15130
   3  -2   7    5.96    7.49  96 0.94498-0.71830-0.17206-0.09759-0.25944 0.67700
   4  -5   5   34.85   10.27  97 0.94483-0.64844-0.16903-0.50378-0.26185 0.56259
   4   2 -15    4.68   12.69  97 0.94466-0.66444-0.16575 0.43799-0.26446-0.61581
   4   4  -9   -4.65   10.16  97 0.94477-0.65812-0.16779 0.70754-0.26284-0.26297
   4   4   0   45.29    9.77  97 0.94461-0.64851-0.16491 0.70475-0.26513 0.26917
   5  -6   4   15.93   12.45  97 0.94481-0.57613-0.16861-0.63776-0.26218 0.50512
   6  -1  10   12.22   10.80  98 0.94470-0.49358-0.16648 0.03235-0.26388 0.86038
   6   1   9   -1.28   12.89  97 0.94469-0.49298-0.16640 0.30310-0.26394 0.80573
   6   5  -7    3.90   11.05  97 0.94497-0.50859-0.17188 0.84816-0.25958-0.14693
   0   1  -6  124.33    8.03  97 0.94466-0.94970-0.16457 0.30111-0.26543-0.08897
   0   1  -3  260.66    9.92  98 0.94466-0.94660-0.16471 0.30143-0.26532 0.08805
   1   1 -11   12.19    9.43  98 0.94440-0.88164-0.16032 0.29672-0.26880-0.37964
   1   2  -8   23.41    7.39  97 0.94467-0.87834-0.16488 0.43560-0.26519-0.20502
   1   2  -1  386.46   10.40  98 0.94466-0.87034-0.16465 0.43562-0.26537 0.20787
   2  -3 -14    1.41   19.26 102 0.94197-0.81070-0.13212-0.27112-0.29087-0.53365
   3  -6  -1   -2.10   12.62  99 0.94426-0.72707-0.15824-0.65051-0.27045 0.21620
   3  -1   7  571.26   12.04  98 0.94455-0.71746-0.16287 0.02834-0.26678 0.68363
   3   1 -15   11.37   11.36  98 0.94461-0.73811-0.16375 0.30082-0.26608-0.61542
   3   3 -11    5.80   10.68  98 0.94446-0.73363-0.16129 0.56944-0.26803-0.37991
   4  -6   2   -2.12   11.70  98 0.94450-0.65128-0.16200-0.64618-0.26747 0.39181
   4  -2   8    2.93    9.07  98 0.94449-0.64305-0.16183-0.10857-0.26761 0.74763
   4   3 -13   -2.81   12.02  98 0.94458-0.66167-0.16337 0.57011-0.26638-0.49617
   5  -5   6    8.92   10.38  99 0.94429-0.57282-0.15870-0.51436-0.27008 0.63102
   5  -2   9   52.71   10.28  98 0.94438-0.56830-0.16015-0.10879-0.26894 0.80634
   6  -6   5    4.93   13.22  97 0.94462-0.50160-0.16404-0.64529-0.26585 0.57081
   6   5  -8   16.01   13.35  98 0.94456-0.50833-0.16295 0.83838-0.26672-0.19847
   7  -3  10    0.52   11.37  98 0.94438-0.42081-0.16008-0.24321-0.26899 0.86754
   7   5   1   12.07   12.34  98 0.94433-0.42600-0.15930 0.83483-0.26961 0.33617
   8  -2  11   -3.93   12.76  99 0.94426-0.34568-0.15824-0.10970-0.27045 0.92628
   0  -1 -10   18.55   10.76  99 0.94385-0.95427-0.15222 0.01846-0.27523-0.31412
   2   3  -8    7.20    7.49  99 0.94426-0.80326-0.15791 0.56328-0.27075-0.19913
   3  -6  -8   -0.60   15.90  99 0.94382-0.73461-0.15177-0.65673-0.27558-0.19177
   3  -5   3    0.10    8.70  99 0.94431-0.72266-0.15862-0.51560-0.27018 0.45204
   3  -4   5  241.77    8.95  99 0.94431-0.72089-0.15855-0.38032-0.27024 0.56961
   3   0 -16   -5.53   13.56  99 0.94403-0.73917-0.15463 0.15538-0.27334-0.66727
   3   3   2   44.31   10.34  99 0.94393-0.71983-0.15322 0.55788-0.27445 0.39633
   5  -1   9   17.89    9.70  99 0.94382-0.56747-0.15176 0.01737-0.27559 0.81350
   6  -5   7    4.79    9.80  99 0.94427-0.49822-0.15802-0.51464-0.27066 0.69160
   6   5  -1   12.47   10.82  99 0.94422-0.50117-0.15723 0.83280-0.27129 0.21851
   7  -4   9    1.11   12.57  99 0.94401-0.42124-0.15429-0.38572-0.27361 0.81506
   7   4   5    7.88   15.24 100 0.94338-0.42147-0.14638 0.68664-0.27981 0.58219
   8  -1  11    6.40   11.96  99 0.94407-0.34502-0.15515 0.02140-0.27293 0.93236
   0   1  -7  156.97    9.47 100 0.94366-0.94979-0.14958 0.28581-0.27738-0.13513
   1  -4   0   67.30    9.00 100 0.94332-0.87192-0.14555-0.39281-0.28053 0.28280
   1  -1 -13   16.63   12.39 100 0.94318-0.88338-0.14398 0.01117-0.28176-0.48307
   2  -5   0   17.11    9.29 100 0.94344-0.79881-0.14695-0.52707-0.27943 0.28295
   2  -4   3   18.82    8.11 100 0.94383-0.79566-0.15180-0.38703-0.27563 0.45579
   2  -1 -15    1.34   14.29 100 0.94341-0.81052-0.14655 0.01402-0.27975-0.59888
   2   2 -12   32.20   11.02 100 0.94352-0.80699-0.14793 0.41932-0.27867-0.42677
   2   3  -1  205.38    9.61 100 0.94372-0.79589-0.15033 0.55515-0.27679 0.22037
   3  -3   6   35.52    8.61 100 0.94358-0.71947-0.14858-0.25544-0.27816 0.63527
   3   2 -14   -0.12   11.58 100 0.94349-0.73608-0.14758 0.41811-0.27895-0.54296
   4  -1   8   21.78    9.13 100 0.94351-0.64213-0.14771 0.01347-0.27884 0.75563
   4   3   4    4.96   13.19 102 0.94212-0.64236-0.13305 0.53887-0.29026 0.53093
   4   4 -10   -3.07   10.38 100 0.94357-0.65740-0.14849 0.69037-0.27823-0.30826
   5   4 -12    1.02   11.27 100 0.94381-0.58616-0.15146 0.69303-0.27590-0.42677
   6   4   4   19.10   12.31 101 0.94301-0.49570-0.14201 0.68244-0.28329 0.52537
   6   5  -9   -2.09   13.66 100 0.94355-0.50845-0.14826 0.82590-0.27841-0.24675
   1   0   3   17.62   11.07 101 0.94262-0.86631-0.13840 0.13839-0.28613 0.46420
   1   2  -9  117.85    8.11 100 0.94321-0.87774-0.14473 0.41566-0.28120-0.24781
   2   0   5    2.37    8.21 101 0.94290-0.79082-0.14131 0.14139-0.28387 0.58123
   2   3  -9   23.51    9.91 101 0.94282-0.80347-0.14045 0.54615-0.28454-0.24420
   3  -6  -2    0.61   10.52 101 0.94295-0.72668-0.14188-0.66535-0.28343 0.17024
   3   4  -6   13.31    9.75 101 0.94299-0.72597-0.14223 0.68282-0.28315-0.06796
   3   4  -5   36.26    8.26 100 0.94323-0.72584-0.14498 0.68513-0.28101-0.01101
   3   4  -4   15.66    8.99 100 0.94314-0.72420-0.14394 0.68407-0.28182 0.04874
   4  -4   6    6.71    9.71 101 0.94281-0.64450-0.14037-0.39812-0.28461 0.64404
   4   1   7   12.50   10.86 102 0.94230-0.64055-0.13513 0.27047-0.28868 0.70653
   5  -6   3   16.33   13.26 101 0.94297-0.57544-0.14209-0.66669-0.28326 0.46814
   5   1   8   92.46   13.95 103 0.94175-0.56551-0.12996 0.26565-0.29268 0.77005
   5   5  -5    6.79   11.03 101 0.94286-0.57740-0.14082 0.81426-0.28425-0.00501
   6  -4   8    9.14   10.95 102 0.94263-0.49506-0.13842-0.39908-0.28612 0.76502
   6  -3   9   16.98   10.51 101 0.94302-0.49419-0.14257-0.26112-0.28289 0.82184
   9   0  11   11.63   14.35 101 0.94272-0.26880-0.13936 0.14103-0.28539 0.94780
   0  -3  -2 1011.69   15.80 102 0.94221-0.94550-0.13440-0.27004-0.28934 0.17183
   0  -2 -10   28.84   15.06 104 0.94066-0.95108-0.12079-0.14778-0.29983-0.28875
   0  -2   0  398.94   11.84 102 0.94224-0.94338-0.13477-0.13532-0.28905 0.28890
   0   1  -2  130.01   10.58 102 0.94214-0.94308-0.13377 0.27066-0.28983 0.17197
   1  -3   2    6.55    6.73 102 0.94257-0.86845-0.13804-0.26616-0.28651 0.40631
   1  -2 -13    6.47   13.89 104 0.94061-0.88089-0.12044-0.14744-0.30010-0.46517
   1  -2   3  176.91    9.32 102 0.94235-0.86690-0.13585-0.13449-0.28822 0.46665
   2  -2   5   56.72    7.37 102 0.94257-0.79191-0.13805-0.13142-0.28650 0.58395
   2   1 -14    6.79   11.43 102 0.94227-0.80828-0.13502 0.27187-0.28886-0.53459
   3  -6  -7    4.98   13.62 102 0.94209-0.73168-0.13326-0.67588-0.29022-0.11823
   3  -6  -3   11.03   11.68 103 0.94155-0.72617-0.12832-0.67720-0.29404 0.12238
   3   3 -12    4.09   10.23 102 0.94251-0.73238-0.13740 0.54446-0.28701-0.41836
   3   4  -7   15.14    9.89 102 0.94222-0.72633-0.13450 0.67609-0.28926-0.12131
   3   4  -3    1.11    9.37 102 0.94242-0.72256-0.13653 0.67687-0.28768 0.11345
   4  -6   1    0.48    9.00 102 0.94253-0.64980-0.13760-0.67099-0.28685 0.35204
   4  -5   4   25.59   10.53 102 0.94208-0.64625-0.13320-0.54013-0.29027 0.53168
   4  -3   7   13.84    9.68 102 0.94220-0.64248-0.13430-0.26981-0.28941 0.70784
   4   3 -14   -5.40   12.75 102 0.94218-0.66066-0.13410 0.53987-0.28957-0.53098
   5  -4   7   59.96    9.98 102 0.94235-0.57047-0.13578-0.40354-0.28827 0.70770
   5  -3   8    1.46   10.08 102 0.94202-0.56766-0.13259-0.27119-0.29074 0.76900
   5   5  -6    3.86   11.38 101 0.94251-0.57772-0.13744 0.81250-0.28698-0.06171
   5   5  -4   -0.77   10.11 102 0.94244-0.57590-0.13674 0.81256-0.28752 0.05650
   6   5   0   24.14   10.55 102 0.94203-0.49809-0.13275 0.80892-0.29062 0.29758
   7   0  10    9.75   12.17 103 0.94160-0.41644-0.12876 0.12950-0.29370 0.89236
   8   1  10   10.68   14.07 103 0.94124-0.34181-0.12561 0.26167-0.29613 0.89592
   0   0 -10    1.42    8.27 103 0.94159-0.95091-0.12863 0.12970-0.29384-0.29539
   0   1  -8   82.87    9.02 103 0.94177-0.94905-0.13020 0.26620-0.29263-0.17944
   1  -3 -12    2.18   21.74 107 0.93719-0.87683-0.09632-0.30653-0.31845-0.38686
   1   0 -13    7.15    9.93 103 0.94128-0.88072-0.12592 0.12779-0.29593-0.47001
   1   1 -12   25.41    9.30 103 0.94134-0.87924-0.12640 0.26255-0.29556-0.41048
   2  -5  -9    4.59   16.11 105 0.93969-0.80369-0.11327-0.55982-0.30562-0.22171
   2  -3   4  306.33    9.79 103 0.94154-0.79183-0.12820-0.27573-0.29417 0.53374
   2  -2 -15   -2.75   15.99 104 0.94068-0.80865-0.12093-0.14824-0.29976-0.58309
   2   0 -15    1.25   12.11 102 0.94167-0.80807-0.12934 0.13129-0.29329-0.58721
   3  -6  -6    3.42   14.84 104 0.94084-0.72887-0.12218-0.68614-0.29880-0.05008
   3  -6  -4    2.79   12.83 103 0.94102-0.72727-0.12368-0.68456-0.29766 0.06704
   3  -5   2   12.06   10.68 103 0.94142-0.72116-0.12714-0.54661-0.29499 0.41804
   4   4 -11   13.29   11.49 104 0.94121-0.65633-0.12534 0.67114-0.29638-0.35229
   4   4   1   83.02    9.33 103 0.94141-0.64457-0.12699 0.66712-0.29511 0.35712
   5   5  -7    8.87   10.36 102 0.94186-0.57826-0.13104 0.80701-0.29198-0.11608
   5   5  -3   13.84   10.04 103 0.94180-0.57428-0.13053 0.80597-0.29237 0.12015
   6  -6   4   10.84   11.91 102 0.94188-0.49931-0.13119-0.67644-0.29186 0.53670
   7  -5   7    0.60   12.43 103 0.94144-0.42087-0.12725-0.54750-0.29490 0.71847
   7  -2  10   24.00   11.56 103 0.94178-0.41782-0.13031-0.13862-0.29254 0.89135
   8  -4   9   -9.15   13.24 103 0.94138-0.34484-0.12679-0.41343-0.29526 0.83834
   8  -3  10   -1.67   12.46 104 0.94106-0.34571-0.12403-0.27641-0.29738 0.89180
   8   4   6   12.13   20.62 106 0.93884-0.34228-0.10716 0.64767-0.31026 0.67239
   8   5   3   16.82   14.89 104 0.94059-0.34613-0.12016 0.79675-0.30035 0.48585
   9  -1  11    5.92   14.49 104 0.94062-0.26806-0.12043-0.01301-0.30015 0.95877
   1   2 -10   29.68    8.57 104 0.94088-0.87571-0.12260 0.39340-0.29861-0.29048
   2  -5  -1   90.09    9.70 104 0.94101-0.79724-0.12371-0.54991-0.29776 0.24346
   2   3 -10   -3.05    9.73 104 0.94072-0.80184-0.12135 0.52774-0.29957-0.28879
   3  -6  -5    1.98   13.22 104 0.94046-0.72759-0.11920-0.68837-0.30122 0.01155
   3   4  -8    4.56    7.68 103 0.94113-0.72620-0.12472 0.66611-0.29698-0.17240
   3   4  -2  152.01    9.83 104 0.94093-0.72008-0.12303 0.66297-0.29828 0.18263
   5  -5   5   18.43   10.73 104 0.94072-0.57063-0.12129-0.55179-0.29961 0.60181
   5   4   3  241.54   14.14 105 0.93980-0.56752-0.11417 0.65436-0.30506 0.48615
   5   5  -8    5.27   11.74 104 0.94052-0.57765-0.11968 0.79897-0.30085-0.16771
   5   5  -2   -2.22   10.45 103 0.94106-0.57281-0.12411 0.79390-0.29745 0.18434
   6  -5   6   10.24   10.67 104 0.94040-0.49539-0.11879-0.55390-0.30153 0.66360
   7   5   2    3.67   13.05 104 0.94036-0.42014-0.11846 0.79454-0.30178 0.42688
   1  -4  -1   73.36    8.74 105 0.94001-0.86896-0.11553-0.42366-0.30405 0.24821
   1   2   0  483.56   12.67 105 0.93939-0.86445-0.11089 0.38128-0.30759 0.30867
   2  -4   2    4.51    9.02 105 0.93957-0.79230-0.11219-0.42610-0.30660 0.42775
   2  -1   5  119.16    9.85 105 0.94000-0.78847-0.11547-0.01894-0.30409 0.60203
   2   2 -13   15.51    9.80 104 0.94012-0.80409-0.11639 0.38809-0.30339-0.46141
   2   3   0  171.27    9.84 105 0.93953-0.79071-0.11196 0.51734-0.30677 0.30825
   3  -4   4  -10.46    8.47 105 0.93987-0.71695-0.11442-0.42395-0.30489 0.54478
   3   2 -15   -9.58   12.45 105 0.93965-0.73207-0.11281 0.38328-0.30612-0.57381
   3   4  -9    0.25    9.93 105 0.93950-0.72526-0.11173 0.65327-0.30694-0.22154
   4  -6   0    7.71   11.27 105 0.93981-0.64871-0.11399-0.69276-0.30523 0.31162
   5  -6   2    4.00   12.69 105 0.93956-0.57249-0.11213-0.69437-0.30664 0.43178
   7  -1  10    3.62   10.21 106 0.93936-0.41656-0.11067-0.02271-0.30775 0.90203
   8   2   9    2.93   17.38 108 0.93697-0.33789-0.09474 0.36596-0.31979 0.86016
   0  -3  -3  182.47   11.29 107 0.93815-0.94242-0.10305-0.30123-0.31358 0.13799
   0   1  -9   85.95    9.45 106 0.93886-0.94706-0.10787 0.24389-0.30992-0.22037
   1  -4  -9   21.50   18.52 110 0.93416-0.87145-0.07918-0.45857-0.33143-0.19646
   1   1   2  189.46   24.16 110 0.93387-0.85752-0.07761 0.21292-0.33260 0.45206
   3   3 -13   -8.24   10.28 106 0.93921-0.73017-0.11042 0.51702-0.30798-0.45636
   4   4 -12    7.98   11.79 105 0.93911-0.65363-0.10964 0.65045-0.30858-0.39451
   5   5  -9   11.01   10.31 106 0.93917-0.57736-0.11013 0.78747-0.30821-0.21819
   6  -2   9   10.26   10.48 106 0.93854-0.48915-0.10572-0.16304-0.31156 0.84936
   7  -4   8   28.49   11.78 106 0.93844-0.41722-0.10501-0.43345-0.31209 0.79362
   7  -3   9    4.77   10.83 107 0.93814-0.41568-0.10300-0.30012-0.31361 0.85281
   0  -1 -11   31.53   11.23 107 0.93729-0.94873-0.09758-0.03616-0.31776-0.33000
   1  -1   3  335.00   10.63 107 0.93823-0.86217-0.10371-0.03123-0.31314 0.49158
   1   2 -11    6.00    9.59 107 0.93751-0.87287-0.09897 0.36944-0.31672-0.32993
   2  -5  -2   57.64    9.21 107 0.93809-0.79529-0.10272-0.57064-0.31389 0.20109
   2   1   4  352.11   23.40 110 0.93348-0.78184-0.07567 0.21099-0.33410 0.57214
   2   3 -11    1.12   10.69 107 0.93767-0.80025-0.10003 0.50591-0.31592-0.33123
   3  -2   6  247.75    8.72 107 0.93823-0.71265-0.10371-0.16508-0.31314 0.67094
   3   4  -1  525.57   12.44 107 0.93768-0.71623-0.10005 0.64001-0.31590 0.25849
   4  -5   3   52.63   10.09 107 0.93741-0.64218-0.09830-0.57438-0.31722 0.50095
   5   5  -1   12.38   10.10 107 0.93730-0.56767-0.09763 0.77389-0.31772 0.26356
   6  -6   3   -0.52   12.61 107 0.93776-0.49608-0.10061-0.70632-0.31548 0.50086
   6   5   1    1.88   10.81 108 0.93715-0.49210-0.09667 0.77444-0.31845 0.38402
   0  -3  -7   30.40   18.10 114 0.92879-0.93683-0.05314-0.35036-0.35056-0.06082
   0   0 -11    1.27   10.18 108 0.93633-0.94628-0.09191 0.09319-0.32201-0.32447
   1   1 -13   24.00   11.16 108 0.93599-0.87454-0.08989 0.22658-0.32352-0.44199
   2   1 -15    1.07   12.20 108 0.93651-0.80376-0.09299 0.22900-0.32119-0.56165
   3  -5   1   12.30    8.34 108 0.93703-0.71774-0.09623-0.57716-0.31877 0.38273
   3  -3   5   97.25    8.95 108 0.93673-0.71281-0.09435-0.30978-0.32018 0.61921
   3   4 -10    1.94    9.34 108 0.93707-0.72455-0.09646 0.63753-0.31859-0.26840
   4  -6  -1    7.64   11.79 108 0.93687-0.64674-0.09520-0.71328-0.31954 0.26720
   4  -4   5   93.17    7.95 108 0.93699-0.64020-0.09596-0.44228-0.31897 0.61997
   4  -2   7  216.07   10.32 108 0.93607-0.63580-0.09037-0.17789-0.32315 0.74129
   5  -2   8   82.68    9.85 108 0.93647-0.56174-0.09274-0.17630-0.32138 0.79964
   5   5 -10    6.41   11.32 107 0.93718-0.57632-0.09715 0.77399-0.31807-0.26689
   6  -4   7    3.41   10.40 109 0.93602-0.48916-0.09008-0.44698-0.32337 0.74272
   6   0   9   -2.15   11.08 108 0.93628-0.48572-0.09160 0.09225-0.32223 0.86060
   8  -2  10    4.95   12.40 108 0.93688-0.33914-0.09529-0.17332-0.31947 0.91944
   1  -4  -2   20.80    9.03 109 0.93576-0.86618-0.08841-0.45016-0.32467 0.21071
   1  -3   1  384.17    9.45 109 0.93601-0.86288-0.08987-0.31416-0.32357 0.38500
   1  -1 -14   -0.04   12.69 110 0.93475-0.87520-0.08262-0.05164-0.32898-0.49563
   1   3  -7   13.28    8.45 109 0.93502-0.86683-0.08412 0.49027-0.32786-0.08486
   1   3  -6   11.80    7.21 108 0.93604-0.86654-0.09003 0.49542-0.32346-0.02995
   1   3  -5    3.42    7.23 108 0.93605-0.86557-0.09012 0.49534-0.32339 0.02896
   2  -5  -8   13.60   13.09 110 0.93395-0.79732-0.07826-0.59396-0.33221-0.13541
   2  -5  -3    5.86    9.69 110 0.93485-0.79276-0.08320-0.58926-0.32855 0.15560
   2   2 -14    4.25   11.18 109 0.93493-0.79988-0.08367 0.35551-0.32820-0.49511
   4   5  -6    4.05   11.77 109 0.93511-0.64415-0.08463 0.76224-0.32748-0.02328
   4   5  -5   17.75   10.71 109 0.93536-0.64292-0.08608 0.76189-0.32641 0.03497
   5  -6   1    5.49   11.06 109 0.93561-0.57017-0.08752-0.71979-0.32533 0.39225
   5  -5   4    2.38   10.35 110 0.93475-0.56507-0.08262-0.58934-0.32898 0.57158
   5  -4   6   47.43    8.02 109 0.93588-0.56510-0.08910-0.44898-0.32416 0.68519
   6  -3   8   16.60   10.21 109 0.93535-0.48743-0.08604-0.31784-0.32644 0.80656
   6  -1   9    5.15    9.30 109 0.93511-0.48509-0.08467-0.04948-0.32745 0.86515
   7  -5   6   26.67   11.55 109 0.93547-0.41725-0.08670-0.58639-0.32594 0.69003
   0  -3  -4  200.61   12.27 111 0.93325-0.93855-0.07474-0.32913-0.33481 0.10066
   0   1 -10   14.33    8.88 110 0.93462-0.94398-0.08215 0.21810-0.32932-0.26034
   1   0 -14    2.53   10.64 110 0.93436-0.87381-0.08069 0.08282-0.33041-0.49317
   1   3  -4   27.09    7.13 109 0.93479-0.86432-0.08308 0.48741-0.32863 0.09348
   2  -1 -16   16.94   14.46 110 0.93385-0.80223-0.07795-0.05442-0.33244-0.60793
   2   0 -16    0.30   14.05 109 0.93459-0.80110-0.08200 0.08446-0.32944-0.60549
   2   3 -12    1.47   11.42 110 0.93367-0.79638-0.07700 0.48374-0.33314-0.37291
   3   0   6    3.11    9.80 111 0.93290-0.70641-0.07296 0.07304-0.33613 0.69171
   3   3 -14   -5.83   12.12 109 0.93476-0.72555-0.08290 0.48977-0.32877-0.49351
   3   4 -11   -0.96   10.82 110 0.93402-0.72243-0.07885 0.61980-0.33177-0.31381
   4  -6  -2    0.43   11.14 109 0.93469-0.64600-0.08256-0.73151-0.32902 0.21783
   4  -3   6   41.55    9.31 110 0.93400-0.63568-0.07876-0.32554-0.33184 0.69128
   4   5  -7   11.42   10.13 110 0.93469-0.64429-0.08253 0.75909-0.32905-0.08046
   4   5  -4   61.03   10.78 110 0.93441-0.64111-0.08100 0.75672-0.33018 0.09854
   6  -5   5   20.88   10.64 110 0.93453-0.49081-0.08166-0.59229-0.32969 0.63402
   8  -4   8   22.38   12.18 110 0.93398-0.33863-0.07865-0.46091-0.33192 0.81644
   8  -1  10    0.03   11.82 112 0.93235-0.33548-0.07011-0.06298-0.33822 0.93448
   8   0  10   21.58   13.20 111 0.93328-0.33470-0.07495 0.07603-0.33466 0.93327
   9   1  10    8.20   14.94 112 0.93208-0.25947-0.06879 0.20490-0.33920 0.93860
   0   2  -6   21.55    8.33 111 0.93293-0.93770-0.07327 0.34351-0.33592-0.01842
   0   2  -5  187.15    9.81 111 0.93259-0.93675-0.07149 0.34122-0.33723 0.04174
   1   2 -12   14.26   10.31 111 0.93220-0.86949-0.06953 0.34135-0.33867-0.36874
   1   3  -8   33.70    7.40 110 0.93335-0.86631-0.07545 0.48105-0.33431-0.13629
   2  -5  -7    0.46   13.53 113 0.93045-0.79230-0.06097-0.61125-0.34494-0.06340
   2  -5  -4   52.59   12.00 111 0.93239-0.79120-0.07050-0.60310-0.33796 0.10754
   2  -4   1   -0.35    7.75 111 0.93331-0.78710-0.07527-0.46473-0.33444 0.39724
   2  -3   3   58.95    7.59 111 0.93329-0.78527-0.07516-0.32780-0.33452 0.51490
   2   4  -6   40.47    9.29 111 0.93240-0.78989-0.07052 0.60994-0.33794-0.01502
   3  -4   3  415.29   10.84 111 0.93293-0.71162-0.07324-0.46452-0.33594 0.51883
   3  -1   6  194.26    9.41 111 0.93313-0.70762-0.07428-0.05915-0.33517 0.69260
   4   4   2   22.27   10.19 111 0.93220-0.63382-0.06953 0.61012-0.33867 0.45995
   4   5  -8   15.27   10.13 110 0.93346-0.64393-0.07605 0.75258-0.33387-0.13454
   4   5  -3   15.27   10.21 111 0.93247-0.63870-0.07089 0.74616-0.33767 0.16453
   5  -3   7    5.72    9.09 111 0.93344-0.56001-0.07594-0.32771-0.33394 0.75324
   5   0   8   -3.04    9.27 112 0.93192-0.55586-0.06814 0.06753-0.33969 0.81880
   5   5   0   -5.29   11.48 112 0.93206-0.56181-0.06883 0.74479-0.33918 0.34401
   6  -6   2    9.94   12.71 110 0.93313-0.49325-0.07433-0.73437-0.33514 0.46292
   8  -3   9    3.71   10.76 110 0.93321-0.33698-0.07474-0.32924-0.33483 0.87762
   9  -2  10   -4.72   13.23 110 0.93338-0.25950-0.07561-0.19482-0.33419 0.94210
   0  -3  -5   63.73   12.19 114 0.92853-0.93478-0.05258-0.35164-0.35114 0.05756
   0  -2  -1  284.59   11.42 112 0.93148-0.93360-0.06642-0.20326-0.34106 0.28249
   0  -1   0    0.02    8.32 112 0.93186-0.93238-0.06828-0.06747-0.33969 0.34027
   0   1  -1  230.03   11.06 112 0.93179-0.93173-0.06797 0.20455-0.33992 0.28118
   0   2  -7   92.28    7.95 112 0.93185-0.93767-0.06828 0.33889-0.33970-0.07373
   1  -4  -3   61.88   10.02 112 0.93064-0.86182-0.06233-0.47621-0.34405 0.17074
   1  -2   2  135.92    9.41 112 0.93149-0.85709-0.06648-0.20340-0.34101 0.46085
   1   3  -3  172.37    8.26 111 0.93202-0.86043-0.06910 0.47397-0.33909 0.16213
   2  -5  -6    4.07   12.73 113 0.93023-0.79201-0.06037-0.61376-0.34548-0.00478
   2  -5  -5   12.97   11.32 113 0.93023-0.79037-0.06039-0.61229-0.34547 0.05475
   2  -2   4  271.66    8.94 112 0.93192-0.78198-0.06863-0.20082-0.33944 0.57842
   2   4  -7    0.74    9.57 112 0.93110-0.78922-0.06455 0.60829-0.34243-0.07054
   2   4  -5   -1.43    7.59 112 0.93199-0.78803-0.06898 0.60935-0.33918 0.04590
   2   4  -4    2.59    8.81 111 0.93163-0.78521-0.06717 0.60391-0.34051 0.10687
   3  -5   0   37.51   10.01 112 0.93171-0.71398-0.06758-0.60593-0.34021 0.34534
   3   4   0   19.03    9.25 112 0.93136-0.70790-0.06585 0.60613-0.34148 0.34419
   4  -6  -3    4.29   12.49 113 0.93004-0.64180-0.05951-0.74683-0.34610 0.17622
   4  -5   2  113.51   11.36 112 0.93099-0.63687-0.06404-0.60893-0.34280 0.46697
   4   5  -9   -2.48   12.43 112 0.93136-0.64304-0.06585 0.74324-0.34148-0.18612
   5  -6   0   -8.20   11.17 112 0.93113-0.56556-0.06468-0.74526-0.34233 0.35034
   5  -1   8   82.82    9.79 112 0.93140-0.55622-0.06605-0.06803-0.34133 0.81913
   7  -2   9   10.68    9.92 112 0.93063-0.40724-0.06231-0.20646-0.34407 0.88360
   7   1   9    9.12   11.88 113 0.92989-0.40476-0.05878 0.19453-0.34664 0.88571
   7   5   3    2.36   14.24 113 0.92966-0.40799-0.05773 0.73428-0.34740 0.53151
   7   6  -2   -1.91   13.69 111 0.93192-0.41469-0.06863 0.87681-0.33944 0.22789
   0  -3  -6   59.62   14.07 116 0.92589-0.93313-0.04107-0.36278-0.35956 0.00685
   0   2  -8   44.40    9.64 113 0.92980-0.93705-0.05826 0.32794-0.34714-0.12514
   0   2  -4   69.98    7.60 112 0.93061-0.93352-0.06212 0.33250-0.34433 0.10768
   1   3  -9   15.88    8.29 112 0.93073-0.86442-0.06266 0.46913-0.34393-0.18679
   2   4  -8   42.18    9.64 113 0.93029-0.78864-0.06056 0.60155-0.34546-0.12524
   3   3   3   27.23   12.00 115 0.92744-0.70156-0.04768 0.45292-0.35480 0.53483
   3   4 -12   -1.79   12.33 113 0.92957-0.71814-0.05721 0.60088-0.34790-0.35932
   4  -1   7   12.76    8.52 113 0.93042-0.62964-0.06119-0.07291-0.34501 0.76332
   4   0   7    2.19    8.43 113 0.93015-0.62865-0.05990 0.06014-0.34594 0.76444
   6   5   2    5.66   14.63 114 0.92816-0.48158-0.05085 0.72719-0.35251 0.47619
   6   6  -5    1.38   13.03 112 0.93047-0.49054-0.06146 0.86681-0.34481 0.05642
   7  -4   7   16.34   11.34 113 0.92992-0.40916-0.05882-0.48091-0.34673 0.77084
   8  -5   6   48.65   12.79 113 0.93031-0.33840-0.06069-0.61308-0.34537 0.71095
   0  -1 -12   12.33   11.76 115 0.92632-0.93867-0.04280-0.09038-0.35828-0.34910
   0   0 -12    6.93   11.06 114 0.92823-0.93920-0.05107 0.05280-0.35233-0.35441
   0   1 -11   28.12    9.71 114 0.92893-0.93907-0.05420 0.19067-0.35006-0.29955
   1  -4  -8   21.73   15.51 117 0.92373-0.86017-0.03223-0.50541-0.36585-0.10296
   1   1 -14    7.92   11.10 113 0.92873-0.86748-0.05333 0.19039-0.35069-0.47302
   2   1 -16   12.81   12.63 114 0.92825-0.79588-0.05116 0.18874-0.35226-0.58789
   2   2 -15   -6.50   12.03 114 0.92807-0.79405-0.05035 0.32098-0.35285-0.52819
   2   3 -13   10.11   12.06 114 0.92870-0.79169-0.05315 0.45953-0.35082-0.41324
   2   3   1  246.53   11.12 114 0.92859-0.77851-0.05268 0.45802-0.35116 0.41164
   2   4  -9    6.59    9.44 114 0.92843-0.78734-0.05195 0.59174-0.35170-0.17659
   2   4  -3   15.09    9.58 114 0.92792-0.78139-0.04969 0.59054-0.35333 0.17794
   4  -6  -4    2.51   12.91 114 0.92831-0.64082-0.05143-0.75888-0.35207 0.12259
   4  -4   4   11.46    9.02 114 0.92835-0.63189-0.05163-0.48821-0.35192 0.59458
   4   5 -10   -4.31   10.66 114 0.92897-0.64179-0.05442 0.73100-0.34990-0.23616
   4   5  -2   46.92   10.43 114 0.92885-0.63321-0.05385 0.73027-0.35032 0.23680
   6   6  -4   13.16   12.92 114 0.92789-0.48674-0.04956 0.86140-0.35342 0.12296
   8   5   4    6.39   17.05 115 0.92679-0.33095-0.04479 0.72042-0.35686 0.60055
   9  -3   9    6.81   12.78 115 0.92748-0.25747-0.04779-0.35473-0.35469 0.89569
   0  -2 -11    1.30   13.70 116 0.92393-0.93534-0.03311-0.23499-0.36528-0.28251
   0   2  -9    3.72    9.60 115 0.92666-0.93453-0.04433 0.31541-0.35725-0.17411
   1  -4  -4   33.49    9.80 116 0.92588-0.85797-0.04104-0.49771-0.35961 0.12632
   1  -2 -14    0.59   14.76 118 0.92222-0.86440-0.02641-0.24200-0.37004-0.45628
   1   2 -13   23.39   10.06 115 0.92607-0.86393-0.04183 0.31359-0.35905-0.40649
   1   3 -10   -3.29    8.66 115 0.92739-0.86248-0.04747 0.45306-0.35499-0.23420
   1   3  -2   63.26    8.78 115 0.92714-0.85341-0.04635 0.45213-0.35580 0.23826
   4  -6  -7   -0.22   16.58 115 0.92619-0.64193-0.04232-0.76819-0.35870-0.04838
   4  -6  -5    6.24   13.06 114 0.92683-0.64071-0.04504-0.76638-0.35674 0.06798
   5  -6  -1    1.68   11.38 115 0.92621-0.56217-0.04241-0.76665-0.35863 0.30791
   5  -5   3    1.74    9.25 115 0.92731-0.55847-0.04712-0.62554-0.35524 0.53939
   5  -4   5   26.41    9.43 115 0.92608-0.55483-0.04186-0.49666-0.35902 0.66090
   6  -6   1   12.01   11.99 115 0.92662-0.48708-0.04414-0.76126-0.35739 0.42503
   6  -5   4    7.64   10.21 115 0.92682-0.48310-0.04500-0.63052-0.35677 0.60281
   6  -4   6    6.74   10.07 115 0.92705-0.48134-0.04600-0.49316-0.35605 0.71897
   7  -5   5   14.05   10.15 114 0.92749-0.40960-0.04787-0.62564-0.35470 0.66000
   7  -3   8   -0.73    9.07 115 0.92743-0.40524-0.04764-0.35719-0.35487 0.83620
   7   6  -1    5.81   13.71 114 0.92747-0.40946-0.04782 0.85621-0.35474 0.30180
   9  -1  10    6.03   12.65 116 0.92614-0.25396-0.04212-0.09153-0.35884 0.95883
   9   0  10    3.03   13.42 116 0.92501-0.25221-0.03744 0.03853-0.36219 0.96244
  10   1  10   -6.46   15.22 116 0.92489-0.17838-0.03693 0.17198-0.36255 0.96517
   0   2  -3  166.35    8.36 115 0.92595-0.92775-0.04135 0.31259-0.35950 0.18210
   1  -3   0   69.84    7.40 116 0.92580-0.85374-0.04074-0.36379-0.35994 0.36251
   2  -4   0   36.86    9.04 116 0.92468-0.77937-0.03612-0.50236-0.36325 0.36681
   2   2   3  729.63   23.01 118 0.92154-0.77009-0.02384 0.29431-0.37197 0.55084
   2   4 -10   10.70   10.78 116 0.92475-0.78539-0.03641 0.57875-0.36304-0.22594
   3  -5  -1    1.61    9.16 115 0.92578-0.70855-0.04064-0.63337-0.36001 0.30653
   3  -3   4   23.32    8.05 116 0.92534-0.70219-0.03883-0.36568-0.36131 0.60178
   3   4 -13  -10.24   13.41 116 0.92493-0.71521-0.03716 0.57869-0.36250-0.40114
   4  -6  -6    7.81   14.29 116 0.92478-0.63912-0.03652-0.77115-0.36296 0.01608
   6  -2   8   60.43   10.60 116 0.92504-0.47654-0.03759-0.23141-0.36220 0.84126
   6   6  -3    2.66   12.54 115 0.92580-0.48336-0.04073 0.85076-0.35995 0.18821
   7  -6   2   -8.37   13.28 116 0.92519-0.41042-0.03821-0.76792-0.36176 0.48942
   7  -1   9   -1.65   10.94 117 0.92413-0.40020-0.03390-0.10161-0.36483 0.90447
   1  -4  -5   81.65   11.11 118 0.92171-0.85453-0.02446-0.51440-0.37157 0.08092
   1   0 -15   16.33   12.44 117 0.92320-0.86421-0.03020 0.03295-0.36750-0.51603
   1   3 -11   13.78    9.97 117 0.92295-0.85837-0.02922 0.43593-0.36819-0.28005
   2   4  -2   35.24    9.38 117 0.92285-0.77563-0.02884 0.56871-0.36847 0.25269
   3  -5 -11   -2.54   17.30 121 0.91713-0.70865-0.00780-0.66299-0.38327-0.25889
   3  -4   2  365.50   10.87 117 0.92314-0.70319-0.02997-0.50856-0.36766 0.48962
   3  -2   5   66.10    7.50 117 0.92399-0.70015-0.03332-0.23622-0.36528 0.66385
   3   5  -7    8.80   11.22 116 0.92354-0.70595-0.03154 0.70476-0.36654-0.04310
   3   5  -6    3.83   10.42 116 0.92381-0.70539-0.03261 0.70535-0.36579 0.01498
   4  -5   1   30.53   10.18 117 0.92378-0.63170-0.03248-0.64093-0.36588 0.43123
   4   5  -1   29.92   10.52 117 0.92320-0.62706-0.03021 0.70539-0.36749 0.31258
   5   5   1   19.47   11.72 117 0.92280-0.55057-0.02862 0.70489-0.36862 0.43252
   6  -3   7   10.04   10.38 117 0.92278-0.47553-0.02854-0.37544-0.36868 0.78962
   7   0   9    1.83   11.14 117 0.92252-0.39732-0.02755 0.02824-0.36938 0.91046
   8  -4   7    7.65   12.03 117 0.92340-0.32846-0.03097-0.50899-0.36696 0.79244
   8  -2   9   -4.90   10.99 116 0.92399-0.32506-0.03333-0.23735-0.36527 0.91097
   0   1 -12    6.09    9.54 118 0.92179-0.93264-0.02494 0.16164-0.37124-0.33642
   0   2 -10   27.74    8.26 117 0.92234-0.93120-0.02704 0.29875-0.36976-0.21933
   1  -4  -7   29.19   12.98 119 0.91920-0.85425-0.01531-0.52311-0.37803-0.03122
   1  -4  -6   16.30   12.19 119 0.91928-0.85361-0.01562-0.52297-0.37781 0.02705
   1  -1 -15    2.04   13.74 118 0.92094-0.86218-0.02173-0.11053-0.37351-0.50908
   2   3 -14    0.36   11.97 118 0.92144-0.78649-0.02362 0.43091-0.37218-0.45333
   2   4 -11   10.70   11.03 118 0.92082-0.78199-0.02129 0.56345-0.37382-0.27389
   3   5  -8   -0.61   11.01 118 0.92145-0.70538-0.02364 0.70083-0.37216-0.09796
   3   5  -5   33.23   10.26 118 0.92182-0.70314-0.02505 0.70223-0.37116 0.07759
   4  -3   5   39.60    8.60 118 0.92083-0.62260-0.02132-0.38219-0.37380 0.67498
   5  -6  -2   16.09   12.19 118 0.92061-0.55740-0.02051-0.78682-0.37437 0.26472
   5  -2   7   43.00    9.42 118 0.92119-0.54683-0.02265-0.24523-0.37286 0.79274
   6  -6   0   -5.36   11.25 118 0.92114-0.48156-0.02246-0.78762-0.37300 0.38265
   6   6  -2   -0.90   12.54 117 0.92230-0.47971-0.02688 0.83374-0.36987 0.25689
   8  -5   5    5.85   11.89 119 0.92085-0.32887-0.02138-0.65218-0.37376 0.68059
   9   2   9    8.41   16.12 120 0.91670-0.24425-0.00647 0.27747-0.38421 0.92392
  10  -1  10    3.61   12.23 118 0.92146-0.17407-0.02370-0.10999-0.37212 0.97594
  -1   0  -7  108.68    9.85 119 0.91930-0.99960-0.01532 0.01603-0.37805-0.03614
  -1   0  -6   33.25    8.84 119 0.91982-0.99903-0.01723 0.01798-0.37671 0.02185
   1   1 -15    3.80   12.28 120 0.91823-0.85856-0.01150 0.14926-0.38072-0.50377
   1   2   1  109.31    9.41 119 0.91961-0.84346-0.01648 0.28746-0.37723 0.43697
   2  -3   2  164.47    8.04 119 0.92064-0.77266-0.02023-0.38391-0.37459 0.49644
   2  -1   4  374.82   11.44 119 0.91927-0.76828-0.01523-0.11951-0.37811 0.61721
   3  -5  -2   21.00    9.38 119 0.91910-0.70263-0.01462-0.65888-0.37854 0.26608
   3   4   1  224.04   10.28 119 0.91944-0.69580-0.01583 0.55611-0.37769 0.43802
   3   5  -9    1.65   11.95 120 0.91884-0.70491-0.01368 0.69298-0.37919-0.15089
   3   5  -4    0.60   10.26 119 0.91973-0.70022-0.01690 0.69374-0.37694 0.14284
   4  -2   6   23.79    7.62 119 0.92053-0.62109-0.01984-0.24961-0.37487 0.73430
   5  -3   6   18.50    8.24 119 0.92042-0.54794-0.01945-0.38479-0.37515 0.73603
   5   4   4   52.84   13.49 120 0.91675-0.54226-0.00632 0.54678-0.38434 0.62553
   5   6  -6   -9.46   12.93 119 0.91967-0.55382-0.01666 0.82948-0.37710 0.02683
   5   6  -5   -1.64   12.57 119 0.91935-0.55294-0.01550 0.82508-0.37792 0.08735
   6   4   5    5.77   16.79 122 0.91449-0.46544 0.00138 0.53981-0.38967 0.69068
   7   6   0    0.17   14.46 119 0.91926-0.40070-0.01517 0.82584-0.37815 0.38434
   8  -3   8   10.73   11.88 119 0.91983-0.32435-0.01725-0.38670-0.37669 0.85961
  10   0  10   15.15   13.86 121 0.91730-0.17263-0.00823 0.00971-0.38301 0.98196
   0   0 -13   -1.43   11.80 119 0.91788-0.92939-0.01040 0.01255-0.38152-0.38392
   0   2 -11    1.31    9.63 119 0.91811-0.92565-0.01121 0.28114-0.38096-0.26507
   1   2 -14    6.62   11.43 120 0.91791-0.85651-0.01051 0.28310-0.38145-0.44409
   1   3 -12    4.06   11.14 120 0.91770-0.85354-0.00978 0.41597-0.38196-0.32436
   1   3  -1   44.27    8.76 120 0.91741-0.84281-0.00873 0.41442-0.38269 0.32444
   5  -5   2    7.95    8.87 120 0.91859-0.55092-0.01292-0.66059-0.37977 0.50554
   6   1   8   68.68   12.26 121 0.91507-0.46529-0.00070 0.13597-0.38827 0.86627
   7  -6   1   11.50   11.36 120 0.91858-0.40507-0.01288-0.79518-0.37979 0.44951
   7  -5   4   -8.20   11.69 120 0.91762-0.40009-0.00947-0.66431-0.38218 0.62823
   7  -4   6    5.37   10.66 119 0.91836-0.39898-0.01209-0.52802-0.38034 0.74561
   9  -4   7   24.36   12.77 120 0.91698-0.24911-0.00723-0.53047-0.38374 0.80821
   9   3   8    0.45   23.95 126 0.90434-0.23264 0.03271 0.37391-0.41106 0.89247
  -1   0  -8    2.00    8.83 120 0.91617-0.99745-0.00482 0.00575-0.38543-0.08727
  -1   0  -5  164.65   10.15 121 0.91565-0.99427-0.00303 0.00426-0.38667 0.09004
   0   2  -2   37.67    7.24 120 0.91662-0.91724-0.00634 0.27750-0.38437 0.26599
   2  -4  -1   31.79    8.83 121 0.91464-0.77072 0.00038-0.53888-0.38904 0.33364
   2   4 -12   20.15   12.12 121 0.91563-0.77773-0.00297 0.54570-0.38672-0.32047
   3   5 -10   -0.19    9.97 121 0.91651-0.70286-0.00597 0.68267-0.38463-0.20290
   3   5  -3    5.73   10.00 121 0.91613-0.69506-0.00467 0.68028-0.38553 0.21055
   4  -5   0   42.53   10.76 121 0.91475-0.62303 0.00003-0.67264-0.38879 0.39496
   4  -4   3   23.09    7.73 121 0.91647-0.62108-0.00583-0.53316-0.38473 0.56788
   5  -6  -3    0.57   12.09 120 0.91651-0.55494-0.00597-0.80371-0.38463 0.21606
   5   6  -4    1.19   12.53 121 0.91552-0.54776-0.00258 0.81765-0.38698 0.15502
   6  -5   3   16.21    9.52 121 0.91646-0.47423-0.00581-0.66721-0.38474 0.57049
   6  -1   8   66.03    9.63 121 0.91476-0.46575-0.00002-0.13398-0.38875 0.86752
   6   6  -1    4.49   12.91 120 0.91609-0.47212-0.00452 0.81085-0.38564 0.33118
   7   2   8    5.07   16.19 124 0.91001-0.38524 0.01536 0.25570-0.39932 0.87904
   9  -2   9    5.70   12.87 122 0.91484-0.24430-0.00029-0.26739-0.38857 0.92891
   0  -1 -13    5.51   12.46 123 0.91044-0.92440 0.01364-0.14698-0.39812-0.36880
   0   1 -13    0.87   10.96 123 0.91230-0.92470 0.00768 0.12908-0.39404-0.37258
   2  -4 -12   16.38   26.31 129 0.89750-0.76465 0.05120-0.58883-0.42338-0.28055
   2  -2   3  750.65   12.73 122 0.91266-0.76368 0.00653-0.27634-0.39325 0.57274
   2   4  -1   26.46    8.53 122 0.91422-0.76550 0.00140 0.53874-0.38971 0.33229
   3  -5  -3    7.00   10.78 122 0.91249-0.69744 0.00708-0.68098-0.39363 0.22216
   3   5 -11  -22.29   12.26 122 0.91307-0.70000 0.00519 0.66985-0.39233-0.25276
   4   5   0   23.72   10.21 122 0.91336-0.61562 0.00425 0.67140-0.39168 0.39602
   5  -4   4   65.27   10.18 122 0.91361-0.54479 0.00342-0.54258-0.39111 0.63347
   5   6  -3   11.82   11.79 122 0.91313-0.54416 0.00499 0.80425-0.39219 0.21948
   6  -6  -1    1.92   12.49 122 0.91349-0.47563 0.00380-0.81019-0.39137 0.34141
   6  -4   5    0.77    8.08 122 0.91423-0.46903 0.00135-0.54071-0.38968 0.69325
   7  -2   8   14.63   10.74 122 0.91302-0.39046 0.00534-0.27416-0.39244 0.87336
   8  -1   9   14.03   10.85 122 0.91277-0.31480 0.00618-0.13994-0.39301 0.93389
   8   1   9    4.81   13.15 123 0.91135-0.31233 0.01074 0.12529-0.39614 0.93575
   9  -3   8    3.61   12.02 122 0.91314-0.24275 0.00496-0.40975-0.39217 0.87663
  -1   0  -9   -1.59    9.56 124 0.91010-0.99310 0.01472-0.01493-0.39886-0.13352
  -1   1  -7   90.72    8.89 123 0.91154-0.99152 0.01017 0.12590-0.39574-0.01764
  -1   1  -6   15.85    8.75 123 0.91110-0.98995 0.01156 0.12416-0.39669 0.04263
   0  -2  -2   47.63   10.05 124 0.91013-0.91314 0.01464-0.28327-0.39880 0.28195
   0   3  -7   30.00    8.62 123 0.91167-0.91668 0.00973 0.39587-0.39544-0.01763
   0   3  -6   61.77    8.72 123 0.91106-0.91575 0.01169 0.39354-0.39678 0.04319
   1  -3  -1   44.81    8.70 123 0.91133-0.84060 0.01082-0.41435-0.39618 0.33971
   1  -2   1  112.23    9.53 123 0.91133-0.83831 0.01082-0.27995-0.39619 0.45635
   1  -1   2  200.17   10.86 123 0.91125-0.83664 0.01108-0.14585-0.39636 0.51507
   1   3 -13    2.06   11.15 123 0.91083-0.84803 0.01242 0.39264-0.39729-0.36731
   1   4  -8   25.48    9.39 123 0.91125-0.84348 0.01109 0.53034-0.39637-0.07553
   1   4  -7   30.71    7.91 122 0.91237-0.84380 0.00749 0.53318-0.39391-0.01845
   1   4  -6   10.57    7.54 123 0.91200-0.84229 0.00870 0.53261-0.39473 0.04077
   3  -4   1  259.90   10.82 123 0.91095-0.69181 0.01203-0.55039-0.39701 0.46035
   4   4   3   23.13   12.43 124 0.90929-0.60952 0.01723 0.52345-0.40057 0.58148
   5  -6  -4    1.88   13.08 122 0.91221-0.55174 0.00800-0.81793-0.39425 0.16665
   6   5   3    7.82   13.46 123 0.91006-0.46254 0.01484 0.65955-0.39893 0.58082
   7  -6   0   -1.38   12.55 123 0.91097-0.39751 0.01196-0.82137-0.39697 0.40761
   7  -3   7   35.90   10.37 123 0.91153-0.39168 0.01018-0.41303-0.39575 0.81729
  10  -2   9    6.29   13.80 124 0.90897-0.16598 0.01822-0.28500-0.40124 0.94203
  -1  -1  -7   81.23   12.44 125 0.90683-0.98802 0.02455-0.15799-0.40556-0.00737
  -1   1  -8   92.13    8.83 124 0.90961-0.99083 0.01606 0.11935-0.39980-0.07236
   0   2 -12   14.87    9.88 124 0.90908-0.92079 0.01770 0.25441-0.40092-0.30865
   0   3  -8   43.73    7.78 123 0.91015-0.91714 0.01438 0.39086-0.39865-0.07302
   0   3  -5   68.35    8.57 124 0.90890-0.91271 0.01825 0.38616-0.40129 0.10603
   1   0 -16   10.70   14.70 125 0.90758-0.85067 0.02231-0.01995-0.40405-0.53976
   1   2 -15   -4.69   13.22 125 0.90774-0.84827 0.02181 0.24917-0.40371-0.48037
   1   4  -9   36.23    9.69 124 0.90902-0.84208 0.01789 0.52370-0.40105-0.12991
   1   4  -5   81.88    7.96 123 0.91014-0.84065 0.01442 0.52479-0.39868 0.10429
   2   0   4 1025.78   17.63 124 0.90888-0.75795 0.01833-0.01811-0.40134 0.63922
   2   4 -13   -3.20   12.85 124 0.90908-0.77329 0.01770 0.52479-0.40092-0.36552
   3  -5 -10    4.92   16.56 125 0.90598-0.69754 0.02710-0.69960-0.40729-0.17719
   3  -3   3   34.77    8.55 124 0.90864-0.68647 0.01905-0.42183-0.40184 0.58349
   3   5  -2   14.75    9.62 124 0.90921-0.68752 0.01731 0.65936-0.40065 0.28494
   5  -6  -5    8.47   13.56 124 0.90861-0.54858 0.01915-0.82932-0.40190 0.11478
   5  -5   1   22.75   10.10 124 0.90838-0.54163 0.01985-0.69428-0.40238 0.46944
   6   0   8  463.26   12.31 124 0.90860-0.46000 0.01917-0.01787-0.40192 0.87987
   8  -5   4   23.79   11.84 124 0.90964-0.31898 0.01599-0.68959-0.39975 0.64761
   8  -4   6   26.78   11.29 124 0.90927-0.31607 0.01712-0.55560-0.40052 0.76576
   8   0   9   14.59   11.89 125 0.90662-0.30850 0.02517-0.02377-0.40599 0.94563
  -1  -1  -8   93.67   12.41 126 0.90347-0.98562 0.03445-0.16745-0.41214-0.06038
  -1  -1  -6   16.72   12.37 126 0.90421-0.98414 0.03231-0.16585-0.41070 0.05676
  -1   1  -9   10.53    8.52 125 0.90565-0.98791 0.02808 0.10769-0.40785-0.12429
  -1   1  -5  165.14    9.91 125 0.90727-0.98502 0.02324 0.11283-0.40458 0.10945
   0   3  -9   53.03    8.48 125 0.90766-0.91517 0.02208 0.38356-0.40380-0.12721
   1   1 -16    0.55   13.31 125 0.90607-0.84712 0.02685 0.11012-0.40702-0.53370
   1   4  -4   29.60    9.29 125 0.90656-0.83467 0.02540 0.51451-0.40604 0.17129
   3  -5  -4    2.22    9.87 125 0.90609-0.69218 0.02679-0.70017-0.40698 0.17634
   3  -1   5  398.31   11.07 125 0.90728-0.68286 0.02321-0.15770-0.40456 0.70254
   4  -5  -1   23.53    9.94 126 0.90537-0.61491 0.02892-0.70204-0.40841 0.35533
   4   6  -7   29.81   12.41 125 0.90633-0.61543 0.02607 0.78544-0.40649-0.00251
   4   6  -6   -3.51   11.53 125 0.90624-0.61445 0.02633 0.78322-0.40667 0.05707
   5  -6  -6    3.82   13.91 126 0.90511-0.54631 0.02967-0.83697-0.40892 0.06319
   5  -1   7  127.08    9.43 125 0.90745-0.53401 0.02269-0.15657-0.40421 0.82238
   5   5   2    7.42   11.95 125 0.90585-0.53251 0.02749 0.64870-0.40745 0.53035
   5   6  -2    9.77   11.82 125 0.90646-0.53693 0.02568 0.78460-0.40623 0.29308
   6  -6  -2   -2.27   12.90 125 0.90679-0.47017 0.02470-0.83106-0.40557 0.29647
   7  -5   3    7.90   11.28 125 0.90580-0.39017 0.02765-0.70029-0.40756 0.59452
   7   5   4    1.52   16.09 127 0.90241-0.37930 0.03747 0.64037-0.41416 0.65832
   7   6   1    1.36   15.54 125 0.90576-0.38502 0.02776 0.78510-0.40764 0.47409
  10   2   9    5.29   17.14 126 0.90382-0.15706 0.03343 0.23874-0.41145 0.95479
  -1   0 -10   32.40    9.53 126 0.90297-0.98658 0.03555-0.03380-0.41303-0.17746
  -1   0  -4  265.87   12.97 126 0.90313-0.98093 0.03509-0.03360-0.41272 0.17532
   0   0 -14    2.42   12.36 127 0.90248-0.91734 0.03697-0.03518-0.41398-0.41251
   0   3 -10    2.43    9.73 126 0.90360-0.91210 0.03375 0.37251-0.41182-0.17852
   0   3  -4  207.29    9.74 126 0.90414-0.90603 0.03217 0.37340-0.41076 0.17501
   1   4 -10    9.12    8.91 126 0.90536-0.83985 0.02860 0.51315-0.40836-0.18126
   2  -4  -2   24.59    9.10 127 0.90298-0.76026 0.03554-0.57383-0.41302 0.29896
   2   5  -8    4.56   10.85 126 0.90406-0.76161 0.03240 0.64310-0.41092-0.05908
   2   5  -7   11.36   10.74 126 0.90353-0.76091 0.03395 0.64531-0.41195-0.00071
   2   5  -6   12.09   10.05 126 0.90370-0.75956 0.03347 0.64286-0.41163 0.05910
   4  -1   6  107.00    9.47 126 0.90397-0.60402 0.03268-0.16780-0.41110 0.76955
   4   6  -5   -0.80   11.37 126 0.90392-0.61147 0.03282 0.77736-0.41119 0.12029
   6  -5   2   14.83    9.55 126 0.90509-0.46419 0.02940-0.70238-0.40890 0.53579
   6  -3   6  147.06    9.22 126 0.90538-0.46023 0.02855-0.43284-0.40833 0.76921
   6  -2   7   56.89    9.34 126 0.90420-0.45784 0.03201-0.30071-0.41065 0.83003
   6   6   0   -4.82   13.95 127 0.90293-0.45798 0.03567 0.77668-0.41311 0.41910
   9  -1   9    3.16   10.82 126 0.90389-0.23159 0.03290-0.16636-0.41125 0.95490
   0  -2 -12    6.28   16.44 129 0.89718-0.91042 0.05131-0.31942-0.42356-0.28293
   0   1 -14   -0.68   11.64 129 0.89792-0.91483 0.04930 0.08886-0.42223-0.40909
   0   2 -13    4.88    9.71 127 0.90124-0.91303 0.04015 0.23109-0.41615-0.34964
   1  -2 -15   -0.19   17.65 130 0.89342-0.83691 0.06123-0.32933-0.43009-0.45376
   1  -1 -16    6.25   15.86 127 0.90130-0.84370 0.03998-0.17213-0.41603-0.52398
   1   3 -14    0.88   11.93 127 0.90135-0.84070 0.03983 0.36773-0.41594-0.40938
   1   4 -11   10.39   10.73 126 0.90255-0.83578 0.03643 0.50124-0.41366-0.23109
   2  -3   1  246.50    8.68 127 0.90288-0.75650 0.03549-0.44029-0.41303 0.47458
   2   3   2  170.20   11.67 127 0.90076-0.74929 0.04149 0.36373-0.41704 0.53706
   2   5  -9    8.81   11.11 127 0.90186-0.76038 0.03839 0.63824-0.41497-0.11466
   2   5  -5   24.85   10.49 127 0.90187-0.75607 0.03837 0.63668-0.41496 0.12132
   3  -5  -9    6.66   14.56 129 0.89694-0.68768 0.05195-0.72350-0.42398-0.10080
   3  -5  -5   28.65   11.63 128 0.90029-0.68783 0.04280-0.71562-0.41791 0.12868
   4  -4   2   27.22    8.99 127 0.90197-0.60837 0.03809-0.57690-0.41477 0.53875
   4  -3   4    2.63    6.81 127 0.90277-0.60600 0.03579-0.43986-0.41323 0.65506
   5  -3   5   46.55    8.75 127 0.90205-0.53118 0.03785-0.44246-0.41461 0.71577
   5   1   7  129.50   12.54 128 0.89969-0.52415 0.04445 0.09095-0.41901 0.83700
   6  -6  -3   11.11   12.45 126 0.90202-0.46660 0.03794-0.84950-0.41467 0.24748
   7  -6  -1   17.71   12.96 127 0.90218-0.39179 0.03750-0.84374-0.41438 0.36622
   7  -4   5    9.37    8.61 127 0.90261-0.38450 0.03627-0.57452-0.41355 0.71858
   8  -3   7    0.99   10.84 127 0.90162-0.30739 0.03906-0.44276-0.41542 0.83866
   8  -2   8    1.03    9.62 127 0.90203-0.30598 0.03790-0.30630-0.41464 0.89719
   9  -4   6   16.75   12.24 127 0.90218-0.23573 0.03749-0.57542-0.41437 0.78115
  -1  -1  -9    7.57   11.55 130 0.89499-0.97845 0.05726-0.19135-0.42745-0.10409
  -1   1 -10   42.58    9.59 128 0.90004-0.98301 0.04365 0.09320-0.41846-0.17266
   0   3 -11    4.56    9.84 128 0.89961-0.90739 0.04483 0.35956-0.41924-0.22729
   1   3   0   66.54    9.09 128 0.89916-0.82310 0.04607 0.35959-0.42006 0.42134
   1   4  -3   57.89    9.62 128 0.90004-0.82672 0.04363 0.49633-0.41844 0.24237
   2   4   0   36.17    9.67 128 0.89949-0.74937 0.04517 0.49524-0.41947 0.42151
   2   5 -10    9.78   11.44 129 0.89840-0.75899 0.04816 0.62960-0.42145-0.16710
   3  -2   4    2.40    7.09 128 0.90050-0.67671 0.04237-0.31151-0.41760 0.65742
   3   5  -1   -2.92    9.35 128 0.89918-0.67678 0.04602 0.62935-0.42003 0.36364
   4   5   1   18.82   11.83 128 0.89757-0.59888 0.05039 0.62513-0.42293 0.48526
   4   6  -4   -1.06   11.84 128 0.89943-0.60573 0.04532 0.76758-0.41957 0.18701
   5  -2   6   21.65    9.26 128 0.89846-0.52521 0.04798-0.31718-0.42133 0.78212
   5   0   7   72.11    9.84 129 0.89697-0.52243 0.05200-0.04985-0.42399 0.84229
   6  -4   4   31.95    9.30 128 0.89869-0.45480 0.04736-0.58635-0.42092 0.66551
   7  -1   8   90.89   10.40 129 0.89789-0.37595 0.04953-0.18187-0.42236 0.90273
   7   3   7   26.45   25.45 139 0.86852-0.34458 0.11948 0.28660-0.46715 0.88666
   9   1   9    0.03   14.16 129 0.89591-0.22343 0.05484 0.08191-0.42586 0.96698
  -1   1  -4  184.15    9.01 128 0.89789-0.97507 0.04956 0.08649-0.42250 0.18536
   0   2  -1  297.25   10.17 129 0.89787-0.89741 0.04961 0.22100-0.42254 0.36334
   2   5  -4   43.78   10.63 129 0.89741-0.75124 0.05086 0.62463-0.42336 0.18808
   3  -5  -8    8.29   13.80 130 0.89348-0.68335 0.06124-0.73285-0.43019-0.03552
   3  -5  -7   13.08   13.99 130 0.89422-0.68357 0.05933-0.73241-0.42894 0.02164
   3  -5  -6    3.49   11.89 130 0.89531-0.68334 0.05644-0.72783-0.42705 0.07931
   3  -4   0   21.15    9.42 129 0.89641-0.67755 0.05354-0.59181-0.42514 0.43074
   3   1   5  382.72   17.21 131 0.89141-0.66468 0.06656 0.06888-0.43367 0.73194
   3   4   2  354.91   12.60 129 0.89546-0.67111 0.05606 0.48412-0.42679 0.54588
   4  -5  -2   91.87   10.32 129 0.89538-0.60532 0.05626-0.72937-0.42693 0.31658
   4  -2   5   58.96    9.22 129 0.89639-0.59833 0.05359-0.32126-0.42517 0.72567
   5  -5   0   -2.21   10.68 129 0.89664-0.53153 0.05291-0.72623-0.42472 0.43273
   5  -4   3  254.21    8.92 129 0.89794-0.52906 0.04944-0.58752-0.42242 0.60698
   5   6  -1   -0.22   12.77 129 0.89647-0.52614 0.05337 0.75764-0.42503 0.37028
   7   4   6    1.92   26.90 138 0.87019-0.34628 0.11597 0.42635-0.46511 0.82766
   8  -5   3   37.29   12.24 129 0.89635-0.30723 0.05369-0.72525-0.42523 0.61428
   9   0   9    1.43   12.33 128 0.89771-0.22326 0.05005-0.04833-0.42283 0.96975
  10  -1   9   -1.98   13.01 129 0.89647-0.15151 0.05337-0.18753-0.42503 0.96837
  -1   0 -11   72.28   11.19 130 0.89309-0.97778 0.06239-0.06089-0.43104-0.21829
  -1   1 -11   12.83   10.08 130 0.89269-0.97648 0.06342 0.07273-0.43171-0.21799
  -1   2  -8  121.28    8.26 130 0.89517-0.97570 0.05698 0.21267-0.42750-0.04614
  -1   2  -7   76.96    7.91 129 0.89550-0.97560 0.05610 0.21298-0.42692 0.01290
  -1   2  -6   71.85    9.01 130 0.89401-0.97229 0.06001 0.21092-0.42948 0.07376
   0  -1 -14    3.58   13.37 130 0.89330-0.90654 0.06186-0.19421-0.43070-0.39177
   0   3  -3  182.53    8.23 129 0.89559-0.89747 0.05588 0.34862-0.42677 0.24867
   1  -3  -2   62.14    8.85 131 0.89290-0.82319 0.06289-0.46712-0.43137 0.31532
   1   4 -12   22.15   10.76 130 0.89523-0.83108 0.05680 0.48524-0.42738-0.27998
   2   5 -11    1.07   11.61 130 0.89389-0.75521 0.06033 0.61905-0.42969-0.21945
   4   6  -3    5.57   13.17 130 0.89456-0.59892 0.05857 0.75229-0.42854 0.25476
   6  -6  -4    8.39   13.01 130 0.89485-0.46077 0.05781-0.86507-0.42804 0.20165
   7  -6  -2   -3.12   12.92 130 0.89424-0.38440 0.05940-0.86552-0.42908 0.32138
   7  -5   2    2.32   11.00 129 0.89419-0.37910 0.05954-0.73572-0.42918 0.55881
   9  -3   7    5.66   12.26 130 0.89423-0.22617 0.05943-0.46290-0.42911 0.85480
   9  -2   8   -1.05   11.31 130 0.89380-0.22319 0.06056-0.33033-0.42985 0.91435
  -1   2  -9  124.24    8.80 131 0.89263-0.97369 0.06377 0.20732-0.43193-0.10038
   0   1   0   -0.05   10.16 131 0.89120-0.89054 0.06742 0.06753-0.43431 0.43397
   0   2 -14   -7.80   12.16 131 0.89116-0.90352 0.06753 0.20299-0.43438-0.39071
   0   3 -12   15.35   10.49 131 0.89125-0.90199 0.06730 0.34054-0.43423-0.27573
   2  -4  -3   20.63    9.11 131 0.89047-0.74820 0.06927-0.60811-0.43551 0.26241
   2   5  -3   10.83    9.93 131 0.89045-0.74304 0.06932 0.60716-0.43554 0.25950
   3   0   5  170.26   10.05 131 0.89119-0.66518 0.06744-0.06753-0.43432 0.73278
   4   0   6   35.44   10.36 132 0.88903-0.58967 0.07287-0.07181-0.43785 0.79484
   4   1   6  102.75   11.89 132 0.88891-0.58813 0.07318 0.06231-0.43805 0.79597
   6  -6  -5    5.80   14.30 131 0.89029-0.45729 0.06973-0.87777-0.43581 0.15035
   6  -5   1   -2.50    9.32 131 0.89271-0.45255 0.06358-0.73684-0.43181 0.49967
   7  -3   6    1.25    9.90 131 0.89160-0.37237 0.06642-0.46935-0.43366 0.79655
   8  -4   5    8.49    9.53 130 0.89298-0.30151 0.06288-0.60106-0.43135 0.73771
  -1  -1  -5  159.94   18.36 135 0.88111-0.96026 0.09210-0.22614-0.45023 0.15480
  -1   2 -10   49.79    9.12 132 0.88807-0.97054 0.07544 0.19470-0.43954-0.15154
  -1   2  -5  125.34    8.86 132 0.88933-0.96636 0.07230 0.19779-0.43751 0.14152
   0   0 -15    2.47   12.93 132 0.88803-0.90160 0.07553-0.07326-0.43960-0.44188
   0   1 -15    8.13   12.81 132 0.88709-0.90108 0.07784 0.05957-0.44109-0.44401
   1   4 -13    6.49   12.66 131 0.88940-0.82464 0.07214 0.46784-0.43741-0.32663
   1   4  -2   26.31    8.78 132 0.88972-0.81545 0.07134 0.46872-0.43689 0.31879
   3  -3   2   44.20    8.66 132 0.88792-0.66679 0.07580-0.48021-0.43978 0.56290
   3   6  -8   -5.26   13.25 132 0.88854-0.67190 0.07427 0.73697-0.43879-0.03070
   3   6  -7   -0.78   12.74 132 0.88854-0.67097 0.07427 0.73686-0.43879 0.02818
   6   6   1   -3.85   14.48 133 0.88708-0.44118 0.07787 0.73297-0.44111 0.50507
   7  -2   7    2.50   10.63 132 0.88847-0.36751 0.07445-0.34248-0.43890 0.86010
   7   6   2    7.32   15.90 133 0.88483-0.36309 0.08332 0.72945-0.44461 0.56917
   8   5   5    3.45   19.78 135 0.88046-0.28289 0.09359 0.58330-0.45117 0.75382
   9  -5   3   15.78   12.57 131 0.88981-0.22732 0.07112-0.74441-0.43674 0.62740
  10  -3   7    9.86   11.86 133 0.88772-0.14664 0.07628-0.47797-0.44009 0.86522
  10   0   9   10.97   13.89 133 0.88674-0.14084 0.07869-0.07627-0.44164 0.98487
  10   1   9   -1.21   14.89 133 0.88667-0.13999 0.07885 0.05876-0.44174 0.98572
  -1  -1 -10   41.12   12.54 133 0.88414-0.96845 0.08487-0.21836-0.44567-0.14429
   3   5   0   33.10   10.56 134 0.88420-0.65897 0.08472 0.59028-0.44557 0.44912
   3   6  -6   10.81   12.14 132 0.88728-0.66772 0.07729 0.73397-0.44079 0.08857
   4  -5  -3   26.62   10.74 133 0.88590-0.59734 0.08065-0.75390-0.44296 0.27392
   4  -4   1   85.96    9.53 133 0.88515-0.59153 0.08246-0.62090-0.44412 0.50979
   4   6  -2   12.18   12.03 133 0.88602-0.58891 0.08034 0.73049-0.44276 0.32736
   5  -5  -1   32.90   10.54 133 0.88455-0.52024 0.08388-0.75667-0.44503 0.39441
   7  -4   4   34.74    9.95 133 0.88536-0.36876 0.08195-0.62014-0.44379 0.68957
   7   0   8   33.10   10.08 133 0.88590-0.36252 0.08063-0.07888-0.44294 0.92282
   7   1   8   83.97   11.42 134 0.88408-0.36074 0.08502 0.05058-0.44576 0.92489
   9  -4   5   18.24   11.90 134 0.88460-0.21964 0.08378-0.62050-0.44497 0.75170
  10  -2   8   -0.14   12.33 133 0.88615-0.14393 0.08004-0.34782-0.44257 0.92516
  10   3   8    3.16   20.48 138 0.87246-0.12722 0.11150 0.29506-0.46250 0.94368
  -1   0 -12   31.15   11.54 134 0.88133-0.96661 0.09148-0.08989-0.44994-0.25756
  -1   1 -12    3.93    9.60 134 0.88236-0.96803 0.08908 0.04769-0.44841-0.26146
  -1   2 -11   -4.01    9.78 134 0.88257-0.96504 0.08859 0.18121-0.44809-0.20109
   0   3 -13    4.46   10.84 133 0.88421-0.89436 0.08470 0.32207-0.44561-0.32140
   0   3  -2 1031.41   13.51 134 0.88212-0.88193 0.08964 0.31516-0.44876 0.33077
   0   4  -8   18.73    9.19 134 0.88351-0.88823 0.08636 0.45473-0.44667-0.02641
   0   4  -7   16.19    9.03 134 0.88276-0.88731 0.08813 0.45400-0.44780 0.03307
   2  -2   2  160.16    8.25 134 0.88384-0.73649 0.08558-0.35512-0.44617 0.56670
   3   6  -5   -0.35   10.79 134 0.88316-0.66345 0.08720 0.72595-0.44720 0.15384
   5   6   0   -5.78   13.46 135 0.88157-0.50966 0.09093 0.72164-0.44958 0.45383
   6  -3   5   21.40    7.99 134 0.88412-0.43999 0.08490-0.48856-0.44574 0.74887
   6  -1   7   51.73    9.59 134 0.88374-0.43680 0.08581-0.22033-0.44632 0.86594
   8  -5   2    5.11   12.27 134 0.88323-0.29475 0.08703-0.76086-0.44710 0.57725
   8  -1   8   10.61   10.25 134 0.88322-0.28722 0.08704-0.22016-0.44711 0.92827
  -1   1  -3  339.23   11.76 135 0.88025-0.95585 0.09384 0.04184-0.45153 0.27404
  -1   2  -4  380.97   10.75 135 0.87990-0.95610 0.09465 0.17501-0.45204 0.21489
   0   2 -15   -8.89   13.70 135 0.87862-0.89176 0.09759 0.17469-0.45391-0.43083
   0   4  -9   -2.13    8.12 135 0.88147-0.88831 0.09100 0.44998-0.44972-0.08228
   0   4  -6   37.61    7.80 134 0.88120-0.88454 0.09164 0.44852-0.45013 0.09535
   1  -2   0  500.74   12.67 135 0.87942-0.80726 0.09575-0.36486-0.45274 0.45456
   1   5  -8   -5.24   10.42 135 0.87982-0.81060 0.09482 0.58150-0.45215-0.01991
   1   5  -7    3.23   10.63 136 0.87849-0.80956 0.09787 0.58032-0.45408 0.04038
   2  -4  -4   -0.41    9.74 136 0.87803-0.73742 0.09893-0.63751-0.45475 0.22291
   2  -3   0  167.55    8.31 135 0.88122-0.73652 0.09159-0.49507-0.45010 0.45388
   2   5  -2   45.94    9.82 135 0.88041-0.73204 0.09346 0.58218-0.45129 0.33378
   3  -4  -1  562.02   11.73 135 0.88080-0.66381 0.09257-0.63090-0.45072 0.39746
   4  -3   3   15.52    8.33 135 0.88029-0.58461 0.09374-0.49753-0.45146 0.63467
   5  -4   2  180.78   10.05 135 0.88050-0.51355 0.09326-0.63140-0.45116 0.57694
   5  -3   4   90.88    8.72 135 0.87960-0.51024 0.09534-0.49851-0.45248 0.69541
   6  -5   0   31.16   10.69 135 0.87942-0.44070 0.09575-0.76852-0.45274 0.46223
   6  -4   3    0.98    9.39 135 0.88073-0.43851 0.09274-0.63096-0.45083 0.63651
   7  -5   1   12.14   11.75 135 0.87946-0.36587 0.09565-0.76929-0.45268 0.52242
   8  -3   6   22.31   10.76 135 0.87982-0.28714 0.09483-0.49718-0.45216 0.81611
  10  -4   5   -1.58   13.45 135 0.87972-0.13955 0.09505-0.63337-0.45229 0.76107
   0  -2  -3  161.45   13.55 137 0.87263-0.87668 0.11091-0.38074-0.46217 0.28598
   0   4 -10    4.40    9.14 135 0.87849-0.88568 0.09782 0.44379-0.45395-0.13706
   0   4  -5   56.42    9.24 136 0.87672-0.87921 0.10183 0.43806-0.45648 0.16045
   1   5 -10   -8.98   10.97 136 0.87639-0.80890 0.10257 0.57216-0.45695-0.13187
   1   5  -9   10.59    9.70 135 0.87855-0.81016 0.09770 0.57882-0.45387-0.07720
   1   5  -6    5.24   10.07 135 0.87795-0.80614 0.09906 0.57618-0.45473 0.10059
   2  -1   3  505.90   11.54 136 0.87850-0.72885 0.09780-0.23263-0.45394 0.63355
   2   4   1    3.83    9.05 136 0.87642-0.72516 0.10252 0.43618-0.45691 0.51623
   3   6  -4    0.71   10.48 136 0.87828-0.65764 0.09830 0.71296-0.45425 0.22011
   4  -5  -4   89.16   10.83 136 0.87611-0.58820 0.10320-0.77635-0.45734 0.22870
   5   5   3    0.72   12.91 136 0.87594-0.50160 0.10358 0.57067-0.45758 0.63775
   6  -2   6   35.31    9.32 136 0.87694-0.43085 0.10134-0.36988-0.45617 0.81780
   8  -2   7    7.74   10.26 136 0.87549-0.28077 0.10459-0.37264-0.45821 0.88129
   8   2   8   -2.01   13.86 140 0.86685-0.27035 0.12329 0.14677-0.46985 0.94618
  -1  -1 -11   12.83   13.41 138 0.86947-0.95448 0.11752-0.25131-0.46635-0.18278
  -1   2 -12   12.96   10.58 137 0.87386-0.95807 0.10797 0.16341-0.46040-0.24878
  -1   3  -8  113.63    9.60 137 0.87381-0.95367 0.10810 0.29640-0.46048-0.01375
  -1   3  -7   14.81    8.70 137 0.87315-0.95174 0.10955 0.29585-0.46139 0.04671
   0   3 -14    8.05   12.20 138 0.87271-0.88610 0.11051 0.29797-0.46199-0.36720
   0   4 -11   -0.51   11.44 136 0.87515-0.88158 0.10513 0.43480-0.45862-0.18975
   1   0   2   12.98   10.41 137 0.87298-0.79677 0.10992-0.10940-0.46162 0.58173
   1   4  -1   62.12    9.25 137 0.87336-0.79884 0.10907 0.43086-0.46109 0.40126
   1   5  -5    4.11   10.37 137 0.87295-0.80134 0.10997 0.56631-0.46165 0.16641
   2  -4 -11    8.54   18.20 139 0.86635-0.73302 0.12411-0.66337-0.47042-0.17529
   4   5   2   64.61   13.54 138 0.87018-0.57095 0.11599 0.56000-0.46540 0.58667
   4   6  -1    4.65   11.90 137 0.87236-0.57513 0.11128 0.70047-0.46247 0.40651
   5  -5  -2    1.71   10.18 138 0.87188-0.50857 0.11232-0.78466-0.46312 0.35308
   6   2   7   57.76   14.35 140 0.86513-0.41529 0.12665 0.14379-0.47198 0.89043
   8  -4   4   16.81   10.63 137 0.87415-0.28349 0.10735-0.64536-0.46002 0.70732
   9  -5   2    8.63   12.61 137 0.87468-0.21298 0.10616-0.77843-0.45927 0.59015
   9  -1   8    7.52   10.94 138 0.87212-0.20201 0.11180-0.24483-0.46279 0.94562
  -1   0  -3   18.15   11.12 138 0.86908-0.94582 0.11821-0.11755-0.46679 0.28848
  -1   1 -13    8.95    9.92 138 0.87085-0.95725 0.11441 0.02220-0.46443-0.30424
  -1   3  -9   92.37    8.76 137 0.87211-0.95335 0.11167 0.29307-0.46272-0.06993
  -1   3  -6   14.94    8.51 138 0.87010-0.94782 0.11602 0.28846-0.46543 0.11004
   0  -2 -13   -0.30   18.56 140 0.86192-0.87562 0.13311-0.40097-0.47594-0.28859
   0  -1 -15    7.70   15.75 140 0.86480-0.88065 0.12720-0.26046-0.47233-0.41241
   0   1 -16   -1.11   12.88 138 0.87036-0.88550 0.11546 0.02029-0.46508-0.47894
   1  -3  -3  173.02   10.82 138 0.87056-0.80113 0.11503-0.51968-0.46481 0.29043
   1   5 -11    5.61   12.28 137 0.87168-0.80571 0.11260 0.56386-0.46330-0.18513
   3   6  -3    8.31   12.78 139 0.86931-0.64844 0.11771 0.69503-0.46648 0.29165
   5  -1   6    4.99    8.52 139 0.86977-0.49703 0.11673-0.25011-0.46587 0.82362
   6   5   4    1.38   14.21 138 0.86898-0.42090 0.11840 0.55543-0.46691 0.70726
   9  -3   6   23.93   11.11 138 0.87148-0.20432 0.11304-0.51633-0.46358 0.82985
  -1   0 -13   21.22   12.05 139 0.86629-0.95229 0.12423-0.12267-0.47044-0.29689
  -1   3 -10   11.77    8.75 139 0.86868-0.95063 0.11918 0.28700-0.46732-0.12442
   0  -1  -1  217.63   15.63 140 0.86549-0.86747 0.12588-0.26121-0.47145 0.41162
   0   0 -16   -0.09   14.26 140 0.86504-0.88119 0.12682-0.12461-0.47203-0.47151
   0   4 -12    7.07   12.14 139 0.86771-0.87707 0.12122 0.42082-0.46859-0.24054
   0   4  -4   -2.72    7.78 139 0.86896-0.87110 0.11858 0.42136-0.46695 0.23031
   1   3   1  397.40   12.46 139 0.86585-0.78923 0.12514 0.28037-0.47100 0.53061
   1   5  -4   14.26   10.19 139 0.86620-0.79370 0.12441 0.55158-0.47055 0.23443
   2  -4  -5    0.51    9.99 140 0.86535-0.72524 0.12618-0.66442-0.47164 0.18073
   2   6  -8   -3.64   12.86 139 0.86618-0.72334 0.12445 0.68730-0.47058-0.00043
   3  -2   3  205.52    8.39 139 0.86857-0.64565 0.11941-0.38919-0.46747 0.64860
   4  -5  -5   25.01   10.65 139 0.86785-0.58114 0.12092-0.79409-0.46840 0.18076
   4  -4   0   34.21    9.46 139 0.86649-0.57416 0.12380-0.66225-0.47018 0.47660
   5  -2   5   28.40    9.01 139 0.86770-0.49625 0.12125-0.38966-0.46860 0.76934
   7  -3   5   12.25    9.78 139 0.86825-0.34939 0.12009-0.52418-0.46789 0.77290
   8  -5   1   13.32   12.33 139 0.86788-0.28071 0.12088-0.79349-0.46838 0.53882
   8   0   8   42.82   10.32 139 0.86649-0.26970 0.12379-0.12223-0.47017 0.95092
   9  -2   7   19.96   10.33 139 0.86631-0.19700 0.12417-0.39301-0.47040 0.89605
  -1   2 -13    9.14   11.68 140 0.86335-0.94941 0.13025 0.14135-0.47415-0.29464
  -1   2  -3  166.33    9.66 140 0.86379-0.93900 0.12933 0.14197-0.47359 0.29523
  -1   3 -11   11.15   10.21 140 0.86334-0.94653 0.13026 0.27607-0.47415-0.17670
  -1   3  -5  107.25    8.51 140 0.86346-0.94037 0.13002 0.27527-0.47401 0.17776
   0   3 -15    0.03   13.00 139 0.86552-0.87543 0.12575 0.27816-0.47139-0.40797
   2   5  -1   88.97    9.65 140 0.86511-0.71672 0.12661 0.54796-0.47192 0.41409
   2   6  -7    1.53   10.72 140 0.86544-0.72190 0.12592 0.68504-0.47150 0.05974
   2   6  -6   11.68   11.90 141 0.86243-0.71791 0.13213 0.67971-0.47530 0.12225
   3  -4  -2  163.52   10.21 140 0.86298-0.64641 0.13099-0.67004-0.47460 0.36048
   3  -1   4  987.75   14.36 140 0.86433-0.63995 0.12822-0.26322-0.47291 0.71262
   4  -2   4   90.03    8.70 140 0.86456-0.56755 0.12775-0.39757-0.47262 0.71353
   4  -1   5    2.31    8.17 140 0.86363-0.56466 0.12967-0.26405-0.47379 0.77371
   4   3   5   36.33   21.75 146 0.84263-0.54147 0.17032 0.23504-0.49814 0.79676
   6  -5  -1   15.38    9.40 140 0.86550-0.42744 0.12580-0.79872-0.47142 0.42139
   6   0   7  179.50    9.75 140 0.86309-0.41471 0.13077-0.13035-0.47446 0.89400
   6   6   2   -3.31   14.81 141 0.86076-0.41339 0.13552 0.67526-0.47736 0.60032
   7  -5   0    3.48   11.07 140 0.86390-0.35154 0.12910-0.80073-0.47345 0.48327
   7  -4   3   40.41    8.41 140 0.86534-0.34997 0.12612-0.66431-0.47162 0.65745
   7  -1   7  163.54   10.16 141 0.86226-0.34115 0.13247-0.26715-0.47550 0.89640
   9  -4   4   23.70   10.25 140 0.86546-0.20098 0.12587-0.66344-0.47147 0.71952
  10  -3   6    3.19   10.91 140 0.86519-0.12452 0.12644-0.52905-0.47181 0.83871
  10  -1   8    0.33   11.56 141 0.86218-0.12144 0.13264-0.26448-0.47561 0.95527
   0   2   0  395.13   11.72 141 0.86102-0.85919 0.13491 0.13604-0.47704 0.47751
   0   3  -1  229.69    9.84 141 0.85970-0.85874 0.13757 0.26784-0.47866 0.41969
   0   4 -13   -0.23   12.94 141 0.86011-0.87081 0.13675 0.40490-0.47816-0.28930
   3  -3   1   28.11    7.21 141 0.86191-0.64187 0.13311-0.53808-0.47595 0.53914
   3   3   4   12.62   13.26 143 0.85219-0.62574 0.15231 0.25286-0.48753 0.72591
   3   5   1    6.82   11.11 141 0.85941-0.63494 0.13816 0.53781-0.47902 0.54029
   4  -5 -10   -5.97   15.08 143 0.85374-0.57116 0.14933-0.81832-0.48575-0.09581
   4  -5  -6    8.89   10.63 141 0.86106-0.57522 0.13483-0.80859-0.47700 0.12963
   5  -5  -3   20.95   10.70 141 0.86041-0.49786 0.13615-0.80988-0.47780 0.30862
   5  -4   1   59.45   10.11 141 0.86028-0.49332 0.13640-0.67561-0.47795 0.54340
   5   6   1   -3.62   13.18 141 0.86006-0.48773 0.13685 0.67481-0.47823 0.54176
   6  -4   2   11.75    9.99 141 0.86043-0.41869 0.13610-0.67460-0.47777 0.60415
   8   1   8   14.81   12.13 142 0.85882-0.26125 0.13934-0.00310-0.47973 0.96076
   9  -5   1    1.70   12.41 141 0.86011-0.19752 0.13675-0.81125-0.47816 0.54987
  10  -4   4   -0.21   12.35 141 0.86034-0.12059 0.13629-0.67535-0.47788 0.72739
  10  -2   7   11.89   11.14 141 0.85926-0.11652 0.13846-0.40682-0.47920 0.90507
  11  -1   8   -1.34   13.03 141 0.86068-0.04399 0.13560-0.26961-0.47747 0.96174
  -1   1 -14    2.79   11.07 142 0.85648-0.94405 0.14446-0.00794-0.48280-0.34505
  -1   3 -12    4.52   11.32 142 0.85674-0.94056 0.14395 0.26237-0.48249-0.22716
   0   4  -3    8.20    8.80 141 0.85851-0.85879 0.14044 0.39911-0.48038 0.30237
   1   5  -3    0.48    9.81 142 0.85621-0.78292 0.14498 0.53063-0.48311 0.30603
   2  -4  -6   33.83   10.92 143 0.85472-0.71503 0.14789-0.68638-0.48486 0.13564
   2   6  -5   -1.38   11.03 142 0.85749-0.71252 0.14246 0.66974-0.48159 0.18743
   3   6  -2    5.76   11.20 141 0.85898-0.63672 0.13950 0.67107-0.47981 0.36375
   4  -5  -9   19.65   14.95 142 0.85487-0.57177 0.14761-0.82188-0.48470-0.04022
   4  -5  -7   22.91   12.48 142 0.85582-0.57047 0.14574-0.81908-0.48357 0.07699
   4   4   4    7.18   12.70 143 0.85287-0.55260 0.15148 0.38887-0.48701 0.72616
   6  -3   4   93.52    9.25 142 0.85812-0.41475 0.14120-0.54437-0.48084 0.72462
   7  -2   6   55.24    9.79 142 0.85845-0.33966 0.14056-0.40828-0.48045 0.84316
  11  -2   7   -5.41   12.53 142 0.85680-0.03964 0.14383-0.41340-0.48242 0.90987
  -1  -1 -12    2.38   12.15 143 0.85183-0.93672 0.15363-0.28716-0.48823-0.21978
  -1   2 -14   -0.83   12.76 142 0.85556-0.93805 0.14641 0.12333-0.48390-0.33786
  -1   3  -4   33.64    8.33 143 0.85321-0.92954 0.15097 0.25320-0.48664 0.24899
   1  -1   1  803.62   16.62 143 0.85281-0.77880 0.15175-0.28689-0.48711 0.54726
   1   2   2  128.67   11.39 143 0.85257-0.77578 0.15220 0.11792-0.48737 0.60641
   2  -4 -10    6.08   14.27 144 0.85009-0.71493 0.15695-0.69651-0.49020-0.09672
   2  -3  -1  204.98    9.83 143 0.85446-0.70989 0.14855-0.55245-0.48519 0.42991
   4  -5  -8   19.84   13.26 143 0.85328-0.56914 0.15084-0.82390-0.48656 0.02113
   4  -3   2   22.06    8.47 143 0.85291-0.55810 0.15155-0.55489-0.48699 0.61094
   4   6   0   -3.65   11.71 143 0.85386-0.55701 0.14973 0.66127-0.48589 0.48910
   6   1   7   59.23   11.80 144 0.85004-0.40159 0.15704-0.02097-0.49026 0.90903
   8  -5   0   31.49   12.00 143 0.85292-0.26616 0.15153-0.82476-0.48697 0.49803
   8  -4   3   19.13   10.03 143 0.85311-0.26324 0.15116-0.68866-0.48676 0.67379
   8  -3   5   32.51    8.59 143 0.85526-0.26325 0.14699-0.55033-0.48425 0.78990
   9   0   8    5.39   10.53 143 0.85320-0.18292 0.15099-0.14948-0.48665 0.96904
   9   2   8   -1.62   15.29 144 0.84867-0.17719 0.15964 0.11214-0.49180 0.97444
  -1   0 -14    0.28   13.42 145 0.84772-0.93470 0.16159-0.15979-0.49297-0.33386
   1   4   0   67.09    9.95 145 0.84851-0.77274 0.16011 0.38026-0.49210 0.49251
   2  -4  -7    4.52   12.12 145 0.84770-0.70954 0.16162-0.70121-0.49299 0.08350
   2   6  -4   10.07   11.31 144 0.84951-0.70383 0.15822 0.65491-0.49098 0.25561
   3   4   3  410.75   14.11 144 0.84873-0.62334 0.15969 0.38002-0.49185 0.67098
   5  -5  -4    5.71   10.93 144 0.84868-0.48691 0.15980-0.83276-0.49191 0.26356
   5  -3   3   54.52    7.08 143 0.85236-0.48398 0.15279-0.55602-0.48774 0.67078
   6  -5  -2    6.86    8.53 143 0.85204-0.41481 0.15339-0.82671-0.48810 0.37892
   7  -5  -1   12.70   10.97 144 0.84970-0.33781 0.15786-0.83065-0.49076 0.44164
  -1   3 -13   18.76   10.81 144 0.84828-0.93247 0.16084 0.24595-0.49250-0.27648
  -1   4  -8   48.56    9.61 145 0.84561-0.92519 0.16580 0.37388-0.49543 0.02278
   0   5 -10    0.27   11.61 145 0.84667-0.85349 0.16385 0.51133-0.49428-0.09618
   0   5  -9   -3.33    9.00 145 0.84862-0.85448 0.16020 0.51549-0.49212-0.03997
   0   5  -8    9.30    9.26 144 0.84898-0.85357 0.15951 0.51652-0.49171 0.01837
   0   5  -7   21.45   10.28 145 0.84782-0.85092 0.16170 0.51351-0.49301 0.07874
   1  -3  -4   31.77   10.18 146 0.84536-0.77727 0.16626-0.56996-0.49570 0.26206
   2  -4  -9    9.26   13.35 147 0.84065-0.70398 0.17488-0.71282-0.50075-0.02585
   2  -4  -8   52.07   12.47 146 0.84149-0.70360 0.17337-0.71211-0.49986 0.03304
   3  -4  -3    1.59    9.14 146 0.84502-0.62899 0.16691-0.70536-0.49608 0.32398
   4  -4  -1   22.46    9.32 145 0.84669-0.55547 0.16380-0.70220-0.49425 0.44179
   8  -1   7   29.45    9.11 146 0.84528-0.25062 0.16642-0.30014-0.49579 0.91739
   9  -3   5   26.32   10.66 145 0.84590-0.17985 0.16527-0.56872-0.49511 0.80164
  10   0   8   11.92   12.67 146 0.84300-0.10086 0.17061-0.16877-0.49825 0.97926
  -2   1  -9   13.58    8.95 146 0.84442-0.99938 0.16766-0.03205-0.49645-0.03668
  -2   1  -8  151.52    9.55 146 0.84462-0.99887 0.16729-0.03110-0.49623 0.02278
  -1   1 -15   -5.96   12.99 147 0.84098-0.92785 0.17393-0.03880-0.50012-0.38606
  -1   1  -2  195.76    9.89 146 0.84461-0.91937 0.16731-0.03089-0.49625 0.37763
  -1   4 -10   23.92   11.16 146 0.84306-0.92403 0.17015 0.37098-0.49791-0.09372
  -1   4  -9   77.84    8.90 145 0.84509-0.92608 0.16642 0.37349-0.49572-0.03618
  -1   4  -7    3.62    8.91 146 0.84266-0.92191 0.17088 0.37156-0.49834 0.08224
   0   5 -11   -1.10   12.46 146 0.84283-0.85084 0.17058 0.50446-0.49816-0.15092
   0   5  -6   53.49   10.93 146 0.84318-0.84666 0.16994 0.50508-0.49779 0.14341
   1   5  -2    0.07    9.28 146 0.84245-0.76812 0.17126 0.50193-0.49856 0.38059
   2  -2   1  139.02    9.64 146 0.84347-0.69637 0.16940-0.43943-0.49747 0.55899
   2   5   0   26.50    9.21 146 0.84305-0.69315 0.17017 0.50506-0.49792 0.49950
   3   6  -1    8.05   10.34 146 0.84337-0.62043 0.16959 0.63905-0.49758 0.44008
   5   0   6   -0.94    9.57 146 0.84107-0.46721 0.17376-0.17325-0.50002 0.86008
   5   4   5   29.00   17.93 149 0.83060-0.45591 0.19223 0.34792-0.51068 0.81031
   6  -2   5   42.25    9.25 146 0.84286-0.39753 0.17052-0.44006-0.49813 0.80040
   6  -1   6   23.00    8.81 146 0.84148-0.39453 0.17302-0.30685-0.49959 0.86083
   7  -4   2    5.34    7.96 146 0.84457-0.32916 0.16739-0.70645-0.49629 0.62402
   7   5   5    2.15   20.39 149 0.83032-0.30790 0.19271 0.48329-0.51096 0.81277
   8  -2   6   13.40   10.07 146 0.84395-0.25018 0.16853-0.43737-0.49696 0.86103
   9  -5   0   -0.09   12.57 146 0.84417-0.18394 0.16812-0.84091-0.49672 0.50882
   9  -4   3   14.50    9.33 146 0.84468-0.18117 0.16718-0.70510-0.49617 0.68475
   9   1   8    4.94   13.15 146 0.84179-0.17097 0.17246-0.03601-0.49926 0.98184
  11   0   8   -2.65   13.67 147 0.84107-0.02357 0.17376-0.17330-0.50002 0.98447
  -2   1 -10   39.74    9.47 147 0.84031-0.99657 0.17483-0.03944-0.50067-0.09062
  -2   1  -7   38.38    8.50 147 0.84056-0.99415 0.17438-0.03898-0.50041 0.08584
  -2   2  -9   27.59    9.33 147 0.84025-0.99499 0.17494 0.09535-0.50074-0.03235
  -2   2  -8  333.72   11.00 147 0.84045-0.99418 0.17458 0.09541-0.50053 0.02665
  -1   2 -15   -2.62   12.43 146 0.84094-0.92531 0.17371 0.09638-0.50002-0.38111
  -1   3 -14    6.90   12.63 147 0.83904-0.92304 0.17713 0.22795-0.50201-0.32295
  -1   4 -11   18.82   11.35 147 0.83837-0.92112 0.17831 0.36291-0.50270-0.14811
  -1   4  -6   45.25    9.37 147 0.83874-0.91721 0.17766 0.36088-0.50232 0.14637
   0  -1 -16    5.18   17.57 147 0.83729-0.85133 0.18023-0.31274-0.50381-0.43658
   0   4  -2   10.91    7.29 146 0.84102-0.84095 0.17355 0.36657-0.49993 0.38097
   1   6  -9   10.01   13.20 146 0.84032-0.77162 0.17483 0.63329-0.50067-0.02866
   1   6  -8    1.25   12.59 147 0.83892-0.77074 0.17734 0.63297-0.50214 0.03090
   2   6  -3   -0.41   10.80 146 0.84094-0.69293 0.17371 0.63550-0.50002 0.32367
   5  -5  -5   -7.15   10.56 147 0.83879-0.47684 0.17757-0.85258-0.50227 0.21393
   5  -4   0   32.14    9.68 147 0.83890-0.47219 0.17737-0.71585-0.50215 0.51017
   6  -5  -3   20.53   10.24 147 0.83900-0.40202 0.17719-0.85209-0.50205 0.33354
   6  -4   1   -0.79    9.69 147 0.83892-0.39695 0.17734-0.71720-0.50214 0.56920
   7  -3   4   13.93    8.35 146 0.84083-0.32283 0.17389-0.57835-0.50013 0.74573
  10  -4   3    6.29   11.93 147 0.83942-0.10189 0.17643-0.71484-0.50161 0.69173
  10  -3   5    6.69   11.71 147 0.83867-0.10020 0.17777-0.57944-0.50239 0.80839
  10   2   8    2.89   16.05 148 0.83455-0.08943 0.18507 0.08684-0.50660 0.99043
  -2   1 -11   24.56   10.18 148 0.83336-0.99089 0.18682-0.05015-0.50758-0.14251
  -2   2 -10   15.98    8.27 147 0.83705-0.99303 0.18034 0.09024-0.50385-0.08841
  -2   2  -7  185.29    8.66 147 0.83700-0.99005 0.18043 0.08966-0.50390 0.08919
  -1   2  -2  139.43    8.15 147 0.83721-0.91160 0.18005 0.09047-0.50368 0.38502
  -1   3  -3   73.68    7.54 147 0.83679-0.91203 0.18080 0.22385-0.50411 0.32620
   0   5  -5   26.29   10.28 148 0.83601-0.83852 0.18219 0.49382-0.50491 0.20967
   1  -2  -1  405.56   11.92 149 0.83335-0.76173 0.18685-0.45661-0.50760 0.45014
   1   6  -7    8.32   10.75 147 0.83694-0.76722 0.18053 0.63025-0.50396 0.09131
   2   3   3   59.97   11.71 149 0.83180-0.68046 0.18954 0.21590-0.50914 0.68787
   2   4   2    4.47    9.67 148 0.83354-0.68251 0.18651 0.35334-0.50740 0.62661
   7  -5  -2    9.35   11.09 148 0.83494-0.32355 0.18406-0.85770-0.50600 0.39777
   7   0   7   27.29    9.30 148 0.83480-0.31270 0.18431-0.18369-0.50614 0.92711
   8  -5  -1    9.58   10.75 148 0.83696-0.25103 0.18049-0.85333-0.50394 0.45562
   9  -1   7   10.19   11.06 149 0.83382-0.16429 0.18603-0.31962-0.50713 0.93104
  10   1   8    4.27   14.41 149 0.83180-0.08645 0.18953-0.05274-0.50914 0.99339
  11  -3   5   -4.49   11.85 148 0.83697-0.02299 0.18048-0.58395-0.50393 0.81197
  -2   1  -6   -2.99    8.64 149 0.83124-0.98402 0.19044-0.05643-0.50969 0.15365
  -2   2 -11    4.33    9.96 149 0.83164-0.98856 0.18975 0.08082-0.50929-0.14177
  -1  -1 -13    5.00   12.42 150 0.82760-0.91413 0.19668-0.33060-0.51324-0.25342
  -1   4 -12    2.04   12.52 150 0.82914-0.91655 0.19406 0.35088-0.51175-0.20209
  -1   4  -5  134.35    9.38 149 0.83072-0.90811 0.19134 0.34750-0.51020 0.21347
   1   6  -6   10.09   12.13 149 0.83243-0.76205 0.18839 0.62273-0.50852 0.15476
   3  -3   0   79.80    8.98 149 0.83069-0.61131 0.19140-0.59486-0.51024 0.51499
   5  -5  -6   10.95   11.31 150 0.82668-0.46685 0.19825-0.86841-0.51413 0.16848
   5  -2   4  144.06    9.28 149 0.83006-0.45942 0.19248-0.46117-0.51086 0.75306
   5   6   2   11.48   14.56 150 0.82718-0.45454 0.19739 0.61311-0.51365 0.63606
   8  -4   2    8.71   10.66 149 0.83088-0.24157 0.19107-0.72912-0.51005 0.63834
   9  -2   6    3.11    9.21 149 0.83288-0.16518 0.18761-0.45588-0.50807 0.87276
  11   1   8   -0.55   15.32 150 0.82755-0.00928 0.19677-0.05990-0.51330 0.99797
  -2   0  -9    1.86    9.40 150 0.82446-0.98010 0.20192-0.20143-0.51611-0.01645
  -2   2  -6  186.71    8.40 149 0.82942-0.98193 0.19352 0.07636-0.51135 0.15532
  -1   0 -15   23.42   13.51 150 0.82655-0.91457 0.19841-0.19638-0.51413-0.36991
   0   5  -4    3.88   10.17 150 0.82580-0.82787 0.19968 0.47606-0.51485 0.27804
   1   6  -5   14.76   11.53 150 0.82557-0.75451 0.20006 0.61094-0.51506 0.22033
   3  -4  -4   14.98    8.70 150 0.82610-0.61024 0.19918-0.73798-0.51456 0.28369
   3  -2   2  333.94   10.34 150 0.82603-0.60423 0.19929-0.46909-0.51463 0.63601
   4   5   3   46.65   12.94 151 0.82392-0.52442 0.20284 0.47176-0.51663 0.69817
   4   6   1    0.50   12.66 151 0.82531-0.52760 0.20050 0.61132-0.51531 0.57834
   6  -5  -4   33.62   12.56 151 0.82504-0.38922 0.20096-0.87436-0.51557 0.28819
   6  -3   3  107.30    8.59 150 0.82843-0.38603 0.19522-0.59954-0.51232 0.69652
   8  -3   4   18.45    9.90 150 0.82649-0.23447 0.19851-0.60238-0.51419 0.76051
   9  -5  -1    3.15   12.57 150 0.82754-0.16801 0.19673-0.86853-0.51318 0.46577
  10  -2   6    8.05   11.57 150 0.82756-0.08585 0.19670-0.46553-0.51316 0.88020
  10  -1   7   19.27   12.49 150 0.82693-0.08409 0.19777-0.33125-0.51377 0.93888
  -2   0 -10    1.64    9.18 151 0.82038-0.97717 0.20869-0.20815-0.51993-0.07163
  -2   0  -8    1.65    9.75 151 0.82295-0.97778 0.20443-0.20405-0.51754 0.04377
  -2   1 -12   12.51    9.72 151 0.82380-0.98217 0.20301-0.06735-0.51675-0.19296
  -2   2 -12   26.98   10.83 151 0.82409-0.98170 0.20253 0.06845-0.51647-0.19301
  -2   3 -10   19.21    9.97 151 0.82269-0.97751 0.20487 0.19990-0.51779-0.07367
  -2   3  -9   54.18    9.72 151 0.82422-0.97856 0.20232 0.20286-0.51636-0.01641
  -2   3  -8  139.73    9.89 151 0.82341-0.97700 0.20367 0.20147-0.51712 0.04354
  -1   1 -16    5.56   13.93 152 0.82028-0.90938 0.20886-0.07245-0.52003-0.42516
  -1   4 -13   15.02   12.90 151 0.82254-0.90946 0.20511 0.33848-0.51793-0.25311
   0  -2 -14    3.74   20.55 153 0.81265-0.82655 0.22120-0.48925-0.52688-0.29586
   0   3   0   -0.04    8.57 152 0.82108-0.82104 0.20753 0.19993-0.51929 0.51960
   2  -3  -2  402.76   10.93 151 0.82269-0.67915 0.20487-0.60866-0.51779 0.40298
   2   6  -2    8.10   11.10 151 0.82270-0.67522 0.20485 0.60850-0.51778 0.40140
   3   5   2   21.42   11.32 152 0.82092-0.59579 0.20780 0.46840-0.51944 0.64022
   4  -4  -2   45.42    7.73 151 0.82503-0.53541 0.20095-0.73953-0.51559 0.40321
   4  -2   3   85.27    9.04 151 0.82368-0.52812 0.20321-0.47260-0.51686 0.69846
   5  -5  -7    4.70   12.96 152 0.81966-0.46082 0.20986-0.88049-0.52059 0.11599
   5  -1   5  352.71   10.83 151 0.82174-0.44992 0.20643-0.34056-0.51867 0.81908
   7  -2   5   62.44    9.52 151 0.82143-0.30268 0.20695-0.47524-0.51896 0.82229
   8  -5  -2   13.95   11.57 152 0.82141-0.23665 0.20698-0.87958-0.51898 0.41172
   9  -4   2   10.32   10.58 151 0.82191-0.15916 0.20616-0.74401-0.51851 0.64796
  11  -2   6   -9.14   12.32 151 0.82366-0.00963 0.20326-0.47136-0.51688 0.88238
  11  -1   7    3.43   12.90 151 0.82349-0.00843 0.20353-0.33633-0.51704 0.94199
  -2   3 -11   -0.79   10.08 152 0.81852-0.97437 0.21170 0.19203-0.52157-0.12856
  -2   3  -7   16.67    8.83 152 0.81974-0.97251 0.20972 0.19558-0.52047 0.10474
  -1   4  -4  110.09    9.73 152 0.81920-0.89511 0.21060 0.32843-0.52096 0.28275
   0  -2  -4   65.53   13.11 154 0.81053-0.81535 0.22453-0.49409-0.52867 0.29306
   1  -3  -5    5.93    9.57 153 0.81715-0.74975 0.21393-0.61839-0.52281 0.23005
   1   5  -1   13.42    9.84 152 0.81989-0.74507 0.20946 0.46601-0.52032 0.46152
   3   6   0    9.53   11.82 152 0.81755-0.59433 0.21329 0.59760-0.52246 0.52506
   4  -3   1  139.64    7.87 152 0.82122-0.52800 0.20727-0.61074-0.51909 0.58384
   4   0   5   18.07    8.86 153 0.81827-0.51997 0.21212-0.21118-0.52181 0.81957
   5  -5 -10    2.56   14.06 152 0.81851-0.46214 0.21172-0.88657-0.52158-0.06138
   5  -5  -9    4.06   14.16 153 0.81466-0.45743 0.21795-0.89067-0.52505 0.00223
   5  -5  -8   -2.25   12.89 152 0.81869-0.46051 0.21142-0.88690-0.52142 0.05645
   5  -3   2   33.13    7.27 152 0.82124-0.45273 0.20724-0.61148-0.51908 0.64356
   6   6   3   -7.81   15.74 153 0.81477-0.36836 0.21778 0.59287-0.52495 0.70791
   7  -5  -3   -5.57   10.66 152 0.81949-0.30912 0.21013-0.88239-0.52069 0.35331
   7  -4   1   40.82    8.57 152 0.82075-0.30627 0.20805-0.74625-0.51953 0.58819
   7  -1   6   18.50    9.20 152 0.81823-0.29663 0.21218-0.34658-0.52184 0.88568
  -2   0 -11   19.86   10.85 154 0.81171-0.96984 0.22246-0.22206-0.52752-0.12282
  -2   0  -7    8.94    9.63 152 0.81548-0.96887 0.21644-0.21562-0.52419 0.11054
  -2   1  -5  124.79    9.72 153 0.81469-0.96646 0.21771-0.08172-0.52489 0.22815
  -2   2 -13   -1.82   10.95 153 0.81326-0.97262 0.22000 0.05067-0.52616-0.24266
  -2   2  -5   51.86    7.60 152 0.81709-0.96839 0.21383 0.05590-0.52274 0.22589
   0   4  -1   12.78    8.87 153 0.81507-0.81478 0.21710 0.32365-0.52455 0.46504
   1   6  -4    3.18   10.89 153 0.81471-0.74307 0.21767 0.59461-0.52487 0.28921
   2   0   3  273.38   12.23 153 0.81384-0.66309 0.21907-0.21880-0.52565 0.70543
   3  -4 -13   -2.95   19.10 154 0.80921-0.60377 0.22641-0.76694-0.52968-0.23280
   5  -4  -1  305.76   10.16 153 0.81580-0.45049 0.21591-0.75487-0.52390 0.47219
   5   1   6    1.68   10.48 154 0.81031-0.43567 0.22468-0.08892-0.52874 0.88845
   5   5   4    5.38   13.89 154 0.81001-0.43587 0.22516 0.45085-0.52900 0.77004
   6  -5  -5   14.00   11.16 153 0.81403-0.37891 0.21877-0.89374-0.52548 0.23909
   6  -4   0   50.30   10.18 153 0.81457-0.37437 0.21790-0.75616-0.52500 0.53294
   7   1   7  158.40   12.23 154 0.81106-0.28917 0.22349-0.08716-0.52808 0.94847
   8   0   7   68.21   10.52 153 0.81342-0.21804 0.21973-0.21791-0.52601 0.94793
   9  -3   4    8.21    9.18 152 0.81703-0.15154 0.21393-0.61749-0.52280 0.77040
  10  -4   2   15.29   10.38 153 0.81658-0.08010 0.21466-0.75224-0.52320 0.65389
  -2   1 -13    0.36   10.12 153 0.81174-0.97095 0.22203-0.08646-0.52723-0.24068
  -2   3 -12    2.75   11.31 153 0.81241-0.96854 0.22096 0.18373-0.52664-0.18192
  -2   3  -6  121.98    8.18 153 0.81220-0.96447 0.22130 0.18390-0.52682 0.17036
  -1   3  -2    7.80    7.02 154 0.81229-0.88689 0.22116 0.18393-0.52675 0.40724
  -1   5 -10    1.89   11.75 154 0.80867-0.89111 0.22687 0.44918-0.52988-0.06139
  -1   5  -9    0.43   10.42 154 0.81008-0.89122 0.22465 0.45108-0.52867-0.00355
  -1   5  -8   14.10   10.78 155 0.80841-0.88933 0.22728 0.44918-0.53011 0.05655
   0   5  -3   64.90   10.26 154 0.81143-0.81274 0.22253 0.45228-0.52750 0.35011
   1   4   1   46.84    9.09 154 0.80928-0.73319 0.22591 0.31411-0.52935 0.58907
   2  -1   2  963.11   15.31 154 0.81138-0.66199 0.22259-0.35789-0.52753 0.64838
   2   5   1    5.73   10.86 155 0.80793-0.65816 0.22803 0.44836-0.53051 0.59163
   3  -4  -5   37.40    9.98 154 0.80885-0.59440 0.22658-0.76619-0.52972 0.23959
   5   2   6   17.46   14.42 157 0.79811-0.42353 0.24308 0.02783-0.53865 0.89796
   7   2   7   -2.09   13.16 156 0.80414-0.28155 0.23391 0.03558-0.53371 0.95383
   9  -5  -2    1.91   11.31 154 0.81252-0.15312 0.22080-0.89396-0.52654 0.42031
  10  -3   4    1.52   11.24 154 0.81009-0.07253 0.22465-0.62623-0.52866 0.77573
  11  -3   4    9.14   12.62 154 0.80968 0.00309 0.22529-0.62822-0.52901 0.77865
  -1   5 -11   10.81   12.17 155 0.80517-0.88915 0.23236 0.44386-0.53284-0.11721
  -1   5  -7   -0.29   10.37 155 0.80561-0.88477 0.23167 0.44406-0.53246 0.11806
   0   6  -9    4.29   12.93 155 0.80675-0.81351 0.22990 0.57916-0.53150 0.00159
   0   6  -8    3.40   12.44 155 0.80561-0.81140 0.23167 0.57740-0.53246 0.06118
   1   3   2    6.09    9.73 156 0.80220-0.72548 0.23693 0.16838-0.53531 0.65406
   3   0   4  518.58   13.04 155 0.80699-0.58172 0.22954-0.22935-0.53130 0.77095
   4  -1   4  325.18   10.40 155 0.80707-0.50902 0.22942-0.36447-0.53123 0.77192
   7  -5  -4   11.69   12.53 155 0.80682-0.29728 0.22980-0.90399-0.53144 0.30540
   7  -3   3    2.62    8.11 155 0.80819-0.29106 0.22766-0.63077-0.53027 0.71556
   8  -5  -3    8.91   11.46 155 0.80587-0.22244 0.23128-0.90295-0.53225 0.36622
   8  -4   1    5.30    8.75 155 0.80777-0.21911 0.22833-0.76730-0.53064 0.60040
   8  -2   5    3.94   10.72 155 0.80667-0.21316 0.23003-0.49916-0.53157 0.83696
   8   3   7    0.04   18.15 157 0.79496-0.19846 0.24785 0.15829-0.54116 0.96342
  -2   0 -12   -2.99   11.15 156 0.79956-0.95868 0.24102-0.24071-0.53748-0.17186
  -2   2 -14  -10.59   11.21 156 0.80133-0.96111 0.23833 0.03052-0.53603-0.29067
  -2   3 -13   10.50   11.24 156 0.80233-0.96113 0.23680 0.16851-0.53520-0.23332
  -2   3  -5  113.12    8.73 156 0.80080-0.95218 0.23915 0.16483-0.53647 0.23900
  -1  -1 -14   -2.23   12.98 157 0.79603-0.88448 0.24632-0.38121-0.54031-0.28714
  -1   0 -16    8.91   13.98 156 0.79972-0.88911 0.24078-0.23998-0.53734-0.40618
  -1   4  -3   26.22    9.29 156 0.80163-0.87686 0.23788 0.30169-0.53578 0.35693
   0   6  -7   -5.75   12.23 156 0.80162-0.80708 0.23788 0.57198-0.53579 0.12318
   1   6  -3    2.83   10.52 157 0.79985-0.72821 0.24057 0.57201-0.53723 0.36134
   2   6  -1   -4.79   10.99 156 0.80206-0.65412 0.23722 0.57414-0.53543 0.47845
   3  -1   3 1584.77   17.54 156 0.80069-0.57771 0.23930-0.37328-0.53655 0.71704
   4  -4  -3    3.98    9.14 156 0.80179-0.51199 0.23764-0.77536-0.53565 0.36455
   6  -5  -6   -0.88   11.31 157 0.79958-0.36688 0.24099-0.90978-0.53746 0.19335
   6  -2   4    1.47    9.09 156 0.80177-0.35664 0.23766-0.50709-0.53567 0.77954
   6   0   6   43.44    9.64 157 0.79925-0.35262 0.24149-0.23964-0.53773 0.89887
   8  -1   6   14.36    9.46 157 0.79957-0.20496 0.24101-0.37480-0.53747 0.90113
   9   0   7    1.88   10.54 156 0.80148-0.13144 0.23811-0.23809-0.53591 0.96024
  -2   0  -6   55.65   10.29 157 0.79565-0.94872 0.24689-0.24599-0.54063 0.18553
  -2   1 -14    2.58   11.88 158 0.79445-0.95623 0.24867-0.11322-0.54158-0.28704
  -2   2  -4  290.39   10.24 157 0.79751-0.94785 0.24410 0.02534-0.53914 0.30127
  -2   4 -10    8.25   10.71 157 0.79673-0.95356 0.24528 0.29646-0.53977-0.05367
  -2   4  -9   -4.65    9.88 157 0.79780-0.95388 0.24366 0.29697-0.53891 0.00504
  -2   4  -8    2.52    9.08 156 0.79906-0.95091 0.24177 0.29603-0.53789 0.06529
  -1   5  -6    4.76    8.77 156 0.80001-0.87757 0.24033 0.43473-0.53712 0.18185
   0   6  -6    8.37   12.41 157 0.79581-0.79970 0.24666 0.56387-0.54050 0.18635
   3  -3  -1   16.16    8.47 158 0.79546-0.57711 0.24717-0.65118-0.54078 0.48547
   6  -5  -7   -4.03   13.15 158 0.79497-0.36159 0.24790-0.92247-0.54117 0.13610
   7  -4   0   55.07   10.37 157 0.79623-0.28222 0.24602-0.78364-0.54017 0.55023
   9  -5  -3   -7.74   12.25 157 0.79766-0.13998 0.24388-0.91653-0.53903 0.37391
   9  -4   1   71.91   11.08 157 0.79902-0.13816 0.24183-0.77999-0.53792 0.60904
   9  -2   5   -0.47   10.39 157 0.79714-0.12896 0.24466-0.51463-0.53944 0.84600
  10   0   7   13.85   12.30 158 0.79279-0.05081 0.25112-0.24928-0.54288 0.96635
  -2   3 -14    4.59   12.28 158 0.79307-0.95122 0.25074 0.15356-0.54264-0.28256
  -2   4 -11   16.94   11.35 158 0.79344-0.95129 0.25019 0.29126-0.54235-0.10983
  -2   4  -7   11.70    9.49 158 0.79254-0.94564 0.25152 0.28890-0.54306 0.12752
  -1   2  -1  116.12    9.37 158 0.79376-0.86730 0.24972 0.02105-0.54210 0.48220
   0   5  -2  154.13   10.31 158 0.79129-0.79120 0.25335 0.42172-0.54403 0.42664
   1  -3  -6   12.83   10.74 160 0.78689-0.72037 0.25977-0.66382-0.54740 0.19574
   3  -4  -6    9.40    9.51 159 0.79140-0.57796 0.25320-0.79174-0.54395 0.19491
   5  -4  -2  234.16   10.43 158 0.79151-0.42734 0.25304-0.79199-0.54386 0.43162
   6  -3   2   36.63    7.42 158 0.79485-0.35271 0.24810-0.65242-0.54125 0.66626
   7  -5  -5   12.32   12.10 158 0.79255-0.28492 0.25151-0.92276-0.54305 0.25832
   8  -5  -4   17.28   12.98 158 0.79308-0.21010 0.25072-0.92424-0.54264 0.31781
   8  -3   3   38.25    8.37 158 0.79489-0.20547 0.24805-0.65141-0.54121 0.72794
  10  -4   1   -8.78   11.44 159 0.79066-0.05858 0.25429-0.78705-0.54452 0.61407
  10  -2   5    5.27   11.16 159 0.79068-0.05063 0.25425-0.52205-0.54450 0.85107
  11   0   7    1.77   12.88 158 0.79298 0.02387 0.25086-0.25042-0.54271 0.96837
  12  -2   5   -9.09   13.27 158 0.79321 0.09388 0.25053-0.51900-0.54254 0.85150
  -2   4 -12    6.62   12.14 159 0.78928-0.94668 0.25632 0.28382-0.54558-0.16411
  -1   5  -5   -6.32    8.76 159 0.79046-0.86731 0.25460 0.41977-0.54467 0.24860
   0   2   1  277.83   12.23 160 0.78595-0.78340 0.26113 0.00993-0.54810 0.60789
   0   6  -5    5.50   11.60 159 0.78655-0.78963 0.26027 0.55059-0.54765 0.25244
   1   5   0    8.21    9.30 159 0.78990-0.71439 0.25541 0.41983-0.54510 0.54569
   2  -3  -3   91.38    9.29 159 0.78724-0.64413 0.25928-0.66393-0.54713 0.37233
   2  -2   0    0.42    7.44 159 0.79034-0.64343 0.25477-0.52551-0.54475 0.54761
   3  -4 -12    1.29   17.19 160 0.78470-0.57798 0.26293-0.80433-0.54904-0.15563
   4   6   2    2.66   13.84 160 0.78323-0.48468 0.26504 0.54672-0.55014 0.67285
   6  -5  -9    5.60   14.45 160 0.78522-0.35433 0.26218-0.93552-0.54865 0.02646
   6  -5  -8    7.29   12.78 158 0.79002-0.35836 0.25524-0.93047-0.54501 0.08165
   6  -4  -1   18.46    8.41 159 0.79068-0.35147 0.25427-0.79309-0.54449 0.49358
   6  -1   5    7.36    9.12 159 0.78801-0.34164 0.25817-0.39231-0.54654 0.84883
   8   1   7   32.01   11.72 160 0.78487-0.18864 0.26269-0.12680-0.54891 0.97063
   9  -1   6   21.85   10.74 159 0.78935-0.12093 0.25622-0.39006-0.54552 0.91110
  11  -2   5    0.72   10.01 159 0.79068 0.02374 0.25427-0.52317-0.54449 0.85261
  12  -1   6   -2.08   12.89 159 0.78803 0.10256 0.25813-0.39273-0.54652 0.91577
  -2   0 -13   17.92   11.80 160 0.78407-0.94380 0.26381-0.26352-0.54957-0.21845
  -2   1  -4  354.73    9.89 159 0.78649-0.93772 0.26034-0.12365-0.54775 0.30969
  -2   2 -15    4.15   12.33 160 0.78422-0.94658 0.26360 0.00714-0.54946-0.33834
  -2   3  -4  305.93    9.86 160 0.78398-0.93358 0.26394 0.14207-0.54964 0.31195
  -2   4  -6    6.35    8.85 160 0.78451-0.93700 0.26318 0.27774-0.54924 0.19250
   1   6  -2    8.55   10.70 160 0.78209-0.70862 0.26663 0.54451-0.55103 0.43401
   3   6   1    2.82   12.37 160 0.78239-0.55856 0.26620 0.54580-0.55081 0.61334
   4  -4  -4   67.48   10.45 161 0.78132-0.49260 0.26773-0.80693-0.55160 0.32121
   4  -3   0  112.29    8.19 160 0.78581-0.49290 0.26132-0.66641-0.54827 0.55299
   5  -3   1    5.08    7.61 159 0.78641-0.41837 0.26046-0.66478-0.54782 0.61336
   5  -2   3  118.84    9.30 160 0.78488-0.41514 0.26265-0.53270-0.54897 0.73151
   7  -5  -6   10.69   12.62 160 0.78355-0.27600 0.26456-0.93872-0.54996 0.20569
   8  -4   0   34.62   10.68 160 0.78288-0.19556 0.26551-0.80341-0.55045 0.56032
   9  -5  -4    9.59   13.38 161 0.78265-0.12754 0.26584-0.93624-0.55062 0.32683
   9  -3   3   12.35    9.28 160 0.78603-0.12166 0.26099-0.66426-0.54810 0.73614
  10  -1   6   16.06   11.70 160 0.78274-0.04133 0.26571-0.39873-0.55056 0.91565
  11  -1   6   20.81   13.26 161 0.78216 0.03264 0.26654-0.39922-0.55099 0.91696
  -2   1 -15   -0.87   12.90 161 0.77992-0.93986 0.26977-0.13463-0.55266-0.33071
  -2   4 -13    4.03   12.11 160 0.78175-0.94004 0.26717 0.27299-0.55132-0.21726
   0   4   0   19.68    8.98 161 0.77977-0.77793 0.26998 0.27053-0.55277 0.55269
   1  -3 -12    6.50   23.19 167 0.74896-0.68885 0.31129-0.71647-0.57347-0.13240
   3  -4  -7    9.95   11.79 161 0.77806-0.56557 0.27237-0.81154-0.55401 0.14575
   7  -2   4    7.61    8.88 161 0.78020-0.26152 0.26937-0.53856-0.55246 0.79733
   8  -5  -5    9.27   12.71 161 0.78057-0.19838 0.26885-0.94252-0.55219 0.26808
  10  -3   3    4.85    9.45 160 0.78191-0.04386 0.26695-0.67023-0.55121 0.74066
  11  -3   3   13.10   10.99 161 0.78152 0.03010 0.26751-0.67055-0.55149 0.74213
  -2   4  -5    6.76    8.70 162 0.77476-0.92438 0.27699 0.26156-0.55637 0.25938
  -1   3  -1  392.28    9.57 162 0.77692-0.85054 0.27399 0.13099-0.55483 0.49413
  -1   4  -2   93.19    8.05 161 0.77724-0.85192 0.27355 0.26591-0.55461 0.43503
  -1   5  -4    0.86    8.43 162 0.77683-0.85276 0.27411 0.40045-0.55490 0.31770
   0   6  -4   -3.91   10.88 162 0.77443-0.77655 0.27745 0.53190-0.55661 0.32074
   2   6   0   -0.26   11.35 163 0.77222-0.62339 0.28050 0.53166-0.55816 0.56066
   3  -4 -11   -0.71   15.24 165 0.76293-0.55436 0.29307-0.83082-0.56450-0.07853
   3  -2   1  117.98    8.84 162 0.77316-0.55258 0.27921-0.54768-0.55751 0.62057
   4  -2   2   90.38    8.72 162 0.77376-0.47862 0.27837-0.54648-0.55708 0.68052
   5   6   3    2.69   15.09 163 0.76807-0.39460 0.28617 0.52710-0.56103 0.74462
   7  -5  -7    5.36   13.79 163 0.77244-0.26595 0.28020-0.95152-0.55801 0.15514
   7  -3   2   45.18    9.23 162 0.77526-0.25963 0.27630-0.67859-0.55602 0.68389
   8   2   7    8.98   12.94 163 0.76881-0.17293 0.28516-0.01407-0.56053 0.98178
   9  -4   0   42.07   10.68 162 0.77513-0.11485 0.27648-0.81394-0.55611 0.56861
   9   1   7   11.92   12.24 163 0.77123-0.10150 0.28186-0.14458-0.55885 0.98258
   9   3   7    3.31   16.40 162 0.77125-0.09921 0.28183 0.12611-0.55884 0.98507
  -3   2 -10   10.27    9.94 163 0.76859-0.99980 0.28533-0.01497-0.56073-0.03296
  -3   2  -9   41.59    9.66 163 0.76998-0.99900 0.28344-0.01423-0.55977 0.02617
  -1  -1 -15   -0.03   15.59 165 0.76197-0.85118 0.29423-0.42898-0.56520-0.31991
  -1   1  -1  767.75   15.26 162 0.77278-0.84686 0.27961-0.14371-0.55783 0.49828
  -1   6  -9   -1.69   12.58 163 0.76928-0.84894 0.28440 0.52422-0.56026 0.02899
   1  -2  -2   98.14    9.20 163 0.76898-0.69827 0.28481-0.55405-0.56047 0.44424
   3  -4  -8    3.16   11.63 164 0.76733-0.55613 0.28705-0.82623-0.56160 0.09464
   3   7  -1   -6.13   14.29 164 0.76742-0.54556 0.28693 0.65909-0.56154 0.50555
   5  -4  -3   11.30    9.09 163 0.76905-0.40526 0.28471-0.82487-0.56042 0.39042
   7  -5  -8   -5.43   14.05 164 0.76742-0.26171 0.28693-0.96045-0.56154 0.09886
   7  -4  -1   20.54    9.35 163 0.77189-0.25918 0.28083-0.81941-0.55845 0.50880
   7   0   6    1.47    8.65 163 0.76887-0.24762 0.28496-0.28379-0.56054 0.92251
   8  -5  -6   -2.65   13.92 163 0.76968-0.18823 0.28385-0.95796-0.55998 0.21661
  10  -4   0    0.82   11.71 163 0.77119-0.03669 0.28179-0.81970-0.55893 0.57192
  10   1   7   11.83   12.81 164 0.76487-0.02153 0.29036-0.15353-0.56326 0.98757
  11  -4   0   10.98   12.26 163 0.77049 0.03670 0.28275-0.81943-0.55942 0.57326
  11   1   7   13.51   14.00 164 0.76482 0.05065 0.29043-0.15354-0.56330 0.98771
  -3   2 -11   18.24    9.89 164 0.76648-0.99725 0.28817-0.01810-0.56216-0.08970
  -3   2  -8   14.36    9.27 164 0.76658-0.99447 0.28803-0.01810-0.56209 0.08681
  -3   3 -10    5.39    9.80 164 0.76445-0.99313 0.29089 0.11355-0.56353-0.02883
  -3   3  -9   15.11   10.03 164 0.76387-0.99213 0.29167 0.11308-0.56392 0.02996
  -2   0 -14   -0.89   13.03 163 0.76736-0.92637 0.28698-0.28599-0.56156-0.26378
  -2   2  -3  735.54   11.75 163 0.76769-0.91720 0.28653-0.01615-0.56133 0.38239
  -2   5 -11   10.25   12.50 163 0.76600-0.91969 0.28881 0.38363-0.56248-0.08634
  -2   5 -10   18.55   11.59 164 0.76489-0.92114 0.29030 0.38630-0.56323-0.02971
  -2   5  -9    3.50   11.17 164 0.76498-0.91997 0.29019 0.38670-0.56318 0.02887
  -1   0  -2   11.97   10.57 164 0.76658-0.84208 0.28803-0.28734-0.56209 0.44374
  -1   6  -8    3.85   12.24 164 0.76412-0.84490 0.29134 0.52213-0.56375 0.08950
   0   3   1  218.29   10.40 164 0.76627-0.76361 0.28844 0.11690-0.56230 0.62126
   0   5  -1  156.76   11.09 164 0.76398-0.76313 0.29152 0.38343-0.56384 0.50497
   1  -3  -7   18.68   11.59 165 0.75864-0.69286 0.29861-0.70323-0.56737 0.15693
   3  -4 -10    1.11   12.71 166 0.75700-0.54764 0.30076-0.83829-0.56844-0.01530
   3  -4  -9    8.55   13.11 165 0.76013-0.54987 0.29665-0.83540-0.56640 0.04073
   4   1   5    2.25   11.19 165 0.76112-0.46150 0.29533-0.15976-0.56574 0.86499
   6  -4  -2    3.58    9.54 164 0.76519-0.32760 0.28991-0.82734-0.56303 0.45316
   6   5   5    2.10   21.30 167 0.74801-0.29963 0.31238 0.36402-0.57412 0.87587
   7  -1   5    9.42    9.40 165 0.76272-0.24303 0.29321-0.42676-0.56469 0.86758
   8  -2   4   13.07   10.21 164 0.76484-0.17288 0.29037-0.55876-0.56327 0.80894
  10   3   7    1.35   16.91 166 0.75506-0.01108 0.30330 0.10368-0.56969 0.99410
  -3   2 -12    7.48   11.26 165 0.76094-0.99164 0.29554-0.02565-0.56586-0.14413
  -3   3 -11   13.07    9.92 165 0.76082-0.99124 0.29570 0.10953-0.56594-0.08632
  -3   3  -8   82.75   10.54 165 0.76031-0.98773 0.29637 0.10858-0.56627 0.09209
  -2   0  -5    0.81    8.25 165 0.75954-0.91204 0.29739-0.29760-0.56678 0.26960
  -2   3  -3   60.67    8.60 165 0.75897-0.90797 0.29814 0.10661-0.56715 0.38866
  -2   5  -8   10.05    8.84 164 0.76315-0.91654 0.29260 0.38281-0.56439 0.08992
  -1   6  -7   -3.27   12.37 165 0.76019-0.83922 0.29653 0.51501-0.56635 0.15182
   2   4   3   20.23   10.91 165 0.75814-0.60607 0.29924 0.24106-0.56769 0.74659
   2   5   2   45.83   11.53 165 0.75890-0.60791 0.29824 0.37642-0.56720 0.68713
   3   5   3    5.64   11.13 165 0.75854-0.53259 0.29871 0.37712-0.56743 0.74722
   4  -4  -5    0.29    9.25 165 0.76019-0.47189 0.29653-0.83597-0.56635 0.27703
   5  -1   4  233.93   10.10 165 0.75946-0.38836 0.29750-0.43165-0.56683 0.80839
   5   0   5    6.16    8.84 165 0.76076-0.38753 0.29577-0.29501-0.56597 0.86725
   6  -3   1   21.00    8.50 165 0.75870-0.31740 0.29850-0.70213-0.56733 0.63357
   8  -4  -1   14.64   10.88 165 0.75886-0.17275 0.29829-0.83638-0.56722 0.51882
   8  -3   2    5.78    8.17 165 0.76209-0.17240 0.29401-0.69768-0.56510 0.69350
   9   2   7   19.11   13.83 167 0.75199-0.08205 0.30724-0.03503-0.57163 0.99449
  12  -2   4    4.08   12.42 165 0.76095 0.12740 0.29552-0.56422-0.56585 0.81810
  -3   1 -11   14.24   10.46 166 0.75315-0.98378 0.30555-0.17067-0.57087-0.08013
  -3   1 -10   -3.69    8.78 166 0.75528-0.98607 0.30279-0.16904-0.56951-0.02371
  -3   1  -9   10.71    9.07 166 0.75598-0.98505 0.30188-0.16703-0.56907 0.03536
  -3   2  -7    4.10    7.26 165 0.75801-0.98537 0.29923-0.02929-0.56775 0.15133
  -3   3 -12    1.76   11.20 166 0.75621-0.98660 0.30158 0.10312-0.56892-0.14119
  -2   1 -16    0.74   13.85 166 0.75504-0.91774 0.30311-0.16920-0.56967-0.37623
  -2   4  -4   32.40    7.31 166 0.75724-0.90678 0.30023 0.23873-0.56825 0.32978
  -2   5  -7    4.83    8.63 166 0.75739-0.91016 0.30004 0.37568-0.56815 0.15272
  -1   5  -3   20.25    8.53 165 0.75783-0.83269 0.29946 0.37614-0.56787 0.38938
   0  -2 -15    1.50   26.24 172 0.72234-0.73837 0.34369-0.61425-0.58899-0.29527
   0   6  -3    0.43   10.37 166 0.75709-0.75762 0.30043 0.51003-0.56835 0.39095
   1   6  -1   20.36   11.21 166 0.75660-0.68170 0.30107 0.50994-0.56867 0.51043
   2   7  -2  -10.63   13.87 166 0.75495-0.60752 0.30322 0.64239-0.56972 0.45366
   3  -3  -2   88.23    7.58 166 0.75744-0.53904 0.29997-0.70455-0.56812 0.45513
   3   4   4    4.84   13.97 167 0.74919-0.52274 0.31066 0.22930-0.57336 0.81131
   6  -2   3   96.75    9.55 166 0.75467-0.31078 0.30358-0.57198-0.56990 0.75478
   6   1   6   25.96   10.27 167 0.75245-0.30441 0.30646-0.16929-0.57132 0.93228
   9  -3   2    4.27    9.88 166 0.75570-0.09087 0.30225-0.70753-0.56925 0.69998
   9  -2   4   17.29   10.32 166 0.75697-0.09106 0.30058-0.56930-0.56842 0.81602
  10  -2   4   13.83   11.25 166 0.75540-0.01408 0.30264-0.57248-0.56944 0.81993
  11  -2   4    6.66   11.98 166 0.75372 0.05867 0.30482-0.57211-0.57051 0.81932
  11   2   7   -3.07   14.29 167 0.75078 0.06663 0.30862-0.03639-0.57237 0.99814
  -3   1  -8  321.50   10.92 167 0.75026-0.97836 0.30933-0.17541-0.57272 0.09726
  -3   2 -13   -1.80   11.42 167 0.74988-0.98289 0.30982-0.04087-0.57296-0.19696
  -3   3  -7   43.28    7.67 166 0.75297-0.98017 0.30584 0.09782-0.57102 0.15391
  -2   5  -6   61.43    9.93 167 0.74913-0.90178 0.31078 0.36237-0.57343 0.21595
  -1   6  -6    1.66   10.11 166 0.75305-0.83042 0.30573 0.50492-0.57097 0.21587
   1   4   2   99.57   10.20 167 0.74864-0.67254 0.31140 0.22904-0.57373 0.69132
   1   5   1   -4.73   10.14 168 0.74677-0.67059 0.31378 0.36209-0.57488 0.63456
   2  -3  -4  271.28   10.92 167 0.74938-0.60626 0.31045-0.71514-0.57327 0.34141
   5  -3   0  370.87   10.83 167 0.74844-0.38078 0.31166-0.71527-0.57385 0.58124
   8   0   6   29.82    9.41 167 0.74967-0.15490 0.31009-0.30798-0.57309 0.93629
   9  -4  -1    4.40   11.56 166 0.75223-0.09209 0.30679-0.84600-0.57148 0.52459
  10  -4  -1    2.67   12.18 167 0.74954-0.01434 0.31025-0.84989-0.57317 0.52718
  10  -3   2   14.76   10.71 167 0.74978-0.01450 0.30994-0.71159-0.57302 0.70270
  10   2   7   19.45   13.63 168 0.74584-0.00326 0.31496-0.04339-0.57545 0.99889
  11  -4  -1   21.02   12.12 168 0.74801 0.05677 0.31221-0.84754-0.57412 0.52901
  11  -3   2   29.73   11.05 167 0.75216 0.05829 0.30688-0.70979-0.57153 0.70329
  12   0   6   26.59   13.02 168 0.74757 0.14149 0.31277-0.31048-0.57439 0.94239
  -3   1 -12   41.21   10.54 168 0.74422-0.97672 0.31681-0.18198-0.57642-0.13374
  -3   2  -6  236.10   10.37 168 0.74481-0.97089 0.31607-0.04741-0.57606 0.21872
  -3   3 -13    5.89   11.76 168 0.74696-0.97954 0.31334 0.09184-0.57475-0.19457
  -3   4 -10   12.04   11.08 168 0.74385-0.97421 0.31728 0.22332-0.57664-0.01665
  -3   4  -9   37.38   10.56 168 0.74370-0.97276 0.31747 0.22183-0.57673 0.04240
  -2   0 -15   -0.07   14.88 169 0.73836-0.90088 0.32414-0.32406-0.57991-0.30628
  -1   4  -1   50.65    9.36 168 0.74445-0.81808 0.31653 0.22252-0.57628 0.51533
   1  -3  -8   38.62   14.00 171 0.73197-0.66719 0.33200-0.73592-0.58362 0.11410
   1  -1   0 3133.27   29.93 168 0.74345-0.67015 0.31778-0.45303-0.57688 0.57796
   4  -4  -6    7.30   10.82 169 0.74220-0.45489 0.31936-0.85966-0.57764 0.22926
   4  -3  -1  167.10    8.55 168 0.74703-0.45431 0.31325-0.71722-0.57470 0.52251
   4   5   4   17.19   14.34 170 0.73650-0.43649 0.32644 0.34905-0.58100 0.82101
   5  -4  -4   46.73    9.54 168 0.74506-0.38184 0.31576-0.85449-0.57591 0.34842
   7  -4  -2   -8.14    8.51 168 0.74755-0.23504 0.31259-0.85199-0.57438 0.46535
   8  -1   5    4.75    8.24 168 0.74730-0.15371 0.31292-0.44679-0.57454 0.87907
  12  -1   5   -5.82   12.19 168 0.74523 0.14217 0.31554-0.44939-0.57581 0.88437
  -3   1  -7  529.85   11.76 169 0.73788-0.96566 0.32447-0.18897-0.58013 0.16422
  -3   2 -14   -2.65   12.56 170 0.73374-0.97098 0.32957-0.05874-0.58254-0.24923
  -3   3  -6   40.10    7.45 169 0.74187-0.96746 0.31951 0.08574-0.57777 0.22025
  -3   4 -12    0.51   12.45 169 0.73894-0.96946 0.32316 0.21508-0.57951-0.13012
  -3   4 -11   -7.42   10.68 169 0.74218-0.97318 0.31911 0.22028-0.57758-0.07435
  -3   4  -8    0.39    9.92 169 0.73979-0.96797 0.32210 0.21780-0.57901 0.10347
  -2   1  -3  517.07   11.62 169 0.74205-0.89196 0.31927-0.18356-0.57766 0.39875
  -1  -1  -4  159.16   27.42 175 0.70969-0.78800 0.35806-0.49232-0.59560 0.35892
  -1   6  -5    5.12   11.52 169 0.74164-0.81821 0.31979 0.49059-0.57790 0.28174
   3   7   0    5.59   15.51 170 0.73599-0.51257 0.32681 0.61896-0.58124 0.58440
   6  -4  -3    3.75    8.44 169 0.74172-0.30450 0.31969-0.85863-0.57786 0.40910
   6   6   4   -1.35   18.17 172 0.72349-0.27515 0.34194 0.47130-0.58830 0.83238
   7  -3   1   38.35    9.72 169 0.73908-0.22429 0.32298-0.72635-0.57943 0.64676
   9  -1   5   27.22   10.13 169 0.73792-0.07095 0.32443-0.45759-0.58011 0.88531
   9   0   6   -3.28   10.08 169 0.73979-0.07099 0.32210-0.32170-0.57901 0.94305
  10   0   6   70.07   11.35 170 0.73708 0.00374 0.32547-0.32290-0.58061 0.94653
  11  -1   5   19.94   11.36 170 0.73751 0.07622 0.32494-0.45740-0.58035 0.88734
  11   0   6   17.40   11.53 169 0.73930 0.07514 0.32271-0.32076-0.57930 0.94545
  -3   1 -13   24.59   11.14 170 0.73308-0.96643 0.33039-0.19546-0.58295-0.18605
  -3   3 -14    2.10   12.68 170 0.73483-0.96965 0.32825 0.07630-0.58194-0.24829
  -3   4  -7   46.63    9.55 170 0.73320-0.96030 0.33025 0.20830-0.58288 0.16609
  -2   4  -3   20.18    9.66 170 0.73338-0.88307 0.33002 0.21019-0.58277 0.40297
  -2   5  -5   78.21    8.98 169 0.73685-0.88757 0.32577 0.34858-0.58077 0.28301
  -1   5  -2   -3.18    9.53 170 0.73396-0.80764 0.32931 0.34400-0.58244 0.46324
   0   6  -2    7.01   10.69 170 0.73374-0.73397 0.32959 0.48123-0.58257 0.46438
   1  -3 -11    8.95   18.93 175 0.70669-0.64482 0.36150-0.76496-0.59716-0.04873
   1   7  -3   -2.76   12.79 170 0.73517-0.66310 0.32783 0.61940-0.58174 0.40593
   2   6   1    3.71   11.91 170 0.73270-0.58254 0.33086 0.48016-0.58317 0.64427
   3   6   2    3.88   13.25 171 0.73124-0.50626 0.33263 0.48053-0.58400 0.70608
   4  -1   3    7.15    8.55 170 0.73455-0.43726 0.32860-0.46317-0.58210 0.76416
   7  -2   3    4.87    8.65 170 0.73396-0.21595 0.32932-0.59853-0.58244 0.76841
   7   4   6    0.65   28.73 182 0.67131-0.14940 0.39999 0.14155-0.61359 0.97571
   8  -4  -2    5.62   10.72 170 0.73538-0.14969 0.32758-0.86668-0.58162 0.47446
  10  -1   5    3.83    9.85 170 0.73630 0.00461 0.32645-0.45983-0.58109 0.88824
  -3   4 -13    1.92   12.09 171 0.72909-0.96328 0.33509 0.20605-0.58513-0.18613
  -2  -1 -10   35.77   13.36 172 0.72240-0.88012 0.34309-0.47679-0.58883-0.00193
  -1  -1 -16   -1.29   18.18 172 0.72143-0.81097 0.34424-0.47854-0.58936-0.35346
   0  -2  -5  184.94   16.09 174 0.71467-0.72046 0.35216-0.62171-0.59297 0.29859
   0   1   1  207.56   15.32 171 0.72787-0.72573 0.33656-0.20068-0.58582 0.64592
   0   4   1   10.40    8.40 171 0.72782-0.72528 0.33661 0.20320-0.58584 0.64431
   0   5   0   -4.31   10.92 172 0.72657-0.72522 0.33812 0.33670-0.58654 0.58658
   1  -3  -9   18.37   14.81 174 0.71307-0.64956 0.35402-0.75810-0.59380 0.06542
   2   7  -1   -2.34   12.60 171 0.72876-0.58069 0.33548 0.60869-0.58532 0.52842
   5  -2   2   39.89    7.03 171 0.73230-0.36395 0.33119-0.60039-0.58331 0.70670
   9  -4  -2   54.78   11.72 171 0.72802-0.06922 0.33637-0.87444-0.58573 0.47964
  -3   2 -15   -4.19   13.51 174 0.71591-0.95576 0.35076-0.07944-0.59231-0.30054
  -3   2  -5   80.69    9.09 172 0.72417-0.94949 0.34102-0.07026-0.58786 0.28976
  -3   3  -5   86.88    9.23 172 0.72501-0.94976 0.34002 0.06516-0.58740 0.28888
  -3   4  -6  166.56   10.00 172 0.72229-0.94797 0.34325 0.19606-0.58889 0.23216
  -2  -1 -11   25.47   13.43 173 0.71650-0.87537 0.35006-0.48385-0.59200-0.05752
  -2  -1  -9    9.82   12.16 173 0.71536-0.87177 0.35139-0.48635-0.59260 0.06023
  -2   2  -2  156.01    9.62 172 0.72460-0.87294 0.34050-0.06947-0.58762 0.46785
  -2   3  -2  161.24    9.33 172 0.72526-0.87303 0.33971 0.06581-0.58726 0.46751
  -1   2   0  489.08   12.58 172 0.72314-0.79557 0.34224-0.07146-0.58842 0.58788
  -1   3   0   76.65    9.15 172 0.72456-0.79657 0.34056 0.06480-0.58765 0.58678
  -1   6  -4   18.93    9.84 172 0.72638-0.80192 0.33838 0.47191-0.58664 0.34936
   1  -3 -10    0.69   15.79 176 0.70529-0.64282 0.36296-0.76739-0.59777 0.01018
   1   6   0    5.12   10.56 173 0.72158-0.64623 0.34409 0.46724-0.58927 0.59047
   2  -2  -1   22.22    8.86 172 0.72273-0.57728 0.34273-0.61244-0.58865 0.53185
   4  -4  -7    0.12   10.26 172 0.72410-0.43762 0.34110-0.88049-0.58790 0.18039
   4   6   3   -1.19   14.18 171 0.72428-0.42469 0.34089 0.46687-0.58780 0.76724
   5  -4  -5   57.53    9.73 172 0.72261-0.36123 0.34287-0.88142-0.58871 0.30104
   6  -1   4  103.89    9.23 172 0.72545-0.28084 0.33949-0.47367-0.58715 0.83032
   7  -4  -3   26.62   10.65 172 0.72360-0.21276 0.34170-0.88082-0.58817 0.42071
   8  -3   1   17.47    8.05 171 0.72699-0.13825 0.33764-0.74095-0.58630 0.65540
  10  -4  -2   -4.03   11.12 172 0.72657 0.00673 0.33815-0.87667-0.58653 0.48147
  11  -3   1    1.10   11.23 172 0.72357 0.08790 0.34173-0.74619-0.58819 0.66143
  12  -2   3   28.97   12.94 172 0.72340 0.16070 0.34194-0.60889-0.58829 0.77945
  -3   1 -14   -6.16   13.44 173 0.71734-0.95202 0.34919-0.21421-0.59159-0.23710
  -3   1  -6  191.90    9.67 173 0.71844-0.94483 0.34790-0.21288-0.59101 0.23462
  -2   5  -4   16.22   10.12 173 0.71822-0.86903 0.34816 0.32902-0.59112 0.35240
  -2   6  -8   -2.98   12.22 173 0.71939-0.87429 0.34678 0.46523-0.59049 0.11587
   3  -3  -3   24.25    8.16 174 0.71644-0.49989 0.35024-0.75399-0.59207 0.41997
   4   0   4   42.56    8.86 173 0.71875-0.42047 0.34754-0.34722-0.59084 0.83144
   6  -4  -4   20.02   10.60 173 0.71888-0.28260 0.34738-0.88673-0.59077 0.36302
   6  -3   0  118.27    7.97 173 0.72154-0.28166 0.34425-0.74842-0.58934 0.59672
   6   0   5   51.24    9.00 173 0.71783-0.27217 0.34862-0.34735-0.59133 0.89297
   6   2   6   35.10   13.32 175 0.70826-0.26059 0.35969-0.08901-0.59631 0.95680
   6   3   6  139.08   19.82 179 0.68740-0.23946 0.38289 0.02235-0.60640 0.96634
   7   1   6    7.80   10.52 173 0.71753-0.19583 0.34896-0.21280-0.59149 0.95396
   8  -2   3   45.47    8.44 173 0.72090-0.13094 0.34500-0.61403-0.58968 0.77653
   9  -3   1   28.40    8.38 173 0.72101-0.05946 0.34488-0.74809-0.58963 0.66036
  10  -3   1    1.65   10.56 173 0.72002 0.01619 0.34605-0.74973-0.59016 0.66208
  11  -2   3   11.56   12.12 173 0.71912 0.09503 0.34710-0.61680-0.59064 0.78303
  -3   5 -11   13.87   12.68 174 0.71322-0.94462 0.35400 0.32286-0.59386-0.05987
  -3   5 -10    5.62   10.50 174 0.71585-0.94497 0.35094 0.32434-0.59248-0.00097
  -3   5  -9    7.31   11.23 174 0.71376-0.94262 0.35336 0.32293-0.59357 0.05825
  -2   0 -16    4.37   15.49 176 0.70603-0.87085 0.36224-0.36243-0.59754-0.34929
  -2   6  -7    0.13   12.10 173 0.71604-0.86667 0.35071 0.45810-0.59237 0.17684
   0   7  -4    4.71   12.70 174 0.71450-0.71564 0.35250 0.59055-0.59318 0.35708
   1   7  -2  -12.83   14.39 174 0.71334-0.63987 0.35385 0.59180-0.59379 0.47659
   2  -3  -5  170.81   10.88 175 0.71038-0.56916 0.35726-0.76175-0.59532 0.30377
   2  -1   1  671.85   14.04 174 0.71182-0.56413 0.35561-0.49055-0.59458 0.65573
   3  -1   2  616.70   11.53 174 0.71604-0.49409 0.35071-0.48530-0.59237 0.71390
   4  -4 -12    8.15   15.36 176 0.70342-0.42272 0.36519-0.90239-0.59884-0.10129
   4  -4  -8    7.77   11.39 175 0.70862-0.42381 0.35928-0.89629-0.59622 0.13121
   4  -2   1   61.47    7.08 174 0.71657-0.42251 0.35010-0.61902-0.59209 0.65610
   8  -4  -3   38.20   11.03 174 0.71148-0.12693 0.35600-0.89387-0.59476 0.42909
   9  -2   3   40.68   10.22 174 0.71423-0.04984 0.35282-0.62078-0.59333 0.78200
  10  -2   3    7.99   11.71 174 0.71321 0.02492 0.35400-0.62217-0.59386 0.78324
  12   1   6   -1.60   13.70 174 0.71316 0.17696 0.35406-0.21852-0.59388 0.96265
  -3   4  -5  225.43   10.41 175 0.70686-0.93148 0.36131 0.17862-0.59713 0.29936
  -3   5  -8   -4.00    8.85 175 0.71039-0.93764 0.35727 0.31740-0.59533 0.12002
  -2  -1 -12    8.37   13.66 176 0.70037-0.86004 0.36864-0.50348-0.60036-0.10920
  -1   6  -3   -0.18   11.05 176 0.70520-0.78055 0.36320 0.44828-0.59797 0.41980
   3  -2   0   44.08    7.27 175 0.71092-0.49114 0.35667-0.62640-0.59506 0.59847
   4  -4  -9    5.72   13.83 176 0.70204-0.41833 0.36676-0.90565-0.59954 0.07502
   4  -3  -2   25.68    8.60 176 0.70606-0.41444 0.36222-0.76665-0.59754 0.48533
   5  -3  -1   41.91    8.78 175 0.70972-0.34444 0.35804-0.76263-0.59568 0.54323
   9  -4  -3   59.09   11.96 176 0.70585-0.04829 0.36245-0.90028-0.59764 0.43265
  10  -4  -3    7.07   12.28 176 0.70533 0.02598 0.36305-0.90096-0.59790 0.43403
  -3   0 -10   -2.54   10.16 177 0.69931-0.92935 0.36956-0.37067-0.60089 0.00824
  -3   1 -15    4.42   14.27 176 0.69947-0.93445 0.36938-0.23414-0.60082-0.28632
  -3   3  -4   19.60    8.43 176 0.70240-0.92560 0.36609 0.03783-0.59937 0.36018
  -3   5  -7    8.75   10.81 175 0.70433-0.92903 0.36392 0.31015-0.59842 0.18183
  -2  -1  -8  155.90   14.40 178 0.69259-0.84846 0.37700-0.51093-0.60412 0.13112
  -2   4  -2    0.04    8.99 175 0.70480-0.85204 0.36339 0.17615-0.59818 0.47718
  -2   6  -6    3.78   12.22 176 0.70428-0.85584 0.36397 0.44674-0.59844 0.24184
  -1   5  -1    2.64    9.49 176 0.70042-0.77341 0.36832 0.30711-0.60035 0.53975
   0   6  -1   -0.64   11.19 176 0.70291-0.70279 0.36553 0.44613-0.59912 0.54013
   3   1   4  859.90   20.76 177 0.69651-0.47141 0.37268-0.23755-0.60225 0.84147
   4  -4 -11   -3.66   15.48 177 0.69725-0.41497 0.37185-0.91020-0.60189-0.04109
   4  -4 -10    3.48   14.31 178 0.69181-0.40881 0.37786-0.91316-0.60449 0.02242
   5  -4  -6    1.44   10.28 176 0.70272-0.34164 0.36573-0.90473-0.59922 0.25201
   6  -2   2  147.33    9.18 176 0.70367-0.26134 0.36466-0.63311-0.59874 0.72493
   7  -4  -4   23.71   10.18 176 0.70196-0.19159 0.36659-0.90708-0.59959 0.37317
   7  -3   0    6.08    8.63 176 0.70216-0.18886 0.36637-0.76910-0.59950 0.60831
   7  -1   4   87.12    9.53 176 0.70264-0.18497 0.36583-0.49888-0.59926 0.84396
   8   1   6    6.92   11.08 177 0.69639-0.10180 0.37281-0.23630-0.60231 0.96463
  11   1   6   11.64   13.29 177 0.69736 0.11637 0.37173-0.23476-0.60184 0.96703
  12  -1   4    7.21   12.43 176 0.70298 0.18389 0.36545-0.49856-0.59909 0.85026
  -4   3 -10    8.22   10.25 177 0.69621-0.99907 0.37296 0.03174-0.60262 0.00858
  -3   0 -11    3.64   11.55 177 0.69810-0.92917 0.37086-0.37057-0.60170-0.04959
  -3   0  -9   11.43    9.60 177 0.69456-0.92416 0.37479-0.37478-0.60341 0.06973
  -3   2  -4    9.26    8.51 177 0.69631-0.91986 0.37285-0.10334-0.60257 0.36310
  -2   0  -4  977.76   17.51 177 0.69760-0.84890 0.37142-0.37048-0.60195 0.36472
  -2   5  -3   83.87   11.13 177 0.69723-0.84512 0.37183 0.30267-0.60212 0.42406
  -1   4   0   49.13    8.98 177 0.69889-0.77033 0.36998 0.16939-0.60132 0.60053
   2   7   0   -4.89   13.84 178 0.69365-0.54413 0.37579 0.56901-0.60384 0.60515
   3   7   1   -6.23   15.37 178 0.69358-0.46991 0.37587 0.56855-0.60387 0.66538
   6  -4  -5   24.95   10.88 177 0.69605-0.26156 0.37314-0.91132-0.60270 0.31614
  10   1   6    2.39   12.09 179 0.68974 0.05186 0.38008-0.24331-0.60568 0.96951
  12   0   5   -5.47   12.99 177 0.69677 0.19174 0.37234-0.37157-0.60235 0.91172
  -4   2 -11   30.91   10.18 178 0.68912-0.99376 0.38054-0.11034-0.60594-0.04650
  -4   2 -10    0.29    9.42 178 0.69066-0.99378 0.37887-0.11029-0.60522 0.01133
  -4   3 -12    9.26   11.29 178 0.68993-0.99562 0.37966 0.02543-0.60556-0.10672
  -4   3 -11   17.06    9.18 177 0.69426-0.99893 0.37491 0.03014-0.60351-0.05014
  -4   3  -9    3.28   10.11 177 0.69384-0.99581 0.37537 0.02937-0.60371 0.06810
  -3   0 -12    7.33   11.48 179 0.68662-0.92040 0.38325-0.38341-0.60709-0.10389
  -3   5  -6   15.86   10.13 178 0.69153-0.91687 0.37791 0.29779-0.60481 0.24657
  -2   6  -5    7.50   11.77 178 0.69180-0.84146 0.37761 0.43135-0.60468 0.30707
   0   7  -3   10.96   12.33 177 0.69311-0.69346 0.37617 0.56940-0.60406 0.42622
   1  -2  -3  148.14   11.05 179 0.68717-0.61781 0.38266-0.65235-0.60684 0.43115
   4   2   5   53.49   15.77 182 0.67004-0.37020 0.40084-0.12978-0.61442 0.91343
   7   0   5   18.88    9.15 178 0.69219-0.17213 0.37718-0.37650-0.60450 0.90766
   8  -4  -4   59.12   11.10 178 0.68937-0.10657 0.38027-0.91835-0.60582 0.38077
   8  -3   0   10.12    9.21 178 0.69249-0.10481 0.37686-0.78074-0.60436 0.61517
   8  -1   4   92.14    9.50 178 0.69007-0.09819 0.37951-0.51376-0.60549 0.85109
   9   1   6   17.55   10.78 179 0.68983-0.02135 0.37977-0.24321-0.60560 0.96946
  11  -3   0   -0.89    9.58 178 0.69365 0.11553 0.37558-0.77930-0.60380 0.61821
  11  -1   4   11.60   10.74 177 0.69364 0.12009 0.37559-0.50913-0.60381 0.85455
  12  -2   2    3.88   12.53 179 0.68936 0.19549 0.38028-0.64846-0.60582 0.73922
  -4   2 -12   -1.28   10.93 179 0.68512-0.98969 0.38528-0.11635-0.60786-0.10380
  -4   2  -9   13.09    9.31 179 0.68705-0.98998 0.38319-0.11292-0.60697 0.07102
  -4   3  -8    9.37    9.80 179 0.68758-0.98882 0.38262 0.02250-0.60673 0.12983
  -4   4 -10   15.45   11.48 179 0.68381-0.98723 0.38668 0.15390-0.60845 0.01339
  -3   1  -5  371.44    9.96 178 0.68859-0.91421 0.38153-0.24552-0.60626 0.30860
  -3   4  -4    2.86    8.32 180 0.68345-0.90972 0.38708 0.15606-0.60862 0.36786
  -2  -1 -13    3.91   13.66 179 0.68442-0.84353 0.38603-0.51951-0.60818-0.15781
   1   3   3   75.61   11.82 180 0.67945-0.60182 0.39134 0.01367-0.61041 0.78794
   1   5   2    4.39    9.42 179 0.68666-0.60944 0.38362 0.29203-0.60715 0.72543
   1   7  -1    2.16   12.10 179 0.68512-0.61041 0.38528 0.55851-0.60786 0.54872
   2   5   3  106.53   12.21 179 0.68303-0.53132 0.38753 0.28690-0.60881 0.78692
   4   4   5   70.05   19.03 183 0.66288-0.36288 0.40861 0.13171-0.61749 0.91575
   5  -4  -7   11.06   10.62 179 0.68634-0.32683 0.38397-0.92308-0.60730 0.20202
   5  -1   3  131.55    9.13 179 0.68676-0.31628 0.38351-0.51798-0.60711 0.79043
   7  -2   2    3.00    8.47 179 0.68502-0.16820 0.38538-0.65473-0.60790 0.73519
   9  -4  -4    9.07   12.64 180 0.68298-0.02709 0.38758-0.92301-0.60883 0.38476
   9  -3   0   19.18    8.53 179 0.68816-0.02683 0.38199-0.78575-0.60646 0.61860
   9  -1   4   14.81   10.38 180 0.68412-0.01874 0.38635-0.51955-0.60831 0.85455
  10  -4  -4   18.14   12.78 179 0.68675 0.04399 0.38352-0.92254-0.60711 0.38512
  10  -3   0    4.12    8.99 178 0.68909 0.04601 0.38099-0.78477-0.60603 0.61975
  10  -1   4   16.83   10.35 179 0.68664 0.05279 0.38364-0.51720-0.60716 0.85567
  11   0   5   14.70   12.20 179 0.68430 0.12999 0.38616-0.38445-0.60823 0.91647
  -4   2  -8   -2.66    9.46 180 0.67988-0.98139 0.39099-0.12182-0.61027 0.13367
  -4   3 -13    6.17   12.58 179 0.68311-0.98914 0.38754 0.01816-0.60882-0.16240
  -4   4 -12    8.19   12.19 180 0.68031-0.98482 0.39054 0.14937-0.61008-0.10145
  -4   4 -11    3.14   10.63 180 0.68307-0.98757 0.38758 0.15238-0.60884-0.04514
  -4   4  -9   15.44   11.19 179 0.68224-0.98391 0.38847 0.15193-0.60921 0.07328
  -3   0 -13    2.31   13.31 180 0.67756-0.90974 0.39346-0.39243-0.61129-0.15625
  -3   0  -8   63.13    9.24 180 0.68125-0.91005 0.38953-0.38836-0.60966 0.13535
  -2   3  -1  227.74    9.69 180 0.67877-0.82556 0.39217 0.01252-0.61076 0.54999
  -1   6  -2    4.11   10.24 180 0.67925-0.75368 0.39166 0.41987-0.61055 0.49071
   0   5   1  181.52   11.16 180 0.67749-0.67525 0.39352 0.28054-0.61132 0.66953
   1   6   1    7.72   10.98 181 0.67557-0.59949 0.39555 0.41640-0.61216 0.67180
   2   6   2    5.18   12.57 181 0.67493-0.52420 0.39622 0.41635-0.61244 0.73259
   5   1   5  315.89   13.09 181 0.67639-0.30384 0.39469-0.25886-0.61181 0.91215
   5   6   4    1.20   16.00 182 0.67102-0.29736 0.40031 0.41141-0.61412 0.85548
   6  -4  -6   -0.10   10.48 180 0.67921-0.24392 0.39170-0.93279-0.61056 0.26443
   6  -3  -1  291.86    9.36 180 0.68315-0.24413 0.38750-0.79192-0.60880 0.55739
   7  -4  -5   57.47   10.72 180 0.67963-0.17092 0.39126-0.92972-0.61038 0.32570
   8   0   5  258.44   10.59 180 0.67828-0.08608 0.39269-0.39144-0.61097 0.91522
  10   0   5   16.10   11.92 181 0.67697 0.06398 0.39408-0.39304-0.61155 0.91875
  11  -2   2   -3.10   11.24 180 0.67988 0.13234 0.39099-0.66042-0.61027 0.74197
  -4   2 -13    3.81   11.69 180 0.67596-0.98219 0.39503-0.12449-0.61184-0.15910
  -4   3 -14   -5.97   12.94 181 0.67217-0.97974 0.39900 0.00677-0.61348-0.21686
  -4   3  -7    7.60    8.10 180 0.67734-0.97759 0.39357 0.01150-0.61124 0.19330
  -4   4  -8   10.22    9.97 181 0.67461-0.97747 0.39645 0.14510-0.61243 0.13447
  -3   5  -5    5.39    8.41 181 0.67677-0.90123 0.39418 0.28127-0.61149 0.31222
  -2   6  -4  -19.19   11.47 181 0.67391-0.82341 0.39718 0.41185-0.61273 0.37388
   0   3   2  995.18   15.55 181 0.67319-0.67053 0.39793 0.00719-0.61304 0.73022
   2  -3  -6   72.24   10.63 182 0.67200-0.53090 0.39918-0.80366-0.61356 0.26396
   3  -3  -4   59.69    9.16 181 0.67523-0.45897 0.39580-0.79968-0.61216 0.38219
   3   0   3   54.46    8.84 181 0.67459-0.45098 0.39647-0.39575-0.61244 0.79314
   5  -4  -8    0.63   10.91 182 0.67130-0.31245 0.39991-0.93799-0.61385 0.14995
   5  -2   1  186.82    8.02 181 0.67663-0.30885 0.39432-0.66329-0.61155 0.67776
   7   2   6   45.14   12.24 183 0.66503-0.14403 0.40639-0.13509-0.61649 0.97792
   8  -2   2   31.98    9.88 181 0.67417-0.08453 0.39691-0.66475-0.61262 0.74176
   9   0   5    7.70    9.41 181 0.67498-0.00738 0.39606-0.39524-0.61227 0.91883
  10  -2   2   33.42   10.46 182 0.67204 0.06436 0.39914-0.66721-0.61354 0.74386
  12  -3  -1    9.27   11.89 181 0.67365 0.20550 0.39745-0.79899-0.61284 0.56908
  -4   2  -7  200.83   10.26 182 0.66674-0.96751 0.40460-0.13480-0.61573 0.19859
  -4   4  -7    6.84    9.09 182 0.66619-0.96698 0.40517 0.13542-0.61597 0.19774
  -3   3  -3   27.88    6.70 182 0.67102-0.89390 0.40018 0.00489-0.61393 0.43271
  -3   6  -8   -3.92   11.04 182 0.67118-0.89811 0.40001 0.41008-0.61386 0.13804
  -2   1  -2  913.63   14.11 181 0.67209-0.82115 0.39905-0.26321-0.61347 0.49337
  -2   5  -2   46.37   10.28 182 0.66824-0.81622 0.40306 0.27215-0.61511 0.49420
   0   6   0    3.95   12.22 182 0.66782-0.66552 0.40349 0.40539-0.61528 0.61367
   0   7  -2   -4.39   12.68 182 0.66812-0.66852 0.40318 0.54119-0.61516 0.49628
   3   6   3    5.87   13.38 183 0.66222-0.43670 0.40924 0.40107-0.61760 0.79659
   5  -3  -2   75.22    9.46 182 0.66871-0.30369 0.40257-0.80662-0.61491 0.50388
   5   5   5    2.54   20.23 186 0.64656-0.27232 0.42493 0.25101-0.62377 0.92355
   7  -3  -1   80.58    9.90 182 0.66624-0.15316 0.40512-0.80905-0.61594 0.56628
   8  -4  -5   22.59   10.71 182 0.66999-0.08791 0.40124-0.93970-0.61437 0.33077
   9  -4  -5    2.26   11.36 182 0.66671-0.01078 0.40464-0.94314-0.61575 0.33339
   9  -2   2   37.14    8.74 182 0.67089-0.00752 0.40031-0.66951-0.61399 0.74348
  10  -4  -5   15.81   13.19 182 0.66747 0.06169 0.40385-0.94119-0.61543 0.33419
  11   2   6    7.66   14.58 183 0.66463 0.14973 0.40678-0.13586-0.61661 0.98193
  -4   2 -14    1.50   13.31 183 0.66284-0.97075 0.40876-0.13922-0.61746-0.21339
  -4   3  -6   36.23    8.72 183 0.66151-0.96089 0.41013-0.00571-0.61801 0.26049
  -3   6  -7   26.43   12.18 183 0.66316-0.88882 0.40844 0.40250-0.61734 0.19975
  -2   2  -1  122.19    9.74 183 0.66306-0.80989 0.40854-0.13806-0.61738 0.55682
  -2   4  -1    4.09    8.53 183 0.66313-0.81091 0.40847 0.13280-0.61735 0.55538
   4  -3  -3   13.10    8.67 183 0.66502-0.37440 0.40654-0.81081-0.61657 0.44609
   5  -4 -12   -3.27   14.09 184 0.66007-0.30529 0.41159-0.94972-0.61859-0.08177
   5  -4 -11    5.80   14.63 184 0.65639-0.30074 0.41530-0.95420-0.62007-0.02086
   5  -4 -10   -0.51   12.81 185 0.65532-0.29860 0.41638-0.95407-0.62049 0.03881
   5  -4  -9    2.00   10.67 184 0.66010-0.30234 0.41156-0.94862-0.61858 0.09589
   5   0   4   -0.52    9.19 183 0.66331-0.28992 0.40829-0.40836-0.61728 0.86138
   6  -4  -7   20.15   10.59 183 0.66091-0.22748 0.41073-0.94987-0.61825 0.21409
   7  -4  -6    6.08   10.64 183 0.66083-0.15298 0.41081-0.94933-0.61829 0.27441
  11  -3  -1    5.86   10.07 183 0.66501 0.14252 0.40655-0.80995-0.61657 0.57201
  -4   1 -11    8.31   10.90 184 0.65421-0.95967 0.41766-0.28251-0.62087-0.03220
  -4   1 -10   24.01    9.43 184 0.65576-0.95944 0.41610-0.28057-0.62026 0.02659
  -4   5 -10    4.06   11.43 184 0.65981-0.96333 0.41201 0.26341-0.61864 0.02361
  -4   5  -9   23.18   11.94 184 0.65775-0.95947 0.41409 0.26163-0.61947 0.08330
  -3   0 -14   -3.64   12.51 185 0.65395-0.88816 0.41791-0.41807-0.62097-0.20881
  -3   0  -7   58.32   10.48 184 0.65602-0.88354 0.41584-0.41572-0.62016 0.20465
  -3   2  -3  212.22    9.51 184 0.65571-0.87909 0.41615-0.14601-0.62028 0.43960
  -3   4  -3  421.87    9.69 183 0.65954-0.88221 0.41229 0.12707-0.61875 0.43775
  -3   5  -4   -1.33   10.82 184 0.65685-0.88058 0.41500 0.25991-0.61983 0.37981
  -2  -1 -14    7.95   16.03 186 0.64703-0.80843 0.42479-0.55871-0.62365-0.20260
  -1   5   0    2.61    9.36 184 0.65833-0.73069 0.41351 0.26193-0.61924 0.61704
   0  -1  -2  123.87   15.83 186 0.64518-0.64799 0.42660-0.56110-0.62435 0.50626
   0   4   2   10.67    9.77 185 0.65295-0.65010 0.41892 0.12153-0.62137 0.73859
   1   4   3   27.04   10.45 185 0.65305-0.57517 0.41881 0.12163-0.62133 0.79876
   2   3   4  295.32   17.17 187 0.64080-0.48884 0.43087-0.02572-0.62598 0.86368
   3   5   4    5.99   12.82 185 0.65024-0.42430 0.42161 0.25441-0.62242 0.86113
   6  -1   3   49.03    8.76 184 0.65527-0.21089 0.41659-0.55053-0.62045 0.80518
   8  -3  -1   40.27    9.78 184 0.65779-0.07103 0.41406-0.81745-0.61946 0.57176
   9  -3  -1    7.00    9.63 184 0.65669 0.00470 0.41516-0.82027-0.61989 0.57319
  10  -3  -1  -13.57   10.76 184 0.65745 0.07623 0.41440-0.81744-0.61959 0.57319
  10   2   6    6.32   13.18 185 0.65271 0.08940 0.41915-0.14800-0.62146 0.98651
  12  -1   3   11.61   11.52 184 0.65733 0.22654 0.41452-0.54715-0.61964 0.81004
  -4   1 -12    5.94   10.11 185 0.65078-0.95618 0.42114-0.28530-0.62223-0.08948
  -4   1  -9   53.10    9.52 185 0.65079-0.95341 0.42114-0.28535-0.62223 0.08771
  -4   2 -15   -2.47   14.15 185 0.65039-0.95715 0.42154-0.15065-0.62238-0.26449
  -4   4  -6    8.90    8.16 184 0.65368-0.95248 0.41825 0.12199-0.62110 0.26179
  -4   5  -8    6.70   11.50 185 0.65131-0.95262 0.42062 0.25625-0.62203 0.14412
  -3   6  -6    4.58   12.51 185 0.65157-0.87655 0.42036 0.39043-0.62193 0.26331
  -2  -1  -7   41.23   13.45 187 0.64094-0.79510 0.43081-0.56502-0.62595 0.21195
  -2   6  -3   -0.99   12.00 185 0.65097-0.79948 0.42096 0.38913-0.62216 0.44185
  -1   3   1   43.70    8.83 185 0.64942-0.72102 0.42249-0.01721-0.62275 0.68039
   2   7   1   -5.95   15.24 186 0.64774-0.49824 0.42415 0.52047-0.62340 0.68316
   4  -2   0  453.24    9.71 185 0.65419-0.36007 0.41774-0.68750-0.62090 0.62644
   6  -4  -8   -4.90   11.85 186 0.64774-0.21492 0.42415-0.96358-0.62340 0.15980
   6  -2   1   26.53    7.94 185 0.64990-0.20730 0.42202-0.69196-0.62257 0.68957
   8  -4  -6    9.21   11.30 186 0.64990-0.06995 0.42202-0.95756-0.62257 0.28059
   8   2   6   14.56   10.97 186 0.64750-0.05246 0.42439-0.15358-0.62349 0.98600
   8   4   6    7.42   20.59 189 0.62528-0.02968 0.44576 0.09532-0.63151 0.99418
   9  -4  -6    1.22   11.74 185 0.65077 0.00554 0.42116-0.96045-0.62224 0.28014
   9   2   6    3.64   12.03 185 0.64809 0.02127 0.42381-0.15273-0.62326 0.98852
  12  -2   1   11.48   10.57 184 0.65441 0.22893 0.41752-0.68610-0.62081 0.69512
  12   1   5   12.86   13.44 184 0.65194 0.23880 0.41999-0.28369-0.62178 0.93299
  -4   2  -6   18.11    7.64 185 0.64825-0.94780 0.42365-0.15317-0.62341 0.26497
  -3   1  -4  961.29   14.54 186 0.64610-0.87017 0.42578-0.29017-0.62423 0.38541
  -1   6  -1    5.52   10.96 186 0.64758-0.72022 0.42431 0.38644-0.62366 0.56178
  -1   7  -3    1.10   13.55 185 0.64805-0.72094 0.42386 0.51998-0.62349 0.44267
   1   7   0   -2.81   13.10 186 0.64534-0.57032 0.42652 0.51958-0.62451 0.62417
   2  -3  -7   33.94   11.44 187 0.63751-0.49822 0.43413-0.83837-0.62741 0.21880
   2  -2  -2  258.05   10.57 186 0.64705-0.50297 0.42484-0.69426-0.62386 0.50918
   4  -1   2  447.77   10.25 186 0.64805-0.35237 0.42386-0.55865-0.62349 0.74646
   6  -3  -2  235.30   10.16 186 0.64462-0.20670 0.42723-0.83104-0.62478 0.51526
   7  -4  -7   34.92   11.76 186 0.64542-0.13823 0.42645-0.96531-0.62448 0.22251
   7   3   6    0.33   15.97 189 0.62709-0.10546 0.44406-0.03838-0.63110 0.99182
   9   4   6    6.71   18.85 190 0.62397 0.04498 0.44700 0.09402-0.63217 0.99499
  11  -1   3   21.08   10.81 186 0.64578 0.16581 0.42609-0.55929-0.62435 0.81581
  12   0   4   40.07   12.05 186 0.64340 0.24286 0.42842-0.42697-0.62524 0.87566
  -4   1 -13   -1.32   11.17 186 0.64165-0.94775 0.43001-0.29398-0.62578-0.14452
  -4   1  -8   14.36    9.38 187 0.63943-0.94104 0.43216-0.29665-0.62660 0.15082
  -4   3  -5   35.88    7.46 187 0.64164-0.93931 0.43002-0.02508-0.62579 0.32621
  -4   5  -7    8.78    8.74 186 0.64244-0.94240 0.42924 0.24671-0.62549 0.20695
  -1   4   1   68.06    9.11 187 0.63813-0.70895 0.43343 0.10611-0.62708 0.68457
   0   2   2   47.87   10.11 187 0.63682-0.63348 0.43468-0.16454-0.62755 0.74571
   0   7  -1    2.79   13.82 187 0.63721-0.63540 0.43431 0.51025-0.62741 0.56646
   2  -3 -14    1.90   19.85 188 0.62973-0.49821 0.44145-0.84779-0.63007-0.19393
   3  -3  -5   31.66    9.72 188 0.63534-0.42032 0.43611-0.84051-0.62809 0.33843
   3  -2  -1  186.27    8.54 187 0.64179-0.42358 0.42987-0.69936-0.62573 0.57079
   6  -4  -9    0.09   12.83 188 0.63251-0.20231 0.43881-0.97347-0.62909 0.10918
   7  -1   3  324.31   10.26 187 0.63713-0.12015 0.43439-0.56875-0.62744 0.81270
   8  -4  -7    4.91   11.96 187 0.63700-0.05684 0.43451-0.97270-0.62749 0.22623
   9  -4  -7   20.23   12.61 187 0.63661 0.01766 0.43489-0.97405-0.62763 0.22747
  10   3   6    0.28   15.52 188 0.63317 0.11000 0.43818-0.03140-0.62886 0.99522
  11  -3  -2    4.44   11.29 186 0.64111 0.16884 0.43054-0.83735-0.62598 0.52362
  11  -2   1    0.64    9.83 187 0.64200 0.16852 0.42967-0.69892-0.62565 0.69869
  -4   4  -5   74.13    9.49 188 0.63531-0.93292 0.43610 0.10327-0.62820 0.32798
  -3   0 -15    4.39   13.60 188 0.63104-0.86625 0.44018-0.43922-0.62972-0.25603
  -3   5  -3    4.52   10.33 188 0.63274-0.85403 0.43856 0.23585-0.62911 0.44744
  -3   6  -5   19.06   10.56 187 0.63605-0.85980 0.43540 0.37557-0.62793 0.32814
  -2   5  -1   10.81    9.47 188 0.63254-0.77875 0.43875 0.23627-0.62919 0.56645
  -1   1   0 3038.53   28.96 187 0.63650-0.70951 0.43496-0.29847-0.62777 0.62744
   1   2   3  158.25   15.99 190 0.62143-0.54369 0.44922-0.17892-0.63303 0.81115
   6  -4 -11    2.37   13.63 188 0.63040-0.20142 0.44079-0.97997-0.62994-0.00935
   6  -4 -10    2.77   13.13 189 0.62895-0.19936 0.44216-0.97900-0.63045 0.05106
   6   1   5    7.01    9.83 189 0.63031-0.18344 0.44087-0.30513-0.62997 0.93190
   7  -4  -8   12.97   12.10 188 0.63209-0.12652 0.43918-0.97785-0.62934 0.16815
   7  -2   1   71.53    8.72 188 0.63405-0.11912 0.43732-0.70686-0.62865 0.69671
  10  -2   1   40.47   10.25 188 0.63234 0.10383 0.43895-0.70751-0.62926 0.70176
  10  -1   3    3.79   10.18 188 0.63507 0.10322 0.43633-0.56996-0.62828 0.81770
  11   1   5   12.08   13.16 188 0.63032 0.18433 0.44086-0.30422-0.62997 0.93804
  -4   1 -14    9.19   13.71 189 0.62444-0.93354 0.44615-0.31054-0.63194-0.19826
  -4   5  -6    2.59    9.11 189 0.62952-0.92830 0.44136 0.23368-0.63018 0.27111
  -3   3  -2   38.89    7.47 188 0.63007-0.85167 0.44085-0.03572-0.62999 0.50830
   2   0   2  441.99   14.43 189 0.62762-0.47732 0.44317-0.44335-0.63085 0.75167
   2   4   4   33.15   11.81 190 0.62108-0.46810 0.44929 0.09043-0.63307 0.87059
   4  -3  -4   55.21    8.86 190 0.62407-0.33502 0.44650-0.85094-0.63206 0.40165
   5  -3  -3   89.64    8.06 189 0.62958-0.26575 0.44131-0.84595-0.63016 0.46010
   6   0   4  458.36   10.99 189 0.62454-0.17890 0.44606-0.44580-0.63190 0.87477
   7  -3  -2   16.00    8.04 188 0.63003-0.11809 0.44088-0.84475-0.63001 0.52161
   8  -4  -8   11.26   12.06 189 0.62581-0.04600 0.44487-0.98442-0.63147 0.17102
   8  -2   1   25.61    9.23 189 0.62686-0.03841 0.44388-0.71345-0.63111 0.70010
   8  -1   3  218.54    8.94 189 0.62958-0.03884 0.44132-0.57603-0.63016 0.81669
   8   3   6   12.38   15.04 192 0.61168-0.01618 0.45794-0.05174-0.63615 0.99818
   9  -4  -8    1.92   12.73 189 0.62577 0.02847 0.44490-0.98507-0.63148 0.17143
   9  -2   1   11.62    9.97 189 0.62641 0.03610 0.44431-0.71302-0.63126 0.70177
   9  -1   3   21.66    8.35 189 0.62947 0.03551 0.44141-0.57540-0.63020 0.81844
   9   3   6    9.15   15.48 192 0.61185 0.05608 0.45778-0.05202-0.63610 0.99796
  10  -3  -2   33.29    9.10 189 0.62896 0.10372 0.44189-0.84582-0.63038 0.52596
  11   0   4   47.22   12.32 189 0.62636 0.18676 0.44435-0.44292-0.63128 0.88046
  -5   3 -12    2.62   12.01 190 0.61822-0.99708 0.45195-0.04645-0.63393-0.07929
  -5   3 -11    3.53   11.37 190 0.62072-0.99911 0.44964-0.04412-0.63310-0.02146
  -5   3 -10   28.94   11.13 190 0.62058-0.99762 0.44976-0.04432-0.63315 0.03762
  -5   4 -11   -4.24   12.80 190 0.61822-0.99586 0.45195 0.08862-0.63393-0.02063
  -4   1  -7   10.81    9.17 190 0.61975-0.92092 0.45054-0.31512-0.63342 0.21673
  -4   2  -5   54.08    8.94 190 0.62208-0.92057 0.44837-0.17787-0.63264 0.33317
  -3   0  -6    7.30   10.04 190 0.61680-0.84340 0.45326-0.45325-0.63440 0.27753
  -3   4  -2  343.28    9.63 189 0.62394-0.84541 0.44663 0.09360-0.63201 0.51086
  -2  -1 -15    4.11   17.62 193 0.60194-0.76501 0.46673-0.60166-0.63909-0.24635
  -2   6  -2    7.72   10.80 190 0.62060-0.76876 0.44975 0.36236-0.63314 0.51212
  -1   7  -2    1.18   13.78 192 0.61234-0.68833 0.45735 0.49435-0.63584 0.51697
   0   6   1   -2.56   11.55 191 0.61705-0.61429 0.45303 0.35673-0.63431 0.69209
   1   6   2   -0.99   12.14 190 0.62108-0.54301 0.44930 0.35801-0.63298 0.74917
   4   6   4    3.19   15.37 192 0.60754-0.30729 0.46170 0.35114-0.63736 0.87836
   7  -4 -10   -1.07   13.16 191 0.61668-0.11281 0.45337-0.99230-0.63444 0.05504
   7  -4  -9   16.57   11.89 190 0.62181-0.11728 0.44862-0.98685-0.63273 0.11268
   8  -3  -2    5.93    7.92 189 0.62390-0.03813 0.44668-0.85062-0.63203 0.52488
   9  -3  -2    9.54    8.60 189 0.62412 0.03539 0.44647-0.85052-0.63195 0.52622
  12  -2   0   -3.95   11.99 189 0.62351 0.26320 0.44703-0.71793-0.63216 0.64911
  -5   3 -13    3.63   12.93 191 0.61443-0.99184 0.45543-0.05078-0.63523-0.13474
  -5   3  -9   11.79   10.20 190 0.61715-0.99235 0.45293-0.04783-0.63435 0.09784
  -5   4 -12    7.22   12.69 191 0.61546-0.99418 0.45448 0.08623-0.63490-0.07859
  -5   4 -10    9.67   11.00 190 0.61762-0.99437 0.45250 0.08803-0.63419 0.03840
  -5   4  -9   -1.26   11.47 191 0.61400-0.98955 0.45582 0.08338-0.63537 0.09904
  -4   3  -4    6.50    8.51 191 0.61350-0.91070 0.45628-0.05136-0.63553 0.39456
  -4   5  -5   25.37   10.81 191 0.61190-0.90991 0.45774 0.21787-0.63605 0.33583
  -3   6  -4  -10.56   12.31 191 0.61484-0.83878 0.45506 0.35659-0.63510 0.39497
  -2   3   0  181.10    8.32 191 0.61716-0.76287 0.45292-0.04795-0.63434 0.63184
  -2   4   0   33.59    8.96 191 0.61209-0.75801 0.45757 0.08195-0.63599 0.63371
  -1   2   1  398.47   12.00 191 0.61284-0.68444 0.45689-0.18682-0.63575 0.69359
   0  -2  -6   25.14   14.23 194 0.59404-0.60088 0.47371-0.74295-0.64151 0.28895
   0   5   2  149.59   11.17 191 0.61115-0.60819 0.45843 0.21560-0.63629 0.75279
   2  -3  -8    1.80   11.93 192 0.60811-0.46989 0.46119-0.86605-0.63725 0.16908
   5  -2   0   25.66    6.74 191 0.61660-0.25017 0.45344-0.72329-0.63453 0.64085
   8  -4  -9   -4.44   12.50 191 0.61484-0.03670 0.45506-0.99276-0.63510 0.11575
  10   0   4    5.29   10.66 191 0.61256 0.12708 0.45714-0.45564-0.63584 0.88354
  10   1   5    4.86   10.52 191 0.61551 0.12588 0.45444-0.31806-0.63488 0.94201
  11  -3  -3   26.43   11.97 191 0.61181 0.19361 0.45782-0.86110-0.63608 0.47370
  12  -1   2   -4.74   11.76 191 0.61473 0.26926 0.45515-0.58864-0.63513 0.76702
  13   0   3   13.22   13.11 192 0.61251 0.34410 0.45718-0.45476-0.63585 0.82738
  -5   3  -8   -0.85   10.70 192 0.60784-0.98280 0.46140-0.05717-0.63738 0.15958
  -5   4  -8    2.18   10.58 192 0.60605-0.98101 0.46302 0.07749-0.63794 0.15991
  -4   1 -15    5.07   15.11 192 0.60571-0.91558 0.46332-0.32784-0.63805-0.25103
  -4   4  -4   13.98    8.03 192 0.61070-0.90784 0.45881 0.08147-0.63647 0.39521
  -4   6  -7   -5.45   12.72 192 0.60773-0.90666 0.46150 0.34769-0.63741 0.21983
  -1   6   0    6.44   10.91 192 0.60804-0.67872 0.46122 0.34715-0.63732 0.63415
   1   5   3   27.47   13.19 193 0.59993-0.52144 0.46848 0.20753-0.63981 0.81804
   3  -1   1 1937.03   18.09 192 0.61110-0.39001 0.45845-0.59302-0.63635 0.69921
   6  -3  -3   38.13    9.10 192 0.60760-0.16970 0.46162-0.86589-0.63746 0.46947
   7   0   4  232.42   10.25 192 0.60673-0.08901 0.46240-0.46078-0.63773 0.88211
   7   1   5    2.64    8.57 192 0.60794-0.08748 0.46131-0.32535-0.63735 0.94041
   9   1   5   30.83   11.29 193 0.60325 0.06312 0.46552-0.32974-0.63880 0.94329
  -5   2 -12   17.61   10.96 193 0.60138-0.97924 0.46703-0.19705-0.63918-0.07250
  -5   2 -11   52.99   11.79 193 0.60311-0.98115 0.46548-0.19539-0.63866-0.01493
  -5   2 -10    2.97   10.31 193 0.60176-0.97904 0.46668-0.19660-0.63907 0.04387
  -5   5 -10    2.84   12.84 193 0.59955-0.97600 0.46865 0.20682-0.63974 0.04409
  -3   0 -16    5.22   16.16 194 0.59709-0.83409 0.47083-0.47052-0.64047-0.30485
  -3   2  -2  344.46   10.33 193 0.60276-0.82420 0.46579-0.19565-0.63876 0.51795
  -3   5  -2    8.22   10.11 193 0.59893-0.82053 0.46920 0.20644-0.63992 0.51782
  -1   5   1   18.77    9.24 193 0.60383-0.67462 0.46483 0.21040-0.63843 0.69510
   1   7   1   -0.55   14.55 194 0.59780-0.52147 0.47021 0.47410-0.64026 0.69903
   2  -3 -13   -1.42   16.56 196 0.58511-0.45215 0.48128-0.88594-0.64392-0.11848
   2   6   3    4.13   12.82 193 0.59871-0.44668 0.46940 0.34164-0.63999 0.81827
   3  -3  -6   41.78    9.48 194 0.59727-0.38274 0.47067-0.87522-0.64042 0.29255
   5  -1   2   77.52    7.40 193 0.60442-0.23625 0.46430-0.59862-0.63825 0.76222
   8   0   4  181.24   10.78 193 0.60075-0.00924 0.46759-0.46719-0.63937 0.88431
   8   1   5    9.62    9.28 193 0.60004-0.00628 0.46822-0.33199-0.63959 0.94336
   9   0   4   22.87    9.53 193 0.60397 0.06151 0.46471-0.46451-0.63839 0.88477
  10  -3  -3   32.57   11.30 193 0.59990 0.13140 0.46835-0.87107-0.63963 0.47582
  11  -2   0   -1.13    9.74 193 0.60464 0.20497 0.46411-0.73318-0.63818 0.65210
  -5   2 -13    3.62   12.20 195 0.59141-0.97239 0.47591-0.20575-0.64202-0.13024
  -5   2  -9   46.20   10.37 194 0.59676-0.97236 0.47121-0.20163-0.64045 0.10448
  -5   3  -7    9.20   10.12 194 0.59547-0.96877 0.47235-0.06770-0.64083 0.22244
  -5   4  -7   16.33   10.37 194 0.59577-0.96852 0.47209 0.06734-0.64075 0.22230
  -5   5  -9   -3.54   12.23 195 0.59196-0.97131 0.47543 0.20331-0.64186 0.10310
  -4   6  -6   -5.49   12.29 194 0.59453-0.89269 0.47318 0.33590-0.64111 0.28267
  -2   7  -3   -4.04   12.68 194 0.59474-0.74266 0.47299 0.47103-0.64105 0.46119
   0   7   0   11.43   12.58 194 0.59509-0.59298 0.47269 0.47311-0.64095 0.63991
   1  -2  -4  619.93   15.45 195 0.59233-0.52375 0.47511-0.74436-0.64175 0.40782
   6  -2   0  117.34    8.76 194 0.59328-0.15308 0.47428-0.74294-0.64148 0.64997
   7  -3  -3   24.80   10.09 194 0.59524-0.08387 0.47256-0.87615-0.64090 0.47435
   9  -3  -3    6.53   10.42 194 0.59518 0.06428 0.47261-0.87785-0.64092 0.47625
  11  -1   2   29.03    9.66 194 0.59797 0.21230 0.47014-0.60314-0.64009 0.77266
  13  -1   1    7.11   13.21 193 0.59819 0.36035 0.46995-0.60411-0.64003 0.71684
  -5   5  -8    5.63   11.81 196 0.58537-0.96314 0.48105 0.19581-0.64369 0.16590
  -4   1  -6   96.07    7.80 194 0.59198-0.89169 0.47531-0.34113-0.64181 0.28440
  -4   5  -4   16.10   10.40 195 0.59032-0.88684 0.47676 0.19820-0.64229 0.40129
  -3   6  -3    1.33   11.35 195 0.58712-0.81205 0.47954 0.33484-0.64319 0.46274
  -2   0  -3  269.48   12.24 195 0.58905-0.73929 0.47786-0.47679-0.64265 0.46454
  -2   6  -1    2.40   10.34 195 0.58634-0.73279 0.48021 0.33020-0.64341 0.58138
   2  -3  -9   24.56   11.82 196 0.58205-0.44422 0.48390-0.88795-0.64460 0.11826
   2   7   2    1.64   15.38 196 0.58403-0.43334 0.48221 0.46447-0.64406 0.76400
   4  -3  -5   23.67    8.66 195 0.58658-0.29821 0.48001-0.88498-0.64335 0.35445
   4  -2  -1   68.78    8.14 195 0.58669-0.29509 0.47991-0.74918-0.64332 0.58909
   4   0   3  542.24   12.42 195 0.58860-0.29170 0.47825-0.47836-0.64277 0.82385
   5  -3  -4  189.77    8.51 195 0.59169-0.22919 0.47557-0.88016-0.64189 0.41322
   8  -3  -3   13.21    8.64 195 0.59148-0.00667 0.47575-0.87985-0.64195 0.47566
  10  -2   0   62.13    9.20 195 0.59147 0.14182 0.47576-0.74523-0.64195 0.65409
  11  -3  -4   -2.19   12.54 195 0.58839 0.21736 0.47844-0.88240-0.64284 0.42069
  12  -2  -1   -5.23   11.84 195 0.58817 0.29511 0.47863-0.74821-0.64290 0.59899
  12   0   3   19.52   12.32 195 0.58852 0.29532 0.47832-0.47630-0.64280 0.83314
  12   1   4    2.44   13.97 195 0.58601 0.30155 0.48049-0.34396-0.64350 0.89429
  -5   2 -14    5.79   12.03 196 0.58121-0.96232 0.48461-0.21469-0.64465-0.18527
  -5   2  -8   82.99    8.82 195 0.58543-0.96040 0.48099-0.21067-0.64349 0.16792
  -4   2  -4   92.17    7.77 195 0.58597-0.88346 0.48053-0.21031-0.64333 0.40436
  -3   1  -3 1535.18   16.72 196 0.58496-0.80804 0.48139-0.34538-0.64362 0.46456
  -3   4  -1  255.67   10.52 196 0.58006-0.80047 0.48559 0.05361-0.64496 0.58308
  -2   5   0   20.01    9.97 195 0.58529-0.73129 0.48112 0.19444-0.64353 0.64074
  -1   7  -1    0.47   14.40 196 0.58254-0.65607 0.48348 0.46231-0.64429 0.58418
   2  -3 -12   10.58   15.43 198 0.57029-0.43612 0.49384-0.89928-0.64754-0.05643
   2  -1   0  216.16   10.68 196 0.58094-0.43467 0.48484-0.61981-0.64472 0.64683
   2   1   3  478.29   22.14 198 0.56920-0.41850 0.49475-0.35940-0.64783 0.82728
   7  -2   0   23.84    8.23 196 0.58259-0.06860 0.48343-0.75334-0.64427 0.65323
   9  -2   0   23.15    9.24 196 0.58296 0.07811 0.48312-0.75255-0.64417 0.65529
  10  -1   2   60.23   10.10 196 0.58284 0.15287 0.48322-0.61792-0.64420 0.77379
  11   2   5    6.91   13.64 197 0.57878 0.23417 0.48668-0.21533-0.64531 0.95191
  -5   3  -6   13.69    9.96 197 0.57618-0.94960 0.48873-0.08350-0.64608 0.28616
  -5   4  -6   35.46    8.66 196 0.57923-0.95162 0.48614 0.05340-0.64526 0.28569
  -5   5  -7    1.90   11.28 198 0.57244-0.95116 0.49189 0.18750-0.64707 0.22718
  -4   3  -3   20.98    8.67 197 0.57758-0.87409 0.48755-0.08249-0.64571 0.46380
  -4   4  -3   25.31    7.82 196 0.57951-0.87614 0.48591 0.05404-0.64519 0.46353
  -4   6  -5    3.21   12.97 197 0.57482-0.87400 0.48988 0.32284-0.64644 0.34629
  -3   3  -1   26.31    8.71 197 0.57733-0.79824 0.48776-0.08301-0.64578 0.58291
  -2   2   0   -1.41    9.30 198 0.57244-0.72077 0.49189-0.22044-0.64707 0.64517
   1   0   1   10.96   11.58 197 0.57812-0.50422 0.48709-0.48706-0.64556 0.70517
   2  -3 -11   10.11   13.76 200 0.55908-0.42350 0.50294-0.90662-0.65043 0.00628
   2  -3 -10    7.56   12.25 198 0.56860-0.43236 0.49509-0.89985-0.64806 0.06246
   6  -1   2   16.80    7.19 197 0.57925-0.13646 0.48613-0.62003-0.64526 0.77066
   8  -2   0   30.70    7.55 197 0.57921 0.00857 0.48617-0.75483-0.64527 0.65627
  10  -3  -4    7.42   11.93 198 0.57315 0.15630 0.49129-0.89324-0.64688 0.42398
  -5   2  -7   40.31    9.60 198 0.56865-0.94311 0.49490-0.22544-0.64798 0.22958
   1  -1  -1 1692.06   24.01 198 0.57064-0.49847 0.49324-0.62849-0.64747 0.58949
   2   5   4   10.54   11.91 199 0.56252-0.41016 0.49997 0.17622-0.64952 0.88732
   3  -3  -7   97.18   10.42 199 0.56318-0.34953 0.49943-0.90426-0.64935 0.24176
   3  -2  -2    7.67    8.50 199 0.56606-0.34837 0.49705-0.76634-0.64863 0.53479
   4   1   4  295.30   12.83 198 0.56739-0.26895 0.49594-0.35989-0.64830 0.88888
   5   2   5   16.30   11.97 200 0.55586-0.18255 0.50541-0.23442-0.65113 0.95167
   6  -3  -4   31.67    7.94 198 0.57197-0.13553 0.49213-0.89654-0.64712 0.42011
   7  -1   2  104.14    9.57 198 0.56827-0.05115 0.49521-0.62902-0.64807 0.77497
   8  -1   2   32.45    8.94 198 0.56652 0.02285 0.49667-0.63009-0.64852 0.77663
   9  -1   2   30.21    8.21 198 0.57239 0.09116 0.49178-0.62564-0.64701 0.77630
  11  -3  -5    5.39   13.07 198 0.56854 0.23623 0.49499-0.90063-0.64800 0.36803
  11  -2  -1    7.78   10.77 198 0.56735 0.23939 0.49598-0.76385-0.64831 0.60311
  11   0   3   26.57   10.27 198 0.56753 0.24425 0.49583-0.49409-0.64826 0.83842
  12  -1   1    7.76   10.46 198 0.57223 0.31071 0.49191-0.62513-0.64705 0.72102
  13   0   2   11.11   12.83 197 0.57099 0.39137 0.49294-0.49224-0.64737 0.78392
  -5   5  -6  -11.14   11.04 199 0.56256-0.93532 0.50003 0.17491-0.64981 0.29043
  -4   0 -12    2.54   12.60 200 0.55694-0.86309 0.50463-0.50463-0.65118-0.05982
  -4   0 -11   69.97   11.89 199 0.56147-0.86687 0.50093-0.50001-0.65008-0.00168
  -4   0 -10  112.19   11.54 199 0.55821-0.86207 0.50360-0.50324-0.65087 0.05786
  -4   5  -3   46.84   10.31 199 0.56180-0.85732 0.50066 0.17409-0.65000 0.46906
  -3   6  -2    0.37   10.99 199 0.56182-0.78164 0.50064 0.30844-0.65000 0.52770
  -2  -1 -16    0.74   19.03 200 0.55219-0.71479 0.50848-0.64253-0.65230-0.29097
  -2   1  -1  655.61   12.97 198 0.56678-0.71497 0.49655-0.36014-0.64876 0.58800
  -2   7  -2    8.85   12.79 199 0.56257-0.71043 0.50002 0.44791-0.64981 0.52926
   2  -2  -3  919.02   14.78 199 0.56231-0.41873 0.50024-0.77007-0.64987 0.47581
   4   5   5   23.79   19.26 202 0.53993-0.23937 0.51823 0.15722-0.65506 0.95373
   7  -3  -4   17.29   10.33 199 0.56183-0.05206 0.50064-0.90429-0.64999 0.42353
   8  -3  -4    8.01   10.22 199 0.56209 0.02194 0.50042-0.90536-0.64993 0.42483
   9  -3  -4   23.45    9.58 198 0.56606 0.09102 0.49714-0.90134-0.64894 0.42510
  10   2   5   13.72   12.63 200 0.55515 0.18543 0.50608-0.23434-0.65161 0.95738
  11   1   4   19.45   12.09 200 0.55976 0.25389 0.50233-0.36560-0.65050 0.89970
  -5   4  -5   23.69    9.39 199 0.55874-0.92980 0.50307 0.03694-0.65092 0.34995
  -4   1  -5    3.00    7.88 200 0.55629-0.85394 0.50507-0.37043-0.65151 0.35281
  -4   6  -4   16.26   11.85 200 0.55551-0.85155 0.50570 0.30410-0.65169 0.41087
  -3   0  -5  159.36    9.91 200 0.55746-0.78331 0.50412-0.50365-0.65123 0.35349
  -3   5  -1    6.43    8.43 200 0.55936-0.77970 0.50257 0.17317-0.65077 0.58764
  -1   4   2   21.77    8.87 200 0.55542-0.62591 0.50578 0.03509-0.65172 0.76815
  -1   6   1   28.38   11.90 200 0.55415-0.62396 0.50681 0.30272-0.65202 0.70884
   0   6   2    8.29   11.25 200 0.55268-0.54867 0.50799 0.30276-0.65236 0.76907
   3   6   4    1.58   15.43 202 0.54142-0.31480 0.51696 0.29685-0.65491 0.89556
   5  -3  -5  114.70   10.27 200 0.55518-0.19268 0.50597-0.91045-0.65177 0.36434
   5  -2  -1  390.28   10.66 200 0.55409-0.18752 0.50685-0.77637-0.65203 0.59953
  12  -2  -2    7.72   11.14 200 0.55711 0.32367 0.50441-0.77389-0.65131 0.54949
  13  -1   0   -7.22   13.28 200 0.55686 0.39767 0.50461-0.63737-0.65137 0.66645
  -6   4 -11    4.74   12.33 200 0.55229-0.99934 0.50835 0.02972-0.65250 0.00013
  -5   1 -12    9.63   11.05 202 0.54586-0.92541 0.51350-0.37855-0.65397-0.05835
  -5   1 -11   23.83   10.78 201 0.54933-0.92755 0.51072-0.37534-0.65319 0.00108
  -5   1 -10   47.72   10.64 201 0.54561-0.92342 0.51369-0.37832-0.65403 0.05990
  -5   3  -5   39.93    7.49 200 0.55245-0.92434 0.50822-0.10440-0.65247 0.35188
  -4   0 -13   -2.71   12.40 201 0.54693-0.85372 0.51264-0.51254-0.65373-0.11592
  -4   0  -9   17.78    9.83 201 0.54584-0.84871 0.51351-0.51329-0.65398 0.12049
  -2   4   1   28.20    8.55 201 0.54631-0.69107 0.51314 0.02744-0.65387 0.71032
   0   4   3    8.52    9.57 202 0.54503-0.54113 0.51415 0.02738-0.65416 0.83111
   4  -3  -6    8.42    9.29 201 0.54936-0.26205 0.51070-0.91470-0.65318 0.30547
   4  -1   1  291.20   10.84 201 0.54999-0.25485 0.51019-0.64515-0.65303 0.71680
  10  -3  -5   25.04   10.83 201 0.55240 0.17756 0.50826-0.91251-0.65248 0.37115
  10  -2  -1   24.74    8.89 201 0.55237 0.18143 0.50828-0.77673-0.65248 0.60616
  10   0   3   12.01   10.57 201 0.54816 0.19024 0.51166-0.50999-0.65345 0.84210
  11  -3  -6    0.85   13.39 201 0.54794 0.25455 0.51184-0.91562-0.65350 0.31448
  11  -1   1   -2.62   11.75 201 0.55130 0.25869 0.50915-0.64263-0.65273 0.72543
  11   3   5   10.48   13.28 202 0.54593 0.26917 0.51344-0.10630-0.65396 0.96166
  -6   3 -12   12.10   12.21 202 0.54263-0.99315 0.51609-0.11163-0.65473-0.05777
  -6   3 -11    5.00   12.11 202 0.54298-0.99395 0.51581-0.11072-0.65466-0.00027
  -6   3 -10   18.92   10.68 202 0.54012-0.99096 0.51806-0.11290-0.65528 0.05894
  -6   4 -10    3.25   11.08 202 0.54614-0.99683 0.51330 0.02625-0.65395 0.05730
  -6   4  -9   -6.36   11.61 202 0.54215-0.99058 0.51646 0.02233-0.65484 0.11783
  -5   1 -13   10.05   13.13 202 0.53837-0.91858 0.51943-0.38436-0.65566-0.11540
  -5   2  -6   23.53    7.83 201 0.54632-0.91946 0.51316-0.24349-0.65391 0.29479
  -5   5  -5    8.38   10.56 201 0.54466-0.91518 0.51448 0.16067-0.65428 0.35298
  -4   2  -3   79.65    8.76 202 0.54120-0.83796 0.51721-0.24707-0.65505 0.47338
  -4   4  -2   23.62    9.28 202 0.54256-0.83738 0.51614 0.02373-0.65475 0.53165
  -2  -1  -6    4.59   13.30 204 0.53018-0.68348 0.52580-0.66091-0.65738 0.30195
  -2   6   0   -0.16   10.90 201 0.54597-0.68941 0.51343 0.29334-0.65399 0.64956
  -1   3   2   58.01    8.90 202 0.54446-0.61452 0.51464-0.10876-0.65433 0.77105
  -1   7   0   -3.07   13.94 204 0.53242-0.60670 0.52407 0.42892-0.65692 0.65764
   0   7   1    3.83   13.04 201 0.54528-0.54154 0.51399 0.43121-0.65415 0.71125
   5   0   3  319.35   10.67 202 0.54382-0.17264 0.51515-0.51458-0.65447 0.83747
   9  -3  -5   15.72   11.40 202 0.54089 0.11572 0.51746-0.92165-0.65512 0.37241
   9  -2  -1   20.12    9.48 202 0.53992 0.12034 0.51822-0.78670-0.65533 0.60776
   9   2   5    4.36   11.74 203 0.53561 0.13218 0.52159-0.24997-0.65625 0.96144
  -6   3  -9   10.35   10.51 203 0.53409-0.98395 0.52256-0.11759-0.65655 0.11917
  -5   1  -9    7.64    9.10 202 0.53788-0.91383 0.51960-0.38474-0.65575 0.12008
  -4   0 -14    7.06   14.53 205 0.52251-0.83278 0.53145-0.53221-0.65890-0.17227
  -2   3   1  191.40    9.57 203 0.53428-0.67941 0.52241-0.11690-0.65651 0.71295
  -1   5   2    3.62   10.31 204 0.53145-0.60176 0.52460 0.15164-0.65710 0.77339
   1   6   3    4.07   13.18 204 0.52968-0.45181 0.52597 0.28728-0.65746 0.83623
   1   7   2   -4.85   13.96 204 0.53224-0.45527 0.52400 0.42183-0.65694 0.77540
   3  -3 -14    5.41   16.45 205 0.52400-0.31821 0.53032-0.93559-0.65861-0.16185
   3  -3  -8    2.17   10.86 202 0.53802-0.32635 0.51949-0.92586-0.65572 0.18870
   6  -3  -5  218.58    9.32 203 0.53895-0.10294 0.51877-0.92349-0.65552 0.36884
   6  -2  -1    7.71    8.40 203 0.53725-0.09729 0.52010-0.78964-0.65588 0.60481
   8  -3  -5   -3.53   10.30 203 0.53507 0.04924 0.52179-0.92747-0.65634 0.37176
   9   0   3   86.08    9.96 203 0.53264 0.13214 0.52368-0.52219-0.65685 0.84482
  10   1   4   19.47   10.83 203 0.53517 0.20391 0.52172-0.38473-0.65632 0.90364
  11  -2  -2   -3.68   10.52 204 0.53224 0.27293 0.52400-0.79072-0.65694 0.55224
  12   0   2   17.71   11.54 203 0.53835 0.34642 0.51924-0.51731-0.65565 0.78821
  12   2   4    4.30   13.88 205 0.52672 0.35591 0.52824-0.25632-0.65807 0.90459
  -6   4  -8    6.00   10.13 204 0.53166-0.98063 0.52457 0.01585-0.65710 0.17836
  -6   5  -9    6.63   13.31 204 0.53055-0.97891 0.52543 0.15014-0.65733 0.11947
  -5   1 -14    9.67   13.23 204 0.52713-0.90717 0.52806-0.39281-0.65803-0.17084
  -5   4  -4   62.94    8.38 203 0.53204-0.90265 0.52428 0.01486-0.65702 0.41464
  -5   6  -6    9.05   11.50 203 0.53252-0.90488 0.52391 0.28689-0.65692 0.29705
  -4   3  -2   22.07    7.30 203 0.53280-0.82828 0.52369-0.11866-0.65687 0.53391
  -4   5  -2  104.21   10.61 204 0.52751-0.82235 0.52777 0.14656-0.65795 0.53515
  -4   6  -3   -8.44   11.50 204 0.52870-0.82392 0.52685 0.28241-0.65771 0.47604
  -3   2  -1  126.27    7.79 203 0.53234-0.75356 0.52405-0.25317-0.65696 0.59463
  -2   5   1   76.38    9.68 204 0.52710-0.67170 0.52808 0.14667-0.65803 0.71424
  -2   7  -1   -1.09   12.85 203 0.53011-0.67523 0.52577 0.41789-0.65742 0.59494
   0   3   3  172.68   11.64 204 0.52695-0.52254 0.52819-0.12227-0.65806 0.83505
   6   2   5   30.41   12.19 206 0.51903-0.07265 0.53421-0.26319-0.65962 0.96087
   7  -3  -5   49.17    8.78 204 0.53239-0.02288 0.52401-0.92826-0.65695 0.37160
   7  -2  -1   25.63    7.49 204 0.53101-0.01757 0.52508-0.79452-0.65724 0.60725
   8  -2  -1   14.93    7.62 204 0.53259 0.05439 0.52386-0.79288-0.65691 0.60823
  10  -3  -6   18.59   12.46 204 0.53170 0.19739 0.52455-0.92864-0.65710 0.31686
  10  -1   1   51.36    9.41 204 0.53226 0.20414 0.52411-0.65754-0.65698 0.72870
  12  -2  -3    5.63   11.92 205 0.52576 0.35265 0.52911-0.79635-0.65830 0.49669
  12  -1   0    0.39   10.82 204 0.53234 0.35116 0.52405-0.65801-0.65696 0.67174
  -6   3  -8    9.59    9.80 205 0.52431-0.97269 0.52974-0.12489-0.65863 0.18013
  -6   5  -8   -6.24   12.44 205 0.52161-0.96951 0.53178 0.14233-0.65916 0.18109
  -5   1  -8   76.69   10.01 205 0.52168-0.89743 0.53173-0.39614-0.65914 0.18261
  -5   3  -4   83.39    9.05 205 0.52199-0.89272 0.53150-0.12603-0.65908 0.41769
  -4   0  -8   56.88    9.05 205 0.52290-0.82534 0.53081-0.53069-0.65890 0.18352
  -3   4   0   23.63    7.98 205 0.52504-0.74428 0.52918 0.01161-0.65848 0.65473
  -3   6  -1   21.41   11.42 205 0.52235-0.74192 0.53122 0.27926-0.65901 0.59576
   0   5   3   75.69   11.34 205 0.52006-0.51528 0.53296 0.14249-0.65946 0.83579
   4  -3  -7    9.51    9.72 206 0.51843-0.23216 0.53419-0.93866-0.65977 0.25316
   5  -3  -6   52.99    9.78 205 0.52323-0.16237 0.53056-0.93576-0.65884 0.31162
   6   0   3  152.45    9.71 205 0.52231-0.07756 0.53125-0.53091-0.65902 0.84274
   8   0   3  133.30   10.25 205 0.52105 0.07005 0.53221-0.53132-0.65927 0.84550
   8   2   5   11.52   11.62 206 0.51795 0.07548 0.53455-0.26323-0.65986 0.96301
  12   1   3    2.32   12.06 205 0.52417 0.36274 0.52984-0.39303-0.65865 0.85093
  13  -1  -1   -0.01   13.78 205 0.52207 0.43250 0.53144-0.66461-0.65907 0.61598
  13   0   1    3.59   13.27 205 0.52138 0.43687 0.53196-0.52972-0.65920 0.73403
  -6   4  -7   -0.83    8.98 206 0.51852-0.96638 0.53382 0.00536-0.65976 0.24020
  -5   2  -5   19.31    8.99 206 0.51641-0.88869 0.53540-0.26576-0.66017 0.35950
  -5   5  -4    8.58    9.04 205 0.51887-0.88976 0.53356 0.14177-0.65970 0.41773
  -5   6  -5   17.05   12.32 205 0.51639-0.88548 0.53542 0.27245-0.66017 0.35964
   3  -3  -9   12.08   11.63 206 0.51250-0.30186 0.53832-0.94357-0.66089 0.13529
   4  -2  -2  178.39    7.97 206 0.51848-0.22685 0.53385-0.80369-0.65977 0.54682
   5  -1   1  541.13   10.30 206 0.51706-0.14899 0.53491-0.66947-0.66004 0.72537
   5   1   4  239.56   11.54 206 0.51281-0.14122 0.53809-0.40208-0.66084 0.90222
   7   0   3   61.29    9.16 206 0.51733-0.00039 0.53471-0.53376-0.65999 0.84553
   7   2   5   63.84   11.35 207 0.51161 0.00781 0.53899-0.26760-0.66106 0.96350
   9  -3  -6    9.77    9.53 206 0.51774 0.13759 0.53441-0.93844-0.65991 0.31838
   9  -1   1   70.95   10.21 206 0.51632 0.14541 0.53547-0.66920-0.66018 0.73088
   9   1   4   12.27    9.50 206 0.51494 0.15115 0.53651-0.39965-0.66044 0.90648
  10  -3  -7    4.04   12.17 207 0.51208 0.21509 0.53864-0.94142-0.66097 0.26181
  10  -2  -2    3.33    9.69 206 0.51652 0.21730 0.53532-0.80472-0.66014 0.55551
  10   3   5    7.62   14.61 206 0.51347 0.22890 0.53760-0.13029-0.66071 0.96846
  -6   2 -12    7.14   11.50 206 0.51063-0.96278 0.53958-0.26992-0.66121-0.05234
  -6   2 -11    3.60   11.09 208 0.50489-0.96210 0.54381-0.27384-0.66223 0.00410
  -6   2 -10   14.48   10.71 207 0.50791-0.95929 0.54159-0.27209-0.66170 0.06549
  -6   3  -7   23.93   10.31 206 0.51005-0.95670 0.54001-0.13550-0.66132 0.24180
  -6   5  -7   16.64   11.67 207 0.50922-0.95630 0.54063 0.13443-0.66147 0.24182
  -5   1 -15   -0.35   15.13 208 0.50407-0.88788 0.54442-0.41030-0.66238-0.22718
  -4   0 -15    6.03   15.32 207 0.50378-0.81278 0.54463-0.54486-0.66243-0.22472
  -3  -1 -12   30.69   15.84 208 0.49727-0.73049 0.54936-0.68360-0.66353-0.04595
  -3  -1 -11    8.67   13.38 208 0.49854-0.73053 0.54844-0.68390-0.66332 0.01256
  -3   3   0   89.59    8.93 207 0.51017-0.73000 0.53992-0.13526-0.66129 0.65732
  -3   5   0   47.16   10.19 207 0.50958-0.72939 0.54036 0.13537-0.66140 0.65736
   1   4   4  110.06   12.71 208 0.50020-0.42153 0.54724-0.00689-0.66304 0.89926
   3  -3 -13   -5.25   14.30 208 0.50106-0.29403 0.54661-0.95175-0.66290-0.09923
   6  -3  -6   76.21    9.75 207 0.50966-0.07443 0.54030-0.94514-0.66139 0.31719
   7  -3  -6    8.04   10.34 208 0.50474 0.00309 0.54393-0.94800-0.66226 0.31828
   8  -3  -6   10.67   10.10 207 0.50946 0.07234 0.54045-0.94535-0.66142 0.31874
  11  -1   0    8.16   10.59 207 0.50922 0.30299 0.54062-0.67566-0.66146 0.67670
  11   0   2   18.46    8.76 207 0.51152 0.29999 0.53892-0.53733-0.66105 0.79296
  -6   2 -13   11.32   12.17 208 0.50029-0.95665 0.54720-0.27712-0.66303-0.11148
  -6   2  -9    3.36   10.01 208 0.50025-0.95062 0.54722-0.27760-0.66303 0.12574
  -6   4  -6   10.91   10.79 208 0.50124-0.94785 0.54651-0.00645-0.66287 0.30216
  -5   1  -7  129.21    9.41 208 0.49838-0.87304 0.54858-0.41365-0.66335 0.24563
  -4   1  -4  303.93    9.11 207 0.50422-0.80214 0.54432-0.40929-0.66235 0.42221
  -3  -1 -10    8.62   14.09 210 0.48755-0.71840 0.55634-0.69168-0.66509 0.07310
  -3   1  -2  646.30   12.82 208 0.50278-0.72540 0.54538-0.40955-0.66260 0.54155
   1  -2  -5  105.79   12.35 209 0.49155-0.42346 0.55349-0.82359-0.66446 0.37168
   3  -3 -12    2.65   14.23 210 0.48827-0.28040 0.55583-0.95986-0.66498-0.03681
   3  -3 -10   26.71   11.55 209 0.49559-0.28553 0.55060-0.95516-0.66381 0.07965
   3   0   2  147.96    9.91 208 0.49810-0.27434 0.54878-0.54870-0.66339 0.78522
   4   3   5   32.41   21.77 217 0.43930-0.13946 0.58902-0.18357-0.67129 0.97055
   6  -1   1   72.75    8.62 208 0.50206-0.06019 0.54590-0.68083-0.66272 0.72896
   7  -1   1   31.51    8.72 208 0.49890 0.01658 0.54821-0.68306-0.66326 0.73037
   8  -1   1   37.48    7.97 208 0.50457 0.08464 0.54407-0.67863-0.66229 0.73085
   8   1   4  100.45    9.46 208 0.50021 0.09230 0.54726-0.41128-0.66304 0.90824
   9  -3  -7   -4.13   10.84 208 0.50019 0.15562 0.54727-0.95298-0.66304 0.26169
   9  -2  -2  119.71    9.95 208 0.49945 0.16032 0.54781-0.81728-0.66317 0.55581
  10  -3  -8    7.11   12.75 208 0.50013 0.22748 0.54731-0.95245-0.66305 0.20472
  10   4   5   -0.39   17.67 210 0.48789 0.25351 0.55610-0.01405-0.66504 0.97148
  11  -2  -3   25.09   11.01 208 0.50330 0.30247 0.54500-0.81405-0.66251 0.50012
  11   2   4   -0.65   13.18 208 0.50105 0.31501 0.54664-0.27438-0.66290 0.91374
  12  -2  -4   -0.97   12.48 208 0.50065 0.37890 0.54693-0.81583-0.66296 0.44213
  13   1   2   -1.78   14.42 209 0.49800 0.45843 0.54886-0.41108-0.66341 0.79537
  -6   5  -6   11.01   10.67 209 0.49390-0.93930 0.55197 0.12285-0.66421 0.30353
  -5   4  -3  235.75    9.30 208 0.49837-0.86840 0.54875-0.00918-0.66347 0.48084
  -4   4  -1   83.42    9.42 209 0.49576-0.78953 0.55063-0.01040-0.66391 0.60003
  -4   6  -2    0.49   11.28 209 0.49434-0.78980 0.55166 0.25972-0.66414 0.54130
   3  -3 -11    0.92   12.65 210 0.48817-0.27915 0.55607-0.96035-0.66512 0.02207
   3   4   5  216.54   21.12 213 0.46620-0.23974 0.57134-0.03125-0.66827 0.96611
   4  -3  -8   17.80    9.43 209 0.49283-0.20730 0.55274-0.95754-0.66438 0.19885
   5  -3  -7  107.26   10.13 209 0.49463-0.13408 0.55145-0.95632-0.66409 0.25866
   5  -2  -2  252.00    9.97 209 0.49313-0.12792 0.55253-0.82246-0.66433 0.55266
   6   1   4  101.80    9.18 209 0.49320-0.04758 0.55247-0.41664-0.66432 0.90709
   7   1   4   81.89   10.21 209 0.49119 0.02787 0.55391-0.41840-0.66464 0.90834
  11   1   3   19.74   12.68 209 0.49037 0.32197 0.55450-0.41790-0.66477 0.85484
  12  -1  -1    4.59   11.57 208 0.49660 0.38919 0.55003-0.68563-0.66377 0.62133
  -6   2  -8   57.83   10.61 210 0.48863-0.93687 0.55587-0.28610-0.66502 0.18750
  -6   3  -6  149.26   10.51 210 0.48927-0.93538 0.55542-0.15124-0.66492 0.30465
  -5   5  -3   -5.10   10.68 210 0.48788-0.85914 0.55641 0.11996-0.66513 0.48256
  -5   6  -4    4.22   11.07 210 0.49058-0.86141 0.55448 0.25615-0.66471 0.42312
  -4   0  -7    5.83    8.56 210 0.48748-0.78911 0.55669-0.55720-0.66520 0.24814
  -4   5  -1   34.97   10.37 210 0.48579-0.77965 0.55789 0.11660-0.66546 0.60178
  -3  -1 -13   19.38   15.75 211 0.47671-0.71032 0.56424-0.69929-0.66679-0.10144
  -2   6   1   -4.54   11.56 210 0.48682-0.63176 0.55716 0.25323-0.66530 0.72146
  -2   7   0   -9.42   14.14 211 0.48342-0.62931 0.55955 0.38626-0.66581 0.66296
  -1   6   2   11.62   10.71 210 0.48584-0.55613 0.55785 0.25351-0.66545 0.78164
  -1   7   1    3.88   12.75 209 0.48906-0.55938 0.55557 0.38993-0.66495 0.72133
   0  -2  -7   89.06   14.72 213 0.46764-0.47471 0.57049-0.84034-0.66804 0.25641
   2   6   4   -0.46   14.29 212 0.47507-0.32322 0.56538 0.24896-0.66703 0.90719
   3  -2  -3  241.91    9.08 210 0.49072-0.27375 0.55438-0.82443-0.66469 0.49170
   3  -1   0 3072.63   22.41 209 0.49094-0.27051 0.55423-0.68939-0.66466 0.66802
   6  -3  -7    7.48    9.38 210 0.48595-0.05144 0.55777-0.96400-0.66543 0.26062
   8  -3  -7    4.94    9.75 209 0.49010 0.09153 0.55483-0.96080-0.66479 0.26296
   8  -2  -2   17.24    8.95 210 0.48730 0.09810 0.55681-0.82555-0.66522 0.55735
   9   3   5    2.77   14.21 211 0.48095 0.18796 0.56129-0.15406-0.66618 0.97305
  10   0   2   87.90   10.73 210 0.48576 0.25172 0.55791-0.55682-0.66546 0.79560
  12   0   1   -2.14   10.61 210 0.48764 0.39543 0.55657-0.55544-0.66517 0.73778
  13  -1  -2  -11.84   13.06 210 0.48776 0.46504 0.55649-0.68930-0.66515 0.56256
  -6   4  -5   -2.03    9.32 211 0.47967-0.92452 0.56217-0.02310-0.66628 0.36492
  -5   2  -4  124.58    9.32 211 0.47867-0.84946 0.56287-0.29412-0.66643 0.42464
  -5   3  -3   49.79    7.24 210 0.48407-0.85374 0.55909-0.15460-0.66563 0.48323
  -4   2  -2   98.89    7.43 210 0.48358-0.77872 0.55944-0.29012-0.66570 0.54377
   0   7   2    1.11   13.67 212 0.47576-0.47297 0.56490 0.38285-0.66684 0.78504
   1   5   4    3.72   10.73 211 0.47958-0.40086 0.56224 0.11367-0.66630 0.90209
   2  -2  -4  193.40   11.00 212 0.47618-0.33333 0.56460-0.83435-0.66678 0.43452
   4  -3 -14   -3.77   14.52 212 0.47656-0.19637 0.56434-0.96925-0.66673-0.15320
   4  -3  -9    8.92   11.28 212 0.47442-0.18954 0.56583-0.97133-0.66703 0.14248
   6  -2  -2  196.29    8.16 211 0.48307-0.04445 0.55980-0.82930-0.66578 0.55652
   7  -3  -7   54.44   10.30 211 0.48285 0.02512 0.55995-0.96445-0.66581 0.26358
   7  -2  -2   84.59    8.80 211 0.48173 0.03071 0.56074-0.82981-0.66598 0.55778
   9  -3  -8   27.43   10.52 211 0.48339 0.17016 0.55957-0.96400-0.66573 0.20620
  10  -2  -3   42.54   10.27 211 0.48193 0.24962 0.56060-0.82981-0.66595 0.50282
  10  -1   0   10.49    8.88 211 0.48287 0.25254 0.55994-0.69402-0.66581 0.67816
  13   0   0    7.40   12.29 212 0.47693 0.47851 0.56408-0.56202-0.66668 0.68216
  -7   4 -10    4.84   12.64 213 0.47004-0.99586 0.56883-0.02788-0.66778 0.07026
  -6   5  -5    3.87   10.90 211 0.47512-0.91798 0.56533 0.10835-0.66708 0.36565
  -4   3  -1  124.43    7.83 211 0.47699-0.77155 0.56403-0.16016-0.66681 0.60303
  -3   0  -4  496.28   13.04 212 0.47234-0.69673 0.56724-0.56712-0.66746 0.42909
  -3   6   0    3.24   11.20 212 0.47292-0.69391 0.56684 0.24664-0.66738 0.66428
  -1   0  -1   14.38   11.85 212 0.47266-0.54659 0.56702-0.56618-0.66742 0.60874
   0   6   3   -0.49   13.17 213 0.46898-0.46493 0.56955 0.24026-0.66792 0.84390
   5  -3  -8   42.66    9.55 212 0.47086-0.11113 0.56826-0.97246-0.66767 0.20419
   5   6   5    0.96   27.55 219 0.42243-0.04761 0.60001 0.21232-0.67301 0.97499
   8  -3  -8    7.22   11.09 212 0.47295 0.10805 0.56682-0.97286-0.66738 0.20606
   9  -3  -9    8.24   12.56 212 0.47096 0.18144 0.56819-0.97223-0.66765 0.14948
  11  -2  -4   -2.66   11.39 212 0.47363 0.33057 0.56636-0.83483-0.66729 0.44512
  12  -2  -5   -1.75   11.16 212 0.47684 0.40095 0.56414-0.83301-0.66683 0.38696
  -7   4  -9    7.28   13.39 213 0.46404-0.98874 0.57290-0.03204-0.66857 0.12998
  -6   2  -7   49.40    8.53 212 0.46953-0.91689 0.56916-0.30013-0.66785 0.24938
  -5   1  -6    1.27    8.83 212 0.46933-0.84155 0.56930-0.43424-0.66788 0.30896
  -5   6  -3   21.70   12.24 213 0.46284-0.83263 0.57372 0.23744-0.66873 0.48577
  -3  -1  -9    8.91   12.70 214 0.45761-0.68731 0.57724-0.71215-0.66938 0.13646
  -2   4   2   27.85    8.94 213 0.46348-0.60699 0.57328-0.03352-0.66865 0.78383
   4  -3 -13    3.03   13.73 213 0.46597-0.18464 0.57160-0.97888-0.66832-0.09320
   4  -3 -10    6.93   11.17 213 0.46408-0.17975 0.57288-0.98014-0.66857 0.08401
   6  -3  -8    0.05   10.09 214 0.46258-0.02973 0.57389-0.97818-0.66876 0.20571
   7  -3  -8   11.96   10.39 214 0.46268 0.04355 0.57383-0.97756-0.66875 0.20696
   9  -3 -10    5.15   12.85 213 0.46482 0.18783 0.57238-0.97807-0.66847 0.09074
  10   2   4    0.68   11.39 213 0.46323 0.27713 0.57345-0.30206-0.66868 0.91662
  11  -1  -1    0.21   10.61 213 0.46431 0.34398 0.57272-0.70699-0.66854 0.62335
  12   1   2    0.81   11.96 213 0.46479 0.42238 0.57240-0.43696-0.66848 0.80094
  12   2   3    9.41   13.89 213 0.46162 0.42439 0.57454-0.30308-0.66888 0.86013
  -7   3 -12   -3.96   13.98 214 0.45852-0.98482 0.57670-0.17248-0.66924-0.04636
  -7   3 -11    6.38   12.52 214 0.45788-0.98511 0.57713-0.17110-0.66932 0.01180
  -7   3 -10   16.13   11.12 214 0.45780-0.98130 0.57718-0.17220-0.66933 0.07251
  -6   3  -5   21.89    8.07 213 0.46277-0.90866 0.57384-0.16921-0.66871 0.36710
  -5   4  -2  165.59   10.34 214 0.45993-0.82786 0.57575-0.03617-0.66907 0.54590
  -4   6  -1    9.05   10.78 214 0.45737-0.75071 0.57747 0.23237-0.66938 0.60519
  -3  -1 -14   -0.21   17.74 217 0.43602-0.67154 0.59146-0.72740-0.67174-0.15715
  -3   4   1  566.86   12.06 214 0.45764-0.67559 0.57729-0.03766-0.66935 0.72495
  -2   2   1   20.53    8.69 214 0.45952-0.60422 0.57603-0.30580-0.66912 0.72610
  -2   5   2   57.65   10.49 214 0.45513-0.59800 0.57897 0.09588-0.66965 0.78544
   3   5   5    5.69   17.18 216 0.44350-0.21671 0.58662 0.08909-0.67096 0.96831
   4  -3 -12   -1.43   13.22 215 0.45334-0.17109 0.58016-0.98507-0.66986-0.03188
   4  -3 -11   -1.48   13.12 215 0.45454-0.17105 0.57936-0.98511-0.66972 0.02595
   5  -3  -9   18.76   11.38 215 0.45444-0.09605 0.57942-0.98453-0.66973 0.14634
   8  -3  -9    3.00   12.85 213 0.46212 0.11821 0.57428-0.98196-0.66879 0.14887
   9  -2  -3    6.62    7.87 213 0.46284 0.19606 0.57379-0.84338-0.66870 0.50342
   9  -1   0   84.97    8.24 214 0.46197 0.19858 0.57438-0.70934-0.66881 0.67959
   9   0   2    1.39    8.13 213 0.46248 0.20173 0.57403-0.57317-0.66875 0.79756
  10   1   3   14.53   11.22 214 0.45800 0.28033 0.57705-0.44062-0.66930 0.85738
  11   0   1    9.14   10.43 215 0.45564 0.35415 0.57862-0.57721-0.66959 0.74151
  12  -1  -2    0.72   11.92 214 0.45780 0.42481 0.57718-0.71176-0.66933 0.56599
  -7   3  -9    3.36   10.77 215 0.44974-0.97318 0.58248-0.17751-0.67019 0.13173
  -7   4  -8   17.35   10.26 215 0.45516-0.97778 0.57890-0.03863-0.66956 0.18989
  -6   4  -4    4.75    9.92 215 0.45119-0.89604 0.58153-0.04127-0.67003 0.42708
  -6   6  -5   -3.57   13.28 216 0.44756-0.89440 0.58392 0.22778-0.67044 0.36898
  -5   5  -2    1.20    8.85 215 0.45445-0.82311 0.57937 0.09532-0.66965 0.54568
  -3   5   1   -2.15    9.65 215 0.45119-0.66991 0.58153 0.09406-0.67003 0.72495
  -1   2   2  102.70   10.22 216 0.44787-0.51825 0.58372-0.31325-0.67041 0.78738
  -1   4   3   60.80    9.61 215 0.44828-0.51730 0.58345-0.04360-0.67036 0.84594
   1   3   4   22.34   12.07 217 0.44034-0.36212 0.58863-0.18284-0.67122 0.90798
   1   7   3   10.24   15.00 216 0.44714-0.36921 0.58420 0.36331-0.67049 0.84872
   4  -2  -3   24.54    8.15 215 0.45292-0.16198 0.58039-0.85043-0.66983 0.49842
   6  -3  -9   27.09   11.75 216 0.44769-0.01543 0.58384-0.98882-0.67043 0.14848
   7  -3  -9   -8.01   11.03 215 0.45071 0.05612 0.58185-0.98751-0.67008 0.14790
   8  -3 -10   -5.34   11.95 215 0.45047 0.12903 0.58201-0.98756-0.67011 0.09017
   8   3   5   32.87   13.10 216 0.44239 0.15078 0.58729-0.18127-0.67100 0.97422
   9   4   5    5.71   16.02 218 0.43222 0.23375 0.59384-0.05341-0.67203 0.97461
  10  -2  -4  106.31   10.67 215 0.45008 0.28149 0.58226-0.85165-0.67016 0.44624
  11  -2  -5    3.64   11.48 214 0.45400 0.35474 0.57967-0.85240-0.66970 0.38916
  11   3   4   -0.74   14.23 216 0.44606 0.36710 0.58491-0.17832-0.67061 0.91892
  13   1   1    4.37   12.28 215 0.44974 0.50800 0.58248-0.44589-0.67019 0.74508
  -7   4  -7   13.24   11.38 216 0.44251-0.96267 0.58709-0.04749-0.67114 0.25078
  -6   2  -6   37.59    9.44 216 0.44473-0.89164 0.58565-0.31587-0.67090 0.31100
  -6   5  -4    4.36    9.44 216 0.44676-0.89178 0.58432 0.09131-0.67068 0.42803
  -4   0  -6   42.25    9.86 216 0.44090-0.74087 0.58814-0.58739-0.67131 0.31564
  -3   2   0   38.92    8.95 216 0.44294-0.66283 0.58681-0.31692-0.67110 0.66787
  -1   5   3   14.31   11.02 216 0.44257-0.51183 0.58705 0.08841-0.67114 0.84584
   4  -1   0  498.42   10.37 216 0.44697-0.15318 0.58418-0.71940-0.67066 0.67521
   4   0   2  581.14   12.65 216 0.44118-0.14519 0.58795-0.58774-0.67128 0.79365
   5  -3 -13   -2.93   14.75 216 0.44421-0.08953 0.58599-0.99230-0.67096-0.08856
   5  -3 -10   15.73   11.62 216 0.44244-0.08479 0.58714-0.99247-0.67115 0.08865
   7  -3 -10    9.39   12.90 217 0.43825 0.06593 0.58985-0.99355-0.67158 0.09229
   8  -3 -11    6.39   13.55 217 0.44178 0.13498 0.58756-0.99012-0.67122 0.03416
   8  -2  -3   22.93    7.68 216 0.44703 0.13792 0.58414-0.85384-0.67065 0.50387
   8  -1   0   33.35    9.21 216 0.44408 0.14387 0.58607-0.72095-0.67097 0.68001
   8   0   2   32.16    9.31 216 0.44196 0.14842 0.58745-0.58645-0.67120 0.79851
  12   0   0   66.85   12.13 216 0.44101 0.44120 0.58806-0.58683-0.67130 0.68560
  -7   3  -8   -3.07   10.47 217 0.43708-0.96064 0.59046-0.18614-0.67175 0.19170
  -7   5  -7    6.19   12.33 218 0.43360-0.95986 0.59269 0.08569-0.67210 0.25067
  -6   1 -12   15.97   11.26 216 0.43842-0.89084 0.58960-0.45496-0.67162-0.04156
  -6   1 -11   11.36    9.95 216 0.43856-0.89063 0.58951-0.45506-0.67160 0.01699
  -6   1 -10   12.79   11.21 217 0.43433-0.88513 0.59222-0.45776-0.67202 0.07649
  -5   3  -2   40.01    8.34 217 0.43852-0.80726 0.58953-0.18520-0.67161 0.54739
  -4   1  -3    5.24    6.91 217 0.43937-0.73644 0.58899-0.45428-0.67152 0.49012
  -4   4   0   32.77    9.08 217 0.43953-0.73252 0.58888-0.04909-0.67150 0.66686
  -4   5   0   41.44   10.63 217 0.43498-0.72882 0.59181 0.08339-0.67196 0.66733
   5  -3 -12   -1.35   13.33 217 0.43783-0.08197 0.58998-0.99638-0.67168-0.02895
   5  -3 -11   54.73   11.65 217 0.43557-0.07768 0.59143-0.99657-0.67190 0.03121
   5  -2  -3   91.13    9.17 217 0.43430-0.06924 0.59224-0.86139-0.67203 0.50216
   6  -3 -13   -0.87   14.03 218 0.43280-0.00466 0.59320-0.99640-0.67217-0.08481
   6  -3 -12    3.52   14.18 218 0.42835 0.00097 0.59603-0.99965-0.67259-0.02626
   6  -3 -10   24.15   11.26 217 0.43669-0.00534 0.59071-0.99588-0.67179 0.09053
   7  -3 -12    2.64   13.64 216 0.43853 0.06606 0.58953-0.99727-0.67161-0.02831
   7  -3 -11   25.72   12.44 217 0.43459 0.06955 0.59206-0.99696-0.67200 0.03295
   7  -2  -3   38.32    8.99 217 0.43550 0.07642 0.59148-0.86069-0.67191 0.50432
  10  -1  -1    2.23   10.14 217 0.43647 0.29849 0.59086-0.72487-0.67181 0.62512
  13   0  -1   15.83   12.91 217 0.43771 0.51788 0.59006-0.58843-0.67169 0.62860
  -6   1 -13    0.37   12.26 219 0.42741-0.88305 0.59656-0.46279-0.67273-0.10041
  -6   3  -4   69.38    9.15 218 0.43140-0.87616 0.59404-0.19039-0.67236 0.42895
  -5   2  -3  115.35    8.90 218 0.43123-0.80157 0.59414-0.32493-0.67237 0.48946
  -5   6  -2   -7.26   12.83 218 0.42921-0.79816 0.59542 0.21473-0.67256 0.54918
  -3   3   1   16.49    8.18 218 0.42718-0.64599 0.59671-0.19191-0.67275 0.72835
  -3   7   0   -2.38   14.92 219 0.42531-0.64491 0.59788 0.34759-0.67291 0.66942
  -2   3   2  388.17   10.79 218 0.42781-0.57287 0.59631-0.19072-0.67269 0.78782
  -2   7   1    4.74   13.00 218 0.42845-0.57385 0.59591 0.35111-0.67263 0.72991
   1   6   4    3.00   13.50 220 0.42017-0.34153 0.60110 0.21014-0.67335 0.91022
   5  -1   0  451.14   10.72 218 0.42723-0.05911 0.59667-0.73091-0.67274 0.67889
   6  -3 -11    7.09   12.12 218 0.42909 0.00103 0.59550-0.99946-0.67257 0.03275
   6  -2  -3   73.47    9.18 218 0.43064 0.00802 0.59452-0.86395-0.67243 0.50348
   7  -1   0   34.63    8.64 218 0.43073 0.08431 0.59446-0.72822-0.67242 0.68123
   7   0   2   85.21    9.26 218 0.42648 0.09031 0.59715-0.59538-0.67281 0.79957
   7   3   5   14.08   13.10 220 0.41360 0.10646 0.60516-0.19894-0.67388 0.97578
   9  -2  -4   30.66    9.79 218 0.42798 0.23064 0.59620-0.86488-0.67267 0.44879
   9   1   3    9.54    9.57 218 0.42901 0.23646 0.59555-0.45916-0.67258 0.85984
   9   2   4   14.95   10.59 218 0.42888 0.23815 0.59563-0.32412-0.67259 0.91918
  11  -2  -6    1.89   12.56 218 0.42688 0.37671 0.59690-0.86611-0.67277 0.33302
  -7   3  -7   17.27   10.40 219 0.42283-0.94373 0.59940-0.19478-0.67301 0.25265
  -7   4  -6    6.77   10.46 219 0.42327-0.94321 0.59913-0.05931-0.67297 0.31146
  -7   5  -6    2.08   12.03 220 0.41824-0.94170 0.60226 0.07423-0.67339 0.31220
  -6   1 -14    7.00   13.95 219 0.41860-0.87307 0.60204-0.46754-0.67337-0.15750
  -6   1  -9    2.43    9.28 219 0.42034-0.87217 0.60096-0.46690-0.67322 0.13577
  -6   6  -4    1.39   11.69 219 0.42542-0.86971 0.59778 0.21221-0.67279 0.43054
  -5   0 -12   -0.87   11.99 221 0.41293-0.79506 0.60554-0.60715-0.67381-0.04093
  -5   0 -11   12.81   11.56 219 0.42221-0.80020 0.59979-0.60007-0.67306 0.02000
  -5   1  -5  326.63    9.52 218 0.42584-0.79856 0.59751-0.46349-0.67275 0.37216
  -3   6   1    2.80   11.79 219 0.42149-0.63985 0.60024 0.20963-0.67313 0.72843
  -2   6   2    4.51   11.08 219 0.42159-0.56512 0.60018 0.21034-0.67312 0.78810
  -1   7   2    0.86   13.74 220 0.41930-0.49029 0.60161 0.34608-0.67331 0.79142
   0  -2 -15    5.18   26.24 226 0.36892-0.38388 0.63143-0.90206-0.67624-0.20655
   2  -1  -1  590.77   13.02 219 0.42594-0.27928 0.59745-0.73303-0.67274 0.61586
   4   6   5   -1.16   22.24 223 0.39389-0.09322 0.61702 0.19444-0.67509 0.97482
   5   0   2   33.24    9.01 219 0.42008-0.05011 0.60112-0.60025-0.67324 0.79722
   6  -1   0   11.65    7.25 219 0.42493 0.01673 0.59809-0.73279-0.67283 0.68023
  10  -2  -5   -2.51   10.85 220 0.41804 0.30874 0.60239-0.86845-0.67341 0.39167
  10   0   1   12.24    8.58 219 0.42478 0.31208 0.59818-0.59687-0.67284 0.74368
  11  -1  -2    3.88    9.06 219 0.42468 0.38293 0.59824-0.73222-0.67285 0.56852
  11   1   2   17.04   11.47 219 0.42456 0.38719 0.59832-0.46177-0.67286 0.80386
  11   2   3   16.10   12.60 220 0.41661 0.39523 0.60327-0.33160-0.67353 0.86275
  12  -1  -3   14.26   11.44 219 0.42395 0.45648 0.59870-0.73271-0.67291 0.51101
  -7   2 -13    3.80   13.66 220 0.41403-0.93898 0.60482-0.33548-0.67387-0.09799
  -7   2 -12    7.99   12.04 220 0.41455-0.94246 0.60449-0.33480-0.67383-0.04223
  -7   2 -11   13.44   11.79 220 0.41687-0.94269 0.60306-0.33356-0.67365 0.01749
  -7   2 -10   20.72   10.89 220 0.41530-0.93819 0.60404-0.33482-0.67378 0.07774
  -6   2  -5   28.81    9.03 220 0.41375-0.85940 0.60499-0.33567-0.67390 0.37260
  -6   4  -3    3.79    8.00 220 0.41731-0.86141 0.60279-0.06254-0.67362 0.48990
  -6   5  -3   12.07   10.59 219 0.41738-0.86055 0.60275 0.07236-0.67361 0.48970
  -5   0 -13    0.11   12.29 221 0.41035-0.78998 0.60707-0.60857-0.67415-0.09752
  -5   0 -10   13.96   11.72 220 0.41472-0.79195 0.60439-0.60481-0.67382 0.07941
  -5   4  -1   53.60    9.54 220 0.41215-0.78004 0.60597-0.06774-0.67402 0.60920
  -5   5  -1   22.71   10.01 220 0.41166-0.77965 0.60627 0.06916-0.67405 0.60927
  -4   2  -1   66.53    8.36 220 0.41297-0.70720 0.60547-0.33603-0.67396 0.61086
  -3  -1 -15    7.58   20.66 223 0.39292-0.62805 0.61754-0.75307-0.67529-0.21038
  -3  -1  -8  306.21   16.24 221 0.40374-0.63216 0.61109-0.74654-0.67462 0.20060
  -2   0  -2  438.49   14.53 220 0.41619-0.56577 0.60349-0.60281-0.67371 0.55409
  -2   1   0  230.50   10.01 220 0.41767-0.56449 0.60257-0.46673-0.67359 0.67197
   3  -2  -4   68.70    8.70 220 0.41709-0.20044 0.60293-0.87248-0.67363 0.44283
   6   0   2  550.85   10.43 220 0.41800 0.02515 0.60237-0.60147-0.67356 0.79872
  -7   2  -9    3.37    9.96 220 0.40798-0.92876 0.60852-0.33928-0.67437 0.13743
  -6   1  -8   55.68    9.72 221 0.40628-0.85500 0.60955-0.47468-0.67449 0.19795
  -4   3   0  120.79    8.07 220 0.41028-0.70348 0.60712-0.20271-0.67420 0.66985
  -4   6   0   -4.90   11.55 221 0.40792-0.70221 0.60856 0.20306-0.67437 0.67042
  -1   6   3    6.51   11.83 221 0.40574-0.47465 0.60988 0.19982-0.67452 0.84910
   0   5   4    7.55   12.76 222 0.39807-0.39312 0.61449 0.06170-0.67503 0.91079
   1  -2  -6   12.61   11.10 223 0.39538-0.32775 0.61609-0.88626-0.67519 0.32322
   5   3   5   42.44   15.19 224 0.38383-0.01096 0.62287-0.21688-0.67581 0.97581
   6   3   5   21.89   13.10 223 0.39403 0.05258 0.61688-0.21057-0.67527 0.97686
   8  -2  -4   27.11    9.78 221 0.40834 0.17501 0.60830-0.87731-0.67434 0.44904
   8   4   5   18.31   16.72 223 0.39034 0.20387 0.61906-0.07746-0.67548 0.97912
   8   5   5   -1.37   19.59 224 0.38423 0.21024 0.62263 0.05411-0.67579 0.97950
   9  -1  -1   78.54    8.11 221 0.41040 0.24955 0.60704-0.74193-0.67419 0.62577
  10   3   4    6.05   13.23 221 0.40250 0.33897 0.61183-0.20495-0.67474 0.92351
  11  -2  -7  -12.72   13.05 221 0.40718 0.39493 0.60901-0.87774-0.67442 0.27557
  11   0   0    1.58   10.58 220 0.41065 0.40454 0.60689-0.60735-0.67417 0.68963
  12   1   1  -10.32   12.65 221 0.40693 0.47808 0.60916-0.47327-0.67444 0.74712
  -7   3  -6    3.43    9.99 221 0.40260-0.92186 0.61166-0.20708-0.67470 0.31311
  -7   4  -5    7.34   10.34 222 0.39863-0.91911 0.61404-0.07340-0.67496 0.37215
  -7   5  -5   -0.13   11.52 222 0.40057-0.91970 0.61288 0.06231-0.67484 0.37221
  -6   6  -3   -0.95   12.74 222 0.39866-0.84049 0.61402 0.19456-0.67496 0.49132
  -5   0 -14    5.60   14.79 223 0.39220-0.77367 0.61786-0.61867-0.67534-0.15459
  -5   0  -9    9.26   10.82 222 0.39769-0.77445 0.61460-0.61524-0.67502 0.13913
  -1   1   1 1669.18   23.90 222 0.40124-0.47331 0.61248-0.47598-0.67479 0.73368
  -1   3   3  159.09   10.53 222 0.39925-0.46894 0.61367-0.20807-0.67492 0.85065
   0   4   4    3.25   10.25 222 0.39492-0.39033 0.61625-0.07521-0.67518 0.91107
   0   7   3    3.34   14.49 222 0.39918-0.39444 0.61371 0.33057-0.67492 0.85062
   2  -2  -5  162.10   11.09 223 0.39363-0.25149 0.61701-0.88722-0.67526 0.38326
   8   1   3  228.65    9.95 222 0.40066 0.19044 0.61283-0.47692-0.67483 0.86084
   8   2   4   14.03   10.81 223 0.39278 0.19973 0.61751-0.34613-0.67531 0.91967
   9  -2  -5   30.13   10.03 222 0.39727 0.25980 0.61485-0.88414-0.67504 0.39152
  10  -2  -6   15.79   11.18 222 0.39828 0.33166 0.61425-0.88379-0.67498 0.33395
  12   0  -1   44.59   12.12 222 0.39699 0.48498 0.61502-0.61396-0.67506 0.62986
  13   0  -2    2.80   13.66 222 0.40053 0.55424 0.61291-0.61143-0.67484 0.57283
  13   1   0   -9.53   13.24 222 0.40028 0.55564 0.61305-0.47694-0.67485 0.68943
  -7   2  -8   14.17   10.36 223 0.39007-0.91318 0.61896-0.34972-0.67545 0.19623
  -6   3  -3  107.79    9.07 223 0.39266-0.83613 0.61743-0.21294-0.67530 0.49199
  -5   6  -1   -3.48   10.87 223 0.39123-0.75811 0.61827 0.19062-0.67538 0.61067
  -3   1  -1 1946.79   18.25 222 0.39606-0.61827 0.61542-0.47923-0.67510 0.61314
   3   1   3 1490.99   24.19 224 0.38454-0.16056 0.62219-0.48655-0.67573 0.85594
   4  -2  -4   60.67    8.42 223 0.38940-0.09921 0.61935-0.88936-0.67548 0.44458
   7  -2  -4   30.95    8.71 223 0.39293 0.11739 0.61727-0.88656-0.67529 0.44869
   9   0   1   32.63    8.13 223 0.39501 0.26791 0.61604-0.61536-0.67517 0.74511
  10  -1  -2   62.38    9.49 223 0.39358 0.34024 0.61689-0.75202-0.67525 0.56916
  11  -2  -8    4.46   13.14 224 0.38918 0.40903 0.61948-0.88678-0.67549 0.21909
  12  -1  -4    0.96   11.51 223 0.39261 0.48570 0.61746-0.75094-0.67531 0.45393
  12   2   2    3.91   12.17 224 0.38858 0.49216 0.61983-0.34841-0.67553 0.80536
  -8   4  -9   -1.33   11.88 224 0.38810-0.98510 0.62013-0.08132-0.67542 0.13629
  -6   1  -7   43.48    9.38 224 0.38111-0.82897 0.62419-0.49043-0.67576 0.25723
  -5   3  -1   -0.51    8.62 224 0.38538-0.75163 0.62172-0.21785-0.67556 0.61052
   0  -2  -8   42.98   13.63 227 0.36566-0.37317 0.63297-0.90360-0.67636 0.20594
   6  -2  -4  100.33    9.60 224 0.38318 0.05428 0.62300-0.89248-0.67567 0.44777
   8  -1  -1  266.03    8.20 224 0.38747 0.19910 0.62050-0.75495-0.67546 0.62702
  10   1   2   62.48   10.35 224 0.38522 0.35140 0.62181-0.48521-0.67557 0.80557
  11  -1  -3   15.52    8.91 223 0.38852 0.41809 0.61988-0.75394-0.67540 0.51192
  -8   3 -11   19.82   12.32 225 0.37515-0.97435 0.62743-0.22353-0.67592 0.01955
  -8   4  -8    8.58   12.50 224 0.37955-0.97361 0.62492-0.08570-0.67574 0.19592
  -7   3  -5   10.51    9.77 225 0.37636-0.89433 0.62674-0.22267-0.67588 0.37377
  -7   5  -4  -11.10   11.54 225 0.37591-0.89287 0.62700 0.04649-0.67589 0.43304
  -6   2  -4    5.75    8.71 225 0.37497-0.81990 0.62754-0.35812-0.67593 0.43367
  -6   4  -2    4.15    9.38 225 0.37789-0.82074 0.62587-0.08568-0.67581 0.55132
  -6   5  -2   11.15    9.62 224 0.38083-0.82342 0.62418 0.05108-0.67568 0.55142
  -5   0 -15    1.72   17.49 225 0.37141-0.75203 0.62956-0.62970-0.67607-0.21119
  -5   0  -8   -1.42    9.36 225 0.37628-0.75009 0.62679-0.62704-0.67588 0.20034
  -5   1  -4  234.20    9.75 225 0.37461-0.74608 0.62775-0.49316-0.67595 0.43570
  -4   0  -5   19.31    8.72 225 0.37702-0.67529 0.62637-0.62622-0.67585 0.37939
  -4   5   1   31.13   10.55 225 0.37670-0.66879 0.62655 0.04933-0.67586 0.73067
  -3   4   2  145.27    9.57 225 0.37549-0.59332 0.62724-0.08803-0.67591 0.79025
  -3   5   2   25.40    9.21 225 0.37920-0.59669 0.62511 0.05059-0.67575 0.79093
   2   5   5   65.62   15.91 227 0.36197-0.20929 0.63486 0.04017-0.67637 0.97347
   5  -2  -4  128.91    8.00 225 0.38079-0.01782 0.62420-0.89399-0.67568 0.44652
   7   1   3  295.81   11.11 225 0.37525 0.14197 0.62738-0.49175-0.67592 0.86070
   8  -2  -5   41.50    9.65 225 0.37491 0.20856 0.62757-0.89727-0.67593 0.39091
  10  -2  -7   11.92   12.10 226 0.37491 0.35159 0.62758-0.89536-0.67593 0.27656
  10   2   3   10.93   11.26 226 0.37144 0.36677 0.62955-0.35803-0.67607 0.86401
  -8   3 -10   13.71   12.18 226 0.37105-0.97004 0.62972-0.22532-0.67609 0.07778
  -7   2  -7    6.88    9.72 226 0.36826-0.89271 0.63130-0.36177-0.67619 0.25519
  -7   4  -4   28.60    9.92 226 0.37186-0.88998 0.62926-0.08949-0.67606 0.43253
  -5   2  -2   35.81    6.89 225 0.37339-0.74252 0.62839-0.35944-0.67600 0.55316
  -4   4   1   12.26    8.97 226 0.37199-0.66482 0.62918-0.08871-0.67606 0.73065
  -2   5   3   14.72   10.66 226 0.36731-0.51023 0.63182 0.04317-0.67622 0.85041
  -2   7   2   11.94   14.00 226 0.36868-0.51186 0.63106 0.31296-0.67617 0.79151
   0   2   3  155.81   13.46 227 0.36203-0.35858 0.63478-0.36435-0.67638 0.85326
   3   6   5    6.73   17.92 228 0.35087-0.12395 0.64092 0.17043-0.67664 0.97550
   7   2   4    2.00   10.34 227 0.36368 0.15612 0.63386-0.36257-0.67634 0.92079
   9  -2  -6   33.52   10.58 226 0.37163 0.28458 0.62939-0.89951-0.67607 0.33417
  10   0   0   13.53   10.26 226 0.36703 0.36847 0.63199-0.63060-0.67623 0.68795
  12  -1  -5    2.31   11.65 226 0.36750 0.51082 0.63172-0.76599-0.67621 0.39650
  13   0  -3   16.91   13.49 226 0.36827 0.58729 0.63129-0.63046-0.67619 0.51553
  -8   3  -9    7.52   11.20 227 0.36216-0.96133 0.63465-0.23031-0.67632 0.13692
  -8   4  -7    6.68   11.87 227 0.36250-0.95803 0.63446-0.09474-0.67631 0.25512
  -6   6  -2   -1.14   12.57 228 0.35759-0.80434 0.63718 0.17716-0.67644 0.55368
  -5   5   0    7.11   10.63 227 0.36090-0.72865 0.63535 0.04032-0.67636 0.67159
  -2   4   3   20.92    9.67 227 0.35866-0.50206 0.63659-0.09652-0.67642 0.85101
   0   6   4   -4.97   12.92 229 0.34994-0.34576 0.64136 0.17385-0.67660 0.91638
   3  -1  -1  342.01   10.08 227 0.36557-0.14671 0.63274-0.76770-0.67622 0.62059
   7  -1  -1  254.42    8.86 226 0.36562 0.14772 0.63272-0.76742-0.67622 0.62503
   8   0   1  370.84   10.07 227 0.36555 0.22309 0.63276-0.63250-0.67622 0.74425
   9  -1  -2   73.63    9.35 227 0.36313 0.29667 0.63411-0.76960-0.67630 0.56869
  10  -2  -8   21.38   13.19 227 0.36184 0.36661 0.63483-0.90525-0.67633 0.21741
  10   4   4    1.47   14.53 229 0.35296 0.38650 0.63972-0.09825-0.67655 0.92310
  11   1   1    1.31   10.31 227 0.36192 0.44846 0.63479-0.49913-0.67633 0.74769
  11   3   3    1.92   13.86 228 0.35404 0.45671 0.63913-0.23303-0.67652 0.86549
  -8   3  -8   -1.22   11.34 228 0.35332-0.94824 0.63944-0.23687-0.67640 0.19706
  -5   4   0   38.93    9.32 227 0.35696-0.72388 0.63744-0.09827-0.67632 0.67100
  -4   1  -2  430.07   10.06 227 0.35840-0.65450 0.63665-0.50149-0.67628 0.55503
  -4   6   1   -9.20   12.41 228 0.35421-0.64723 0.63895 0.17186-0.67638 0.73212
  -3   0  -3   50.39    8.92 227 0.35686-0.58067 0.63750-0.63734-0.67632 0.49699
  -3   6   2    3.26   11.22 229 0.35070-0.57037 0.64087 0.17150-0.67645 0.79402
   1  -1  -2 1522.46   23.79 229 0.34937-0.27818 0.64159-0.77701-0.67647 0.55932
   2   0   1  214.51   10.96 228 0.35730-0.20906 0.63726-0.63723-0.67631 0.73747
   2   4   5    1.58   15.90 231 0.33343-0.18081 0.65010-0.10925-0.67663 0.97421
   3  -2  -5  210.74    9.48 229 0.35064-0.13449 0.64090-0.91144-0.67645 0.38551
   3   2   4    3.63   14.56 230 0.33454-0.10938 0.64951-0.37850-0.67663 0.91665
   6   1   3   46.53    9.17 228 0.35401 0.08989 0.63906-0.50280-0.67639 0.86017
   7  -2  -5   52.08    9.01 228 0.35649 0.15362 0.63771-0.90762-0.67633 0.39118
   7   4   5    7.16   15.80 231 0.33298 0.18678 0.65033-0.10956-0.67663 0.97898
   9   3   4    4.71   12.18 229 0.34907 0.31760 0.64175-0.23514-0.67648 0.92316
  10  -1  -3   18.95    9.74 228 0.35317 0.37950 0.63952-0.77359-0.67640 0.51156
  11  -1  -4   25.50   10.64 228 0.35524 0.44952 0.63839-0.77223-0.67636 0.45396
  11   0  -1  113.67   10.23 228 0.35700 0.45053 0.63742-0.63674-0.67632 0.63137
  12   0  -2   44.29   10.57 228 0.35703 0.52329 0.63741-0.63641-0.67632 0.57333
  12   1   0   19.06   11.71 228 0.35418 0.52887 0.63897-0.50269-0.67638 0.69099
  13   1  -1   13.45   11.90 228 0.35700 0.59881 0.63742-0.50095-0.67632 0.63309
  -8   4  -6   26.01   11.35 229 0.34531-0.93794 0.64361-0.10512-0.67663 0.31532
  -8   5  -6   24.01   11.53 229 0.34972-0.94318 0.64122 0.03292-0.67656 0.31514
  -7   2  -6   35.90   10.45 229 0.34689-0.86741 0.64276-0.37315-0.67661 0.31560
  -7   5  -3    1.13   11.25 229 0.34364-0.86128 0.64450 0.03024-0.67665 0.49307
  -6   1  -6   19.53    9.13 228 0.34936-0.79617 0.64142-0.50738-0.67657 0.31734
  -6   3  -2   42.95    8.68 229 0.34665-0.78954 0.64288-0.23847-0.67661 0.55253
  -5   6   0   10.45   11.36 229 0.34485-0.71103 0.64386 0.16531-0.67664 0.67180
  -1   7   3    0.98   14.47 229 0.34390-0.41308 0.64437 0.30060-0.67665 0.85311
   4   1   3    2.98    9.63 229 0.34352-0.04616 0.64457-0.50878-0.67665 0.85796
   5   1   3  129.03   10.42 230 0.34090 0.03069 0.64597-0.51006-0.67668 0.85909
   6  -1  -1  103.64    7.31 229 0.35016 0.08997 0.64099-0.77552-0.67655 0.62481
   8  -2  -6   18.54   10.47 229 0.34563 0.23711 0.64343-0.91336-0.67662 0.33242
   9  -2  -7   -0.56   11.06 229 0.34563 0.30758 0.64343-0.91129-0.67662 0.27586
   9   1   2   26.65    9.62 229 0.34618 0.31785 0.64314-0.50640-0.67662 0.80554
  10  -2  -9    5.88   12.00 229 0.34876 0.37847 0.64174-0.91220-0.67658 0.15870
  11   2   2    8.55   10.52 230 0.34365 0.46831 0.64450-0.37282-0.67665 0.80768
  12  -1  -6   13.97   12.84 229 0.34497 0.53252 0.64379-0.77847-0.67663 0.33797
  -8   3  -7   -7.54   11.21 230 0.33741-0.93086 0.64767-0.24511-0.67683 0.25649
  -7   3  -4    9.92    8.29 229 0.34261-0.86116 0.64491-0.24072-0.67679 0.43386
  -7   4  -3   33.24    9.74 230 0.33830-0.85505 0.64720-0.10807-0.67683 0.49326
  -6   5  -1   -5.03   11.84 230 0.33831-0.78012 0.64720 0.02713-0.67683 0.61230
  -5   0  -7   63.44   10.10 230 0.33687-0.71198 0.64796-0.64805-0.67684 0.25988
  -2   6   3   12.38   11.61 230 0.34036-0.48347 0.64611 0.16449-0.67681 0.85197
   4  -1  -1   12.03    7.02 229 0.34294-0.04925 0.64473-0.77934-0.67678 0.62247
   5  -1  -1  280.99    8.62 230 0.34149 0.02562 0.64550-0.78091-0.67680 0.62301
   6  -2  -5   83.34    8.34 230 0.34155 0.09509 0.64547-0.91633-0.67680 0.38852
   6   2   4   -0.87    9.76 232 0.32962 0.11551 0.65177-0.38069-0.67685 0.91847
   7   0   1   12.09    8.84 230 0.33914 0.17678 0.64676-0.64622-0.67682 0.74380
   7   5   5    1.22   20.98 235 0.30020 0.21989 0.66666 0.00971-0.67647 0.97894
  10  -2 -10   -4.65   12.95 231 0.33433 0.38784 0.64930-0.91604-0.67685 0.10218
  -8   5  -5   -2.13   11.79 231 0.32963-0.92076 0.65181 0.02101-0.67697 0.37468
  -7   1 -12   18.08   13.93 231 0.32908-0.85538 0.65210-0.51854-0.67697-0.03718
  -7   1 -11    6.60   11.57 232 0.32699-0.85401 0.65318-0.52005-0.67696 0.02120
  -6   2  -3   81.63    9.25 231 0.32868-0.77276 0.65231-0.38286-0.67697 0.49383
  -6   4  -1    9.86   10.39 231 0.33146-0.77321 0.65086-0.11112-0.67697 0.61182
  -4   3   1  171.35   10.11 231 0.33069-0.62357 0.65126-0.24579-0.67697 0.73186
  -3  -1  -7  518.95   18.28 233 0.31721-0.54510 0.65821-0.79397-0.67690 0.26111
  -3   2   1  191.78    9.68 231 0.33284-0.55243 0.65013-0.37900-0.67697 0.73318
  -2  -1  -5  109.76   17.34 233 0.31189-0.46455 0.66090-0.79606-0.67683 0.38030
  -1   5   4   15.39   11.74 231 0.32723-0.39595 0.65306 0.02211-0.67696 0.91154
   4  -2  -5   77.53    9.02 231 0.33337-0.04410 0.64985-0.92016-0.67696 0.38697
   5  -2  -5  196.14    9.88 231 0.33286 0.03023 0.65012-0.92070-0.67697 0.38802
   8  -1  -2  190.66    7.97 231 0.33366 0.25296 0.64970-0.78464-0.67696 0.56835
   9  -2  -8   29.10   11.79 231 0.32991 0.32443 0.65167-0.92128-0.67697 0.21651
   9   0   0   -1.08    8.79 231 0.33079 0.33158 0.65121-0.65074-0.67697 0.68692
   9   2   3   35.14   11.10 232 0.32532 0.33945 0.65405-0.38262-0.67696 0.86386
  11  -1  -5   10.87   10.82 231 0.32747 0.47729 0.65293-0.78734-0.67697 0.39547
  12   2   1   -2.84   11.81 231 0.33117 0.55274 0.65100-0.38065-0.67697 0.74920
  -8   2 -12   -3.11   13.73 232 0.32239-0.92178 0.65547-0.38801-0.67696-0.03916
  -8   2 -11   -1.68   12.77 233 0.31877-0.92092 0.65732-0.38919-0.67693 0.01962
  -8   2 -10   -1.15   13.26 232 0.31953-0.91711 0.65693-0.38816-0.67694 0.07959
  -8   4  -5   20.58   10.93 232 0.32081-0.91383 0.65628-0.11705-0.67695 0.37420
  -7   1 -13   16.30   14.37 232 0.32175-0.84931 0.65580-0.52248-0.67695-0.09616
  -7   1 -10    3.07   10.41 232 0.32518-0.84926 0.65403-0.52027-0.67697 0.08063
  -6   6  -1    0.96   12.08 232 0.32291-0.76522 0.65520 0.15532-0.67696 0.61239
  -4   2   0  390.27    9.57 231 0.32708-0.62158 0.65305-0.38252-0.67698 0.67328
  -3   3   2   81.95    7.61 231 0.32654-0.54512 0.65333-0.24722-0.67698 0.79198
   0  -2 -14    2.84   19.31 237 0.28359-0.29695 0.67463-0.94489-0.67607-0.14634
   1  -2  -7  175.58   12.44 233 0.31380-0.24686 0.65985-0.93067-0.67687 0.26545
   2  -2  -6    4.96    9.71 233 0.31813-0.17710 0.65765-0.92711-0.67692 0.32645
   2   6   5    6.61   16.48 234 0.30979-0.15701 0.66186 0.14897-0.67681 0.97386
   7  -2  -6   64.40    9.74 232 0.32329 0.18548 0.65501-0.92516-0.67696 0.33206
   8  -2  -7    3.09    9.94 231 0.32525 0.25954 0.65399-0.92680-0.67697 0.27312
  12   0  -3   -4.85   12.08 232 0.32239 0.56020 0.65547-0.65516-0.67696 0.51399
  -8   3  -6   11.36   11.18 233 0.31583-0.90928 0.65887-0.25463-0.67692 0.31488
  -7   1  -9    1.55    9.56 232 0.31797-0.83816 0.65778-0.52369-0.67694 0.14118
  -7   2  -5   58.99    9.55 233 0.31551-0.83512 0.65903-0.39007-0.67691 0.37465
  -5   1  -3  130.42    9.15 233 0.31299-0.68399 0.66030-0.52547-0.67688 0.49490
  -5   3   0  396.95    9.76 233 0.31836-0.68604 0.65758-0.25257-0.67694 0.67107
   0  -2  -9    8.65   14.64 236 0.28921-0.29792 0.67200-0.94261-0.67630 0.14654
   0   3   4  198.50   13.05 234 0.30621-0.30177 0.66370-0.25743-0.67676 0.91269
   5   2   4  121.87   11.70 234 0.30753 0.06468 0.66304-0.39175-0.67679 0.91811
   6   0   1  178.94    9.79 233 0.31575 0.12680 0.65891-0.65819-0.67691 0.74295
   9  -2  -9   34.49   10.85 233 0.31764 0.33667 0.65795-0.92878-0.67694 0.15685
   9  -1  -3   45.80    7.65 233 0.31909 0.34053 0.65721-0.79176-0.67695 0.51078
  10  -1  -4   22.80    8.35 233 0.31836 0.41391 0.65758-0.79216-0.67694 0.45316
  10   0  -1    6.74    9.97 233 0.31544 0.41949 0.65906-0.65846-0.67691 0.63010
  10   1   1   54.90   10.04 233 0.31665 0.41892 0.65845-0.52245-0.67693 0.74823
  11   0  -2   54.25   11.03 233 0.31224 0.49437 0.66068-0.65967-0.67687 0.57236
  13   1  -2   -3.65   12.64 234 0.31099 0.63764 0.66131-0.52406-0.67685 0.57338
  -8   2  -9   -6.60   10.89 234 0.30798-0.90661 0.66257-0.39434-0.67689 0.13674
  -7   3  -3    8.50    9.58 235 0.30389-0.82244 0.66461-0.25964-0.67681 0.49260
  -7   5  -2   -6.16   11.52 234 0.30733-0.82471 0.66290 0.01266-0.67688 0.55188
  -6   1  -5   11.59    8.70 234 0.30986-0.75602 0.66163-0.52719-0.67692 0.37563
  -5   2  -1  179.19    9.60 234 0.30699-0.67558 0.66307-0.39257-0.67687 0.61274
  -5   5   1   40.34   10.81 234 0.30476-0.67070 0.66417 0.01079-0.67682 0.73061
  -4   5   2   71.31   11.15 234 0.30762-0.59924 0.66275 0.01244-0.67688 0.79060
  -2   2   2  276.87   10.83 234 0.30850-0.45336 0.66231-0.39080-0.67690 0.79318
  -1   4   4   32.61    8.98 234 0.30756-0.37639 0.66278-0.12186-0.67688 0.91200
  -1   6   4    7.10   13.98 234 0.30347-0.37208 0.66481 0.14500-0.67680 0.91078
   1   5   5    1.85   13.24 236 0.29398-0.21506 0.66946 0.00737-0.67655 0.97294
   4   2   4   85.49   12.90 236 0.29432 0.00416 0.66929-0.39815-0.67656 0.91666
   6  -2  -6   24.02    9.06 235 0.30382 0.13145 0.66464-0.93462-0.67680 0.33087
   7  -1  -2   96.89    8.93 234 0.30653 0.20648 0.66330-0.79874-0.67686 0.56699
   8   1   2   33.02    9.19 234 0.30631 0.28416 0.66341-0.52739-0.67686 0.80429
   9  -2 -10    7.77   12.10 234 0.30857 0.34472 0.66228-0.93366-0.67690 0.09865
  11   1   0   11.31   10.22 234 0.30603 0.50457 0.66354-0.52767-0.67685 0.69039
  12   1  -1  -18.44   11.76 234 0.30707 0.57647 0.66303-0.52773-0.67687 0.63198
  -8   2  -8    8.03   10.24 235 0.29845-0.89274 0.66719-0.39786-0.67653 0.19716
  -8   5  -4    8.30   11.84 234 0.30256-0.89433 0.66517 0.01003-0.67663 0.43257
  -7   1  -8   90.40   11.01 235 0.29599-0.81852 0.66839-0.53410-0.67646 0.19847
  -7   4  -2    6.26    9.91 236 0.29658-0.81506 0.66810-0.12733-0.67648 0.55167
  -4   0  -4   32.78    9.98 235 0.29527-0.59422 0.66874-0.66861-0.67644 0.43665
  -3   5   3    6.81   10.51 235 0.29522-0.51253 0.66876 0.00734-0.67644 0.85013
  -2   3   3  103.35    9.83 235 0.29624-0.43969 0.66827-0.26232-0.67647 0.85129
   3   0   1    8.07    9.09 235 0.29964-0.07803 0.66660-0.66622-0.67656 0.73917
   5   0   1   24.30    8.59 235 0.29725 0.07231 0.66778-0.66743-0.67649 0.74105
   6   4   5    2.94   17.48 239 0.26933 0.17713 0.68102-0.13948-0.67541 0.97677
   7  -2  -7   -0.16    9.62 235 0.29850 0.21163 0.66717-0.93928-0.67653 0.27146
   8  -2  -8   -0.95   10.10 235 0.30019 0.28032 0.66633-0.93604-0.67657 0.21491
   8   3   4    4.69   11.95 236 0.29554 0.29772 0.66861-0.26203-0.67645 0.92224
   9  -2 -11   -6.68   12.35 235 0.30032 0.35040 0.66627-0.93570-0.67657 0.03986
   9   4   4   12.40   14.91 236 0.28943 0.37706 0.67156-0.12985-0.67626 0.92284
  10   3   3   -9.41   11.39 235 0.29928 0.44080 0.66678-0.26147-0.67655 0.86525
  11  -1  -6   30.10   10.42 235 0.30285 0.50021 0.66502-0.80039-0.67663 0.33641
  -8   4  -4   15.73   10.98 236 0.29205-0.88536 0.67052-0.12961-0.67621 0.43190
  -7   6  -2    0.09   12.00 236 0.29469-0.81258 0.66924 0.14225-0.67630 0.55194
  -6   0 -12   37.09   14.31 236 0.28588-0.73894 0.67348-0.67388-0.67600-0.03622
  -6   0 -11   15.99   13.67 236 0.28657-0.73877 0.67315-0.67353-0.67603 0.02227
  -6   3  -1   14.43    8.50 236 0.29393-0.73612 0.66961-0.26433-0.67627 0.61076
  -6   5   0   30.05   10.78 236 0.29034-0.73108 0.67134 0.00396-0.67616 0.67023
  -5   0  -6    0.13    9.89 237 0.28792-0.66191 0.67250-0.67436-0.67608 0.31623
  -5   4   1  321.29   10.44 236 0.29292-0.65895 0.67009-0.13025-0.67624 0.72980
  -5   6   1   -3.80   11.92 236 0.29103-0.65701 0.67101 0.13871-0.67618 0.73031
  -4   4   2   51.65    9.42 235 0.29460-0.58606 0.66928-0.12851-0.67629 0.79017
  -4   6   2    1.32   12.25 235 0.29468-0.58518 0.66924 0.14089-0.67630 0.78904
   3  -2  -6   13.81    9.00 236 0.29149-0.07669 0.67079-0.94121-0.67620 0.32631
   4   0   1   17.62    8.55 237 0.28868 0.00613 0.67214-0.67184-0.67610 0.73956
   5  -2  -6   41.38    9.06 236 0.29136 0.07066 0.67085-0.94177-0.67619 0.32818
   8   0   0  203.10    8.42 236 0.29486 0.29392 0.66915-0.66962-0.67630 0.68549
  10   2   2   36.39   11.00 236 0.29039 0.44787 0.67132-0.39979-0.67616 0.80615
  12   0  -4    6.35   11.99 237 0.28796 0.59089 0.67248-0.67169-0.67608 0.45475
  -9   4  -7   27.77   13.41 237 0.28381-0.95370 0.67436-0.13406-0.67587 0.25366
  -8   3  -5   28.39    8.89 236 0.28844-0.88162 0.67215-0.26783-0.67604 0.37406
  -6   0 -13   21.27   15.21 237 0.27842-0.73112 0.67690-0.67780-0.67566-0.09553
  -6   0 -10   29.09   12.25 237 0.27849-0.72977 0.67687-0.67772-0.67566 0.08088
  -4  -1 -12    5.59   15.39 239 0.26754-0.57381 0.68195-0.81901-0.67514-0.03641
  -4  -1 -11   20.25   15.08 238 0.27181-0.57691 0.67998-0.81651-0.67535 0.02344
   4  -2  -6   50.01    8.72 237 0.28491 0.00365 0.67383-0.94404-0.67592 0.32803
   6  -1  -2   12.27    7.85 237 0.28367 0.15721 0.67442-0.81035-0.67587 0.56526
   8  -2  -9   -0.78    8.93 237 0.28748 0.29329 0.67261-0.94367-0.67601 0.15484
   8  -1  -3   19.94    7.93 237 0.28558 0.29977 0.67352-0.80913-0.67594 0.50838
   8   2   3   46.93   10.41 238 0.27685 0.31385 0.67764-0.40647-0.67559 0.86222
  10  -1  -5   16.52    8.44 237 0.28766 0.44365 0.67252-0.80760-0.67602 0.39354
  11  -1  -7   16.61   11.92 237 0.28295 0.52004 0.67476-0.80999-0.67584 0.27686
  -9   3  -9    9.98   13.05 238 0.27937-0.95037 0.67651-0.27224-0.67569 0.13606
  -8   2  -7    0.83   10.93 237 0.27953-0.87307 0.67643-0.40687-0.67570 0.25482
  -7   2  -4    6.37    8.90 238 0.27785-0.79710 0.67722-0.40757-0.67563 0.43239
  -6   2  -2  145.32    9.43 238 0.27451-0.71731 0.67878-0.41019-0.67548 0.55114
  -6   4   0   56.71    9.84 238 0.27808-0.71939 0.67712-0.13766-0.67564 0.66893
  -6   6   0  -14.54   11.79 238 0.27667-0.71889 0.67778 0.13410-0.67557 0.67046
  -3   4   3    5.90    9.24 239 0.27357-0.49253 0.67922-0.13698-0.67543 0.85115
  -3   6   3    3.37   10.51 238 0.27822-0.49559 0.67705 0.13468-0.67564 0.85010
   0  -2 -13   -0.20   17.80 243 0.23835-0.25030 0.69498-0.96471-0.67328-0.09003
   1  -2 -15    7.61   17.97 241 0.25492-0.19580 0.68772-0.95971-0.67442-0.20731
   1   6   5   -0.65   15.25 240 0.26378-0.18480 0.68372 0.12824-0.67494 0.97147
   6  -2  -7   32.13    9.43 238 0.27449 0.16055 0.67879-0.94931-0.67548 0.27054
   7  -2  -8   49.81   11.03 238 0.27481 0.23360 0.67864-0.94872-0.67549 0.21407
   8  -2 -12    3.20   14.01 238 0.27209 0.30557 0.67991-0.95159-0.67536-0.02178
   8  -2 -11   -9.30   11.85 238 0.27483 0.30530 0.67864-0.95146-0.67549 0.03544
   8  -2 -10    1.93   11.21 238 0.27821 0.30147 0.67706-0.94868-0.67564 0.09604
   9  -1  -4   88.60    8.25 238 0.28038 0.37783 0.67603-0.81059-0.67573 0.45138
   9   0  -1   -8.01    9.46 238 0.27496 0.38900 0.67857-0.67899-0.67550 0.62719
  11   0  -3   -6.00   10.65 238 0.27535 0.53371 0.67839-0.67850-0.67552 0.51147
  11   2   1   -0.23   11.71 238 0.27614 0.53559 0.67802-0.40748-0.67555 0.74723
  11   3   2   18.79   12.58 238 0.27502 0.53681 0.67854-0.27182-0.67550 0.80664
  12   2   0    0.86   12.69 238 0.27588 0.60856 0.67814-0.40761-0.67554 0.68951
  -9   3  -8   -8.84   11.72 239 0.26770-0.93724 0.68198-0.27882-0.67500 0.19460
  -9   4  -6   15.49   12.38 239 0.26678-0.93389 0.68240-0.14294-0.67495 0.31267
  -8   5  -3   11.88   10.83 239 0.27169-0.86332 0.68014-0.00454-0.67520 0.49068
  -7   1  -7  146.15   10.33 238 0.27170-0.79319 0.68014-0.54670-0.67520 0.25551
  -7   5  -1    5.10   11.62 239 0.26757-0.78312 0.68204-0.00647-0.67499 0.60916
  -6   0  -9   -0.67   11.08 239 0.26353-0.71324 0.68388-0.68490-0.67477 0.13846
  -4  -1 -13    5.60   17.61 241 0.24932-0.55607 0.69025-0.82715-0.67391-0.09598
  -4  -1 -10   25.91   13.06 240 0.25755-0.56131 0.68659-0.82282-0.67443 0.08188
   0  -2 -10   32.30   15.18 242 0.24655-0.25542 0.69147-0.96267-0.67372 0.08541
   1   4   5  131.23   14.73 241 0.25449-0.17612 0.68796-0.14738-0.67424 0.97003
   2  -2  -7  378.03   12.81 240 0.26174-0.12065 0.68470-0.95563-0.67467 0.26507
   2  -1  -2  481.04   13.08 239 0.26721-0.12229 0.68220-0.81748-0.67497 0.55921
   7   1   2  126.43    9.35 239 0.26550 0.25063 0.68299-0.54711-0.67488 0.80132
   9   1   1   73.14    9.33 239 0.26917 0.39268 0.68130-0.54626-0.67507 0.74474
  10   0  -2   47.07   10.74 239 0.26727 0.46551 0.68217-0.68230-0.67498 0.56928
  11  -1  -8   -4.68   12.38 239 0.26770 0.53592 0.68198-0.81756-0.67500 0.21602
  -8   3  -4   13.50    9.97 240 0.26078-0.85050 0.68509-0.28082-0.67465 0.43068
  -8   4  -3    3.18   10.80 239 0.26251-0.85202 0.68431-0.14436-0.67474 0.48925
  -7   3  -2   44.03    9.35 240 0.26115-0.77850 0.68493-0.28017-0.67467 0.54866
  -7   6  -1    4.09   12.64 240 0.25917-0.77388 0.68582 0.12365-0.67455 0.60877
  -6   0 -14    5.40   15.85 241 0.25231-0.70821 0.68889-0.69129-0.67413-0.15780
  -6   1  -4  105.10    9.48 240 0.26178-0.70639 0.68464-0.55089-0.67470 0.43234
  -4   1  -1  289.09    9.29 239 0.26357-0.55879 0.68383-0.54874-0.67480 0.61187
  -3   1   0 2940.62   21.84 239 0.26509-0.48584 0.68314-0.54738-0.67488 0.67261
  -2   5   4   50.94   10.81 240 0.25956-0.40333 0.68565-0.00979-0.67458 0.90837
   1  -2  -8   25.87   10.91 241 0.25201-0.18568 0.68903-0.96010-0.67411 0.20459
   5  -2  -7    6.56    9.38 240 0.25743 0.10400 0.68660-0.95766-0.67445 0.26800
   5  -1  -2    8.72    8.15 240 0.26202 0.10431 0.68453-0.81995-0.67472 0.56274
   7  -2  -9   19.38   10.59 240 0.25944 0.24734 0.68570-0.95700-0.67457 0.15289
   7   0   0   25.81    8.89 241 0.25713 0.25766 0.68674-0.68632-0.67443 0.68269
  10  -1  -6    4.71   10.25 239 0.26362 0.46822 0.68381-0.82038-0.67480 0.33354
  12   0  -5    5.70   11.46 240 0.26057 0.61736 0.68519-0.68504-0.67463 0.39475
  12   1  -2   12.92   10.55 240 0.26322 0.61831 0.68399-0.54838-0.67478 0.57150
  -9   3  -7    0.66   11.34 241 0.25176-0.92023 0.68920-0.28556-0.67387 0.25241
  -8   2  -6   17.99   10.57 241 0.25201-0.84710 0.68909-0.41947-0.67388 0.31196
  -7   4  -1   29.97    9.93 241 0.25362-0.76926 0.68838-0.14779-0.67399 0.60890
   0  -2 -12    6.83   16.74 243 0.23313-0.24455 0.69730-0.96927-0.67253-0.03441
   0  -2 -11    0.13   14.59 244 0.22628-0.23656 0.70020-0.97118-0.67197 0.02473
   0  -1  -3  239.40   17.42 243 0.23572-0.23934 0.69619-0.83150-0.67273 0.49570
   6  -2  -8   34.57   10.12 241 0.25028 0.18381 0.68986-0.96035-0.67377 0.21031
   7  -2 -13   -3.35   13.55 242 0.24795 0.25543 0.69089-0.96288-0.67362-0.08467
   7  -2 -10   15.54   11.39 241 0.24948 0.25679 0.69021-0.96215-0.67372 0.09275
   7  -1  -3   17.70    8.57 241 0.25287 0.25949 0.68871-0.82424-0.67394 0.50554
  10   1   0   23.23   10.02 241 0.25309 0.48221 0.68861-0.55312-0.67395 0.68576
  10   4   3   12.65   15.60 242 0.24258 0.49611 0.69323-0.15206-0.67324 0.86235
  11  -1  -9   10.00   13.02 241 0.25374 0.54648 0.68832-0.82371-0.67400 0.15761
  11   1  -1   -6.02   10.89 241 0.25256 0.55581 0.68885-0.55390-0.67392 0.62746
  -9   4  -5   -2.02   11.96 242 0.24490-0.91030 0.69221-0.15265-0.67360 0.37004
  -7   1  -6    9.48    9.16 242 0.24093-0.76230 0.69394-0.55957-0.67332 0.31233
  -6   0  -8  434.83   13.12 242 0.23904-0.68812 0.69475-0.69518-0.67318 0.19616
  -5   3   1   46.30    9.26 242 0.24435-0.61067 0.69245-0.28648-0.67357 0.72794
  -2   6   4    8.17   11.42 242 0.24576-0.38872 0.69183 0.11968-0.67366 0.90747
   0   5   5   25.02   11.90 243 0.23925-0.23401 0.69467-0.01871-0.67320 0.96817
   3  -2  -7   72.29    9.17 242 0.24434-0.03030 0.69245-0.96325-0.67357 0.26454
   3  -1  -2  221.03   10.04 242 0.24617-0.02769 0.69165-0.82753-0.67369 0.55862
   4  -2  -7   48.25    9.12 242 0.24598 0.04171 0.69174-0.96279-0.67368 0.26572
   4  -1  -2   66.79    7.64 242 0.24816 0.04392 0.69078-0.82676-0.67383 0.55983
   7  -2 -12    7.72   12.61 242 0.24420 0.26029 0.69252-0.96507-0.67356-0.02517
   7  -2 -11    1.34   12.17 242 0.24379 0.26173 0.69269-0.96458-0.67353 0.03306
   7   3   4    3.10   11.77 243 0.23381 0.28551 0.69700-0.29075-0.67278 0.91704
   8  -1  -4   41.04    9.59 242 0.24329 0.34181 0.69291-0.82873-0.67349 0.44674
   9  -1  -5   14.09    8.44 242 0.24744 0.41036 0.69110-0.82657-0.67378 0.38984
  -8   5  -2   24.45   12.02 242 0.23862-0.82822 0.69506-0.01956-0.67324 0.54694
  -7   2  -3    9.83    8.77 243 0.23518-0.75268 0.69654-0.42668-0.67297 0.48894
  -6   5   1    5.64   10.18 243 0.23475-0.67549 0.69672-0.02086-0.67294 0.72633
  -5   1  -2   79.27    7.34 242 0.24063-0.61084 0.69420-0.55817-0.67338 0.55105
  -5   5   2    4.10   10.23 243 0.23786-0.60466 0.69539-0.01825-0.67318 0.78664
  -4  -1  -9   55.44   13.31 244 0.22635-0.52870 0.70028-0.83587-0.67226 0.13858
  -4   3   2   30.04    8.84 243 0.23887-0.53118 0.69495-0.28913-0.67325 0.78750
  -2   4   4    6.49    9.58 244 0.23200-0.37570 0.69789-0.15602-0.67272 0.90724
   6  -2 -14    1.83   14.46 243 0.23540 0.19451 0.69644-0.96969-0.67299-0.14613
   6  -2  -9   44.66    9.57 244 0.23279 0.20124 0.69756-0.96813-0.67278 0.15032
   6   5   5    4.09   20.75 247 0.20048 0.24621 0.71081-0.03388-0.66981 0.97231
   9   2   2   35.80    9.80 243 0.23314 0.43028 0.69741-0.42660-0.67281 0.80142
   9   3   3   30.89   11.68 243 0.23320 0.43131 0.69738-0.29097-0.67282 0.86014
  10  -1  -7    3.46    9.85 243 0.23930 0.48993 0.69477-0.82993-0.67329 0.27272
  11   0  -4    1.75    9.41 243 0.23930 0.56662 0.69477-0.69472-0.67329 0.45053
  12   0  -6   18.38   12.16 243 0.23690 0.64012 0.69580-0.69586-0.67310 0.33413
  -9   2 -11    4.07   13.52 244 0.22970-0.90280 0.69870-0.42929-0.67285 0.01507
  -9   2 -10   -8.73   12.17 244 0.22741-0.89786 0.69966-0.43150-0.67266 0.07403
  -9   3  -6    6.30   10.99 244 0.23127-0.89936 0.69803-0.29303-0.67297 0.31012
  -8   1 -12   14.88   14.45 245 0.22217-0.82247 0.70185-0.56831-0.67221-0.04285
  -8   1 -11    5.65   12.79 245 0.22123-0.82227 0.70224-0.56863-0.67212 0.01461
  -6   3   0  127.32    7.78 243 0.23269-0.67422 0.69743-0.29323-0.67309 0.66678
  -6   6   1    2.09   12.25 243 0.23172-0.66929 0.69784 0.11018-0.67301 0.72433
  -5   0  -5    6.03    8.29 244 0.22968-0.60336 0.69871-0.69961-0.67284 0.37250
  -5   2   0   24.48    8.04 244 0.22996-0.59809 0.69859-0.42789-0.67287 0.66762
  -5   6   2   13.13   11.96 244 0.22760-0.59481 0.69958 0.11359-0.67267 0.78651
  -4  -1 -14   11.58   20.58 246 0.21040-0.51741 0.70668-0.84301-0.67112-0.15730
  -4   2   1   78.76    8.29 244 0.23059-0.52328 0.69832-0.42853-0.67292 0.72770
  -4   5   3   30.07   10.55 244 0.22924-0.52057 0.69889-0.02307-0.67281 0.84520
  -2   1   1  585.32   13.84 244 0.22672-0.37241 0.69995-0.56402-0.67260 0.73029
  -1   2   3  144.44   11.02 245 0.22299-0.29303 0.70151-0.43059-0.67228 0.84833
   0   1   2  123.44   14.83 245 0.21753-0.21477 0.70377-0.56790-0.67179 0.79029
   0   6   5    2.77   13.90 244 0.22657-0.22134 0.70002 0.10954-0.67259 0.96559
   1  -2 -14   -0.74   15.08 245 0.21644-0.15591 0.70422-0.97668-0.67169-0.15187
   2  -2 -15   -2.23   15.75 245 0.22014-0.08677 0.70269-0.97446-0.67203-0.21006
   5  -2  -8   -0.05    9.57 244 0.23048 0.13025 0.69837-0.96959-0.67291 0.20753
   7   2   3    9.10    9.64 245 0.22473 0.29395 0.70078-0.42975-0.67243 0.85757
   8   0  -1   46.00    9.82 244 0.22968 0.35773 0.69871-0.69865-0.67284 0.62396
  10   0  -3   22.16    9.97 244 0.22523 0.50838 0.70058-0.70061-0.67247 0.50733
  12   1  -3   20.46   12.71 244 0.22662 0.65564 0.70000-0.56498-0.67259 0.51007
  12   2  -1    5.73   12.24 244 0.22773 0.65777 0.69953-0.42888-0.67268 0.62865
  -9   2  -9    2.79   11.77 245 0.21765-0.88880 0.70397-0.43444-0.67154 0.13186
  -8   1 -10    5.54   11.00 245 0.21882-0.81748 0.70349-0.56940-0.67165 0.07396
  -8   2  -5    0.10    8.37 245 0.22367-0.81672 0.70147-0.43236-0.67208 0.36887
  -8   3  -3   37.55    9.53 245 0.22251-0.81381 0.70196-0.29645-0.67198 0.48672
  -8   4  -2    9.53   10.36 245 0.21977-0.81328 0.70309-0.16115-0.67173 0.54616
  -7   5   0   11.87   11.30 245 0.21983-0.73591 0.70307-0.02635-0.67174 0.66497
  -6   4   1    7.47   10.06 245 0.21668-0.65795 0.70437-0.16322-0.67145 0.72459
  -5   4   2  242.39   10.65 245 0.21997-0.58548 0.70301-0.16305-0.67175 0.78467
  -4   6   3    3.98   11.66 245 0.22029-0.51154 0.70288 0.10841-0.67178 0.84447
  -1   3   4   28.73    9.97 246 0.21372-0.28326 0.70557-0.29970-0.67118 0.90604
   1  -2  -9  115.59   12.94 247 0.20771-0.14182 0.70800-0.97924-0.67060 0.14125
   2  -2  -8  166.22   11.47 246 0.21504-0.07442 0.70503-0.97592-0.67130 0.20242
   3  -2 -15    9.97   15.25 246 0.21432-0.00706 0.70533-0.97809-0.67123-0.20967
   4  -2 -15   -0.49   14.34 246 0.21419 0.06619 0.70538-0.97624-0.67122-0.20672
   4  -2  -8   89.24   10.50 246 0.21494 0.07217 0.70508-0.97598-0.67129 0.20509
   5   4   5   24.37   17.58 250 0.18379 0.18828 0.71735-0.17624-0.66801 0.96871
   6  -2 -13   17.91   12.77 245 0.21866 0.21051 0.70355-0.97357-0.67163-0.08640
   6  -2 -12    6.05   12.38 245 0.21681 0.21423 0.70431-0.97627-0.67147-0.02876
   6  -2 -11   20.80   12.33 246 0.21546 0.21662 0.70486-0.97577-0.67134 0.03149
   6  -2 -10    5.55   10.81 245 0.22269 0.21019 0.70188-0.97366-0.67199 0.08972
   6  -1  -3   20.59    8.53 245 0.22041 0.21770 0.70283-0.83830-0.67179 0.50183
   6   0   0   51.44    9.19 245 0.22111 0.22057 0.70254-0.70331-0.67185 0.67802
   6   1   2   27.21    8.37 245 0.22262 0.22011 0.70191-0.56629-0.67199 0.79670
   8   1   1   29.00    9.88 245 0.21890 0.37083 0.70345-0.56794-0.67166 0.73956
   8   4   4    9.22   13.96 246 0.21240 0.37959 0.70611-0.16515-0.67105 0.91583
   9  -1  -6   41.79   10.25 245 0.21806 0.43843 0.70380-0.83871-0.67158 0.32833
   9   0  -2   28.36    9.39 245 0.21970 0.44002 0.70312-0.70305-0.67173 0.56427
  10  -1  -8    6.98   10.48 245 0.22337 0.50589 0.70160-0.83758-0.67205 0.21245
  10   2   1   29.52   12.15 246 0.21570 0.52089 0.70476-0.43399-0.67136 0.74237
  12   0  -7   45.52   12.85 246 0.21737 0.65913 0.70408-0.70407-0.67152 0.27309
  -9   4  -4   14.39   10.33 245 0.21656-0.88269 0.70438-0.16397-0.67129 0.42635
  -8   1  -9   17.27   11.53 247 0.20794-0.80606 0.70787-0.57386-0.67047 0.13143
  -7   3  -1   53.24    9.34 246 0.21156-0.72680 0.70641-0.30215-0.67082 0.60490
  -7   6   0   12.65   12.30 246 0.21481-0.72975 0.70509 0.10599-0.67113 0.66416
  -6   2  -1   26.28    8.15 246 0.21363-0.65570 0.70557-0.43573-0.67102 0.60557
  -3   0  -2  158.62   10.04 246 0.21412-0.43718 0.70537-0.70472-0.67106 0.55069
  -3   3   3   21.72    8.57 246 0.21020-0.42815 0.70696-0.30126-0.67069 0.84471
   3  -2  -8   82.58   10.23 247 0.20754 0.00677 0.70803-0.97878-0.67043 0.20315
   5  -2 -14    3.91   13.17 247 0.20795 0.14696 0.70787-0.97799-0.67047-0.14743
   5  -2  -9   44.68    9.84 246 0.21038 0.15028 0.70689-0.97778-0.67071 0.14665
  10  -1  -9   10.11   12.16 246 0.21177 0.51783 0.70633-0.84304-0.67084 0.15164
  10   3   2    5.91   12.00 246 0.20818 0.52977 0.70778-0.30179-0.67049 0.80025
  11   0  -5   47.43   10.58 247 0.20910 0.59524 0.70741-0.70749-0.67058 0.38885
  11   2   0    2.84   11.66 246 0.21479 0.59531 0.70510-0.43455-0.67113 0.68424
  -9   2  -8   -1.29   12.18 247 0.20402-0.87435 0.70929-0.44079-0.67013 0.18874
  -9   3  -5    3.55   11.06 247 0.20701-0.87367 0.70809-0.30300-0.67043 0.36648
  -9   5  -3   -2.24   12.11 247 0.20308-0.86650 0.70966-0.03536-0.67003 0.48431
  -7   1  -5   11.22    9.80 247 0.20492-0.72488 0.70893-0.57428-0.67022 0.36812
  -7   4   0   39.05   10.33 247 0.20339-0.71852 0.70954-0.16980-0.67006 0.66287
  -6   0  -7  164.07    9.86 247 0.20582-0.65347 0.70857-0.70968-0.67031 0.25191
  -6   1  -3   46.80    9.21 247 0.20558-0.64995 0.70866-0.57411-0.67028 0.48674
  -4   4   3    3.29    9.35 246 0.20627-0.49764 0.70839-0.16733-0.67035 0.84292
  -3  -1  -6  181.40   15.16 248 0.19458-0.42079 0.71300-0.84850-0.66913 0.31278
  -3   2   2   10.79    8.82 247 0.20601-0.42472 0.70849-0.43796-0.67033 0.78480
   1  -2 -13   12.79   14.57 250 0.18406-0.12217 0.71705-0.98820-0.66794-0.09637
   5  -2 -13   -5.06   13.26 248 0.19965 0.15702 0.71102-0.98327-0.66967-0.09165
   7  -1  -4   62.16    8.71 247 0.20539 0.30669 0.70874-0.84410-0.67027 0.44282
   8  -1  -5   44.06    7.95 247 0.20716 0.37689 0.70803-0.84398-0.67044 0.38571
  10  -1 -10   11.77   12.44 247 0.20355 0.52537 0.70947-0.84655-0.67008 0.09169
  11   1  -2    8.60    9.24 247 0.20721 0.60093 0.70801-0.57285-0.67045 0.56553
  11   3   1    6.74   12.75 247 0.20306 0.60800 0.70967-0.30371-0.67003 0.74230
  -8   1  -8   17.06   10.29 248 0.19430-0.78998 0.71314-0.57890-0.66923 0.18976
  -8   5  -1   23.92   11.79 248 0.19702-0.78754 0.71207-0.03568-0.66952 0.60297
  -4   0  -3  531.33   12.50 248 0.19853-0.49637 0.71148-0.71136-0.66968 0.48885
  -3   5   4    6.05    9.94 248 0.19749-0.41449 0.71189-0.03529-0.66957 0.90281
   0   4   5   46.41   12.36 249 0.18965-0.18508 0.71493-0.17418-0.66871 0.96388
   2  -2 -14   12.63   14.26 249 0.18736-0.05299 0.71581-0.98721-0.66845-0.15322
   3  -2 -14   -9.29   14.81 249 0.18758 0.02068 0.71573-0.98806-0.66847-0.15418
   4  -2 -14    2.43   13.99 249 0.18703 0.09343 0.71594-0.98453-0.66841-0.14832
   4  -2  -9    8.66    9.80 249 0.19147 0.09466 0.71423-0.98502-0.66891 0.14337
   5  -2 -12    1.04   11.66 248 0.19758 0.16105 0.71185-0.98626-0.66958-0.03417
   5  -2 -11    2.26   10.93 249 0.19138 0.16672 0.71427-0.98559-0.66890 0.02654
   5  -2 -10    4.03    9.73 247 0.19861 0.16033 0.71145-0.98326-0.66969 0.08628
   9  -1  -7   -7.82   10.26 248 0.19609 0.46034 0.71243-0.84811-0.66942 0.26705
   9   1   0   82.84    8.27 248 0.19993 0.46171 0.71093-0.57552-0.66983 0.68074
  10   1  -1    4.89    9.86 248 0.19548 0.53813 0.71267-0.57683-0.66936 0.62144
 -10   3  -8  -13.36   13.39 249 0.18670-0.92830 0.71615-0.31281-0.66827 0.18682
  -9   2  -7   23.34   10.74 249 0.18758-0.85608 0.71581-0.44653-0.66837 0.24692
  -8   2  -4   12.77   10.81 249 0.18867-0.78134 0.71539-0.44558-0.66850 0.42448
  -3   6   4   -2.11   12.47 249 0.18939-0.40650 0.71511 0.09680-0.66858 0.90236
  -1   5   5   12.65   11.63 249 0.18579-0.25457 0.71649-0.04000-0.66816 0.96215
   1  -2 -12    5.94   13.30 251 0.17303-0.11026 0.72129-0.99331-0.66663-0.03926
   1  -2 -10   33.51   12.45 250 0.17981-0.11487 0.71876-0.98987-0.66746 0.08031
   2  -2  -9  109.29   11.27 250 0.18202-0.04202 0.71792-0.98882-0.66772 0.14059
   3  -2  -9   28.51   10.04 250 0.18061 0.03244 0.71846-0.98919-0.66756 0.14145
   4  -2 -13   -2.53   12.43 251 0.17563 0.10668 0.72032-0.98991-0.66695-0.09302
   5  -1  -3  351.54    9.29 249 0.19117 0.17371 0.71443-0.85000-0.66878 0.49813
   8   5   4   -3.96   16.74 252 0.16522 0.42557 0.72414-0.04911-0.66562 0.90988
  10   0  -4   21.32    9.51 249 0.18827 0.54427 0.71554-0.71558-0.66845 0.44434
  11   0  -6   16.46   10.53 249 0.18518 0.61965 0.71673-0.71682-0.66809 0.32713
  12   1  -4    9.02   10.55 249 0.19213 0.68790 0.71406-0.57865-0.66889 0.44707
  -9   4  -3    5.67    9.94 249 0.18490-0.85040 0.71676-0.17629-0.66800 0.48229
  -8   3  -2    0.05    9.68 250 0.18045-0.77141 0.71844-0.31315-0.66747 0.54149
  -8   4  -1   10.64   11.27 250 0.17870-0.76965 0.71910-0.17829-0.66726 0.60085
  -7   2  -2    8.94    7.40 249 0.18421-0.70196 0.71702-0.44693-0.66792 0.54290
  -4  -1  -8   18.98   12.62 250 0.17431-0.47587 0.72073-0.85639-0.66672 0.19177
  -2   0  -1  269.20   13.02 250 0.17968-0.32814 0.71873-0.71765-0.66738 0.60773
  -1   6   5   10.13   13.51 251 0.17433-0.24274 0.72073 0.09046-0.66672 0.96220
   1  -2 -11    7.61   12.03 252 0.16652-0.10282 0.72360-0.99446-0.66573 0.01935
   2  -2 -13   23.18   13.33 252 0.16519-0.02944 0.72408-0.99509-0.66556-0.09706
   4  -2 -12    9.41   11.49 251 0.17255 0.11125 0.72139-0.99312-0.66650-0.03611
   4  -2 -10   13.24    9.80 250 0.17808 0.10739 0.71933-0.99072-0.66719 0.08257
   5   0   0   41.85    7.11 250 0.18401 0.18342 0.71709-0.71684-0.66789 0.67387
   5   1   2   79.28    8.82 250 0.17839 0.19080 0.71921-0.58353-0.66722 0.79094
   7   0  -1   97.87    7.35 250 0.18397 0.32948 0.71711-0.71713-0.66789 0.61753
   9  -1  -8    2.16   11.09 250 0.17842 0.47741 0.71920-0.85534-0.66723 0.20616
  12   2  -2   -4.51   12.19 250 0.18018 0.70167 0.71854-0.44875-0.66744 0.56307
 -10   3  -7   -6.62   12.24 251 0.16908-0.91227 0.72256-0.31805-0.66598 0.24356
  -9   3  -4   -4.45    9.48 251 0.17598-0.84285 0.72001-0.31578-0.66685 0.42217
  -8   1  -7   23.08   10.07 251 0.17257-0.76721 0.72128-0.58681-0.66642 0.24617
  -7   5   1   -3.70   11.31 251 0.17043-0.68320 0.72207-0.04764-0.66615 0.71797
  -6   5   2   -1.69   10.36 251 0.17206-0.61266 0.72147-0.04497-0.66636 0.77944
  -6   6   2   -0.24   12.77 251 0.17070-0.60967 0.72197 0.08781-0.66619 0.77848
  -3   4   4   20.39   10.12 251 0.16861-0.38518 0.72273-0.18209-0.66592 0.89825
   2  -2 -10    2.95   11.70 252 0.16322-0.02512 0.72469-0.99641-0.66521 0.07824
   3  -2 -13    7.58   12.64 251 0.16888 0.04016 0.72264-0.99470-0.66595-0.09620
   3  -2 -10   36.04   10.98 252 0.16406 0.04821 0.72439-0.99551-0.66532 0.07973
   4  -2 -11    3.45   10.43 251 0.17096 0.11348 0.72187-0.99323-0.66622 0.02293
   6   2   3   80.23   10.11 252 0.16392 0.28029 0.72444-0.45439-0.66531 0.84866
   6   3   4   68.65   12.12 252 0.16139 0.28331 0.72535-0.31987-0.66497 0.90759
   8  -1  -6   46.38    8.31 251 0.17580 0.40664 0.72008-0.85598-0.66683 0.32321
   8   0  -2    1.95    8.74 251 0.17081 0.41627 0.72193-0.72179-0.66620 0.55744
   8   2   2   37.10    8.86 251 0.17217 0.41853 0.72143-0.45046-0.66637 0.79384
   8   3   3   39.28   11.46 252 0.16465 0.42681 0.72418-0.31860-0.66540 0.85204
   9   0  -3   -0.81    7.71 251 0.17517 0.48589 0.72032-0.72085-0.66675 0.49978
   9   4   3    9.28   12.91 252 0.16428 0.50119 0.72431-0.18271-0.66535 0.85299
 -10   4  -5   13.79   11.81 251 0.16766-0.90843 0.72298-0.18305-0.66578 0.36141
  -9   2  -6    3.06   10.33 252 0.16381-0.83239 0.72438-0.45515-0.66528 0.30257
  -9   5  -2    7.56   11.52 252 0.16669-0.83197 0.72333-0.04752-0.66565 0.53970
  -7   0 -12   -2.39   13.44 253 0.15893-0.68418 0.72613-0.72862-0.66462-0.05020
  -7   0 -11   -1.89   13.47 253 0.15954-0.68503 0.72591-0.72853-0.66470 0.00768
  -7   1  -4   71.85    9.54 252 0.16112-0.67946 0.72535-0.59057-0.66492 0.42368
  -7   6   1    0.92   13.05 252 0.16395-0.67891 0.72433 0.08734-0.66529 0.71856
  -6   0  -6   37.10    9.22 252 0.16513-0.61199 0.72390-0.72452-0.66545 0.30629
  -6   3   1  297.97   10.50 252 0.16588-0.60534 0.72363-0.31898-0.66555 0.71907
  -5   0  -4    0.73    8.58 252 0.16058-0.53309 0.72554-0.72659-0.66484 0.42367
  -5   3   2   76.81    9.22 252 0.16173-0.52685 0.72513-0.31988-0.66500 0.77847
  -5   5   3   22.65   10.58 252 0.16432-0.53003 0.72419-0.04701-0.66534 0.83823
  -5   6   3   -3.69   11.86 252 0.16259-0.52705 0.72482 0.08502-0.66511 0.83747
  -4  -1 -15    6.89   27.43 257 0.12257-0.43022 0.73853-0.87604-0.65919-0.22746
   2  -2 -12   24.47   12.95 253 0.15541-0.01893 0.72738-0.99913-0.66414-0.04032
   2  -2 -11   22.31   11.93 253 0.15455-0.01727 0.72769-0.99963-0.66402 0.01841
   3  -2 -12    5.64   11.79 251 0.16568 0.04462 0.72370-0.99829-0.66552-0.03916
   3  -2 -11    6.23   11.08 253 0.15593 0.05463 0.72720-0.99825-0.66421 0.02005
   4  -1  -3  113.61    9.00 252 0.16230 0.12863 0.72492-0.86079-0.66507 0.49210
   6  -1  -4   11.80    7.00 252 0.16777 0.27060 0.72294-0.85874-0.66579 0.43689
   7  -1  -5  168.17    9.60 252 0.16483 0.34438 0.72401-0.86037-0.66541 0.37853
   7   1   1   28.69    8.57 252 0.16559 0.34919 0.72373-0.58907-0.66551 0.73246
   9  -1  -9    9.29   11.14 252 0.16354 0.48979 0.72448-0.86019-0.66524 0.14618
  11   0  -7   -3.55   11.31 252 0.16408 0.63888 0.72428-0.72463-0.66531 0.26566
  11   1  -3   10.07    9.87 252 0.16681 0.64050 0.72329-0.58809-0.66567 0.50196
  11   2  -1   -1.48   10.82 253 0.15934 0.64869 0.72599-0.45530-0.66468 0.61849
  12   1  -5   10.12   12.55 252 0.16165 0.71455 0.72516-0.59002-0.66499 0.38498
  -8   5   0    3.66   12.37 252 0.15619-0.74261 0.72695-0.05275-0.66413 0.65598
  -7   0 -13   -3.39   14.97 253 0.15113-0.67688 0.72874-0.73002-0.66342-0.10865
  -7   0 -10    9.51   11.03 252 0.15752-0.68127 0.72648-0.72778-0.66431 0.06819
  -7   3   0    5.73    9.46 253 0.15687-0.67109 0.72671-0.32145-0.66422 0.65681
  -5   1  -1  554.59   10.49 253 0.15881-0.52742 0.72602-0.59054-0.66449 0.60105
  -4   1   0  546.45   11.94 253 0.15542-0.44985 0.72723-0.59144-0.66402 0.66059
   9  -1 -12   21.77   13.06 253 0.15446 0.49897 0.72757-0.86559-0.66389-0.03365
   9  -1 -11    7.99   11.69 254 0.15138 0.50095 0.72865-0.86506-0.66345 0.02609
   9  -1 -10    5.96   10.92 253 0.15570 0.49730 0.72713-0.86364-0.66406 0.08606
   9   2   1    5.81    8.94 254 0.15113 0.51223 0.72874-0.45795-0.66342 0.73293
  10   0  -5    1.82    9.38 253 0.15574 0.57527 0.72711-0.72724-0.66407 0.38073
  10   4   2   12.32   14.27 254 0.14978 0.58958 0.72921-0.18739-0.66323 0.79406
 -10   3  -6   28.35   12.81 254 0.14737-0.89202 0.73009-0.32538-0.66287 0.29936
  -9   4  -2   29.63   11.26 254 0.14843-0.81358 0.72972-0.18918-0.66302 0.53683
  -8   1  -6   25.33    9.54 254 0.14490-0.73850 0.73094-0.59682-0.66251 0.30105
  -8   2  -3   43.56    9.97 254 0.14889-0.73975 0.72956-0.45906-0.66309 0.47946
  -7   0  -9    1.46   11.18 255 0.13966-0.66429 0.73274-0.73513-0.66173 0.12397
  -7   4   1   32.70   11.08 254 0.14612-0.66041 0.73052-0.19000-0.66269 0.71578
  -6   4   2   11.33   10.07 254 0.15031-0.58995 0.72906-0.18821-0.66329 0.77557
   4   0   0  173.78    9.75 254 0.14709 0.14697 0.73019-0.73084-0.66283 0.66655
   8  -1  -7   -1.88    8.70 254 0.15139 0.43189 0.72869-0.86486-0.66345 0.25959
  10   1  -2   66.78   10.31 254 0.14795 0.58561 0.72989-0.59593-0.66296 0.55648
  10   2   0   54.01   10.51 254 0.14864 0.58575 0.72965-0.46061-0.66306 0.67432
  11   0  -8    0.97   12.07 254 0.14793 0.65385 0.72990-0.73047-0.66295 0.20444
 -10   4  -4    6.93   12.73 256 0.13651-0.88184 0.73393-0.19271-0.66115 0.41661
  -9   2  -5    0.38   10.25 255 0.13690-0.80407 0.73380-0.46453-0.66121 0.35782
  -9   3  -3   19.31    9.41 254 0.14320-0.80827 0.73166-0.32688-0.66216 0.47672
  -6   1  -2   16.57    8.78 255 0.14216-0.58497 0.73201-0.59762-0.66201 0.53788
  -6   2   0  110.48    7.84 254 0.14362-0.58445 0.73151-0.46167-0.66222 0.65719
  -5   2   1  388.51    9.55 254 0.14357-0.50974 0.73153-0.46131-0.66221 0.71719
  -5   4   3   12.35    9.66 255 0.13706-0.50300 0.73375-0.19256-0.66124 0.83437
  -4   3   3    9.33    8.90 255 0.13621-0.42809 0.73403-0.32898-0.66111 0.83429
  -4   5   4  107.82   11.17 255 0.13963-0.43010 0.73288-0.05771-0.66163 0.89421
  -4   6   4    7.61   13.14 256 0.13142-0.42396 0.73564 0.07814-0.66037 0.89605
  -2   3   4  243.66   10.60 255 0.14046-0.28377 0.73259-0.32720-0.66175 0.89605
  -2   5   5    9.96   11.89 255 0.13493-0.27757 0.73446-0.05842-0.66091 0.95448
  -2   6   5    1.51   14.21 256 0.13046-0.27338 0.73595 0.07533-0.66022 0.95494
  -1   4   5   82.46   11.25 255 0.13617-0.20555 0.73405-0.19373-0.66110 0.95553
   1  -1  -3 1757.96   24.40 256 0.13364-0.06332 0.73490-0.87016-0.66071 0.48520
   3  -1  -3  985.69   14.90 255 0.13896 0.07855 0.73310-0.86834-0.66153 0.48831
   7   4   4   31.06   13.49 257 0.12597 0.39228 0.73744-0.19597-0.65950 0.90393
   8   1   0   39.53    9.36 255 0.14170 0.44636 0.73217-0.59674-0.66194 0.67166
   9   1  -1   94.89   10.49 255 0.13765 0.52310 0.73355-0.59789-0.66133 0.61332
   9   3   2    6.44   11.34 255 0.13552 0.52867 0.73426-0.32838-0.66100 0.78959
   9   5   3    5.30   16.34 256 0.12705 0.53844 0.73708-0.06032-0.65968 0.84831
  11   0  -9   -7.16   13.10 255 0.13867 0.66489 0.73320-0.73448-0.66148 0.14297
  11   3   0   10.64   12.67 255 0.13991 0.67020 0.73278-0.32706-0.66167 0.67521
  12   1  -6   27.48   13.04 255 0.13907 0.73731 0.73307-0.59848-0.66154 0.32239
  12   2  -3   -3.23   12.16 255 0.14003 0.73947 0.73274-0.46302-0.66169 0.49824
 -10   2  -9    6.50   12.35 256 0.13123-0.87378 0.73558-0.46694-0.66030 0.12112
  -9   5  -1    9.97   12.24 257 0.12751-0.79304 0.73681-0.06083-0.65971 0.59389
  -8   3  -1   10.28    8.06 255 0.13476-0.72408 0.73440-0.32916-0.66084 0.59407
  -8   4   0   17.86   10.37 256 0.13310-0.72149 0.73496-0.19452-0.66059 0.65297
  -7   2  -1   70.32    8.76 256 0.12901-0.64436 0.73632-0.46789-0.65995 0.59362
  -2   2   3  899.53   14.71 256 0.13160-0.27593 0.73546-0.46488-0.66035 0.83559
   4   1   2  411.94   12.04 256 0.12945 0.16616 0.73617-0.60077-0.66002 0.78256
   5  -1  -4  115.36    8.80 256 0.12811 0.23604 0.73662-0.87177-0.65980 0.43021
   6   0  -1   31.33    7.13 256 0.13519 0.30443 0.73426-0.73411-0.66091 0.60929
   7  -1  -6   79.11    9.06 256 0.13137 0.37782 0.73554-0.87136-0.66032 0.31611
   8  -1  -8   36.19    9.86 256 0.13171 0.45014 0.73542-0.87150-0.66037 0.19885
   9   0  -4    5.04    7.88 255 0.13537 0.52411 0.73420-0.73515-0.66094 0.43563
  10   0  -6   95.86   10.93 256 0.13010 0.60050 0.73596-0.73623-0.66012 0.31890
  10   3   1   16.18   11.35 256 0.13127 0.60618 0.73557-0.33006-0.66030 0.73169
  11   1  -4   23.61   11.06 256 0.13156 0.67388 0.73547-0.60088-0.66035 0.43827
 -10   3  -5    2.97   10.40 256 0.12748-0.86767 0.73675-0.33217-0.65973 0.35568
  -9   1 -11    4.28   12.68 256 0.12595-0.79713 0.73726-0.60350-0.65949 0.00316
  -9   1 -10   14.53   11.90 257 0.12267-0.79267 0.73833-0.60486-0.65896 0.06198
  -7   0  -8   35.60   10.05 257 0.12322-0.64502 0.73815-0.73928-0.65904 0.18117
  -4   2   2  182.59    9.22 257 0.12120-0.41294 0.73881-0.46856-0.65871 0.77319
   2  -1  -3  637.96   13.95 257 0.12502 0.01883 0.73756-0.87297-0.65934 0.48492
   6  -1  -5   23.24    8.83 257 0.12144 0.31472 0.73873-0.87451-0.65876 0.37106
   8   0  -3   78.89    8.45 257 0.12016 0.46543 0.73914-0.73985-0.65854 0.49050
 -10   2  -8   15.53   12.67 257 0.11851-0.86113 0.73969-0.47065-0.65843 0.17763
 -10   4  -3   17.57   11.99 258 0.11478-0.85091 0.74088-0.20172-0.65780 0.47161
  -9   1  -9   12.08   10.56 258 0.11199-0.78269 0.74176-0.60819-0.65733 0.11828
  -6   0  -5   49.10    9.16 258 0.11634-0.56184 0.74038-0.74025-0.65807 0.35854
  -4  -1  -7   11.51   11.76 259 0.10229-0.40302 0.74479-0.88097-0.65564 0.23912
  -3   1   1  335.51    9.81 258 0.11844-0.33759 0.73971-0.60383-0.65842 0.71518
   7   0  -2    1.49    6.90 258 0.11844 0.39478 0.73971-0.73997-0.65842 0.54839
   8  -1 -13   -1.34   12.81 258 0.11367 0.46492 0.74124-0.87917-0.65761-0.10061
   8  -1  -9   24.69    9.03 258 0.11779 0.46243 0.73992-0.87656-0.65831 0.13818
  11   2  -2   -1.21   11.19 258 0.11394 0.69418 0.74115-0.47144-0.65766 0.55297
  -9   2  -4   22.93   10.38 259 0.10479-0.77088 0.74388-0.47416-0.65615 0.41212
  -9   3  -2    2.40    9.95 259 0.10384-0.76860 0.74417-0.33903-0.65598 0.52980
  -9   4  -1   51.11   11.76 258 0.10985-0.77206 0.74230-0.20330-0.65703 0.58985
  -8   1  -5    9.52    8.33 258 0.11108-0.70425 0.74192-0.60757-0.65724 0.35461
  -8   5   1   -7.84   12.40 259 0.10533-0.69199 0.74371-0.06929-0.65625 0.70789
  -7   1  -3  303.78    9.73 258 0.11118-0.62846 0.74188-0.60720-0.65726 0.47468
  -7   5   2    6.30    9.85 258 0.11107-0.62434 0.74192-0.06610-0.65724 0.76869
  -7   6   2    3.27   12.88 260 0.10401-0.62133 0.74412 0.07028-0.65601 0.77121
  -6   5   3   26.71   10.37 259 0.10597-0.54428 0.74351-0.06818-0.65636 0.82765
  -6   6   3   -3.10   12.52 259 0.10560-0.54417 0.74363 0.06612-0.65629 0.82831
  -4   4   4   67.89   10.10 259 0.10611-0.39603 0.74347-0.20314-0.65638 0.88881
   3   0   0   11.36    6.96 259 0.11043 0.11021 0.74212-0.74222-0.65713 0.66042
   6   1   1   64.42    8.54 259 0.10559 0.33605 0.74363-0.60880-0.65629 0.72183
   7  -1  -7   24.69    9.07 259 0.10390 0.40489 0.74415-0.88021-0.65599 0.25128
   7   2   2    4.77    8.32 259 0.10294 0.41390 0.74445-0.47398-0.65582 0.78195
   8  -1 -12    2.38   12.68 259 0.10611 0.47198 0.74347-0.88054-0.65638-0.04101
   8  -1 -11   13.01   11.32 259 0.10529 0.47368 0.74373-0.88070-0.65624 0.01765
   8  -1 -10    1.06   10.40 259 0.10902 0.47080 0.74256-0.87934-0.65689 0.07714
  10   0  -7   -0.36    9.02 259 0.10943 0.62038 0.74243-0.74380-0.65696 0.25622
  10   1  -3    8.00    9.62 259 0.10420 0.62862 0.74406-0.60942-0.65605 0.49088
  12   2  -4    2.57   12.54 259 0.10544 0.77120 0.74368-0.47426-0.65627 0.43494
 -10   2  -7   19.46   11.93 259 0.10086-0.84392 0.74494-0.47593-0.65553 0.23322
 -10   3  -4   -2.44   11.42 261 0.09382-0.83938 0.74707-0.34154-0.65426 0.40904
  -9   1  -8    9.17   11.76 260 0.09666-0.76734 0.74621-0.61303-0.65478 0.17441
  -8   2  -2   36.64    8.23 259 0.10261-0.69293 0.74440-0.47488-0.65584 0.53050
  -7   0  -7   28.05   10.48 260 0.09427-0.61553 0.74693-0.74839-0.65434 0.23526
  -5  -1 -11   31.18   15.87 261 0.08544-0.46313 0.74955-0.88619-0.65269 0.00011
   5   2   3  108.17   11.11 261 0.09261 0.27773 0.74743-0.47675-0.65403 0.83662
   9   0  -5   10.50    7.90 260 0.10120 0.55694 0.74483-0.74590-0.65559 0.37143
  11   1  -5   11.16    9.70 259 0.10206 0.70283 0.74457-0.61033-0.65574 0.37414
  -9   5   0   -1.85   12.92 261 0.09092-0.75056 0.74801-0.07418-0.65366 0.64498
  -7   3   1   85.39    8.51 260 0.09347-0.60739 0.74725-0.34312-0.65413 0.70615
  -6   3   2  251.91   10.05 261 0.09192-0.53142 0.74771-0.34326-0.65384 0.76526
  -5  -1 -12   -3.44   15.62 261 0.08718-0.46400 0.74912-0.88457-0.65296-0.05688
  -5  -1 -10   49.49   13.96 262 0.07817-0.45474 0.75173-0.88805-0.65123 0.05785
  -4   0  -2  588.31   12.77 261 0.08837-0.38445 0.74876-0.74859-0.65318 0.53199
  -3   5   5   19.69   11.73 261 0.08869-0.30439 0.74867-0.07353-0.65324 0.94477
  -3   6   5    2.95   12.63 262 0.08543-0.30199 0.74963 0.06214-0.65263 0.94680
  -2   4   5    5.15    9.91 262 0.08274-0.22600 0.75041-0.20803-0.65212 0.94748
   4  -1  -4  155.93    9.25 261 0.08944 0.20092 0.74845-0.88396-0.65338 0.42246
   4   4   5   65.01   19.73 267 0.04068 0.25780 0.76184-0.22085-0.64344 0.94372
   5   5   5    6.33   20.81 266 0.04736 0.32506 0.76013-0.08382-0.64490 0.94651
   5   6   5    1.02   27.49 269 0.02196 0.34992 0.76643 0.04424-0.63917 0.94105
   7   3   3    5.81   10.70 261 0.08544 0.43323 0.74963-0.34346-0.65263 0.83866
  10   0  -8    7.54    9.70 261 0.09298 0.63581 0.74739-0.74881-0.65404 0.19449
  10   2  -1   16.96   10.22 261 0.09257 0.64225 0.74752-0.47766-0.65396 0.60763
 -10   2  -6   11.51   11.20 262 0.08007-0.82220 0.75107-0.48209-0.65170 0.28861
 -10   4  -2   11.74   11.76 262 0.08109-0.81643 0.75078-0.21142-0.65190 0.52435
  -9   1  -7   14.11   10.57 262 0.08055-0.74806 0.75093-0.61701-0.65180 0.23094
  -8   3   0   10.41    9.26 262 0.08296-0.67152 0.75024-0.34494-0.65226 0.64454
  -8   4   1   12.59   10.82 262 0.08007-0.66772 0.75107-0.21062-0.65170 0.70323
  -7   4   2    5.28   10.01 262 0.08253-0.59734 0.75036-0.20883-0.65218 0.76461
  -5   0  -3  328.94   10.77 262 0.08406-0.45484 0.74992-0.74986-0.65247 0.47113
  -5   5   4   13.11   11.66 262 0.07980-0.44535 0.75115-0.07427-0.65165 0.88526
  -5   6   4    7.42   12.17 262 0.08161-0.44716 0.75063 0.06229-0.65200 0.88568
  -3   3   4   61.59    9.04 262 0.07957-0.29643 0.75122-0.34505-0.65160 0.88490
  -1   1   2 1436.64   22.57 262 0.08111-0.15239 0.75077-0.61414-0.65190 0.77003
   5   0  -1   11.13    7.02 262 0.08390 0.28279 0.74996-0.75066-0.65244 0.59896
   5   3   4   80.66   12.54 263 0.07220 0.29919 0.75331-0.34729-0.65016 0.89205
   6  -1  -6   22.30    7.46 262 0.08536 0.35090 0.74954-0.88596-0.65271 0.30578
   7  -1  -8    3.48    9.78 262 0.08473 0.42369 0.74972-0.88663-0.65260 0.18917
   7   1   0   45.15    8.97 263 0.07833 0.43712 0.75157-0.61671-0.65136 0.65926
   7   5   4    8.49   15.55 264 0.06309 0.45521 0.75583-0.08030-0.64832 0.89322
   8   2   1   28.81    9.73 262 0.07918 0.50982 0.75133-0.48066-0.65153 0.71956
   8   4   3   11.35   12.98 263 0.07530 0.51575 0.75243-0.21175-0.65077 0.83713
   9   1  -2   56.99    8.58 262 0.08483 0.57538 0.74969-0.61593-0.65261 0.54481
   9   2   0   19.30    9.43 263 0.07875 0.58302 0.75145-0.48124-0.65145 0.66179
  10   0  -9   -8.95   11.90 262 0.08143 0.64664 0.75068-0.75239-0.65196 0.13336
  11   3  -1   -1.90   11.79 262 0.08431 0.72415 0.74984-0.34487-0.65252 0.60697
  12   2  -5   -6.55   13.27 262 0.08116 0.79907 0.75076-0.48143-0.65191 0.37070
  -8   1  -4   91.74    9.67 263 0.07261-0.66465 0.75315-0.61879-0.65033 0.40718
  -6   4   3    3.90    9.91 262 0.07687-0.51533 0.75195-0.21139-0.65117 0.82212
  -5   3   3  100.06    9.49 263 0.07138-0.43615 0.75350-0.34800-0.65009 0.82224
   2   0   0 2106.11   25.31 263 0.07359 0.07500 0.75288-0.75314-0.65053 0.65222
   3   1   2  617.65   15.84 264 0.06873 0.15461 0.75424-0.61829-0.64956 0.77082
   5  -1  -5   61.55    7.55 263 0.07768 0.28605 0.75172-0.88765-0.65133 0.36210
   7  -1  -9   24.24   10.16 264 0.06979 0.43752 0.75394-0.89049-0.64977 0.12755
   8   0  -4   -0.51    7.48 263 0.07778 0.50810 0.75169-0.75231-0.65135 0.42422
   8   1  -1  274.70   10.45 263 0.07377 0.51392 0.75283-0.61822-0.65056 0.60018
   9   0  -6    4.44    9.61 263 0.07297 0.58396 0.75305-0.75371-0.65040 0.30730
  10   0 -10    7.24   12.67 263 0.07308 0.65271 0.75302-0.75444-0.65043 0.07410
  10   4   1   -0.81   13.38 264 0.06700 0.66938 0.75471-0.21419-0.64921 0.72052
  11   1  -6   47.17   10.10 263 0.07759 0.72574 0.75175-0.61806-0.65131 0.31050
  11   2  -3   27.73   12.08 263 0.07405 0.73351 0.75275-0.48280-0.65062 0.48750
 -10   3  -3   -4.08   10.79 264 0.06590-0.80648 0.75506-0.35089-0.64872 0.46276
  -9   2  -3   31.38    8.81 263 0.06890-0.73352 0.75423-0.48483-0.64932 0.46386
  -9   4   0   39.60   10.99 264 0.06523-0.72685 0.75524-0.21590-0.64858 0.64038
  -7   0  -6    2.63    9.52 264 0.06405-0.58234 0.75557-0.75585-0.64834 0.28837
  -7   2   0   26.14    8.19 264 0.06762-0.58249 0.75458-0.48454-0.64907 0.64232
  -6   1  -1   65.39    7.34 263 0.07023-0.51292 0.75386-0.61906-0.64959 0.58501
  -6   2   1    8.14    7.22 263 0.06880-0.50931 0.75426-0.48401-0.64930 0.70233
  -5  -1 -13    7.24   18.77 265 0.05438-0.43264 0.75817-0.89453-0.64632-0.12280
  -5  -1  -9    7.45   12.81 265 0.05662-0.43190 0.75757-0.89381-0.64680 0.11201
  -5   1   0  445.64    9.65 264 0.06869-0.43688 0.75429-0.61845-0.64928 0.64459
  -3   2   3  265.20   10.32 264 0.06275-0.28050 0.75592-0.48529-0.64807 0.82224
   7  -1 -13    7.38   12.21 264 0.06555 0.43755 0.75515-0.89215-0.64865-0.10797
   7  -1 -10   27.44    9.99 265 0.06153 0.44503 0.75625-0.89318-0.64782 0.06665
   7   0  -3   80.95    8.64 264 0.06253 0.44979 0.75598-0.75620-0.64803 0.47912
   9   4   2   18.02   12.92 265 0.06093 0.60248 0.75642-0.21585-0.64769 0.77651
  10   1  -4   15.61    8.98 264 0.06839 0.66421 0.75437-0.61987-0.64922 0.42532
  10   3   0    5.08   11.61 264 0.06319 0.67275 0.75580-0.35034-0.64816 0.66034
 -10   2  -5   13.53   10.68 265 0.05675-0.79642 0.75745-0.48862-0.64691 0.34306
  -9   1  -6   17.98    9.84 265 0.05436-0.72250 0.75808-0.62448-0.64641 0.28413
  -9   3  -1   25.65    8.51 264 0.06148-0.72492 0.75618-0.35128-0.64790 0.58062
  -8   0 -11    4.85   12.83 267 0.04454-0.64503 0.76064-0.76430-0.64429-0.01217
  -7   1  -2  110.23    9.15 265 0.05553-0.57174 0.75777-0.62420-0.64666 0.52192
  -6   0  -4  435.25   11.05 265 0.05823-0.50296 0.75705-0.75786-0.64722 0.40565
   6  -1  -7   51.27    9.52 265 0.05577 0.38007 0.75771-0.89340-0.64670 0.24173
   6   0  -2  735.50   10.93 265 0.06140 0.37805 0.75620-0.75624-0.64788 0.53683
   7  -1 -12   13.59   12.40 265 0.05805 0.44569 0.75710-0.89345-0.64718-0.05058
   7  -1 -11    5.74   10.56 266 0.05375 0.44926 0.75824-0.89328-0.64628 0.00885
   8   3   2    1.01   10.15 265 0.05608 0.53494 0.75762-0.35175-0.64677 0.77474
   9   3   1   28.18   11.47 266 0.05066 0.61165 0.75906-0.35354-0.64562 0.71541
  11   1  -7   24.36   11.54 265 0.05940 0.74457 0.75674-0.62265-0.64747 0.24907
 -11   3  -5    1.72   12.80 266 0.05116-0.86496 0.75877-0.35461-0.64584 0.34138
  -8   0 -12   10.68   13.86 266 0.04853-0.64604 0.75946-0.76144-0.64528-0.06773
  -8   0 -10   26.48   13.14 266 0.04887-0.64583 0.75937-0.76121-0.64535 0.04876
  -8   2  -1   37.46    7.73 265 0.05242-0.64182 0.75844-0.48922-0.64611 0.57950
  -8   5   2    4.37   11.51 266 0.04951-0.63662 0.75921-0.08324-0.64549 0.75701
  -7   5   3   -2.67   10.66 266 0.04703-0.55941 0.75985-0.08375-0.64495 0.81611
  -5   2   2  243.73    9.65 266 0.05097-0.41677 0.75882-0.48819-0.64580 0.75896
  -5   4   4   45.71    9.55 266 0.04959-0.41379 0.75918-0.21834-0.64551 0.87691
  -4   6   5    0.61   12.77 267 0.04446-0.33403 0.76051 0.05053-0.64439 0.93640
  -3  -1  -5  368.88   17.01 267 0.03844-0.26399 0.76204-0.89780-0.64306 0.34560
  -3   0  -1    5.45    7.11 265 0.05299-0.27471 0.75829-0.75857-0.64623 0.58418
   0   6   6    8.85   15.75 268 0.03406-0.02868 0.76313 0.04875-0.64208 0.99804
   1   6   6   13.37   17.55 268 0.03041 0.04866 0.76403 0.04829-0.64125 0.99842
   3  -1  -4  673.56   13.19 266 0.05052 0.16680 0.75894-0.89501-0.64571 0.41281
   9   0  -7    7.91    8.41 266 0.05221 0.60460 0.75850-0.76002-0.64607 0.24401
 -10   4  -1    5.55   11.46 267 0.04233-0.77813 0.76102-0.22090-0.64400 0.57571
  -9   5   1   -1.35   12.88 267 0.04128-0.70302 0.76129-0.08546-0.64377 0.69529
  -8   0 -13    1.72   15.40 268 0.03410-0.63292 0.76309-0.76528-0.64217-0.12993
  -8   0  -9   16.70   11.88 267 0.03800-0.63468 0.76212-0.76397-0.64304 0.10496
  -4   5   5   28.19   10.41 267 0.03943-0.32899 0.76176-0.08557-0.64336 0.93520
  -3   4   5   41.62    9.08 267 0.04064-0.25688 0.76145-0.22045-0.64363 0.93631
   0   5   6   79.55   14.39 268 0.02823-0.02332 0.76453-0.08890-0.64083 0.99500
   1   5   6    7.25   16.99 270 0.01236 0.06670 0.76826-0.09089-0.63708 0.99418
   5   1   1  544.11   11.76 267 0.03698 0.33196 0.76237-0.62723-0.64281 0.70713
   8   0  -5    9.96    9.18 267 0.03978 0.54291 0.76167-0.76187-0.64344 0.35839
   9   1  -3   37.57   10.01 267 0.03788 0.62142 0.76214-0.62695-0.64302 0.47666
  10   1  -5    9.14   10.58 267 0.04051 0.69385 0.76148-0.62774-0.64360 0.36067
  10   2  -2   -2.10   10.23 267 0.04334 0.69138 0.76076-0.49084-0.64422 0.53848
  11   1  -8    1.13   10.85 267 0.04457 0.75883 0.76045-0.62671-0.64449 0.18576
  11   2  -4    7.34   11.95 266 0.04220 0.76715 0.76105-0.49148-0.64397 0.42163
  11   3  -2    4.39   11.99 267 0.03880 0.76983 0.76191-0.35683-0.64322 0.53915
 -10   1 -10   -7.25   13.57 269 0.02831-0.77287 0.76454-0.63235-0.64084 0.04104
 -10   3  -2   -8.04   10.51 268 0.03223-0.77034 0.76358-0.35895-0.64173 0.51442
  -6   5   4   28.71   10.89 268 0.03030-0.46800 0.76406-0.08813-0.64130 0.87202
  -6   6   4    4.27   12.93 268 0.03346-0.47157 0.76328 0.04824-0.64202 0.87360
  -4   1   1   14.75    6.90 267 0.03770-0.33175 0.76222-0.62674-0.64297 0.69800
  -1   6   6    2.87   14.44 269 0.02526-0.09333 0.76528 0.04535-0.64013 0.99326
   1   0   0    6.43   10.13 268 0.03712 0.03589 0.76237-0.76253-0.64284 0.64378
   4  -1  -5  195.06    9.74 268 0.03043 0.25896 0.76402-0.89998-0.64132 0.35124
   5  -1  -6   14.34    7.59 268 0.03667 0.32610 0.76248-0.89868-0.64274 0.29483
   6  -1 -14   16.89   12.91 268 0.03372 0.39558 0.76322-0.90104-0.64207-0.17477
   6  -1  -8   28.91    9.52 268 0.03464 0.39994 0.76299-0.89954-0.64228 0.17811
   6   4   4   18.86   13.25 270 0.02010 0.42437 0.76650-0.22513-0.63893 0.88243
   8   5   3   21.86   14.78 270 0.02097 0.56910 0.76630-0.09083-0.63913 0.82522
   9   0  -8    3.76    9.03 267 0.03595 0.62017 0.76266-0.76453-0.64258 0.18175
  11   1  -9   -2.66   12.81 269 0.03040 0.76791 0.76403-0.62973-0.64132 0.12572
 -11   2  -7    4.24   12.48 269 0.02556-0.83657 0.76524-0.49631-0.64046 0.21878
 -11   3  -4    8.74   12.62 268 0.02710-0.83889 0.76486-0.36037-0.64082 0.39477
 -10   1  -9    2.31   12.44 269 0.02601-0.76681 0.76513-0.63159-0.64057 0.10245
 -10   2  -4   18.99   11.09 268 0.02637-0.76674 0.76504-0.49570-0.64065 0.39544
  -9   1  -5   34.97   10.14 268 0.02693-0.69267 0.76490-0.63087-0.64078 0.33790
  -9   2  -2   34.13    8.45 268 0.02783-0.69141 0.76469-0.49538-0.64099 0.51442
  -8   0  -8   32.16   11.54 269 0.02147-0.61717 0.76621-0.76786-0.63951 0.16109
  -8   1  -3  213.51    9.07 268 0.02855-0.61943 0.76451-0.63037-0.64115 0.45715
  -8   3   1   62.24    9.78 269 0.02662-0.61451 0.76498-0.36010-0.64071 0.69190
  -8   4   2   -3.14   10.91 269 0.02342-0.60928 0.76575-0.22628-0.63996 0.75040
  -7   3   2   29.07    9.63 269 0.02655-0.54014 0.76500-0.35929-0.64069 0.75205
  -5  -1  -8   84.74   12.77 269 0.01904-0.39363 0.76678-0.90324-0.63893 0.16297
  -4  -1  -6   96.60   11.91 269 0.01911-0.31863 0.76676-0.90269-0.63895 0.28200
  -4   3   4   58.35    9.07 269 0.02523-0.31563 0.76531-0.36011-0.64038 0.87214
   2   6   6    2.14   25.09 272-0.00573 0.15815 0.77232 0.03854-0.63285 0.98897
   4   0  -1 2795.33   21.06 269 0.02443 0.26885 0.76550-0.76577-0.64020 0.58562
   6  -1 -13   -0.55   13.02 270 0.01970 0.41051 0.76663-0.90352-0.63909-0.11898
   6   2   2  139.73    9.65 269 0.02218 0.42045 0.76604-0.49538-0.63967 0.76458
   9   0  -9   -5.61   12.17 269 0.02397 0.63140 0.76562-0.76701-0.64009 0.11985
   9   5   2   -0.52   14.28 270 0.01994 0.64481 0.76657-0.09203-0.63915 0.76777
 -10   1  -8   -8.73   12.59 271 0.01143-0.75356 0.76851-0.63547-0.63730 0.15560
  -9   3   0   28.55   10.07 270 0.01502-0.67692 0.76769-0.36261-0.63816 0.62948
  -9   4   1    5.23   11.98 270 0.01576-0.67746 0.76751-0.22687-0.63834 0.68899
  -7   0  -5   13.22    8.80 270 0.01867-0.53835 0.76683-0.76774-0.63903 0.33741
  -7   4   3    4.78   10.28 269 0.01848-0.53032 0.76688-0.22607-0.63899 0.80855
  -5  -1 -14    3.48   24.20 275-0.02529-0.35504 0.77630-0.91459-0.62793-0.20157
  -2   1   2  475.17   12.95 270 0.01378-0.15915 0.76797-0.63125-0.63787 0.75485
  -1   5   6    5.64   11.53 270 0.01243-0.08073 0.76828-0.09163-0.63754 0.99095
   0   3   5   70.57   12.28 271 0.00384-0.00021 0.77022-0.36367-0.63544 0.93038
   5  -1 -15    0.49   14.18 271 0.00821 0.34616 0.76924-0.90644-0.63652-0.23930
   6  -1 -12   -2.11   11.64 271 0.01122 0.41952 0.76856-0.90535-0.63725-0.06178
   6  -1 -10    9.96    9.74 271 0.01155 0.42136 0.76848-0.90537-0.63733 0.05560
   6  -1  -9   31.75    8.49 270 0.01979 0.41428 0.76657-0.90306-0.63930 0.11664
   7   0  -4   12.10    8.36 270 0.01747 0.49476 0.76712-0.76818-0.63875 0.41131
   8   0  -6   10.43    9.71 270 0.01246 0.57086 0.76827-0.76907-0.63755 0.29354
   8   1  -2  194.87   10.16 270 0.01579 0.57108 0.76751-0.63280-0.63835 0.52941
   9   0 -12    7.40   12.58 269 0.01908 0.63466 0.76674-0.77004-0.63913-0.05733
   9   0 -11  -14.53   13.07 270 0.01548 0.63866 0.76758-0.76940-0.63828-0.00002
   9   0 -10    0.15   12.16 271 0.01163 0.63755 0.76846-0.76843-0.63735 0.06170
   9   2  -1   16.97    9.66 270 0.01678 0.64342 0.76728-0.49722-0.63858 0.59001
  10   1  -6    7.04   10.69 271 0.01198 0.71804 0.76838-0.63395-0.63743 0.29588
  -6   3   3   42.06    7.83 270 0.01133-0.45008 0.76858-0.36288-0.63707 0.80814
  -2   6   6    6.21   15.00 272 0.00037-0.14219 0.77103 0.04061-0.63438 0.98693
   2  -1  -4  151.92    9.85 271 0.00885 0.13500 0.76915-0.90512-0.63647 0.40230
   4   2   3   85.96   11.82 272-0.00225 0.29899 0.77160-0.49999-0.63372 0.81555
   5  -1  -7   19.34    9.01 271 0.00592 0.35645 0.76980-0.90642-0.63575 0.22888
   6  -1 -11    2.61   10.15 270 0.01098 0.42187 0.76866-0.90658-0.63699-0.00387
   6   1   0   10.45    8.81 271 0.00524 0.43606 0.76995-0.63469-0.63559 0.64234
  10   3  -1    8.96   11.46 272 0.00456 0.72951 0.77011-0.36467-0.63542 0.58814
  11   2  -5   12.31   10.76 271 0.01145 0.79440 0.76856-0.49918-0.63710 0.35604
 -11   2  -6    9.00   11.90 271 0.00331-0.81733 0.77046-0.50111-0.63515 0.27130
 -11   3  -3    0.68   12.31 272-0.00148-0.80856 0.77151-0.36765-0.63396 0.44669
 -10   4   0    3.22   12.06 271 0.00247-0.73637 0.77064-0.23039-0.63495 0.62475
  -8   0  -7   64.37   10.48 272 0.00051-0.59461 0.77107-0.77209-0.63446 0.21389
  -8   2   0   28.57    9.01 272-0.00190-0.58671 0.77160-0.50195-0.63385 0.62551
  -7   2   1   34.75    8.68 272 0.00144-0.51591 0.77087-0.50049-0.63469 0.68629
  -6   4   4   21.82   10.06 272-0.00323-0.43448 0.77188-0.23093-0.63352 0.86351
  -5   0  -2   42.68    9.07 272-0.00178-0.36829 0.77157-0.77182-0.63388 0.51082
  -5   6   5    3.50   13.23 271 0.00321-0.36592 0.77048 0.04039-0.63513 0.92445
  -4   2   3   19.28    7.01 271 0.00390-0.29573 0.77033-0.49943-0.63530 0.80853
  -4   4   5    2.43    9.07 272-0.00097-0.28837 0.77139-0.23082-0.63409 0.92433
  -1   3   5    4.64   10.82 273-0.01060-0.05877 0.77344-0.36682-0.63164 0.92643
   1   3   5   93.34   17.19 276-0.03181 0.11007 0.77768-0.37117-0.62601 0.92244
   5   0  -2  381.81   10.49 272-0.00199 0.36881 0.77162-0.77138-0.63383 0.52158
   6   0  -3    4.75    8.23 272 0.00099 0.43852 0.77097-0.77165-0.63458 0.46467
   7   1  -1  257.39    8.81 272 0.00334 0.51121 0.77045-0.63506-0.63516 0.58454
   7   2   1   71.88    9.42 272 0.00012 0.51503 0.77116-0.50031-0.63436 0.70192
   8   2   0   34.48    9.30 272 0.00176 0.58622 0.77080-0.50012-0.63477 0.64429
   9   1  -4   84.40    9.55 272 0.00099 0.65801 0.77097-0.63638-0.63458 0.41002
  10   2  -3   43.60   10.29 272-0.00073 0.73237 0.77134-0.50082-0.63415 0.47031
  10   4   0   -5.56   12.53 272-0.00025 0.73662 0.77124-0.23127-0.63427 0.64547
  11   3  -3   18.24   11.99 272-0.00064 0.80896 0.77132-0.36577-0.63417 0.47075
 -10   1  -7   14.08   11.09 273-0.00609-0.73650 0.77248-0.63860-0.63294 0.21063
 -10   2  -3   10.67   11.18 272-0.00528-0.73289 0.77231-0.50245-0.63314 0.44651
 -10   3  -1   11.88   10.76 273-0.00863-0.73030 0.77301-0.36736-0.63229 0.56410
  -9   1  -4    6.84   10.38 273-0.00896-0.65770 0.77308-0.63891-0.63220 0.38761
  -9   5   2    1.77   12.76 273-0.00867-0.65217 0.77302-0.09674-0.63228 0.74186
  -8   5   3    9.70   12.00 273-0.00881-0.57739 0.77305-0.09666-0.63224 0.80181
  -7   1  -1   36.58    7.66 272-0.00481-0.51128 0.77220-0.63784-0.63326 0.56666
  -6   0  -3  150.94    9.31 272-0.00532-0.43879 0.77231-0.77303-0.63313 0.44956
  -6   1   0   12.78    7.23 272-0.00521-0.43643 0.77229-0.63717-0.63316 0.62702
  -5   5   5    0.41   10.78 273-0.00812-0.35610 0.77291-0.09604-0.63242 0.92385
  -2   5   6    4.34   12.09 274-0.01378-0.12850 0.77409-0.09637-0.63096 0.98474
   2   5   6   56.81   30.17 282-0.08078 0.23277 0.78596-0.11011-0.61196 0.96932
   5  -1 -14    9.37   12.82 273-0.01131 0.36696 0.77358-0.91071-0.63160-0.18642
   6   3   3  102.73   11.32 274-0.01520 0.45858 0.77438-0.36807-0.63059 0.81454
   8   0  -7   52.69   10.17 273-0.01069 0.59317 0.77345-0.77362-0.63176 0.22928
  10   1  -7    2.15   10.51 273-0.00812 0.73678 0.77291-0.63834-0.63242 0.23182
  11   2  -6    2.96   12.12 274-0.01273 0.81673 0.77387-0.50424-0.63123 0.29108
 -11   2  -5    2.18   10.98 274-0.02008-0.79405 0.77548-0.50584-0.62927 0.32387
  -9   2  -1   25.24   10.37 274-0.01676-0.64566 0.77480-0.50483-0.63014 0.56197
  -8   1  -2   31.92    9.06 274-0.02004-0.57066 0.77547-0.64041-0.62928 0.50379
  -6   2   2  194.52    8.37 273-0.01252-0.42780 0.77393-0.50374-0.63125 0.74273
   2   1   2  872.55   22.67 275-0.02732 0.17736 0.77691-0.64082-0.62733 0.74781
   3  -1  -5   57.11    8.48 274-0.02002 0.23718 0.77546-0.91136-0.62928 0.33754
   4  -1  -6  104.37    8.72 274-0.01482 0.30444 0.77441-0.91062-0.63065 0.28160
   5  -1  -8    1.89    9.26 274-0.01778 0.37876 0.77501-0.91135-0.62987 0.16450
   7   4   3   38.49   12.97 275-0.02722 0.54382 0.77689-0.23566-0.62736 0.81281
   9   3   0   23.66   10.60 274-0.01904 0.68190 0.77527-0.36942-0.62954 0.64040
   9   4   1   55.38   13.12 275-0.02303 0.68470 0.77606-0.23586-0.62848 0.69908
 -10   1  -6   12.22   10.57 275-0.02519-0.71484 0.77660-0.64216-0.62796 0.26492
  -8   0  -6   29.58   10.22 275-0.02859-0.56470 0.77726-0.77783-0.62705 0.26583
  -7   0  -4  225.62   10.05 275-0.02866-0.48989 0.77727-0.77792-0.62703 0.38452
  -7   5   4    9.01   11.78 275-0.02528-0.48874 0.77661-0.09842-0.62794 0.85936
  -5  -1  -7  121.97   12.44 275-0.02950-0.34472 0.77743-0.91337-0.62680 0.20950
  -5   3   4  209.45   10.54 275-0.02508-0.33941 0.77657-0.37066-0.62799 0.85859
  -3   6   6    2.05   14.26 275-0.02593-0.18949 0.77674 0.03496-0.62776 0.97845
  -2   3   5  182.58   11.22 276-0.03108-0.11107 0.77774-0.37137-0.62637 0.91921
   4  -1 -15    7.88   14.30 276-0.03216 0.31345 0.77794-0.91485-0.62608-0.25199
   5  -1 -13    5.18   10.99 275-0.02623 0.38303 0.77680-0.91374-0.62768-0.13182
   7   0  -5   31.29    7.20 275-0.02184 0.53242 0.77593-0.77675-0.62886 0.34231
   8   0  -8    8.52   10.05 275-0.02689 0.60836 0.77693-0.77760-0.62751 0.16575
   8   4   2    7.71   12.65 275-0.03009 0.62205 0.77755-0.23569-0.62664 0.75514
  10   1  -8    9.99    9.48 274-0.02082 0.75001 0.77573-0.64166-0.62913 0.16974
 -11   3  -2   38.38   12.35 276-0.03441-0.77561 0.77827-0.37295-0.62557 0.49669
  -9   3   1    7.07   10.22 276-0.03349-0.62581 0.77809-0.37260-0.62583 0.67489
  -9   4   2   51.81   12.01 276-0.03550-0.62431 0.77847-0.23815-0.62527 0.73401
  -8   3   2   15.14   10.33 276-0.03414-0.55352 0.77822-0.37210-0.62564 0.73584
  -5   1   1  281.82    8.82 275-0.02792-0.33958 0.77703-0.64105-0.62734 0.68158
  -4   0  -1   20.56    7.65 276-0.02945-0.26659 0.77732-0.77513-0.62693 0.56688
  -3   5   6    2.77   12.56 276-0.03282-0.18177 0.77797-0.10286-0.62601 0.97488
  -2  -1  -4  324.49   22.42 278-0.05403-0.09754 0.78181-0.91724-0.62005 0.38249
  -1   2   4  648.38   15.84 277-0.03959-0.02962 0.77924-0.50759-0.62414 0.85933
   0   2   4   55.49   13.26 278-0.04522 0.04970 0.78026-0.50885-0.62256 0.85885
   1  -1  -4  751.41   16.06 276-0.03477 0.10422 0.77834-0.91438-0.62547 0.39055
   3  -1 -16    6.82   14.44 278-0.04484 0.25030 0.78019-0.91595-0.62267-0.31214
   5  -1 -12   -6.25   10.65 276-0.03446 0.39304 0.77828-0.91600-0.62556-0.07712
   5  -1  -9   35.54    9.29 276-0.03281 0.39298 0.77797-0.91433-0.62601 0.10184
   7   3   2   45.28   10.79 277-0.03962 0.55572 0.77924-0.37425-0.62413 0.74969
   8   0 -13   -4.99   12.94 277-0.03776 0.61177 0.77890-0.77940-0.62465-0.12819
   8   1  -3   19.28    8.89 276-0.03148 0.61838 0.77771-0.64367-0.62637 0.45859
   8   3   1   12.00    9.44 277-0.03683 0.62621 0.77872-0.37291-0.62491 0.69308
   9   1  -5   10.99    7.90 276-0.03080 0.68910 0.77758-0.64319-0.62656 0.34265
   9   2  -2  121.60   11.23 276-0.03386 0.69441 0.77817-0.50886-0.62572 0.51791
  10   1 -10   -2.16   12.34 277-0.03776 0.76371 0.77890-0.64451-0.62465 0.04781
  10   1  -9    3.41    9.95 276-0.03034 0.75918 0.77749-0.64351-0.62668 0.10790
  10   2  -4  108.59   12.64 276-0.03482 0.76710 0.77835-0.50885-0.62546 0.40094
  11   2  -7  -15.06   11.39 276-0.02951 0.83391 0.77733-0.50799-0.62691 0.22708
  11   3  -4   -9.51   11.76 276-0.03391 0.84164 0.77818-0.37301-0.62571 0.40220
 -10   2  -2   40.28   11.04 277-0.04322-0.69457 0.77988-0.50973-0.62314 0.49604
 -10   4   1    0.19   12.08 276-0.03800-0.69114 0.77892-0.23968-0.62460 0.67093
  -9   0 -11   -2.26   15.52 278-0.04880-0.62281 0.78087-0.78189-0.62156-0.03508
  -9   0 -10    3.11   13.38 277-0.04563-0.62378 0.78031-0.78064-0.62246 0.02528
  -8   4   3   37.87   11.32 277-0.03970-0.54754 0.77924-0.23731-0.62412 0.79366
  -7   3   3   24.51    9.87 277-0.04396-0.46741 0.78001-0.37437-0.62293 0.79294
  -6  -1 -11   20.15   15.29 278-0.05518-0.39546 0.78198-0.91805-0.61973-0.03381
  -6   6   5   -7.01   13.00 277-0.04242-0.39469 0.77973 0.03101-0.62336 0.91245
  -5   4   5   70.66   10.76 277-0.04574-0.31679 0.78033-0.23914-0.62243 0.91249
  -3   1   2  216.39    8.72 277-0.03774-0.18071 0.77887-0.64233-0.62467 0.74051
  -1   0   0    5.98   10.35 276-0.03774-0.03483 0.77887-0.77874-0.62467 0.62392
   4   3   4    7.14   12.83 279-0.05989 0.35769 0.78277-0.37656-0.61836 0.85885
   5  -1 -11    7.70    9.98 277-0.04096 0.39964 0.77947-0.91648-0.62377-0.01826
   5  -1 -10   32.45    9.12 277-0.03911 0.39913 0.77913-0.91619-0.62429 0.04141
   8   0 -12    5.52   11.50 277-0.04011 0.61900 0.77931-0.78135-0.62401-0.07339
   8   0 -11    7.93   11.33 277-0.04493 0.62372 0.78019-0.78143-0.62266-0.01559
   8   0 -10    8.18   11.08 277-0.04366 0.62357 0.77996-0.78105-0.62302 0.04332
   8   0  -9   -2.56    8.50 277-0.03733 0.61872 0.77880-0.77980-0.62478 0.10356
  10   3  -2   14.91   12.06 277-0.04251 0.77658 0.77975-0.37430-0.62334 0.51736
  11   2  -8   -0.08   12.68 277-0.04214 0.84652 0.77968-0.51005-0.62344 0.16424
 -11   2  -4   -8.91   10.83 278-0.04592-0.76703 0.78042-0.51103-0.62222 0.37513
 -10   1  -5   17.51    9.91 278-0.05059-0.68869 0.78124-0.64640-0.62090 0.31637
 -10   3   0   -2.65   10.34 278-0.04991-0.68681 0.78112-0.37534-0.62109 0.61119
  -9   0 -12    2.34   16.50 278-0.05246-0.61813 0.78156-0.78158-0.62036-0.09407
  -9   0  -9    1.58   12.73 277-0.04736-0.61852 0.78067-0.77982-0.62182 0.08458
  -9   1  -3   14.38    8.61 277-0.04582-0.61927 0.78040-0.64539-0.62225 0.43622
  -6  -1 -10   11.15   14.02 278-0.05466-0.39526 0.78194-0.91792-0.61973 0.02458
  -6   5   5    4.88   11.93 278-0.05087-0.38668 0.78129-0.10419-0.62082 0.91022
  -5   2   3   96.30    9.07 278-0.04798-0.31710 0.78078-0.50910-0.62164 0.79407
   3   0  -1  205.63    8.87 278-0.04734 0.26811 0.78067-0.78135-0.62182 0.56555
   4  -1 -14   12.26   12.93 278-0.05323 0.33605 0.78170-0.91972-0.62014-0.20050
   4  -1  -7   35.93    9.02 278-0.04984 0.33829 0.78111-0.91721-0.62111 0.21333
   4   1   1  279.24   10.54 278-0.04985 0.34592 0.78111-0.64587-0.62111 0.68404
   6   0  -4   91.85    8.73 278-0.05056 0.48866 0.78123-0.78266-0.62091 0.39091
   6   5   4   -0.16   14.05 281-0.07376 0.51716 0.78505-0.10995-0.61409 0.85608
   7   0  -6    7.99    8.50 278-0.05100 0.56180 0.78131-0.78247-0.62078 0.27512
  -7   4   4   28.04   10.50 279-0.05491-0.45725 0.78202-0.24025-0.61963 0.84888
  -6  -1 -12   11.84   17.57 281-0.07612-0.37564 0.78544-0.92214-0.61334-0.09950
  -6  -1  -9    2.98   13.17 281-0.07514-0.37556 0.78529-0.92292-0.61363 0.07611
  -4   6   6    6.32   14.78 280-0.06301-0.22721 0.78337 0.03042-0.61726 0.97003
  -3   3   5   32.41    9.97 279-0.06059-0.15581 0.78297-0.37660-0.61797 0.90985
  -2   2   4  172.69   10.08 279-0.05914-0.08434 0.78273-0.51103-0.61840 0.85281
  -1   4   6   14.38   12.05 280-0.06524-0.00327 0.78373-0.24212-0.61660 0.96948
   7   1  -2   89.99    9.28 279-0.06022 0.57354 0.78291-0.64823-0.61808 0.50768
   9   1  -6   36.21    9.51 279-0.05579 0.71305 0.78217-0.64826-0.61937 0.27616
   9   5   1    0.16   14.16 280-0.06462 0.72829 0.78363-0.10719-0.61679 0.68714
  10   4  -1  -10.10   11.88 279-0.05754 0.79214 0.78246-0.24290-0.61886 0.57089
  11   3  -5   18.21   12.11 280-0.06170 0.86707 0.78316-0.37822-0.61765 0.33610
 -11   1  -8   -1.70   13.99 281-0.07091-0.74509 0.78459-0.65102-0.61487 0.13121
  -9   0  -8    1.35   10.36 280-0.06823-0.60150 0.78417-0.78523-0.61567 0.13504
  -9   2   0   19.18    9.74 280-0.06705-0.59609 0.78398-0.51414-0.61602 0.60638
  -9   5   3    7.90   12.66 280-0.06517-0.59679 0.78368-0.10580-0.61657 0.78624
  -8   0  -5  262.66   10.79 280-0.06348-0.52917 0.78340-0.78406-0.61707 0.31410
  -8   2   1   10.90    7.61 279-0.06123-0.52726 0.78303-0.51222-0.61774 0.66866
  -4   5   6   14.04   11.68 280-0.06875-0.22068 0.78425-0.10736-0.61551 0.96578
  -2   4   6   33.06   11.66 281-0.07433-0.06807 0.78512-0.24356-0.61383 0.96574
   0   4   6   28.14   14.27 282-0.07933 0.08443 0.78588-0.24448-0.61231 0.96646
   2  -1 -16    8.41   14.79 281-0.07509 0.20860 0.78524-0.92211-0.61360-0.32543
   3  -1 -15    5.61   13.96 281-0.07299 0.28087 0.78492-0.92212-0.61424-0.26472
   6   6   4   -7.38   17.24 282-0.08363 0.52988 0.78652 0.02486-0.61099 0.85545
   8   2  -1    5.50    7.96 280-0.06276 0.65096 0.78328-0.51306-0.61729 0.56781
  10   2  -5    2.61    9.87 280-0.06246 0.79482 0.78324-0.51363-0.61737 0.33385
 -11   2  -3   13.29   12.04 281-0.07350-0.73653 0.78505-0.51491-0.61380 0.42632
 -11   3  -1   -0.33   11.53 280-0.07070-0.73928 0.78461-0.37859-0.61464 0.54498
  -8   1  -1   28.18    9.06 281-0.07200-0.51750 0.78482-0.64988-0.61425 0.54714
  -8   5   4    5.93   12.27 282-0.07581-0.51255 0.78541-0.10679-0.61310 0.84418
  -7   1   0   35.41    7.29 280-0.07012-0.44537 0.78452-0.65030-0.61482 0.60698
  -7   2   2   93.14    7.73 280-0.07008-0.44398 0.78452-0.51517-0.61483 0.72511
  -6   0  -2  566.91   11.75 281-0.07517-0.36752 0.78531-0.78591-0.61329 0.48955
  -6   3   4   32.52    9.07 281-0.07287-0.36521 0.78495-0.37888-0.61399 0.84385
  -4  -1  -5    2.35   10.07 281-0.07783-0.22072 0.78571-0.92149-0.61248 0.31360
  -2   0   0 2088.99   25.34 281-0.07368-0.07385 0.78508-0.78431-0.61374 0.61254
   0  -1  -4  139.98   14.66 283-0.09112 0.08746 0.78764-0.92317-0.60836 0.37290
   2  -1  -5  606.93   12.95 281-0.07718 0.22067 0.78561-0.92158-0.61268 0.31996
   3  -1  -6   37.68    8.23 281-0.07203 0.28860 0.78482-0.92054-0.61424 0.26492
   4  -1 -13    9.14   10.57 281-0.07604 0.35856 0.78544-0.92161-0.61303-0.14632
   4  -1  -8   50.73    8.98 281-0.07339 0.36194 0.78503-0.92092-0.61383 0.14747
   4   0  -2 1318.49   15.45 281-0.07625 0.36875 0.78547-0.78566-0.61296 0.49984
   5   0  -3  161.69    7.88 281-0.07070 0.43633 0.78461-0.78491-0.61464 0.44402
   5   2   2   35.39   10.08 281-0.07827 0.44706 0.78578-0.51516-0.61235 0.73620
   6   1  -1  109.42    9.17 281-0.07782 0.51829 0.78571-0.65039-0.61248 0.56095
   7   0 -14    8.57   12.87 281-0.07415 0.57864 0.78515-0.78806-0.61360-0.20432
   7   0  -7   -1.55    9.78 281-0.07399 0.58355 0.78513-0.78642-0.61365 0.20899
   8   1  -4   59.85    7.94 281-0.07140 0.65665 0.78473-0.65081-0.61443 0.38886
   9   1  -7    7.49    9.63 281-0.07625 0.73135 0.78547-0.65125-0.61296 0.21147
   9   2  -3    0.48    9.90 282-0.07865 0.73731 0.78583-0.51560-0.61223 0.44575
   9   3  -1    4.84   10.37 281-0.07554 0.73959 0.78536-0.37934-0.61318 0.56558
 -11   1  -7   10.37   12.08 282-0.08562-0.73073 0.78679-0.65291-0.61009 0.18689
 -10   1  -4   19.33   10.14 282-0.08185-0.65829 0.78624-0.65157-0.61126 0.36557
 -10   2  -1   30.41   10.65 282-0.08317-0.65376 0.78643-0.51640-0.61085 0.54216
  -9   0  -7    5.14   10.76 282-0.08174-0.58408 0.78622-0.78627-0.61130 0.19082
  -7   0  -3   62.82    8.91 282-0.08009-0.43720 0.78598-0.78643-0.61180 0.42769
  -6  -1  -8   68.27   12.71 283-0.09146-0.35659 0.78761-0.92384-0.60826 0.13125
  -5  -1  -6   -0.98    9.67 284-0.09533-0.27920 0.78815-0.92588-0.60704 0.24775
  -4   1   2   63.26    8.98 282-0.08372-0.20979 0.78651-0.65047-0.61069 0.72498
  -3   2   4   64.51    8.45 282-0.08602-0.13071 0.78685-0.51573-0.60997 0.84324
   4  -1 -12   12.39   10.15 283-0.08700 0.37106 0.78699-0.92375-0.60966-0.09243
   4  -1  -9   56.10   10.64 283-0.08749 0.37428 0.78706-0.92376-0.60951 0.08391
   5   1   0  438.42   10.37 282-0.07917 0.44743 0.78584-0.65067-0.61209 0.61796
   7   2   0   23.67    9.24 282-0.08437 0.59955 0.78661-0.51604-0.61048 0.61875
   7   5   3    5.52   14.02 283-0.09460 0.61085 0.78805-0.11263-0.60727 0.79201
   8   5   2   25.57   13.53 283-0.08960 0.67809 0.78735-0.11216-0.60885 0.73565
  10   2  -6    0.49   11.02 282-0.08355 0.81639 0.78649-0.51687-0.61074 0.26776
  10   3  -3   22.46   11.09 282-0.08216 0.81515 0.78629-0.38088-0.61117 0.44693
  11   3  -6    0.68   13.24 282-0.08273 0.88720 0.78637-0.38219-0.61099 0.27002
 -12   2  -5   -5.59   13.36 283-0.09182-0.79474 0.78765-0.51874-0.60821 0.30159
 -10   4   2    4.62   12.28 284-0.09458-0.64108 0.78803-0.24647-0.60734 0.71664
  -9   1  -2   38.65    9.65 283-0.08868-0.57592 0.78721-0.65183-0.60920 0.48281
  -9   3   2   14.96   10.26 283-0.09017-0.57068 0.78742-0.38114-0.60873 0.71778
  -9   4   3   67.92   12.04 283-0.09192-0.56640 0.78766-0.24725-0.60818 0.77708
  -7   5   5   -9.02   13.35 284-0.09620-0.41548 0.78825-0.11092-0.60682 0.89634
  -6   1   1  102.26    7.34 282-0.08544-0.35552 0.78675-0.65126-0.61021 0.66314
  -6   4   5   24.61   10.02 283-0.08825-0.34924 0.78715-0.24527-0.60933 0.89844
  -5   0  -1   32.06    8.53 283-0.09215-0.27594 0.78770-0.78710-0.60811 0.54513
  -5   6   6   -4.73   13.62 283-0.09155-0.27164 0.78761 0.02393-0.60830 0.95813
  -4   3   5   19.79    9.04 283-0.09291-0.19728 0.78780-0.38142-0.60787 0.89899
  -3   4   6    7.96   10.68 283-0.09335-0.12245 0.78786-0.24592-0.60773 0.95890
   4  -1 -11    3.18    9.67 284-0.09404 0.37888 0.78796-0.92476-0.60751-0.03581
   4  -1 -10  123.43   10.05 283-0.09411 0.38115 0.78797-0.92441-0.60749 0.02322
   6   0  -5    9.66    9.01 283-0.09015 0.52803 0.78742-0.78861-0.60874 0.32081
   6   2   1   23.15    9.17 283-0.09350 0.53544 0.78788-0.51793-0.60768 0.67342
   7   0 -13   24.34   12.06 283-0.08876 0.59353 0.78722-0.78994-0.60917-0.14870
   7   0  -8    1.47    9.87 283-0.08963 0.59857 0.78734-0.78910-0.60890 0.14546
   9   1  -8   18.70    9.09 283-0.08799 0.74421 0.78711-0.65362-0.60942 0.14758
   9   4   0   26.28   11.46 283-0.09303 0.75437 0.78782-0.24727-0.60783 0.61835
 -11   1  -6   32.62   12.09 285-0.10298-0.71213 0.78911-0.65496-0.60453 0.24011
 -10   3   1    2.29    9.05 284-0.09573-0.63943 0.78815-0.38276-0.60686 0.65622
  -8   0  -4  207.36   11.15 284-0.10301-0.48800 0.78911-0.79031-0.60452 0.36075
  -8   3   3    9.50   10.08 284-0.09736-0.48923 0.78837-0.38208-0.60634 0.77561
  -6  -1 -13    2.71   19.62 288-0.13100-0.32241 0.79237-0.93104-0.59518-0.17822
  -6   2   3   71.42    9.03 284-0.09656-0.34253 0.78826-0.51802-0.60660 0.77709
  -5   5   6   -1.13   11.62 285-0.10394-0.25963 0.78923-0.11182-0.60422 0.95500
   1  -1 -16    2.59   14.93 285-0.10691 0.16689 0.78961-0.92678-0.60326-0.33701
   3  -1 -14   -0.07   11.56 284-0.10007 0.30894 0.78873-0.92604-0.60547-0.21542
   7   0 -12    9.38   10.86 284-0.09725 0.60337 0.78836-0.79139-0.60638-0.09271
   7   0  -9   50.80   11.11 284-0.10052 0.60871 0.78879-0.78970-0.60533 0.08368
   9   1 -12   10.17   13.55 284-0.09661 0.74904 0.78827-0.65528-0.60658-0.08968
   9   1 -11   -7.94   12.69 284-0.09970 0.75440 0.78868-0.65518-0.60559-0.03315
   9   1 -10    4.09   11.73 284-0.09810 0.75485 0.78847-0.65578-0.60610 0.02631
   9   1  -9    9.51   10.78 283-0.09614 0.75173 0.78821-0.65494-0.60673 0.08697
  10   2  -7    1.96   11.70 284-0.09914 0.83209 0.78861-0.51961-0.60577 0.20471
  10   4  -2   11.60   12.36 284-0.10081 0.83642 0.78883-0.24811-0.60524 0.50005
 -11   2  -2    9.61   11.11 286-0.11059-0.70240 0.78998-0.52034-0.60209 0.47421
  -9   0  -6   -1.25    9.63 285-0.10962-0.55821 0.78987-0.79112-0.60240 0.23994
  -8   4   4   32.54   11.64 285-0.10429-0.48129 0.78920-0.24732-0.60415 0.83333
   2  -1 -15    1.71   13.26 284-0.10489 0.24010 0.78927-0.92958-0.60395-0.27909
   3  -1  -7  194.39    9.88 285-0.10991 0.32530 0.78990-0.92592-0.60231 0.19347
   5   4   4   66.59   13.83 287-0.12088 0.49055 0.79119-0.25004-0.59866 0.84080
   7   0 -11    6.35    9.40 284-0.10332 0.60977 0.78907-0.79139-0.60446-0.03591
   7   0 -10   43.95    9.16 285-0.10408 0.61102 0.78917-0.79136-0.60421 0.02303
   8   1  -5   55.47    8.39 285-0.10408 0.68778 0.78917-0.65600-0.60421 0.31827
   8   3   0    4.49    8.76 286-0.11085 0.69932 0.79001-0.38430-0.60200 0.61125
 -12   2  -4  -13.60   13.34 286-0.11581-0.77097 0.79060-0.52162-0.60034 0.35266
 -11   3   0   10.13   10.07 285-0.11128-0.69901 0.79006-0.38442-0.60184 0.59172
 -10   1  -3   14.97   10.63 286-0.11523-0.62382 0.79054-0.65592-0.60054 0.41392
  -6  -1  -7   44.35   12.33 287-0.12394-0.32279 0.79153-0.92788-0.59761 0.17900
  -4   2   4   51.47    9.03 286-0.11628-0.17481 0.79066-0.52057-0.60019 0.83148
  -4   4   6    6.65   10.68 287-0.12114-0.16896 0.79122-0.24863-0.59856 0.95044
  -3   0   0    5.97    7.74 285-0.11114-0.11005 0.79005-0.79014-0.60189 0.59881
   3  -1 -13    2.64   10.78 286-0.11950 0.32985 0.79103-0.92942-0.59911-0.16379
   7   1  -3   14.35    7.34 286-0.11146 0.62376 0.79009-0.65523-0.60178 0.43293
   8   2  -2    4.36    9.13 286-0.11658 0.70387 0.79069-0.52060-0.60009 0.49163
   8   4   1    9.88   11.28 287-0.12240 0.71074 0.79136-0.25080-0.59813 0.66650
   9   2  -4   29.64    9.04 286-0.11179 0.77057 0.79013-0.52068-0.60168 0.37691
  10   2  -8   19.32   11.41 286-0.11409 0.84307 0.79040-0.52154-0.60092 0.14176
  10   3  -4   14.15   11.09 286-0.11403 0.84665 0.79039-0.38572-0.60093 0.37746
 -11   1  -5    9.64   12.13 287-0.12307-0.69005 0.79139-0.65654-0.59784 0.29241
  -9   2   1   15.60    8.14 286-0.11933-0.54290 0.79097-0.52030-0.59910 0.64963
  -8   2   2    5.29    9.16 287-0.12318-0.46436 0.79140-0.52050-0.59781 0.70810
  -7   3   4   16.48    8.51 286-0.11918-0.39279 0.79095-0.38443-0.59915 0.82844
  -5   3   5  117.52    9.81 287-0.12640-0.23753 0.79176-0.38634-0.59671 0.88647
  -3  -1  -4  916.67   21.34 288-0.13092-0.09332 0.79224-0.92787-0.59517 0.35655
   0  -1 -16    4.33   16.12 288-0.12983 0.11651 0.79212-0.93099-0.59554-0.34740
   5   0  -4   53.01    8.56 287-0.12581 0.49086 0.79169-0.79239-0.59691 0.36658
   6   0  -6   79.68    7.77 287-0.12057 0.55779 0.79111-0.79235-0.59869 0.25252
   9   3  -2   16.59   10.05 287-0.12343 0.78720 0.79143-0.38568-0.59772 0.49112
  10   2 -10    4.72   12.18 288-0.12802 0.85269 0.79193-0.52242-0.59616 0.01978
  10   2  -9   13.42   10.07 287-0.12059 0.84976 0.79111-0.52260-0.59868 0.08025
 -12   3  -1   10.32   12.62 288-0.13185-0.75005 0.79231-0.38711-0.59478 0.52427
 -10   0 -10   17.04   15.38 288-0.13698-0.60725 0.79283-0.79452-0.59300-0.00587
 -10   2   0   65.32    9.03 287-0.12728-0.60825 0.79183-0.52339-0.59635 0.58630
  -9   1  -1   60.02   10.06 288-0.13432-0.52863 0.79256-0.65798-0.59393 0.52654
  -8   1   0   40.88    7.72 287-0.12840-0.46083 0.79195-0.65692-0.59597 0.58792
  -7   4   5   48.72   10.28 288-0.13061-0.38003 0.79218-0.25033-0.59521 0.88413
  -6   5   6   -4.54   12.34 290-0.14380-0.29565 0.79348-0.11338-0.59061 0.94387
  -5   1   2   10.01    7.01 287-0.12676-0.24002 0.79177-0.65618-0.59653 0.70971
   1   4   6   45.86   18.47 292-0.16539 0.24331 0.79527-0.25399-0.58280 0.93858
   3  -1 -12    9.54   11.57 289-0.13772 0.34864 0.79290-0.93043-0.59274-0.11098
   3  -1  -8  164.99   10.03 288-0.13403 0.34901 0.79253-0.92883-0.59403 0.12598
   4   5   5   20.75   19.22 293-0.17275 0.47077 0.79579-0.11920-0.58005 0.88033
   5   3   3   53.90   10.45 289-0.13712 0.50689 0.79284-0.38693-0.59295 0.77605
   6   0 -14    8.79   12.57 288-0.13210 0.56207 0.79234-0.79496-0.59470-0.22294
   7   3   1   46.20    8.95 288-0.13437 0.65030 0.79257-0.38669-0.59391 0.66169
   7   4   2    8.68   11.37 289-0.13759 0.65578 0.79289-0.25108-0.59279 0.72032
   8   1  -6   54.75    7.88 288-0.12841 0.71258 0.79195-0.65780-0.59596 0.25170
   9   5   0   -0.68   12.81 287-0.12800 0.79303 0.79191-0.11530-0.59610 0.60894
 -12   2  -3   16.92   13.19 289-0.14349-0.74373 0.79336-0.52395-0.59073 0.40296
 -10   0  -9   13.12   12.80 288-0.13675-0.60536 0.79271-0.79341-0.59310 0.05346
  -9   0  -5   -1.28    9.50 289-0.13915-0.52898 0.79295-0.79447-0.59226 0.28829
  -8   5   5    3.70   12.51 290-0.14248-0.44483 0.79326-0.11417-0.59109 0.88158
  -7   0  -2   83.34    9.26 288-0.13692-0.37928 0.79273-0.79316-0.59304 0.46842
  -7   1   1  269.26    8.76 289-0.13721-0.37663 0.79276-0.65772-0.59294 0.64474
  -2  -1 -16   -1.46   20.23 292-0.16469 0.00440 0.79513-0.93370-0.58307-0.36122
  -1  -1 -16    5.35   17.76 292-0.16101 0.07442 0.79485-0.93210-0.58442-0.35665
   1  -1 -15    2.18   14.82 290-0.14885 0.21017 0.79384-0.93261-0.58882-0.29356
   2  -1 -14   11.25   13.35 290-0.14564 0.28116 0.79355-0.93113-0.58997-0.23139
   2  -1  -6    4.72    8.82 289-0.13960 0.28164 0.79299-0.92892-0.59210 0.24086
   3   2   3  197.63   14.56 291-0.15439 0.37762 0.79432-0.52339-0.58683 0.76718
   6   3   2   47.58    9.58 290-0.14777 0.59083 0.79375-0.38819-0.58921 0.71407
   6   4   3    1.05   10.71 290-0.14830 0.59178 0.79379-0.25240-0.58902 0.77287
   9   2  -5   33.26    9.88 289-0.14010 0.79786 0.79304-0.52343-0.59193 0.30815
  10   3  -5    7.70   11.47 289-0.13855 0.87163 0.79289-0.38814-0.59247 0.30999
  10   4  -3   14.79   11.89 289-0.13835 0.87310 0.79287-0.25234-0.59254 0.42839
 -11   1  -4   23.21   10.82 290-0.14989-0.66309 0.79394-0.65971-0.58859 0.34254
 -11   2  -1    6.28    9.59 290-0.14519-0.66560 0.79352-0.52341-0.59027 0.52115
 -10   0  -8    4.45   12.13 289-0.14632-0.59544 0.79363-0.79452-0.58987 0.10903
 -10   3   2   14.18    9.29 290-0.14503-0.58960 0.79351-0.38751-0.59032 0.69924
 -10   4   3  -11.21   10.90 290-0.14438-0.58896 0.79345-0.25248-0.59056 0.75870
  -9   3   3    3.35   11.29 291-0.15168-0.51069 0.79410-0.38806-0.58795 0.75884
  -8   0  -3  126.77   10.01 290-0.14599-0.44445 0.79360-0.79424-0.58999 0.40568
  -7  -1 -10   -3.22   13.79 293-0.17163-0.35433 0.79563-0.93514-0.58062-0.01738
  -7   2   3   27.09    7.51 289-0.14385-0.36916 0.79340-0.52308-0.59074 0.76134
  -6   0  -1  186.22    9.96 290-0.14700-0.29479 0.79369-0.79367-0.58962 0.52550
  -5  -1  -5  321.56   13.27 290-0.15235-0.21954 0.79416-0.93002-0.58771 0.28874
  -5   2   4  128.13    9.61 290-0.14937-0.21464 0.79390-0.52298-0.58878 0.82014
  -5   4   6   -2.92   10.58 290-0.14805-0.21492 0.79378-0.25235-0.58925 0.93958
  -4   0   0  178.40   10.00 290-0.14714-0.14697 0.79370-0.79308-0.58957 0.58647
  -3   6   7   -5.10   14.99 291-0.15704-0.05799 0.79454 0.01862-0.58601 0.99730
  -2   6   7   -0.73   15.48 291-0.15603 0.01464 0.79446 0.01794-0.58638 0.99989
   1  -1  -5  925.72   16.66 290-0.14930 0.21871 0.79389-0.93003-0.58880 0.29512
   2   0  -1 3976.04   31.95 290-0.15072 0.29743 0.79402-0.79444-0.58829 0.53089
   3  -1 -11   53.34    9.74 290-0.14870 0.36075 0.79384-0.93083-0.58902-0.05534
   3  -1 -10   23.19   10.05 290-0.15183 0.36445 0.79411-0.93116-0.58789 0.00188
   3  -1  -9   21.50    9.23 290-0.14769 0.36152 0.79375-0.93031-0.58938 0.06277
   6   0 -13   -2.81   12.72 289-0.14438 0.57708 0.79345-0.79756-0.59056-0.16984
   6   0  -7   -6.73    7.91 290-0.14397 0.58023 0.79341-0.79447-0.59070 0.18420
   6   1  -2   12.30    6.96 290-0.14463 0.58485 0.79347-0.65854-0.59047 0.47930
   8   1 -13    2.21   12.29 290-0.15090 0.72921 0.79403-0.66108-0.58823-0.16827
   8   1  -7    5.00    9.23 290-0.14758 0.72986 0.79374-0.65974-0.58942 0.18641
   9   4  -1   11.57   10.40 290-0.14737 0.80848 0.79372-0.25327-0.58949 0.54145
 -11   3   1    8.23   10.34 290-0.15162-0.65661 0.79405-0.38821-0.58789 0.63642
 -10   1  -2   57.78    8.86 290-0.15178-0.58474 0.79407-0.66006-0.58783 0.46151
  -9   4   4   -3.78   10.51 291-0.15223-0.50706 0.79411-0.25302-0.58767 0.81614
  -7  -1 -11    7.94   14.14 293-0.17280-0.35198 0.79566-0.93363-0.58010-0.07559
  -7  -1  -9    5.83   11.83 291-0.16248-0.35968 0.79493-0.93152-0.58393 0.04707
  -1   6   7    0.16   16.21 294-0.17850 0.11076 0.79603 0.01894-0.57794 0.99514
   1   2   4  342.08   33.47 301-0.23675 0.31385 0.79803-0.52677-0.55453 0.79228
   4   0  -3   37.36    6.99 291-0.15380 0.44635 0.79424-0.79499-0.58710 0.41395
   6   0 -12    2.30   10.07 292-0.16017 0.59196 0.79475-0.79678-0.58478-0.11524
   6   0  -8   24.50    8.97 291-0.15811 0.59398 0.79459-0.79613-0.58553 0.12015
   7   1  -4   75.48    7.49 290-0.15202 0.66310 0.79409-0.65996-0.58774 0.35967
   7   2  -1   31.13    7.50 291-0.15262 0.66654 0.79414-0.52386-0.58752 0.53745
   8   1  -8   53.33   10.00 291-0.15955 0.74164 0.79470-0.66082-0.58501 0.12222
  10   3  -6   17.02   12.56 291-0.15726 0.89090 0.79452-0.38964-0.58584 0.24385
 -10   0  -7   43.02   10.79 291-0.16113-0.57984 0.79486-0.79611-0.58448 0.16314
  -8   3   4    7.41   10.82 292-0.16248-0.42241 0.79497-0.38860-0.58398 0.81186
  -6  -1 -14    1.49   28.73 297-0.20577-0.24604 0.79739-0.93499-0.56736-0.26197
  -6  -1  -6   29.62    9.86 292-0.16399-0.28224 0.79508-0.93110-0.58342 0.22437
  -6   3   5  215.97   10.54 291-0.16093-0.27648 0.79485-0.38922-0.58455 0.87360
  -4   6   7   -3.27   15.54 293-0.16950-0.11899 0.79547 0.01527-0.58138 0.99113
  -2   5   7    1.12   13.11 292-0.16893 0.02759 0.79543-0.11919-0.58159 0.99237
   2  -1 -13   19.54   12.04 293-0.17001 0.30716 0.79551-0.93363-0.58119-0.18303
   5   0 -15   10.08   12.96 292-0.16494 0.52177 0.79515-0.79844-0.58307-0.29578
   6   0 -11    1.85   10.29 292-0.16666 0.59978 0.79527-0.79746-0.58244-0.05907
   6   0  -9   -2.12    9.67 292-0.16530 0.60136 0.79518-0.79718-0.58294 0.05772
   8   1 -12   12.67   11.74 292-0.16117 0.74000 0.79487-0.66154-0.58446-0.11307
   8   1 -11   21.14   11.69 292-0.16663 0.74671 0.79527-0.66190-0.58245-0.05657
   8   1  -9    7.78   10.47 292-0.16332 0.74763 0.79503-0.66186-0.58367 0.06108
   8   2  -3   19.54    7.85 292-0.16021 0.74657 0.79479-0.52479-0.58481 0.41709
   8   5   1   26.48   12.54 292-0.16854 0.75827 0.79541-0.11911-0.58174 0.65072
   9   2  -6   24.89    9.24 291-0.16048 0.81845 0.79481-0.52544-0.58472 0.24148
   9   3  -3   -2.93   10.19 292-0.16503 0.82657 0.79516-0.38978-0.58304 0.41573
 -12   1  -6    7.93   12.78 293-0.17173-0.71433 0.79556-0.66163-0.58053 0.21662
 -12   2  -2    7.46   12.67 292-0.16985-0.71379 0.79543-0.52518-0.58123 0.45220
 -10   2   1    5.85   10.60 292-0.17095-0.56196 0.79550-0.52511-0.58082 0.62990
  -9   0  -4   18.73    9.51 292-0.16893-0.49636 0.79536-0.79587-0.58157 0.33761
  -9   2   2  125.73   10.18 293-0.17376-0.48666 0.79569-0.52789-0.57977 0.68782
  -8   4   5    5.52   11.67 293-0.17282-0.41229 0.79563-0.25394-0.58012 0.86856
  -7  -1  -8   75.69   11.42 293-0.17620-0.34420 0.79585-0.93265-0.57885 0.10098
  -7   5   6   -2.90   12.77 293-0.17283-0.33764 0.79563-0.11918-0.58012 0.92873
  -6   1   2    8.08    6.83 292-0.16796-0.27245 0.79530-0.65986-0.58194 0.69439
  -4  -1  -4  307.28   14.02 294-0.17897-0.11824 0.79602-0.93185-0.57779 0.33835
  -3   5   7   -1.22   12.91 294-0.17614-0.03917 0.79584-0.11873-0.57887 0.99114
   2  -1  -7  120.01   10.64 294-0.17862 0.32113 0.79600-0.93225-0.57793 0.16748
   3   0  -2  280.64    9.57 293-0.16922 0.38860 0.79538-0.79573-0.58147 0.46685
   3   1   1 1935.44   22.18 293-0.17200 0.39398 0.79557-0.65989-0.58043 0.64266
   5   0  -5   25.34    7.31 293-0.16825 0.53177 0.79532-0.79613-0.58183 0.29284
   5   1  -1  293.73   10.13 293-0.17239 0.53894 0.79560-0.66056-0.58028 0.52744
   6   0 -10   16.18   10.16 293-0.17246 0.60452 0.79560-0.79645-0.58026-0.00091
   8   1 -10    2.21   10.05 293-0.16843 0.74969 0.79533-0.66161-0.58176 0.00099
   8   3  -1   44.38    9.79 293-0.17052 0.75720 0.79547-0.39040-0.58098 0.53226
  10   3  -7   10.77   12.73 293-0.17511 0.90475 0.79578-0.39127-0.57926 0.17860
  10   4  -4    4.62   12.71 293-0.16976 0.90267 0.79542-0.25524-0.58127 0.35743
 -11   1  -3   15.81   11.12 294-0.17876-0.63358 0.79588-0.66141-0.57779 0.39087
 -10   0  -6   52.60   11.91 294-0.18040-0.56042 0.79598-0.79738-0.57716 0.21410
  -9   1   0   86.10    9.57 294-0.18209-0.48013 0.79608-0.66155-0.57652 0.56739
  -7  -1 -12   10.45   16.54 295-0.19049-0.33339 0.79653-0.93363-0.57328-0.13958
  -6   2   4  101.04    9.46 294-0.18317-0.25539 0.79614-0.52571-0.57610 0.80610
  -6   4   6    5.58   10.63 294-0.18124-0.25720 0.79603-0.25304-0.57684 0.92825
  -4   5   7    8.97   12.45 294-0.18365-0.10478 0.79617-0.11956-0.57592 0.98537
  -1  -1  -4  157.03   26.59 303-0.24909 0.17195 0.79788-0.93370-0.54917 0.31273
  -1   5   7    9.43   13.68 296-0.19477 0.12676 0.79674-0.11892-0.57160 0.98592
   0  -1 -15   11.81   14.37 295-0.19090 0.17922 0.79655-0.93426-0.57312-0.30913
   1  -1 -14    4.39   13.59 295-0.18719 0.25014 0.79636-0.93535-0.57456-0.24990
   4   6   5    2.77   21.96 298-0.21480 0.51309 0.79748 0.01452-0.56359 0.86496
   6   2   0  111.96    9.19 294-0.18409 0.62558 0.79619-0.52564-0.57575 0.58262
   7   1  -5  169.84    9.02 294-0.18312 0.69432 0.79614-0.66177-0.57612 0.28907
   9   2  -7   -2.40    9.01 294-0.17629 0.83355 0.79573-0.52644-0.57872 0.17579
   9   5  -1    2.32   13.56 296-0.19046 0.84892 0.79653-0.12238-0.57329 0.52481
  10   3  -8    3.31   13.20 294-0.18156 0.91402 0.79605-0.39156-0.57672 0.11573
 -12   1  -5    5.60   12.63 294-0.18619-0.69558 0.79645-0.66147-0.57476 0.27011
 -11   2   0    8.50    9.59 294-0.18401-0.62556 0.79633-0.52639-0.57560 0.56615
 -10   1  -1   44.31   10.39 295-0.19174-0.54464 0.79673-0.66276-0.57261 0.50492
  -8   1   1  290.83    9.70 295-0.18647-0.40150 0.79646-0.66165-0.57465 0.62593
  -8   2   3   29.49    9.19 295-0.18649-0.39919 0.79647-0.52605-0.57465 0.74400
  -5   0   0   36.06    7.43 294-0.18422-0.18367 0.79634-0.79645-0.57552 0.57108
  -3   1   3  962.57   14.67 295-0.19123-0.02705 0.79671-0.66060-0.57281 0.74754
   2  -1 -12   17.68   11.26 296-0.19404 0.33156 0.79684-0.93373-0.57171-0.13222
   4   1   0  529.73   12.08 295-0.18735 0.48238 0.79651-0.66115-0.57432 0.57820
   5   0 -14   -0.99   12.70 295-0.18881 0.54604 0.79659-0.79899-0.57375-0.24624
   8   4   0   29.83   10.79 295-0.18874 0.77770 0.79658-0.25520-0.57378 0.58354
   9   2 -11   -0.27   13.06 295-0.18857 0.84549 0.79657-0.52813-0.57384-0.06552
   9   2  -8   14.17   10.74 295-0.18656 0.84283 0.79647-0.52736-0.57462 0.11356
   9   4  -2   36.43   11.77 295-0.19150 0.85263 0.79672-0.25590-0.57270 0.46549
 -11   3   2   -2.83   11.57 296-0.19722-0.60999 0.79699-0.39235-0.57064 0.67913
 -10   3   3   23.31   11.71 296-0.19587-0.53723 0.79693-0.39104-0.57117 0.73892
 -10   4   4    1.58   13.13 296-0.19749-0.53402 0.79701-0.25684-0.57054 0.79758
  -8   0  -2   17.25    7.96 295-0.19306-0.39719 0.79680-0.79731-0.57228 0.44674
  -7  -1  -7  160.56   12.50 296-0.19842-0.32192 0.79705-0.93348-0.57017 0.15133
  -7   0  -1   13.68    9.29 296-0.19716-0.31821 0.79699-0.79772-0.57067 0.50548
  -7   3   5   46.80   10.86 296-0.19617-0.31480 0.79695-0.39131-0.57106 0.85923
  -2   1   3  635.57   13.67 296-0.19415 0.04966 0.79685-0.66046-0.57185 0.74755
   0   6   7    2.15   19.51 299-0.22096 0.22687 0.79778 0.01488-0.56107 0.97677
   2  -1  -8   16.14    9.70 297-0.20259 0.34336 0.79722-0.93389-0.56851 0.09992
   5   0  -6   11.58    8.75 296-0.19932 0.56220 0.79708-0.79781-0.56981 0.22175
   6   1  -3   21.70    8.76 296-0.19696 0.63645 0.79698-0.66233-0.57075 0.40102
   7   5   2    6.64   12.86 297-0.20361 0.71845 0.79726-0.12241-0.56811 0.69369
   8   2  -4   21.41    9.90 296-0.19456 0.77954 0.79687-0.52768-0.57169 0.34548
   9   2 -10    3.22   10.01 296-0.19372 0.84873 0.79683-0.52826-0.57202-0.00689
   9   2  -9   22.70    9.45 296-0.19256 0.84799 0.79678-0.52794-0.57247 0.05251
   9   3  -4   24.39   10.71 296-0.19621 0.85632 0.79695-0.39200-0.57104 0.34581
  10   4  -5   15.74   10.90 295-0.19229 0.92535 0.79677-0.25685-0.57258 0.28987
 -12   2  -1   -4.52   12.45 297-0.20469-0.68029 0.79734-0.52795-0.56760 0.49779
 -12   3   1    6.04   12.41 297-0.20753-0.67488 0.79744-0.39202-0.56646 0.61501
 -10   0  -5   22.58   11.59 297-0.20428-0.53604 0.79732-0.79881-0.56776 0.26377
  -9   0  -3   67.92   10.40 297-0.20593-0.45853 0.79738-0.79768-0.56710 0.38324
  -9   3   4   18.00   11.58 297-0.20498-0.45224 0.79735-0.39162-0.56748 0.79400
  -8   5   6   -2.16   14.23 298-0.21170-0.37386 0.79757-0.11964-0.56478 0.91431
  -6  -1  -5    2.94    9.80 297-0.20646-0.23758 0.79740-0.93224-0.56689 0.26687
  -5   5   7    0.84   12.57 297-0.20456-0.15779 0.79733-0.12091-0.56765 0.97746
  -4   1   3  104.32    9.43 297-0.20341-0.08746 0.79729-0.66132-0.56811 0.74153
  -3   3   6   39.61    8.71 297-0.20535-0.00987 0.79736-0.39111-0.56733 0.91874
  -2   3   6   77.90   10.73 298-0.21090 0.06860 0.79755-0.39142-0.56510 0.91713
   2  -1 -11   14.16   10.55 298-0.20844 0.34676 0.79747-0.93436-0.56609-0.07920
   3   4   5  229.07   21.99 303-0.24877 0.47326 0.79806-0.25707-0.54921 0.84784
   4   2   2   89.41   10.36 298-0.21015 0.50575 0.79752-0.52725-0.56540 0.68750
   5   0 -13   23.02   11.33 298-0.20887 0.56632 0.79748-0.79966-0.56592-0.19396
   5   2   1  172.62    9.46 297-0.20658 0.57506 0.79740-0.52743-0.56684 0.63098
   5   5   4   11.45   15.03 300-0.22499 0.59558 0.79790-0.12153-0.55932 0.80141
   7   1  -6  101.03    8.97 297-0.20711 0.71667 0.79742-0.66377-0.56663 0.22041
   7   2  -2  110.34    9.56 297-0.20800 0.72101 0.79745-0.52788-0.56627 0.45628
   7   6   2    5.08   15.73 298-0.21419 0.73148 0.79765 0.01395-0.56376 0.69140
 -12   1  -4    6.84   12.61 298-0.21325-0.67210 0.79770-0.66364-0.56394 0.31754
 -11   0  -9   17.75   14.89 298-0.21559-0.60011 0.79777-0.79938-0.56299 0.02302
 -11   1  -2   23.66   11.22 298-0.21006-0.60060 0.79761-0.66281-0.56523 0.43710
  -9   4   5   12.35   11.33 298-0.21211-0.44489 0.79767-0.25714-0.56440 0.85104
  -7   1   2   87.32    7.77 297-0.20822-0.30427 0.79754-0.66217-0.56598 0.67844
  -7   4   6    5.02   11.28 297-0.20877-0.30140 0.79756-0.25586-0.56575 0.91357
  -4   3   6   11.25    9.16 298-0.21245-0.07709 0.79768-0.39111-0.56426 0.91463
  -1  -1 -15    7.31   15.40 300-0.22807 0.14277 0.79803-0.93528-0.55783-0.32511
   2  -1 -10   74.37    8.74 298-0.21442 0.35499 0.79774-0.93445-0.56346-0.02310
   2  -1  -9  302.79   10.42 298-0.21402 0.35481 0.79773-0.93420-0.56363 0.03592
   4   0  -4    4.41    8.29 298-0.21373 0.50461 0.79772-0.79824-0.56375 0.33238
   6   5   3    1.36   13.32 300-0.22854 0.66972 0.79804-0.12361-0.55763 0.74058
   7   1 -13   10.88   11.84 298-0.21326 0.71888 0.79770-0.66507-0.56394-0.19435
   7   3   0    8.30    9.01 297-0.20966 0.72540 0.79759-0.39195-0.56540 0.57385
 -11   0  -8   -3.02   12.40 299-0.22124-0.59371 0.79772-0.79972-0.56076 0.07814
 -10   2   2    2.31    9.79 298-0.21780-0.51243 0.79764-0.52692-0.56218 0.66928
  -7  -1 -13    4.95   21.19 302-0.24552-0.27975 0.79798-0.93576-0.55051-0.22187
  -7   2   4   21.02    7.83 298-0.21735-0.29451 0.79762-0.52635-0.56236 0.79169
  -6   0   0   53.15    9.10 299-0.22090-0.22019 0.79771-0.79742-0.56090 0.55581
  -6   5   7    4.17   12.96 299-0.22189-0.21281 0.79773-0.12174-0.56049 0.96615
  -5  -1  -4  225.38   11.40 299-0.22117-0.14944 0.79772-0.93335-0.56079 0.32078
   1  -1 -13   17.12   11.91 299-0.22412 0.28760 0.79778-0.93567-0.55957-0.20436
   1  -1  -6  394.10   12.18 299-0.22161 0.29032 0.79772-0.93403-0.56061 0.20834
   4   0 -15    0.37   12.94 298-0.21696 0.50140 0.79761-0.80311-0.56252-0.31848
   5   0 -12    8.51    9.53 299-0.22176 0.58108 0.79773-0.80066-0.56055-0.14155
   5   0  -7  176.38    9.58 299-0.21931 0.58156 0.79767-0.79952-0.56155 0.15485
   7   1  -7   41.69    9.25 299-0.22191 0.73251 0.79773-0.66444-0.56048 0.15526
   8   2  -5   38.58    9.83 299-0.22125 0.80595 0.79772-0.52839-0.56075 0.27543
   8   3  -2   16.66    9.81 299-0.21867 0.80516 0.79766-0.39287-0.56182 0.45323
   9   3  -5    8.84   12.05 299-0.22247 0.88001 0.79774-0.39333-0.56025 0.27623
 -11   0  -7    1.53   13.08 301-0.23384-0.58217 0.79782-0.80029-0.55566 0.13321
 -11   2   1    7.30    9.03 300-0.22541-0.58327 0.79770-0.52716-0.55920 0.60839
 -10   0  -4   10.26    9.92 300-0.23066-0.50809 0.79778-0.79891-0.55700 0.31230
  -9   2   3    6.51    9.23 300-0.22975-0.42945 0.79777-0.52689-0.55738 0.72584
  -7  -1  -6   13.95    9.15 300-0.22781-0.29184 0.79774-0.93418-0.55820 0.19803
  -5   1   3  347.87    9.31 299-0.22450-0.14027 0.79769-0.66174-0.55958 0.73212
  -5   3   6   46.19   10.11 300-0.22877-0.13353 0.79776-0.39174-0.55780 0.90705
  -4  -1 -15   -0.73   27.66 306-0.27850-0.02779 0.79732-0.93710-0.53600-0.35181
  -3   2   5  227.96   10.59 300-0.23268 0.01637 0.79781-0.52636-0.55615 0.84826
  -3   4   7   13.36   11.58 301-0.23510 0.01993 0.79783-0.25587-0.55513 0.96571
   0  -1 -14    2.59   13.46 302-0.24508 0.23406 0.79788-0.93406-0.55087-0.27011
   6   6   3   -7.40   17.32 302-0.24072 0.68526 0.79787 0.01271-0.55274 0.73709
   7   1 -12    4.04   12.03 300-0.22619 0.73212 0.79772-0.66510-0.55887-0.13985
   7   4   1   40.50   10.64 300-0.22898 0.74395 0.79776-0.25764-0.55771 0.62521
   8   5   0   15.75   12.96 301-0.23501 0.82285 0.79783-0.12254-0.55517 0.56507
   9   4  -3   63.90   11.95 300-0.22784 0.88735 0.79774-0.25899-0.55818 0.39198
   9   5  -2    1.87   13.86 299-0.22498 0.88841 0.79769-0.12180-0.55937 0.45364
 -12   1  -3   -2.81   11.33 301-0.23890-0.64637 0.79780-0.66356-0.55341 0.36601
 -12   2   0    7.07   11.93 301-0.23798-0.64405 0.79779-0.52791-0.55380 0.54335
 -10   1   0   15.29    9.08 300-0.23311-0.50237 0.79775-0.66254-0.55586 0.54659
  -9   1   1   77.97    8.14 300-0.23320-0.42718 0.79775-0.66305-0.55583 0.60666
  -8  -1 -10    7.56   13.27 302-0.24244-0.35311 0.79781-0.93499-0.55190-0.04404
  -8  -1  -9   12.85   13.22 302-0.24247-0.35329 0.79781-0.93534-0.55188 0.01400
  -8   3   5   -0.92    8.86 301-0.23271-0.35168 0.79775-0.39183-0.55604 0.84405
  -4   2   5   75.33    9.21 301-0.23680-0.05363 0.79778-0.52635-0.55430 0.84576
  -4   4   7    7.96   11.41 302-0.24297-0.04694 0.79781-0.25433-0.55167 0.96429
  -2  -1 -15    2.30   17.33 304-0.26039 0.10169 0.79769-0.93573-0.54406-0.33998
  -1   1   3 1682.40   23.21 301-0.23690 0.16606 0.79779-0.66099-0.55426 0.73125
  -1   3   6   11.39   10.86 303-0.24812 0.17937 0.79780-0.39111-0.54944 0.90339
   0   5   7   14.56   16.46 303-0.25554 0.26102 0.79775-0.12032-0.54620 0.96062
   5   0 -11    6.08    8.49 301-0.23303 0.59262 0.79775-0.80017-0.55590-0.08645
   5   0 -10   -1.92    9.40 301-0.23850 0.59880 0.79780-0.79999-0.55358-0.02995
   5   0  -9  262.08   10.44 301-0.23893 0.60049 0.79780-0.79912-0.55340 0.02817
   5   0  -8   20.07    8.01 300-0.23268 0.59445 0.79775-0.79939-0.55605 0.09025
   5   6   4    4.46   15.81 303-0.25200 0.62256 0.79778 0.01351-0.54776 0.79050
   6   1  -4    7.16    8.52 301-0.23733 0.67677 0.79779-0.66347-0.55408 0.32480
   7   1 -11   28.12   11.60 301-0.23614 0.74145 0.79778-0.66457-0.55459-0.08432
   7   1 -10    8.80   10.46 302-0.24047 0.74663 0.79780-0.66413-0.55274-0.02780
   7   1  -9   31.67   10.49 301-0.23890 0.74689 0.79780-0.66431-0.55341 0.03114
   7   1  -8    6.82    8.34 301-0.23365 0.74249 0.79776-0.66421-0.55564 0.09226
   9   3  -6    0.33   11.68 301-0.23771 0.89744 0.79779-0.39305-0.55392 0.20989
 -11   0  -6   40.15   11.48 302-0.24505-0.56754 0.79781-0.79952-0.55075 0.18701
 -11   1  -1    3.48   11.28 302-0.24381-0.56446 0.79781-0.66288-0.55129 0.48231
 -11   3   3    8.44   12.35 302-0.24274-0.56336 0.79781-0.39177-0.55175 0.71869
  -9   0  -2    3.67    9.55 302-0.24532-0.41848 0.79781-0.79853-0.55064 0.42445
  -8  -1 -11    7.43   15.57 303-0.25385-0.34228 0.79777-0.93440-0.54693-0.10779
  -8  -1  -8   19.35   11.89 302-0.24781-0.34674 0.79781-0.93476-0.54956 0.07082
  -8   0  -1  372.27   10.90 302-0.24217-0.34708 0.79781-0.79818-0.55199 0.48498
  -8   1   2  183.78    8.96 302-0.24652-0.34038 0.79781-0.66284-0.55012 0.66003
  -8   4   6   -1.42   11.34 301-0.24093-0.34212 0.79781-0.25614-0.55253 0.89863
  -5   4   7    6.22   11.17 303-0.25211-0.11110 0.79778-0.25479-0.54769 0.95810
  -2   2   5  148.86   10.89 302-0.24712 0.10354 0.79781-0.52591-0.54986 0.84341
  -2   4   7    6.68   11.12 303-0.25048 0.10866 0.79779-0.25545-0.54840 0.96101
   1  -1 -12   30.68   11.55 303-0.25230 0.31752 0.79778-0.93482-0.54761-0.15787
   3   0 -16   -1.35   13.71 302-0.24465 0.45290 0.79781-0.80099-0.55093-0.38844
   4   0 -14   15.34   12.48 303-0.25051 0.53340 0.79779-0.80007-0.54839-0.27021
   5   1  -2    4.25    8.20 302-0.24332 0.61061 0.79781-0.66245-0.55150 0.43888
   6   3   1   18.16    9.80 303-0.25010 0.69120 0.79780-0.39227-0.54857 0.61410
   8   2  -6   18.51    8.59 302-0.24070 0.82485 0.79781-0.52861-0.55262 0.20825
   8   4  -1   13.53   11.05 302-0.24457 0.83149 0.79781-0.25771-0.55096 0.50165
 -10   3   4    5.01   11.36 303-0.25442-0.48186 0.79785-0.39095-0.54674 0.77656
 -10   4   5   15.36   12.41 302-0.25107-0.47790 0.79788-0.25729-0.54820 0.83276
  -8   2   4   27.45   10.05 303-0.25303-0.33247 0.79787-0.52730-0.54734 0.77571
  -7   5   7    6.87   13.29 304-0.25520-0.25517 0.79785-0.12018-0.54639 0.95560
  -6   1   3   17.06    7.01 303-0.24936-0.18966 0.79789-0.66208-0.54895 0.72014
  -6   3   6   89.86   10.01 303-0.25014-0.18734 0.79789-0.39192-0.54861 0.89681
  -5   2   5  184.12    9.62 303-0.24993-0.11447 0.79789-0.52673-0.54870 0.83882
  -3  -1 -15   -0.58   21.03 306-0.27934 0.04680 0.79731-0.93626-0.53555-0.35095
   0  -1  -5   88.56   12.40 304-0.26070 0.25659 0.79777-0.93376-0.54397 0.24913
   6   2  -1    5.47    8.82 303-0.25493 0.69567 0.79785-0.52760-0.54651 0.49431
   7   2  -3   23.86    9.13 303-0.25014 0.76319 0.79789-0.52824-0.54861 0.37973
   8   2 -12   -4.60   13.16 303-0.25245 0.83285 0.79787-0.52987-0.54760-0.15058
   8   2  -7    2.66    9.40 303-0.25529 0.83797 0.79784-0.52873-0.54635 0.14312
   8   3  -3    6.82   10.05 303-0.25543 0.84206 0.79784-0.39279-0.54629 0.37880
   9   3  -7    4.60   11.57 303-0.25209 0.90909 0.79787-0.39367-0.54776 0.14590
   9   4  -4    1.18   10.84 304-0.25686 0.91509 0.79783-0.25799-0.54566 0.32052
 -11   0  -5   -0.18   12.39 305-0.26950-0.54742 0.79773-0.80025-0.53994 0.23480
 -10   0  -3   14.09   10.37 304-0.26107-0.47718 0.79790-0.79860-0.54372 0.35767
  -8  -1  -7   36.17   11.35 304-0.26240-0.33155 0.79788-0.93420-0.54312 0.12404
  -7  -1  -5    3.25    9.40 304-0.26055-0.25780 0.79791-0.93345-0.54395 0.24266
  -7   0   0   28.12    7.67 304-0.25733-0.25696 0.79795-0.79759-0.54537 0.53943
  -6  -1  -4  110.82    9.32 304-0.26144-0.18332 0.79789-0.93332-0.54355 0.30289
  -4   0   1 2847.43   21.14 304-0.26066-0.03234 0.79790-0.79665-0.54390 0.60017
  -3   0   1  222.04   10.53 304-0.26244 0.04286 0.79788-0.79659-0.54311 0.60057
   1  -1  -7  344.32   12.50 304-0.26374 0.33191 0.79785-0.93431-0.54253 0.13080
   3   0  -3   39.08    6.89 304-0.25690 0.47461 0.79796-0.79923-0.54556 0.37190
   3   3   4   12.85   13.55 307-0.28290 0.50641 0.79732-0.39092-0.53383 0.77364
   4   0  -5  709.87   11.16 303-0.25625 0.54628 0.79796-0.79917-0.54585 0.25488
   6   1 -14    6.59   13.73 303-0.25747 0.69041 0.79795-0.66690-0.54531-0.27376
   6   4   2    4.25   11.60 305-0.26474 0.70706 0.79783-0.25705-0.54208 0.66693
   8   2 -11   -0.62   11.93 304-0.25961 0.84178 0.79792-0.52953-0.54436-0.09584
   8   2  -8   -6.12    9.89 303-0.25690 0.84530 0.79796-0.52935-0.54556 0.08130
   9   3 -10   -7.59   12.51 305-0.26484 0.91777 0.79783-0.39434-0.54204-0.03611
   9   3  -9    5.72   12.25 304-0.26147 0.91905 0.79789-0.39392-0.54354 0.02300
   9   3  -8   16.68   11.97 304-0.26124 0.91598 0.79790-0.39449-0.54364 0.08353
   9   5  -3   15.23   12.98 304-0.26233 0.92262 0.79788-0.12207-0.54316 0.37735
 -12   1  -2   -4.09   11.45 305-0.26816-0.61755 0.79778-0.66384-0.54057 0.41128
 -11   2   2    1.98   10.33 305-0.26908-0.53794 0.79775-0.52788-0.54016 0.64822
  -9   3   5    5.01   11.86 304-0.26632-0.39074 0.79782-0.39111-0.54140 0.82667
  -6   2   5   78.45   10.10 305-0.26930-0.16829 0.79775-0.52657-0.54006 0.82910
  -6   4   7   16.83   11.89 305-0.26654-0.16935 0.79781-0.25573-0.54130 0.94856
   0  -1 -13    0.39   13.07 306-0.27763 0.26779 0.79751-0.93569-0.53628-0.22965
   1  -1 -11    7.52   10.73 306-0.27246 0.33757 0.79767-0.93499-0.53863-0.10790
   4   0 -13    7.02   11.07 306-0.27211 0.55593 0.79768-0.79987-0.53879-0.22187
   6   1  -5   14.44    8.63 305-0.26886 0.70645 0.79776-0.66376-0.54026 0.25246
   7   3  -1   73.17    9.76 305-0.27074 0.78462 0.79771-0.39221-0.53941 0.48892
   8   2 -10   15.21    9.43 305-0.26538 0.84687 0.79784-0.52972-0.54182-0.03811
   8   2  -9   -3.42   10.54 305-0.26803 0.84855 0.79778-0.52903-0.54063 0.01977
 -12   2   1    2.38   11.99 306-0.27527-0.60717 0.79760-0.52650-0.53733 0.58533
 -10   1   1    1.25    9.45 305-0.27271-0.45719 0.79768-0.66125-0.53849 0.58643
 -10   2   3   30.74    8.94 305-0.27240-0.46109 0.79769-0.52717-0.53863 0.70589
  -9   4   6   -4.58   12.21 306-0.27692-0.37998 0.79755-0.25667-0.53658 0.88277
  -8  -1 -12    7.80   16.52 308-0.28939-0.30849 0.79708-0.93475-0.53082-0.18366
  -7   1   3   10.91    8.63 306-0.27816-0.23471 0.79751-0.66183-0.53601 0.70649
  -7   3   6   19.10   10.39 306-0.27629-0.23514 0.79757-0.39034-0.53686 0.88562
  -5   0   1   10.74    6.96 306-0.27378-0.09335 0.79765-0.79741-0.53801 0.59206
  -4  -1  -3    9.65    9.70 306-0.27837-0.01796 0.79751-0.93328-0.53592 0.35509
  -1  -1 -14   -1.42   13.04 307-0.28163 0.19750 0.79739-0.93616-0.53442-0.29162
   1  -1  -8   93.94   10.74 307-0.28483 0.35276 0.79727-0.93369-0.53294 0.06258
   3   0 -15    5.00   11.66 306-0.27543 0.48579 0.79760-0.80150-0.53726-0.34527
   5   3   2   37.91   10.10 306-0.27988 0.64870 0.79746-0.39147-0.53522 0.65953
   6   1 -13    2.50   10.82 305-0.27271 0.70855 0.79768-0.66660-0.53849-0.22470
   7   5   1    8.19   12.86 306-0.27815 0.79482 0.79751-0.12120-0.53602 0.60438
   9   4  -5   11.23   11.93 306-0.27709 0.93548 0.79755-0.25790-0.53650 0.25270
 -11   0  -4   60.79   11.29 307-0.28744-0.52431 0.79718-0.79815-0.53180 0.28719
 -11   1   0   -0.60   10.59 308-0.28761-0.52670 0.79717-0.66290-0.53173 0.52300
  -9   0  -1   25.43    9.38 307-0.28741-0.37525 0.79718-0.79733-0.53182 0.46507
  -9   1   2   70.88    9.34 307-0.28586-0.37360 0.79724-0.66202-0.53254 0.64258
  -8  -1  -6   10.07    9.90 307-0.28344-0.30982 0.79734-0.93364-0.53366 0.17250
  -3  -1  -3 1481.52   23.43 307-0.28705 0.06344 0.79719-0.93263-0.53198 0.35275
  -1   4   7   27.68   13.50 308-0.29054 0.22253 0.79704-0.25506-0.53036 0.94285
   1  -1 -10    4.77   10.00 308-0.28772 0.35348 0.79716-0.93371-0.53167-0.05584
   1  -1  -9  157.00   11.09 308-0.29082 0.35769 0.79703-0.93385-0.53022 0.00074
   4   0 -12   20.07   11.47 308-0.28860 0.57404 0.79713-0.79971-0.53126-0.17141
   4   0  -6  945.91   13.37 307-0.28508 0.57440 0.79727-0.79881-0.53290 0.18343
   4   4   4   10.25   13.21 309-0.30204 0.59930 0.79645-0.25472-0.52492 0.76563
   5   4   3  229.53   13.43 308-0.29072 0.66075 0.79703-0.25697-0.53027 0.71275
   7   2  -4   16.66    9.06 307-0.28318 0.79472 0.79735-0.52882-0.53378 0.30628
   8   3  -4   11.52   10.44 307-0.28439 0.87046 0.79730-0.39259-0.53322 0.30673
   8   4  -2    4.43   10.92 308-0.28820 0.87397 0.79714-0.25706-0.53145 0.42268
   8   5  -1    4.92   12.60 307-0.28236 0.87160 0.79738-0.12143-0.53416 0.48562
 -11   3   4   -2.62   12.22 308-0.29264-0.51305 0.79696-0.39149-0.52929 0.75587
 -10   0  -2   73.32   10.59 308-0.29445-0.44249 0.79687-0.79728-0.52844 0.40208
  -9   2   4   35.91    8.40 307-0.28871-0.37026 0.79713-0.52651-0.53113 0.75866
  -8   0   0  201.19    9.71 308-0.29427-0.29404 0.79688-0.79637-0.52852 0.52192
  -7   2   5   61.77    8.92 308-0.29351-0.21699 0.79691-0.52560-0.52888 0.81789
  -7   4   7   30.52   10.92 308-0.28960-0.21965 0.79710-0.25480-0.53071 0.93793
  -6   0   1   28.52    8.17 308-0.29463-0.14522 0.79686-0.79623-0.52835 0.58260
  -5  -1  -3  124.60    9.97 308-0.29140-0.07901 0.79701-0.93196-0.52987 0.34953
  -3   6   8    1.55   15.61 310-0.30858 0.09367 0.79607 0.01964-0.52170 0.99659
  -1   2   5  107.63   12.13 309-0.29958 0.23010 0.79660-0.52502-0.52601 0.82041
   2   0 -16   10.47   14.04 309-0.29595 0.43141 0.79679-0.80043-0.52773-0.41338
   4   1  -1   18.69    7.71 308-0.28873 0.58245 0.79713-0.66251-0.53112 0.47604
   4   3   3   11.94   11.06 309-0.29949 0.59625 0.79661-0.39045-0.52605 0.70763
   6   1 -12  -11.46   10.94 308-0.29264 0.72599 0.79696-0.66383-0.52929-0.17253
   6   1  -6   20.00    8.33 308-0.29059 0.72747 0.79705-0.66329-0.53025 0.18240
   7   4   0   36.18   10.24 309-0.29553 0.81021 0.79681-0.25621-0.52793 0.53659
   7   6   1    8.19   14.89 309-0.29625 0.81099 0.79678 0.01346-0.52759 0.59529
   9   4  -6  -13.13   13.64 308-0.29238 0.95043 0.79697-0.25741-0.52941 0.18559
 -12   1  -1   12.30   11.84 309-0.29701-0.58656 0.79674-0.66181-0.52718 0.45743
  -9  -1  -9    5.35   14.09 311-0.31148-0.35863 0.79588-0.93351-0.52024-0.01897
  -8   3   6    4.99   10.20 310-0.30391-0.28092 0.79636-0.38978-0.52389 0.87212
  -7  -1  -4   87.67    9.09 309-0.30046-0.21698 0.79655-0.93226-0.52554 0.28380
  -4   5   8    6.89   13.18 308-0.29957 0.01207 0.79660-0.12102-0.52596 0.99223
  -2   0   1 3952.33   31.30 308-0.29622 0.14934 0.79678-0.79559-0.52755 0.58623
   2   0  -2 1104.78   17.43 309-0.30143 0.44704 0.79650-0.79697-0.52508 0.40886
   4   0 -11   83.62    9.75 309-0.30287 0.59059 0.79642-0.79727-0.52439-0.11892
   5   1 -15    1.84   12.49 308-0.29622 0.65471 0.79678-0.66561-0.52755-0.35185
   5   1  -3  375.42    9.36 309-0.29674 0.66227 0.79675-0.66263-0.52730 0.35546
   5   2   0   18.31    8.52 309-0.30201 0.66999 0.79647-0.52579-0.52480 0.53050
   9   4  -7   25.23   12.73 309-0.30258 0.95997 0.79643-0.25679-0.52453 0.12247
 -12   0  -6   -4.37   13.99 309-0.30407-0.58118 0.79634-0.79599-0.52396 0.15961
 -10   3   5   13.28   12.02 310-0.30593-0.42661 0.79623-0.38956-0.52306 0.80961
  -9  -1 -10    8.80   15.02 310-0.31060-0.35718 0.79593-0.93160-0.52081-0.07529
  -9  -1  -8    4.34   12.77 310-0.30915-0.35891 0.79603-0.93211-0.52152 0.04165
  -8  -1  -5    8.59    9.20 310-0.31042-0.28235 0.79595-0.93249-0.52090 0.21877
  -8   1   3   22.37    8.21 310-0.30772-0.27842 0.79612-0.66119-0.52221 0.69099
  -5   5   8    8.12   13.51 310-0.30988-0.05238 0.79598-0.11795-0.52116 0.99052
  -3   5   8   -0.23   13.63 312-0.31937 0.10449 0.79532-0.11716-0.51653 0.98844
   0  -1 -12   12.03   11.97 311-0.31653 0.30780 0.79553-0.93241-0.51792-0.18846
   3   0 -14   22.20   11.23 310-0.31018 0.52049 0.79596-0.79794-0.52101-0.29992
   4   0 -10  200.56   10.59 311-0.31175 0.60028 0.79586-0.79670-0.52025-0.06480
   4   0  -7  128.72    8.22 310-0.30370 0.59334 0.79636-0.79719-0.52413 0.11593
   6   1 -11    4.07    9.42 310-0.30485 0.73806 0.79630-0.66300-0.52358-0.11794
   6   1  -7   51.73    7.78 310-0.30449 0.74099 0.79632-0.66202-0.52376 0.11918
   6   2  -2  198.38   10.28 310-0.30940 0.74917 0.79601-0.52535-0.52139 0.41092
   7   2 -13  -11.58   12.89 310-0.30772 0.81335 0.79612-0.52796-0.52221-0.23580
   7   2  -5   54.91   10.11 310-0.30823 0.81980 0.79609-0.52556-0.52196 0.23569
   8   3  -5    2.35   10.02 310-0.30730 0.89166 0.79615-0.39160-0.52241 0.23682
   9   4  -8    5.34   13.31 310-0.30961 0.96543 0.79600-0.25592-0.52129 0.06024
 -12   2   2   -9.18   11.15 311-0.31546-0.56678 0.79525-0.52503-0.51866 0.62679
 -11   0  -3   10.52   10.31 311-0.31479-0.49871 0.79530-0.79702-0.51899 0.33285
 -11   2   3   11.84   10.97 310-0.31233-0.49347 0.79547-0.52434-0.52019 0.68663
  -9  -1  -7    6.44   12.05 311-0.31937-0.34801 0.79497-0.93194-0.51674 0.09647
  -8   4   7   -6.76   12.99 311-0.31572-0.26782 0.79524-0.25379-0.51854 0.92547
  -6  -1  -3   42.58    9.00 311-0.31440-0.12928 0.79533-0.93116-0.51918 0.33664
  -6   5   8    1.18   13.12 311-0.31859-0.11680 0.79503-0.11786-0.51713 0.98433
  -2  -1 -14    2.20   15.76 314-0.33948 0.18266 0.79325-0.93033-0.50667-0.31849
  -2   6   8    7.00   16.73 313-0.32987 0.18870 0.79412 0.01908-0.51153 0.98406
   2   5   6   55.05   29.03 324-0.41602 0.56720 0.78267-0.10655-0.46503 0.82289
   4   0  -9   95.07   10.10 311-0.31539 0.60421 0.79526-0.79643-0.51870-0.00758
   4   0  -8   14.56    8.93 311-0.31311 0.60280 0.79542-0.79617-0.51981 0.05220
   6   1 -10   20.17    8.84 311-0.31151 0.74601 0.79553-0.66196-0.52059-0.06242
   6   1  -9   31.17    9.82 311-0.31464 0.74957 0.79531-0.66146-0.51906-0.00387
   6   1  -8   40.52    8.12 311-0.31211 0.74803 0.79549-0.66150-0.52030 0.05543
   6   5   2    8.12   13.87 312-0.32217 0.76583 0.79475-0.11783-0.51536 0.64066
   7   3  -2   29.96    9.33 311-0.31546 0.82911 0.79525-0.38975-0.51866 0.40892
   8   4  -3   28.64   10.23 312-0.31935 0.90572 0.79497-0.25421-0.51675 0.34865
 -12   0  -5    5.21   13.00 312-0.32436-0.56343 0.79453-0.79702-0.51439 0.20972
 -11   1   1   -0.08   10.69 312-0.32312-0.48644 0.79463-0.66035-0.51501 0.56478
 -10   1   2   75.89    9.88 312-0.32483-0.40925 0.79449-0.66104-0.51416 0.62240
 -10   2   4  128.57   10.93 312-0.32505-0.40773 0.79448-0.52576-0.51405 0.74036
  -9  -1 -11   16.34   17.66 313-0.33544-0.33500 0.79358-0.93183-0.50884-0.14738
  -8   2   5   39.38    8.46 311-0.31957-0.26538 0.79490-0.52494-0.51677 0.80410
  -7   0   1  106.49    7.59 311-0.31905-0.19543 0.79494-0.79550-0.51702 0.56903
  -5   1   4  116.26    7.90 311-0.32000-0.04528 0.79487-0.65938-0.51655 0.74792
  -4   1   4  164.41    8.13 311-0.31886 0.02722 0.79496-0.65934-0.51712 0.74962
   3   0  -4   45.47    7.56 311-0.31901 0.53735 0.79495-0.79531-0.51704 0.28358
   5   1 -14   30.99   12.26 312-0.32389 0.68222 0.79457-0.66150-0.51463-0.30469
   6   3   0  126.73    9.96 312-0.32342 0.76425 0.79461-0.38935-0.51486 0.52145
   7   2 -12  -18.41   12.17 312-0.32274 0.82852 0.79466-0.52559-0.51520-0.18385
   7   2  -6   62.76    9.61 312-0.32507 0.83583 0.79447-0.52485-0.51404 0.16757
   8   3  -6    0.03   10.61 312-0.32118 0.90647 0.79478-0.38969-0.51597 0.17078
   8   5  -2   13.41   12.56 312-0.32145 0.91009 0.79476-0.11820-0.51584 0.40719
 -12   1   0   -5.93   12.34 313-0.33090-0.55290 0.79413-0.66000-0.51090 0.50065
 -10   0  -1    2.68   10.34 312-0.32854-0.40720 0.79433-0.79426-0.51209 0.44429
  -9  -1  -6   11.47   12.32 313-0.33388-0.33268 0.79386-0.93052-0.50940 0.14798
  -9   0   0    3.92    9.72 313-0.32973-0.33183 0.79423-0.79406-0.51149 0.50335
  -9   3   6    1.52   11.19 313-0.33194-0.32609 0.79404-0.38786-0.51038 0.85716
  -7   5   8  -11.05   14.13 314-0.33512-0.17383 0.79375-0.11736-0.50877 0.97530
  -6   1   4   10.37    8.84 313-0.33099-0.10761 0.79412-0.65871-0.51086 0.74146
  -5   3   7   97.03   10.14 313-0.33066-0.03140 0.79415-0.38848-0.51103 0.91935
  -4   3   7    7.29    9.07 313-0.33113 0.04201 0.79411-0.38745-0.51079 0.92020
  -3   1   4  661.16   13.27 313-0.33298 0.11628 0.79394-0.65796-0.50986 0.74332
  -1  -1 -13   -2.67   12.54 314-0.33873 0.25591 0.79341-0.93062-0.50694-0.26069
   0  -1  -6  118.11   12.94 314-0.34044 0.33606 0.79325-0.92924-0.50607 0.15321
   2   0 -15    5.32   12.60 313-0.33263 0.47034 0.79397-0.79758-0.51003-0.37371
   3   0 -13   -1.02   11.22 314-0.33503 0.54689 0.79376-0.79572-0.50882-0.25491
   3   1   0 3057.87   25.24 313-0.33401 0.55477 0.79385-0.65894-0.50934 0.51198
   6   6   2   -3.36   14.98 314-0.33873 0.78293 0.79341 0.01762-0.50694 0.63112
   7   2 -11   -1.66   11.04 313-0.33194 0.83934 0.79404-0.52504-0.51038-0.13015
   8   3 -11    7.85   12.83 313-0.32974 0.91019 0.79423-0.39026-0.51148-0.12720
   8   3  -7    1.44   11.09 313-0.33116 0.91589 0.79410-0.38903-0.51077 0.10595
 -12   0  -4   41.83   12.45 314-0.34018-0.54480 0.79336-0.79485-0.50619 0.25967
 -11   0  -2   12.46   10.03 314-0.34160-0.46965 0.79322-0.79429-0.50546 0.37827
  -9   1   3   51.98    9.64 314-0.33929-0.31960 0.79344-0.65903-0.50664 0.67538
  -9   4   7   -8.47   12.52 314-0.33993-0.31545 0.79338-0.25299-0.50631 0.91017
  -8  -1  -4   84.32    9.75 314-0.33905-0.25167 0.79347-0.92944-0.50676 0.26480
  -7  -1  -3  307.13   11.99 314-0.34258-0.17390 0.79312-0.92900-0.50496 0.32232
  -6   3   7    6.43    9.64 314-0.33836-0.09788 0.79353-0.38705-0.50711 0.91457
  -2   5   8   16.29   12.89 315-0.34462 0.20338 0.79291-0.11613-0.50391 0.97416
   0  -1 -11   36.60   12.43 315-0.34506 0.33820 0.79287-0.92950-0.50368-0.14429
   0   3   6   63.16   12.88 316-0.35468 0.35906 0.79183-0.38581-0.49869 0.85279
   5   1  -4  112.95    7.45 314-0.33559 0.70022 0.79379-0.65976-0.50852 0.27797
   7   2 -10   13.17   10.12 314-0.33805 0.84693 0.79356-0.52455-0.50727-0.07484
   7   2  -8   45.02    8.97 314-0.34129 0.85056 0.79325-0.52425-0.50562 0.04157
   7   2  -7   18.81    7.76 314-0.33546 0.84596 0.79380-0.52416-0.50858 0.10332
   7   5   0   -2.26   11.40 314-0.33903 0.85551 0.79347-0.11755-0.50677 0.51379
   8   3 -10   -9.00    9.93 314-0.33505 0.91728 0.79384-0.38906-0.50879-0.07246
   8   3  -9   -1.42   11.05 313-0.33505 0.92047 0.79384-0.38950-0.50879-0.01354
   8   3  -8    5.63   10.59 313-0.33568 0.92023 0.79378-0.38912-0.50847 0.04542
 -13   1  -1    1.45   13.22 316-0.35049-0.60942 0.79241-0.65940-0.50087 0.43186
 -11   3   5    4.03   11.78 315-0.34280-0.46266 0.79321-0.38774-0.50484 0.79084
  -9   2   5   23.73   10.13 315-0.34822-0.31017 0.79265-0.52255-0.50205 0.78921
  -8   0   1   52.81   10.00 315-0.34633-0.24106 0.79285-0.79315-0.50302 0.55452
  -7   1   4   72.88    8.94 315-0.34818-0.16371 0.79265-0.65793-0.50207 0.73143
  -5   2   6   42.75    8.90 315-0.34887-0.01436 0.79258-0.52263-0.50171 0.85082
  -3   3   7   95.15    9.08 315-0.34644 0.13134 0.79283-0.38714-0.50297 0.91303
   1   0 -16    9.45   13.62 316-0.35352 0.41565 0.79207-0.79390-0.49929-0.44046
   1   0  -1   18.10    9.46 315-0.34280 0.41462 0.79321-0.79353-0.50484 0.44767
   4   2   1   59.03    9.63 315-0.34974 0.64446 0.79249-0.52203-0.50126 0.56449
   5   1 -13    5.04   10.50 315-0.34614 0.70416 0.79287-0.65905-0.50312-0.25642
   6   2  -3   74.11    8.97 315-0.34965 0.78844 0.79250-0.52289-0.50131 0.33099
   6   4   1   -5.62    9.73 315-0.34665 0.78987 0.79281-0.25202-0.50286 0.56748
   7   2  -9    9.76    8.10 315-0.34250 0.85109 0.79324-0.52377-0.50499-0.01793
   7   4  -1   21.80   10.43 315-0.34609 0.85987 0.79287-0.25247-0.50315 0.45284
   7   6   0   12.88   14.27 316-0.35127 0.86673 0.79232 0.01905-0.50047 0.50869
   8   4  -4   49.27   10.92 315-0.34354 0.92934 0.79313-0.25338-0.50446 0.27824
 -12   2   3   26.96   11.57 316-0.35467-0.52492 0.79192-0.52171-0.49879 0.66520
  -9  -1  -5   25.03   10.49 316-0.35296-0.31218 0.79211-0.92813-0.49969 0.19771
  -7   3   7   54.32   10.80 316-0.35314-0.15610 0.79209-0.38621-0.49960 0.90625
  -6   2   6   41.00    9.48 316-0.35467-0.08160 0.79192-0.52124-0.49880 0.84717
  -6   4   8   -8.88   11.65 317-0.35830-0.07680 0.79151-0.25050-0.49689 0.96346
  -5   4   8   -0.36    9.94 315-0.35045-0.01109 0.79239-0.25073-0.50100 0.96715
  -4   2   6   44.89    8.95 316-0.35173 0.06217 0.79225-0.52113-0.50033 0.85052
  -4   4   8    6.55   11.24 316-0.35766 0.06935 0.79158-0.24981-0.49723 0.96591
   3   0 -12    4.65   11.02 317-0.35922 0.57110 0.79140-0.79272-0.49641-0.20691
   5   5   3   -1.97   13.45 317-0.36254 0.73468 0.79100-0.11443-0.49465 0.67696
   6   2 -14    9.36   12.79 316-0.35459 0.78643 0.79193-0.52324-0.49884-0.31939
   7   3  -3   25.74    8.06 316-0.35061 0.86324 0.79237-0.38746-0.50091 0.33204
   8   5  -3   13.24   11.91 316-0.35446 0.94008 0.79194-0.11682-0.49890 0.33089
 -12   0  -3   57.74   13.31 317-0.36126-0.52300 0.79127-0.79214-0.49545 0.30745
 -11   1   2    6.46   10.56 316-0.35971-0.44503 0.79145-0.65585-0.49627 0.60327
 -11   2   4    1.36   11.50 318-0.36575-0.44549 0.79072-0.52032-0.49306 0.72225
 -10  -1  -9   -1.94   14.96 319-0.37528-0.36983 0.78948-0.92819-0.48794-0.05263
 -10  -1  -8    2.38   13.40 319-0.37117-0.37190 0.79002-0.92838-0.49016 0.00952
 -10   3   6   -7.11   13.27 316-0.35924-0.37068 0.79151-0.38531-0.49651 0.83983
  -5  -1  -2   69.65    9.21 317-0.36060-0.00863 0.79135-0.92660-0.49580 0.37376
  -5   0   2  379.82   10.36 317-0.35973-0.00662 0.79145-0.79092-0.49626 0.60999
   0  -1 -10   15.38   10.94 318-0.36947 0.36261 0.79025-0.92631-0.49107-0.09786
   3   0  -5    2.97    7.08 317-0.35888 0.57623 0.79155-0.79211-0.49670 0.20487
   4   1 -15   -4.71   12.39 317-0.36344 0.64572 0.79100-0.65705-0.49429-0.38206
   4   1  -2   62.55    9.12 317-0.36130 0.65452 0.79126-0.65609-0.49542 0.38124
   5   1 -12  -10.53   10.72 317-0.36206 0.72209 0.79117-0.65711-0.49502-0.20773
   5   1  -5   62.30    8.48 317-0.36382 0.72819 0.79096-0.65595-0.49409 0.20423
   8   4  -5   10.49   11.67 317-0.36156 0.94735 0.79123-0.25070-0.49529 0.20910
 -12   1   1    5.49   10.54 317-0.36497-0.51742 0.79082-0.65616-0.49341 0.54218
 -11   0  -1   18.22   10.34 318-0.37252-0.43813 0.78985-0.79082-0.48936 0.42104
 -10  -1 -10    1.72   15.57 318-0.37142-0.36852 0.79000-0.92457-0.48995-0.10578
 -10  -1  -7   16.43   12.82 319-0.37345-0.36856 0.78973-0.92696-0.48886 0.06724
 -10   0   0   24.29    9.98 318-0.36841-0.36818 0.79039-0.79101-0.49157 0.48294
 -10   1   3   15.98    9.71 318-0.37199-0.36186 0.78992-0.65490-0.48964 0.65796
  -8  -1  -3  217.61   11.17 318-0.37293-0.21727 0.78980-0.92537-0.48914 0.30647
  -8   1   4   58.22    9.52 318-0.36918-0.21554 0.79029-0.65507-0.49115 0.72028
  -8   3   7   -0.62   10.10 317-0.36777-0.21318 0.79047-0.38506-0.49191 0.89457
  -7   2   6   68.64    9.68 318-0.36748-0.14231 0.79051-0.51977-0.49207 0.83955
  -7   4   8   15.77   11.29 318-0.36876-0.13930 0.79034-0.24981-0.49138 0.95599
  -6  -1  -2   20.70    8.51 318-0.36935-0.07314 0.79027-0.92563-0.49107 0.36851
  -6   0   2  785.56   11.32 317-0.36610-0.07367 0.79068-0.79017-0.49280 0.60587
  -4  -1  -2  435.77   12.15 318-0.36934 0.07330 0.79027-0.92537-0.49107 0.37058
  -4   0   2 1348.29   14.62 318-0.36613 0.07351 0.79068-0.78981-0.49279 0.60795
  -3  -1 -14    3.17   17.72 321-0.39087 0.16011 0.78723-0.92379-0.47931-0.34761
  -3   2   6   14.24    8.64 318-0.37077 0.15444 0.79008-0.51907-0.49030 0.84121
  -3   4   8    1.36   12.33 319-0.37350 0.15906 0.78972-0.24904-0.48883 0.95657
   0  -1  -7  154.85   12.88 319-0.37699 0.37219 0.78925-0.92507-0.48694 0.07447
   2   0 -14    7.23   11.34 318-0.36861 0.50681 0.79036-0.79317-0.49146-0.33252
   5   2  -1  372.28   10.50 318-0.37217 0.73902 0.78990-0.52028-0.48955 0.43483
   5   6   3   11.02   16.28 319-0.37851 0.75022 0.78904 0.02375-0.48611 0.66965
 -13   1   0   -4.67   13.36 320-0.38093-0.58122 0.78875-0.65508-0.48482 0.47488
 -10  -1  -6   21.72   11.20 319-0.38130-0.35832 0.78870-0.92486-0.48462 0.12276
 -10   2   5   10.15   10.80 319-0.37613-0.35452 0.78942-0.51897-0.48743 0.77256
  -9  -1  -4    5.23    9.25 319-0.37791-0.28740 0.78918-0.92527-0.48647 0.24273
  -9   0   1   -3.46    9.98 319-0.37702-0.28438 0.78930-0.79037-0.48695 0.53774
  -2  -1  -3  492.80   22.22 321-0.39052 0.24067 0.78734-0.92274-0.47954 0.30139
  -2   1   4  152.16    9.65 319-0.37669 0.23315 0.78934-0.65314-0.48713 0.72160
  -1  -1 -12    7.63   12.08 320-0.38385 0.30187 0.78833-0.92576-0.48322-0.22538
  -1   6   8   -0.14   20.99 321-0.39702 0.32969 0.78632 0.02527-0.47590 0.94764
   0  -1  -9   75.71   11.83 320-0.38381 0.37772 0.78834-0.92436-0.48324-0.04709
   2   1   1  661.92   17.94 320-0.38239 0.53110 0.78854-0.65265-0.48402 0.54478
   3   0 -11    5.63    9.84 319-0.37835 0.59072 0.78911-0.78976-0.48623-0.15833
   5   1 -11    0.26   10.27 319-0.37702 0.73720 0.78930-0.65512-0.48695-0.15632
   5   3   1    2.25    8.61 319-0.37904 0.74782 0.78902-0.38312-0.48585 0.54985
   6   2 -13    4.88   11.57 319-0.37388 0.80642 0.78972-0.52065-0.48865-0.27106
   6   2  -4  109.09    9.77 319-0.37915 0.81746 0.78900-0.51967-0.48579 0.25588
   6   3  -1  279.12   10.55 319-0.37973 0.81993 0.78892-0.38391-0.48547 0.43302
   7   3  -4    7.10    9.89 319-0.37825 0.88895 0.78913-0.38438-0.48628 0.25786
   8   4  -6   -1.19   11.95 319-0.37614 0.95930 0.78942-0.24964-0.48743 0.14164
   8   5  -4   10.36   12.27 319-0.37485 0.96150 0.78959-0.11370-0.48813 0.26102
 -12   0  -2   26.19   11.42 320-0.38657-0.49791 0.78811-0.78886-0.48149 0.35326
  -8   2   6   16.96    9.91 320-0.38494-0.19892 0.78835-0.51765-0.48239 0.82869
  -8   4   8    2.07   13.47 321-0.38989-0.19388 0.78761-0.24578-0.47966 0.94687
  -7  -1  -2  114.05    9.03 320-0.38728-0.12885 0.78801-0.92404-0.48110 0.35657
  -7   0   2    0.35    6.96 319-0.38005-0.13362 0.78906-0.78895-0.48507 0.59654
  -2   3   7   28.70   10.47 320-0.38564 0.24360 0.78825-0.38209-0.48201 0.89338
   0  -1  -8   74.43   10.72 321-0.38775 0.38285 0.78794-0.92357-0.48084 0.00959
   3   0  -6  278.56   10.33 320-0.38401 0.60110 0.78849-0.78874-0.48290 0.13205
   4   1 -14    3.17   12.33 320-0.38725 0.67193 0.78801-0.65432-0.48112-0.33965
   5   1 -10   32.34   10.49 320-0.38737 0.74857 0.78799-0.65337-0.48105-0.10298
   5   1  -6   12.32    7.39 320-0.38081 0.74485 0.78895-0.65431-0.48466 0.13591
   7   3 -12   -1.03   13.49 321-0.38783 0.89458 0.78792-0.38349-0.48079-0.21884
   7   4  -2    3.93   10.61 321-0.38662 0.89912 0.78810-0.24762-0.48146 0.37066
   7   5  -1    0.15   11.07 320-0.38483 0.90055 0.78837-0.11269-0.48245 0.43016
   8   4  -9   13.48   13.09 320-0.38532 0.96704 0.78830-0.24915-0.48218-0.03880
   8   4  -8    7.79   12.72 320-0.38591 0.96852 0.78821-0.24825-0.48186 0.01896
   8   4  -7   -7.83   11.12 320-0.38100 0.96605 0.78892-0.24851-0.48456 0.07957
 -11   3   6   16.78   13.31 322-0.39520-0.41083 0.78666-0.38100-0.47675 0.82282
 -10  -1  -5    1.23   10.82 321-0.39556-0.34331 0.78660-0.92218-0.47655 0.17331
  -9   1   4   91.16    9.60 321-0.39394-0.26519 0.78685-0.65212-0.47745 0.70589
  -9   3   7   -3.88   10.68 321-0.39303-0.26283 0.78700-0.38180-0.47796 0.88227
  -2  -1 -13    4.27   13.51 323-0.40399 0.24794 0.78522-0.92202-0.47179-0.29596
   0   4   7    8.12   16.27 324-0.41713 0.42232 0.78290-0.24159-0.46423 0.87786
   1   0 -15    3.65   12.91 322-0.39582 0.45912 0.78656-0.78793-0.47640-0.40618
   3   0 -10   42.65    9.65 321-0.39021 0.60458 0.78743-0.78830-0.47953-0.10642
   3   2   2  328.21   14.33 322-0.40005 0.62236 0.78587-0.51502-0.47402 0.59509
   4   5   4   25.56   14.12 323-0.40449 0.70139 0.78513-0.10914-0.47150 0.71208
   5   1  -9   30.20    9.41 321-0.39421 0.75557 0.78681-0.65228-0.47731-0.04783
   5   1  -7   18.01    8.85 321-0.39114 0.75460 0.78729-0.65261-0.47901 0.07102
   6   2 -12    0.33   11.92 321-0.39140 0.82375 0.78725-0.51766-0.47887-0.22171
   6   5   1   -0.56   11.61 321-0.39189 0.83723 0.78717-0.10913-0.47860 0.54508
   7   3  -5   54.54   10.35 321-0.39483 0.90644 0.78671-0.38147-0.47695 0.18963
   7   6  -1    9.39   12.59 321-0.39327 0.90900 0.78696 0.02528-0.47783 0.42651
   8   5  -5   17.14   12.67 321-0.39060 0.97678 0.78737-0.11202-0.47932 0.19319
 -12   1   2    9.99   11.92 322-0.40207-0.48030 0.78524-0.65111-0.47295 0.58148
 -12   2   4    7.91   12.49 322-0.39732-0.48264 0.78602-0.51596-0.47563 0.70155
  -8   0   2    4.64    8.90 322-0.39845-0.18839 0.78583-0.78572-0.47500 0.58566
  -3   0   2  271.57    9.55 321-0.39528 0.17576 0.78634-0.78556-0.47678 0.59330
   0   0 -16   15.24   14.37 322-0.40167 0.39147 0.78530-0.78818-0.47318-0.47138
   2   0 -13  -10.65   11.14 323-0.40310 0.54148 0.78506-0.78600-0.47236-0.29223
   2   0  -3 1626.89   18.58 321-0.39520 0.54020 0.78635-0.78680-0.47682 0.30130
   3   0  -9    6.73    8.53 322-0.39966 0.61423 0.78564-0.78626-0.47432-0.05304
   3   0  -8   85.72    9.00 322-0.40209 0.61785 0.78523-0.78559-0.47294 0.00497
   3   0  -7  130.30    9.02 322-0.39732 0.61335 0.78601-0.78673-0.47563 0.06636
   5   1  -8    6.99    7.75 321-0.39523 0.75772 0.78635-0.65170-0.47681 0.01015
   5   4   2  179.74   12.25 322-0.40153 0.76967 0.78533-0.24499-0.47326 0.59729
   6   2  -5   76.07    9.04 322-0.39954 0.83739 0.78565-0.51583-0.47438 0.18634
   6   6   1    3.49   14.39 322-0.40224 0.84747 0.78521 0.02869-0.47285 0.53967
   7   3 -11   12.70   11.54 322-0.39816 0.90720 0.78588-0.38115-0.47516-0.16645
   8   5  -6   -2.94   12.70 322-0.40005 0.98708 0.78557-0.10882-0.47409 0.12738
 -13   0  -3   21.66   12.89 323-0.40623-0.54880 0.78436-0.78416-0.47060 0.28321
 -13   1   1   11.91   13.51 323-0.40845-0.54820 0.78398-0.65052-0.46934 0.51865
 -11   0   0    9.25   10.65 323-0.40412-0.40506 0.78472-0.78521-0.47181 0.46263
 -11   1   3   -0.25   10.65 323-0.40640-0.40204 0.78433-0.65023-0.47051 0.63897
 -11   2   5    0.87   11.67 323-0.40776-0.39653 0.78410-0.51429-0.46973 0.75501
 -10   0   1   -2.81   10.68 323-0.40714-0.32754 0.78421-0.78530-0.47008 0.52030
  -9  -1  -3   11.06    9.22 323-0.40493-0.25959 0.78458-0.92076-0.47135 0.28694
  -9   2   6   34.16   11.13 323-0.40772-0.25037 0.78411-0.51416-0.46975 0.81641
  -8  -1  -2   19.66    9.33 323-0.40981-0.18006 0.78374-0.92011-0.46856 0.34404
  -6   1   5   16.65    8.85 323-0.40951-0.02864 0.78379-0.64895-0.46873 0.75835
  -6   5   9   -3.28   14.95 323-0.40830-0.02526 0.78400-0.10881-0.46942 0.99313
  -1   5   8    8.11   17.03 325-0.42470 0.35702 0.78100-0.10414-0.45989 0.93187
   3   5   5    8.46   17.23 327-0.43573 0.65967 0.77879-0.10268-0.45334 0.75142
   4   6   4    5.13   15.43 325-0.42275 0.71988 0.78137 0.02957-0.46104 0.70151
   6   2 -11   12.05    9.87 323-0.40328 0.83766 0.78486-0.51551-0.47228-0.16991
   6   4   0   47.13   10.02 323-0.40785 0.84903 0.78408-0.24278-0.46968 0.47758
   7   3 -10   -0.24   11.18 323-0.40727 0.91695 0.78418-0.37869-0.47001-0.11350
   7   3  -6   16.54    9.85 323-0.40743 0.91772 0.78416-0.37937-0.46992 0.12384
 -12   0  -1    9.92   10.81 324-0.41392-0.47112 0.78288-0.78410-0.46621 0.39756
 -11  -1  -8   16.41   14.85 324-0.41677-0.39653 0.78236-0.91839-0.46456-0.01515
 -10  -1  -4   19.84   10.55 324-0.41647-0.32259 0.78241-0.91906-0.46473 0.22162
  -7   1   5  189.75    9.60 324-0.41634-0.09477 0.78244-0.64682-0.46481 0.75394
  -5   1   5   52.41    7.50 323-0.41060 0.04684 0.78347-0.64888-0.46813 0.75810
  -5   5   9    4.29   14.01 324-0.41535 0.05367 0.78262-0.10490-0.46538 0.99327
  -4  -1 -14    8.81   19.93 327-0.43674 0.13261 0.77846-0.91721-0.45275-0.37638
  -3  -1  -2  628.05   15.80 324-0.41524 0.19247 0.78264-0.91813-0.46545 0.34548
  -2   2   6    1.39    9.73 325-0.42087 0.27789 0.78160-0.51035-0.46217 0.81528
  -2   4   8   52.65   12.39 325-0.42148 0.27946 0.78148-0.24020-0.46181 0.93193
   2   6   6    6.92   24.85 331-0.46676 0.61833 0.77166 0.04008-0.43424 0.79183
   4   1 -13   11.02   10.29 323-0.41091 0.69724 0.78341-0.65021-0.46795-0.29430
   4   1  -3  103.33    7.71 324-0.41123 0.70351 0.78336-0.64869-0.46776 0.29470
   5   2 -14   -2.55   12.08 324-0.41754 0.77687 0.78222-0.51383-0.46411-0.35562
   6   2 -10    9.46   10.35 324-0.41352 0.84835 0.78295-0.51376-0.46644-0.11640
   6   2  -6   37.94    8.61 324-0.41318 0.84993 0.78301-0.51414-0.46664 0.11927
   7   3  -9   15.11   10.49 325-0.41652 0.92288 0.78240-0.37849-0.46470-0.05663
   7   3  -8    7.25   10.40 324-0.41519 0.92545 0.78265-0.37784-0.46547 0.00125
   7   3  -7   48.72    9.89 324-0.41274 0.92352 0.78309-0.37898-0.46689 0.06193
   7   4  -3   18.27   10.14 324-0.41423 0.92638 0.78282-0.24285-0.46603 0.29659
   7   5  -2    4.66   12.13 325-0.42218 0.93388 0.78135-0.10698-0.46140 0.35094
 -11  -1  -7   14.69   12.76 325-0.42014-0.39366 0.78169-0.91847-0.46250 0.04101
 -10   1   4   16.69    9.84 325-0.41920-0.31360 0.78186-0.64663-0.46305 0.69034
 -10   3   7   16.84   12.11 324-0.41879-0.31193 0.78194-0.37607-0.46328 0.86807
  -9   0   2   21.91    9.24 325-0.42280-0.23825 0.78118-0.78184-0.46094 0.57163
  -6  -1  -1   63.96    8.32 325-0.42395-0.01836 0.78096-0.91659-0.46026 0.39662
  -4   1   5  189.98    9.16 325-0.42400 0.13309 0.78095-0.64491-0.46023 0.75205
  -4   5   9    9.34   14.85 326-0.42946 0.14161 0.77988-0.10283-0.45701 0.98577
  -1  -1 -11    9.00   12.16 326-0.42895 0.34801 0.77998-0.91706-0.45731-0.19143
   0   1   3  254.00   17.67 326-0.43169 0.43444 0.77944-0.64296-0.45568 0.63320
   3   1 -15    3.27   12.20 325-0.42067 0.63175 0.78159-0.64865-0.46219-0.41808
   5   2  -2  254.84   10.19 325-0.42130 0.78813 0.78147-0.51131-0.46182 0.34855
   6   2  -9   37.38    8.61 325-0.41866 0.85513 0.78196-0.51277-0.46336-0.06103
   6   2  -8   35.68    9.99 325-0.42222 0.85826 0.78129-0.51205-0.46128-0.00412
   6   2  -7   42.00    9.45 325-0.41967 0.85650 0.78177-0.51283-0.46277 0.05677
   6   3  -2  230.69   10.87 325-0.41982 0.86031 0.78175-0.37672-0.46269 0.35078
   7   6  -2   -0.64   13.74 326-0.42538 0.94069 0.78069 0.03015-0.45942 0.34854
 -13   0  -2   -6.40   12.73 326-0.42966-0.52673 0.77980-0.78143-0.45692 0.32761
 -11  -1  -6   34.45   12.51 326-0.42789-0.38543 0.78015-0.91740-0.45797 0.09568
 -10   2   6    0.96   11.27 326-0.43137-0.30058 0.77946-0.50886-0.45590 0.80195
  -8   1   5   46.40    9.35 326-0.42889-0.15556 0.77995-0.64562-0.45737 0.74407
  -7  -1  -1   31.07    8.63 326-0.43164-0.08322 0.77940-0.91552-0.45574 0.39006
  -7   3   8    0.68   10.53 326-0.42990-0.07847 0.77975-0.37437-0.45677 0.92193
  -6   3   8   -1.37    9.98 325-0.42553-0.01018 0.78061-0.37413-0.45936 0.92602
  -5  -1  -1  562.69   12.09 326-0.42698 0.05805 0.78033-0.91585-0.45851 0.39502
  -5   3   8   36.24    9.56 326-0.42912 0.06645 0.77991-0.37381-0.45724 0.92464
  -1   0   1   17.50    9.59 326-0.42649 0.35445 0.78042-0.77978-0.45879 0.51703
   1   0 -14   -1.80   11.91 327-0.43339 0.49801 0.77905-0.78178-0.45469-0.37098
   1   1   2  184.01   24.43 330-0.46098 0.53681 0.77296-0.63664-0.43782 0.55699
   2   0 -12   13.18    9.36 326-0.43074 0.56991 0.77958-0.78140-0.45628-0.24840
   3   6   5    8.57   18.60 330-0.45656 0.68047 0.77400 0.03705-0.44057 0.73947
 -12   1   3    5.90   11.64 327-0.43873-0.44241 0.77800-0.64305-0.45127 0.61842
 -11  -1  -5   18.11   12.79 327-0.43910-0.37356 0.77792-0.91489-0.45104 0.14790
 -11   0   1  121.05   11.32 327-0.43882-0.36838 0.77798-0.77915-0.45121 0.50096
 -10  -1  -3   15.02   10.37 327-0.43653-0.30029 0.77846-0.91398-0.45259 0.26740
  -9  -1  -2   28.09    9.74 327-0.43416-0.22942 0.77895-0.91430-0.45401 0.32877
  -6   0   3    0.38    8.37 327-0.43608-0.00295 0.77855-0.77901-0.45286 0.62433
  -6   2   7   31.41    9.78 327-0.43677 0.00064 0.77841-0.50726-0.45244 0.86005
   3   1  -1  358.94   11.69 327-0.43798 0.65789 0.77816-0.64356-0.45171 0.39532
   4   1 -12   21.27    8.96 326-0.43219 0.71907 0.77934-0.64631-0.45519-0.24779
   4   3   2   27.49    9.98 328-0.44053 0.73579 0.77762-0.37208-0.45018 0.57231
   6   3 -13   11.72   12.97 327-0.43706 0.87115 0.77835-0.37519-0.45227-0.30730
   7   4  -4   23.56    9.23 327-0.43309 0.94627 0.77916-0.23895-0.45465 0.22665
 -13   1   2   -4.52   11.53 327-0.43924-0.51604 0.77783-0.64310-0.45085 0.55835
 -12   0   0   61.09   11.91 328-0.44137-0.44129 0.77737-0.77862-0.44956 0.43923
 -12   2   5  -10.71   13.30 328-0.44290-0.43845 0.77705-0.50726-0.44864 0.73551
  -8   3   8    7.61   11.27 327-0.44101-0.14178 0.77745-0.37099-0.44978 0.91487
  -7   0   3   75.23    7.62 327-0.44020-0.07168 0.77762-0.77751-0.45027 0.62129
  -7   2   7   19.28    9.80 328-0.44172-0.06896 0.77730-0.50608-0.44935 0.85717
  -5   0   3  151.64    7.88 327-0.44028 0.07531 0.77761-0.77708-0.45022 0.62286
  -5   2   7    8.12    9.74 328-0.44181 0.07879 0.77728-0.50595-0.44930 0.85795
  -4   3   8   18.34   10.72 329-0.44759 0.15856 0.77602-0.36899-0.44577 0.91615
   2   1 -16   20.23   13.17 328-0.44541 0.58159 0.77650-0.64402-0.44711-0.49193
   4   1  -4  165.65    8.98 328-0.44538 0.73696 0.77651-0.64177-0.44713 0.21577
   4   2   0  464.55   11.77 328-0.44238 0.73653 0.77716-0.50707-0.44895 0.45319
   5   2 -13   -2.06   10.36 328-0.43979 0.79931 0.77771-0.50930-0.45052-0.31044
   5   3   0  377.38   12.17 329-0.44766 0.81566 0.77601-0.37073-0.44573 0.45119
   6   5   0   21.49   11.59 329-0.44796 0.89066 0.77594-0.09952-0.44555 0.45299
   7   5  -3   -0.94   13.24 328-0.44363 0.95787 0.77689-0.10162-0.44819 0.27854
 -13   0  -1   10.67   12.98 330-0.45422-0.50361 0.77451-0.77604-0.44153 0.37218
 -11  -1  -4   26.76   12.05 329-0.45453-0.35785 0.77444-0.91145-0.44134 0.19724
 -11   1   4   12.61    8.98 328-0.44735-0.35915 0.77605-0.64067-0.44576 0.67254
 -10   0   2   46.81    9.03 328-0.44710-0.28643 0.77611-0.77679-0.44592 0.55512
  -9   1   5   19.14    8.50 328-0.44681-0.21198 0.77617-0.64051-0.44609 0.73348
  -8  -1  -1   34.60    7.78 328-0.44699-0.14079 0.77613-0.91243-0.44599 0.37957
  -8   0   3   74.14    8.81 329-0.45209-0.13401 0.77500-0.77480-0.44285 0.61356
  -8   2   7    6.54   10.45 329-0.44968-0.13363 0.77554-0.50412-0.44434 0.84987
  -7   4   9    2.49   13.20 330-0.45446-0.05469 0.77445-0.23238-0.44138 0.96955
  -6   4   9    0.86   11.99 328-0.44720 0.01252 0.77609-0.23427-0.44586 0.97128
  -5   4   9    5.98   12.16 329-0.45511 0.09371 0.77431-0.23234-0.44098 0.96819
  -4  -1  -1  284.44   10.78 329-0.45188 0.15631 0.77504-0.91028-0.44298 0.38127
  -2  -1 -12   15.37   14.62 331-0.46729 0.31185 0.77140-0.90908-0.43335-0.27511
  -1   0 -16    0.70   15.35 330-0.45949 0.37489 0.77328-0.77671-0.43826-0.50425
   0   0 -15    3.60   12.64 329-0.45343 0.44337 0.77469-0.77821-0.44202-0.44189
   0   2   5  185.67   16.07 331-0.46219 0.46591 0.77264-0.50106-0.43656 0.73222
   2   0 -11   34.82    8.97 330-0.45373 0.59376 0.77462-0.77672-0.44184-0.20411
   2   0  -4  679.10   13.76 329-0.45082 0.59514 0.77528-0.77632-0.44364 0.20903
   2   2   3  719.66   22.83 331-0.46469 0.61455 0.77204-0.50062-0.43499 0.61408
   3   1 -14    2.35   12.38 329-0.45084 0.66260 0.77528-0.64307-0.44362-0.37780
   4   1 -11   -5.58   10.49 329-0.45059 0.73768 0.77533-0.64200-0.44377-0.20075
   4   2 -15   -0.28   12.98 329-0.45082 0.73729 0.77528-0.50827-0.44364-0.43782
   4   4   3   21.22   12.28 330-0.45798 0.75429 0.77364-0.23233-0.43920 0.62125
   5   5   2   16.27   12.40 329-0.45380 0.82421 0.77461-0.09815-0.44179 0.56634
   6   3  -3   27.34    9.32 329-0.44985 0.88953 0.77550-0.37102-0.44423 0.27382
   6   4  -1   10.88    9.62 329-0.45216 0.89380 0.77498-0.23434-0.44281 0.39086
   6   6   0    1.86   13.09 330-0.45503 0.89781 0.77432 0.03682-0.44103 0.44903
   7   4 -10   -1.19   13.41 329-0.45096 0.96008 0.77525-0.23626-0.44355-0.13835
   7   4  -5   56.98    9.53 329-0.44732 0.95984 0.77606-0.23625-0.44578 0.15952
   7   6  -3    5.23   13.58 330-0.45330 0.96419 0.77472 0.03300-0.44210 0.27415
 -11   2   6    0.21   12.19 329-0.45439-0.34950 0.77462-0.50325-0.44122 0.78451
  -9   3   8   30.98   12.41 330-0.45652-0.20016 0.77413-0.36810-0.43989 0.90427
  -8   4   9   -0.07   13.91 330-0.45822-0.12287 0.77374-0.23266-0.43884 0.96241
  -5  -1 -14    1.91   23.92 334-0.48547 0.10756 0.76686-0.90706-0.42146-0.40916
  -4   2   7   59.80    9.35 330-0.45910 0.17033 0.77353-0.50196-0.43829 0.84775
  -3  -1 -13   20.82   15.73 333-0.47615 0.24706 0.76932-0.90709-0.42749-0.34096
  -3   1   5   54.90    8.79 330-0.45765 0.24069 0.77387-0.63725-0.43919 0.73208
  -3   5   9    7.19   13.94 331-0.46642 0.25217 0.77177-0.09356-0.43369 0.96554
  -1  -1 -10   44.62   12.46 331-0.46570 0.38591 0.77195-0.90876-0.43415-0.15603
   5   2 -12    2.65   12.35 331-0.46015 0.81910 0.77328-0.50522-0.43763-0.26304
   5   2  -3   96.98    9.49 330-0.45642 0.82266 0.77415-0.50483-0.43996 0.26740
   5   6   2   -4.86   13.58 331-0.46206 0.83347 0.77282 0.03850-0.43643 0.56083
   6   3 -12   -0.99   11.04 330-0.45439 0.88868 0.77462-0.37121-0.44122-0.25946
   7   4  -9   -0.45   12.44 330-0.45728 0.96728 0.77395-0.23528-0.43942-0.08276
   7   4  -7   23.19   11.59 330-0.46101 0.97177 0.77308-0.23397-0.43710 0.03282
   7   4  -6    0.42   11.76 330-0.45740 0.96821 0.77393-0.23495-0.43935 0.09353
 -10  -1  -2   47.61   10.05 331-0.46339-0.27397 0.77239-0.90853-0.43574 0.30924
  -9  -1  -1   62.34    9.41 331-0.46724-0.19434 0.77146-0.90806-0.43332 0.36548
  -9   2   7   -1.77   11.09 330-0.46160-0.19278 0.77282-0.50179-0.43686 0.83908
  -4   0   3   33.99    6.94 330-0.46110 0.16896 0.77294-0.77195-0.43718 0.61135
  -2   0   2 1091.63   17.42 331-0.46694 0.32129 0.77153-0.77052-0.43351 0.55058
  -1   3   7   22.19   12.62 332-0.47354 0.40492 0.76988-0.36288-0.42931 0.84207
   4   1 -10  114.05   10.64 331-0.46483 0.75344 0.77204-0.63853-0.43483-0.14899
   4   1  -5  197.35    9.42 331-0.46688 0.75806 0.77154-0.63695-0.43354 0.14349
   7   4  -8   15.03    9.89 331-0.46130 0.97139 0.77289-0.23411-0.43705-0.02608
   7   5  -4   13.15   11.26 331-0.46256 0.97508 0.77259-0.09783-0.43626 0.20912
 -12  -1  -6    4.12   13.64 332-0.47078-0.41542 0.77056-0.90681-0.43094 0.06763
 -12   0   1   23.29   12.39 332-0.47096-0.41106 0.77051-0.77063-0.43082 0.47996
 -11  -1  -3   17.38   11.64 332-0.47142-0.33975 0.77040-0.90645-0.43053 0.24453
 -11   0   2   40.07   11.48 332-0.47457-0.33353 0.76960-0.77035-0.42852 0.53710
 -10   1   5    0.92    8.80 331-0.46804-0.26473 0.77124-0.63562-0.43268 0.71994
  -9   0   3   -0.60    7.86 332-0.46840-0.19146 0.77115-0.77154-0.43245 0.60169
  -4   4   9    2.97   13.24 334-0.48116 0.19302 0.76788-0.22516-0.42427 0.95609
  -1  -1  -5  160.36   17.56 335-0.49577 0.41853 0.76387-0.90012-0.41469 0.11925
   1   0 -13   13.29   10.07 332-0.47303 0.53784 0.76999-0.77223-0.42951-0.33450
   2   0 -10   43.58    9.64 332-0.47402 0.61509 0.76974-0.77119-0.42887-0.15822
   5   2 -11   -3.18   10.52 332-0.47306 0.83564 0.76998-0.50163-0.42949-0.21526
   5   4   1   48.21   10.76 332-0.47541 0.84385 0.76938-0.22904-0.42798 0.49307
   6   3 -11   -2.24   10.15 331-0.46804 0.90362 0.77124-0.36829-0.43268-0.20919
   6   3  -4   31.93    9.13 332-0.47084 0.90980 0.77054-0.36619-0.43090 0.20229
   7   5  -5    3.85   11.35 332-0.47166 0.98652 0.77034-0.09395-0.43038 0.14370
 -13   0   0   -3.41   12.21 333-0.47908-0.47842 0.76829-0.76978-0.42578 0.41502
 -12  -1  -5    8.97   13.25 333-0.47941-0.40648 0.76820-0.90481-0.42556 0.12119
 -12   1   4    7.20   11.79 333-0.47908-0.40326 0.76829-0.63346-0.42578 0.65378
 -10   3   8   -7.92   13.06 333-0.47848-0.25319 0.76844-0.36191-0.42616 0.89302
  -7  -1   0   43.95    8.92 332-0.47667-0.03816 0.76891-0.90407-0.42733 0.42163
  -6  -1   0   12.19    8.48 332-0.47660 0.03507 0.76893-0.90429-0.42738 0.42209
  -3   3   8    5.42   10.85 333-0.48261 0.26709 0.76735-0.35975-0.42349 0.89525
  -1   1   4  807.98   17.33 333-0.48297 0.41292 0.76726-0.63024-0.42326 0.65897
   2   0  -5  107.31    8.81 334-0.48257 0.62611 0.76736-0.76890-0.42352 0.12998
   2   1 -15    1.17   12.46 333-0.47979 0.61753 0.76810-0.63651-0.42532-0.45732
   3   1 -13   -1.96   10.23 333-0.47908 0.69135 0.76829-0.63597-0.42578-0.33700
   4   1  -9   60.24    7.93 333-0.47563 0.76399 0.76918-0.63612-0.42800-0.09867
   4   1  -8   57.49    9.11 333-0.48221 0.77113 0.76746-0.63411-0.42375-0.04380
   4   1  -6  106.44    8.93 333-0.47820 0.76809 0.76851-0.63574-0.42635 0.07677
   4   2 -14   14.67   11.35 333-0.47947 0.76585 0.76818-0.50103-0.42552-0.39608
   5   2  -4  125.07    8.97 333-0.48121 0.84596 0.76772-0.49899-0.42440 0.19321
   6   3 -10   15.21   10.87 333-0.48083 0.91596 0.76782-0.36446-0.42464-0.15789
   7   5  -6    6.96   12.21 333-0.48031 0.99319 0.76796-0.09286-0.42498 0.07956
 -10   0   3   14.28    9.69 334-0.48637-0.24610 0.76622-0.76537-0.42090 0.58892
 -10   2   7    4.75   12.11 334-0.48539-0.24714 0.76649-0.49499-0.42154 0.82828
  -8  -1   0   30.87    9.56 334-0.48556-0.10333 0.76644-0.90177-0.42143 0.41477
  -8   1   6   43.70   10.39 334-0.48842-0.09548 0.76566-0.62900-0.41956 0.76774
  -7   1   6   94.39    8.06 333-0.48244-0.02747 0.76728-0.63140-0.42346 0.77185
  -6   1   6   23.27    7.80 333-0.48287 0.04598 0.76716-0.63084-0.42318 0.77216
  -1  -1  -9    9.64   10.74 335-0.49666 0.41723 0.76335-0.90079-0.41411-0.11731
   2   0  -9   -0.79    8.62 334-0.48656 0.62881 0.76617-0.76894-0.42077-0.10857
   4   1  -7   34.17    7.31 334-0.48273 0.77239 0.76720-0.63443-0.42327 0.01440
   5   2 -10   -0.83   10.14 334-0.48679 0.84969 0.76611-0.49807-0.42063-0.16417
   6   3  -9   30.89   10.15 334-0.48922 0.92506 0.76544-0.36186-0.41904-0.10472
   6   3  -5  211.77   10.81 334-0.48426 0.92285 0.76679-0.36336-0.42228 0.13360
   6   4  -2    6.33    9.13 334-0.48401 0.92552 0.76686-0.22629-0.42244 0.31183
   6   5  -1    8.68   11.16 334-0.48795 0.92886 0.76579-0.09024-0.41986 0.36847
   6   6  -1    8.09   13.14 334-0.48664 0.93152 0.76615 0.04729-0.42072 0.37074
   7   5  -8   -2.79   12.13 334-0.48300 0.99431 0.76713-0.09277-0.42310-0.04072
   7   5  -7    3.19   13.02 333-0.48325 0.99560 0.76706-0.09248-0.42294 0.01892
 -12  -1  -4   13.37   12.08 334-0.49132-0.39442 0.76484-0.90143-0.41746 0.17164
 -11  -1  -2   18.62   11.50 335-0.49347-0.31766 0.76424-0.90083-0.41604 0.28910
 -11   1   5   14.52   10.94 335-0.49072-0.31549 0.76501-0.62906-0.41786 0.70433
 -10  -1  -1   47.58   10.03 334-0.49030-0.24577 0.76512-0.90112-0.41813 0.35077
  -5  -1   0  441.06   10.24 334-0.48983 0.12162 0.76525-0.90013-0.41844 0.41505
  -5   1   6    6.39    9.26 335-0.49301 0.12909 0.76437-0.62770-0.41634 0.76592
  -3   2   7   74.24    9.93 335-0.49591 0.28038 0.76355-0.49189-0.41442 0.82469
   0   0 -14    0.88   12.56 336-0.49841 0.48982 0.76283-0.76701-0.41276-0.41222
   5   2  -5  193.40    9.41 335-0.49564 0.86027 0.76363-0.49526-0.41460 0.12489
   5   3  -1   47.57    8.67 335-0.49620 0.86365 0.76347-0.35859-0.41423 0.36094
   6   3  -8   -9.33    9.35 335-0.49349 0.93072 0.76423-0.36044-0.41603-0.04948
   6   3  -7    2.48    9.12 335-0.49490 0.93264 0.76384-0.36008-0.41509 0.00923
   6   3  -6   69.19    9.48 335-0.49193 0.92977 0.76467-0.36212-0.41706 0.07022
 -12   0   2   29.15   12.05 336-0.50250-0.37896 0.76157-0.76240-0.40980 0.51738
  -9  -1   0   78.12   10.61 336-0.49981-0.16195 0.76236-0.89757-0.41161 0.40429
  -9   1   6   36.15   10.52 336-0.49998-0.15850 0.76231-0.62614-0.41149 0.75880
  -7   0   4    8.07    7.10 336-0.49728-0.01520 0.76309-0.76220-0.41330 0.64325
  -6  -1 -14    1.85   29.08 342-0.54456 0.09394 0.74791-0.88901-0.38048-0.45130
  -6   0   4   83.99    8.79 336-0.50013 0.06128 0.76226-0.76128-0.41139 0.64231
   1   0 -12   13.16   10.71 337-0.50707 0.57249 0.76021-0.76260-0.40672-0.29743
   1   1 -16   11.50   11.92 336-0.49807 0.56234 0.76286-0.63259-0.41276-0.52908
   2   0  -8  111.91    8.88 336-0.49802 0.64039 0.76287-0.76507-0.41280-0.05683
   2   0  -7  547.91   11.90 336-0.50242 0.64510 0.76159-0.76344-0.40986-0.00091
   2   0  -6  329.99    9.72 336-0.49711 0.64055 0.76314-0.76505-0.41341 0.06133
   3   1 -12    9.68   10.07 336-0.50267 0.71637 0.76152-0.62965-0.40969-0.29467
   5   2  -9   39.96    8.16 336-0.49745 0.86016 0.76304-0.49521-0.41318-0.11190
   5   3 -13   -6.24   12.55 336-0.50063 0.86154 0.76212-0.35932-0.41106-0.35055
 -13   0   1    0.20   12.93 336-0.50376-0.45176 0.76125-0.76133-0.40873 0.45745
 -12  -1  -3    7.19   12.54 337-0.50568-0.37900 0.76068-0.89700-0.40743 0.22078
 -11   2   7   12.16   12.67 337-0.50704-0.29980 0.76027-0.48912-0.40651 0.81372
  -8   0   4   -0.77    7.34 336-0.50306-0.08336 0.76146-0.76095-0.40920 0.63890
  -8   3   9   -6.47   12.01 337-0.50818-0.07324 0.75993-0.35355-0.40574 0.93002
  -7   3   9    4.84   11.51 337-0.50783-0.00164 0.76004-0.35276-0.40598 0.93391
  -6   3   9   21.84   11.24 337-0.51023 0.07464 0.75931-0.35193-0.40435 0.93200
  -3   0   3   33.49    8.66 337-0.50516 0.28682 0.76084-0.75966-0.40778 0.58245
  -2   0 -16    4.76   14.28 338-0.51404 0.35699 0.75813-0.76202-0.40175-0.53969
  -1   0 -15   16.15   13.67 338-0.51357 0.43042 0.75828-0.76205-0.40206-0.48224
   3   1  -2  205.76    8.63 336-0.50287 0.72280 0.76152-0.62674-0.40933 0.29380
   3   3   3   29.93   10.98 338-0.51401 0.73652 0.75814-0.35211-0.40177 0.58290
   4   2 -13   -4.36    9.46 337-0.50393 0.79093 0.76120-0.49414-0.40861-0.35391
   4   2  -1   70.11    7.36 337-0.50380 0.79794 0.76124-0.49134-0.40870 0.35370
   4   5   3   43.47   13.14 339-0.51936 0.81539 0.75646-0.08089-0.39808 0.58112
   5   2  -8    0.91    7.48 337-0.50358 0.86722 0.76131-0.49274-0.40885-0.05812
   5   2  -7    7.78    8.09 337-0.50659 0.87004 0.76041-0.49197-0.40682-0.00013
   5   2  -6   45.69    6.99 337-0.50343 0.86777 0.76135-0.49299-0.40895 0.06123
   6   4 -11    0.85   11.46 338-0.51031 0.94377 0.75928-0.22169-0.40429-0.23561
   6   4  -3    0.77   10.16 337-0.50748 0.94844 0.76014-0.22015-0.40621 0.23573
 -12   1   5   -0.97   11.44 338-0.51501-0.36335 0.75783-0.62259-0.40122 0.68666
 -11  -1  -1    8.14    9.82 338-0.51460-0.29417 0.75795-0.89325-0.40150 0.33344
 -11   0   3    8.70    9.51 337-0.51030-0.29724 0.75928-0.75914-0.40444 0.57278
 -10   1   6  -13.57   10.19 338-0.51478-0.21597 0.75790-0.62234-0.40138 0.74731
  -9   0   4    0.41    9.16 338-0.51420-0.14579 0.75808-0.75815-0.40178 0.63059
  -8   2   8   -0.06   10.67 338-0.51443-0.06855 0.75801-0.48660-0.40162 0.86789
  -7   2   8   29.39   10.55 337-0.51090 0.00167 0.75909-0.48737-0.40403 0.87083
  -6   2   8   36.54    9.45 338-0.51424 0.07787 0.75807-0.48677-0.40175 0.86843
  -5   0   4   46.53    8.80 338-0.51385 0.14814 0.75819-0.75759-0.40202 0.63338
  -5   5  10   -6.14   16.39 337-0.51146 0.15149 0.75892-0.08393-0.40365 0.98597
  -3  -1  -1 1992.28   22.95 338-0.51705 0.29532 0.75719-0.89255-0.39982 0.33873
  -3   4   9    8.47   12.71 338-0.51420 0.29940 0.75808-0.21555-0.40178 0.93138
  -2  -1 -11   31.08   13.43 340-0.52559 0.37233 0.75444-0.89186-0.39389-0.25585
  -1  -1  -8   95.36   11.81 339-0.52239 0.44420 0.75548-0.89219-0.39612-0.07627
  -1   2   6   18.17   11.19 339-0.51930 0.44984 0.75647-0.48432-0.39826 0.75236
  -1   4   8   27.19   14.41 339-0.52387 0.45565 0.75500-0.21293-0.39509 0.86782
   1   0  -2   66.29   10.85 338-0.51353 0.58594 0.75828-0.75906-0.40223 0.28450
   2   1 -14    8.91   11.73 338-0.51364 0.65245 0.75825-0.62708-0.40216-0.42078
   3   2 -15   -9.23   12.34 338-0.51339 0.72427 0.75833-0.49192-0.40233-0.47724
   3   4   4   -0.43   12.96 340-0.52427 0.74838 0.75487-0.21411-0.39481 0.63414
   4   6   3    2.96   14.35 340-0.52475 0.82065 0.75472 0.05558-0.39447 0.57748
   5   5   1   18.98   11.96 338-0.51735 0.88586 0.75709-0.08148-0.39961 0.46528
   5   6   1    3.13   13.49 339-0.52006 0.88899 0.75623 0.05471-0.39774 0.46414
   6   5  -2   -5.17   11.81 338-0.51455 0.95607 0.75797-0.08280-0.40154 0.29033
   6   6  -2    0.30   13.69 338-0.51569 0.95817 0.75761 0.05408-0.40075 0.29135
 -12  -1  -2   14.62   11.81 339-0.52389-0.36053 0.75506-0.89154-0.39512 0.26723
 -10  -1   0   20.90   10.10 339-0.51932-0.21695 0.75653-0.89228-0.39830 0.38982
  -9   2   8   15.73   11.10 339-0.52339-0.13377 0.75522-0.48349-0.39548 0.86134
  -9   3   9   -5.37   12.71 339-0.52067-0.13629 0.75610-0.34911-0.39737 0.92398
  -7  -1   1  243.73   10.18 339-0.52127 0.00768 0.75591-0.89079-0.39695 0.45009
  -5   3   9   20.83   11.38 339-0.52477 0.16329 0.75477-0.34740-0.39451 0.92333
  -4   1   6  105.82    8.93 339-0.51875 0.22866 0.75671-0.62029-0.39869 0.74951
  -2   5   9    7.20   16.13 341-0.53672 0.39622 0.75076-0.07272-0.38607 0.91904
  -1  -1  -6   15.98   13.42 342-0.53691 0.45989 0.75070-0.88697-0.38594 0.03157
   4   3   1  132.81   10.70 340-0.52671 0.82168 0.75414-0.34913-0.39316 0.45686
   5   3 -12   -6.08   11.65 340-0.52468 0.88192 0.75480-0.35380-0.39457-0.30281
   6   4 -10    1.61   11.75 340-0.52336 0.95620 0.75523-0.21871-0.39549-0.18433
   6   4  -4   18.18   10.61 340-0.52418 0.96354 0.75496-0.21542-0.39492 0.16653
 -10   0   4   21.67    9.83 340-0.52855-0.20444 0.75337-0.75317-0.39158 0.61949
  -8  -1   1  274.08    9.07 339-0.52451-0.06222 0.75470-0.88994-0.39441 0.44669
  -7   4  10   -0.58   13.61 340-0.52748 0.02044 0.75373-0.21225-0.39233 0.97605
  -6  -1   1  111.64    9.24 340-0.52743 0.08719 0.75374-0.88884-0.39236 0.44593
  -5   2   8    5.11    9.57 340-0.52910 0.16650 0.75319-0.48108-0.39119 0.85981
  -4  -1   0  524.37   11.27 339-0.52449 0.23042 0.75471-0.88945-0.39442 0.39185
  -2   1   5  606.50   12.98 340-0.52504 0.38191 0.75453-0.61803-0.39404 0.68749
  -1  -1  -7   77.97   12.47 341-0.53708 0.45894 0.75048-0.88745-0.38553-0.02766
   3   1 -11   41.79    8.34 340-0.52471 0.73930 0.75464-0.62239-0.39427-0.25018
   3   2   1  126.45   10.88 341-0.53207 0.75378 0.75219-0.48166-0.38909 0.45137
   4   2 -12    2.53   10.70 340-0.52674 0.81372 0.75397-0.48716-0.39285-0.30944
   5   3  -2   82.04    9.16 340-0.53060 0.89695 0.75269-0.34826-0.39013 0.27852
   5   4   0   31.70    9.24 340-0.52593 0.89424 0.75424-0.21426-0.39341 0.40061
   6   4  -9    5.22   10.90 340-0.52940 0.96611 0.75309-0.21499-0.39098-0.13196
 -13   0   2    4.98   13.40 341-0.53240-0.42304 0.75219-0.75280-0.38869 0.49663
 -12   0   3   -1.04   12.83 341-0.53481-0.34591 0.75137-0.75191-0.38698 0.55417
 -11   1   6   16.74   11.24 341-0.53372-0.27184 0.75174-0.61583-0.38775 0.73364
 -10   2   8   10.40   12.46 340-0.53267-0.19509 0.75209-0.48038-0.38850 0.85060
  -9  -1   1   81.20   10.47 341-0.53377-0.12706 0.75172-0.88678-0.38772 0.43866
  -6   4  10  -13.62   13.03 342-0.53804 0.10363 0.75025-0.20818-0.38467 0.97249
  -4  -1 -13    7.48   18.44 344-0.55489 0.25252 0.74419-0.88296-0.37244-0.39705
   0   0 -13    8.47   11.51 342-0.53884 0.53108 0.74998-0.75439-0.38410-0.38299
   1   0 -11  110.72    9.68 341-0.53445 0.60167 0.75149-0.75381-0.38723-0.25977
   1   1 -15   -7.21   12.47 342-0.53830 0.60259 0.75017-0.61948-0.38449-0.49917
   5   3 -11   46.64   10.80 341-0.53722 0.89881 0.75054-0.34844-0.38526-0.25698
   6   4  -8   -3.34   10.67 341-0.53549 0.97298 0.75113-0.21291-0.38649-0.07755
   6   4  -5   10.65    9.93 341-0.53345 0.97256 0.75183-0.21271-0.38795 0.10077
   6   5  -3    3.90   11.40 341-0.53494 0.97493 0.75133-0.07669-0.38689 0.21822
   6   6  -3   -4.90   13.18 341-0.53515 0.97665 0.75125 0.05860-0.38674 0.21753
 -12  -1  -1   -6.69   11.95 342-0.54236-0.33964 0.74892-0.88490-0.38170 0.31179
 -11  -1   0   -2.99   10.29 342-0.54157-0.26780 0.74920-0.88581-0.38227 0.37244
  -3  -1 -12   42.72   15.97 344-0.55733 0.33043 0.74345-0.88059-0.37078-0.33961
  -2   3   8    7.02   11.34 343-0.54499 0.40321 0.74799-0.34070-0.37981 0.85168
   2   1 -13   19.51   12.14 343-0.54628 0.68537 0.74752-0.61533-0.37887-0.38409
   3   1 -10   23.76    9.12 343-0.54441 0.75873 0.74819-0.61559-0.38023-0.20584
   3   1  -3 1002.66   14.16 342-0.54345 0.76203 0.74854-0.61466-0.38092 0.20642
   3   2 -14   -7.35   12.18 342-0.54168 0.75379 0.74916-0.48242-0.38219-0.43976
   4   3 -14   13.62   12.71 342-0.54266 0.82634 0.74882-0.34785-0.38149-0.43524
   6   4  -7   10.51    9.25 342-0.53878 0.97669 0.75018-0.21155-0.38428-0.02099
   6   4  -6   -7.51    8.55 342-0.53829 0.97681 0.75035-0.21126-0.38463 0.03751
 -11   0   4    1.74   10.29 343-0.54684-0.26007 0.74734-0.74704-0.37861 0.60598
 -10  -1   1   11.29    9.93 343-0.54920-0.18562 0.74649-0.88199-0.37690 0.42759
  -8   1   7   10.69    9.13 342-0.54510-0.03916 0.74797-0.61163-0.37987 0.78697
  -7   1   7   29.33    8.04 342-0.54458 0.03510 0.74815-0.61177-0.38025 0.78777
  -5  -1   1  282.16   10.13 343-0.54709 0.17965 0.74725-0.88174-0.37844 0.43368
  -5   4  10   -3.34   13.01 344-0.55256 0.19193 0.74525-0.20402-0.37444 0.96093
  -4   0   4    3.72    7.00 342-0.54448 0.25246 0.74819-0.74754-0.38033 0.61325
  -4   3   9    4.64   10.75 343-0.54831 0.26028 0.74681-0.34015-0.37755 0.90463
  -4   5  10    4.43   14.51 343-0.55032 0.26268 0.74608-0.06860-0.37608 0.96477
   0   1 -16    9.39   14.00 345-0.55696 0.54662 0.74361-0.61238-0.37120-0.56766
   2   1   0  232.30   11.86 343-0.54951 0.69785 0.74637-0.61041-0.37667 0.37802
   4   2 -11   16.17    8.62 343-0.54562 0.83365 0.74778-0.48039-0.37950-0.26464
   4   2  -2  187.19    8.30 343-0.54518 0.83855 0.74794-0.47849-0.37982 0.26555
   4   4   2   21.55   10.10 343-0.54970 0.84550 0.74630-0.20526-0.37653 0.50039
   6   5  -9    6.64   13.16 343-0.54842 0.98510 0.74677-0.07404-0.37746-0.14492
   6   5  -4   31.16   10.88 343-0.54736 0.98736 0.74715-0.07263-0.37823 0.15026
   6   6  -4    5.23   12.52 343-0.54852 0.98829 0.74673 0.06299-0.37739 0.14990
 -12   1   6    3.41   12.93 343-0.55326-0.32494 0.74503-0.60859-0.37407 0.71810
 -11   2   8   -0.52   11.98 344-0.55196-0.25172 0.74551-0.47431-0.37502 0.83902
  -9   1   7    3.69    8.83 344-0.55186-0.10623 0.74554-0.60950-0.37509 0.78192
  -8   0   5    6.00    7.57 343-0.55196-0.03332 0.74551-0.74447-0.37502 0.66324
  -7   0   5   31.27    7.25 343-0.55222 0.04057 0.74541-0.74430-0.37483 0.66371
  -6   1   7   49.65    7.81 343-0.55220 0.11583 0.74542-0.60933-0.37485 0.78283
  -4   2   8   85.27    8.71 344-0.55684 0.26727 0.74369-0.47265-0.37143 0.84026
  -3   0 -16    4.79   16.31 345-0.56198 0.33160 0.74173-0.74565-0.36761-0.57737
   5   3 -10   16.67    8.95 344-0.55191 0.91388 0.74552-0.34257-0.37505-0.20864
   5   3  -3   87.93    9.70 344-0.55310 0.91948 0.74509-0.34027-0.37418 0.20347
   5   4 -12   -3.16   12.87 344-0.55598 0.91779 0.74401-0.20549-0.37206-0.33067
   5   5   0    2.31   11.16 345-0.55932 0.92773 0.74275-0.06714-0.36959 0.37627
   5   6   0   -3.44   13.04 343-0.55196 0.92501 0.74551 0.06934-0.37502 0.38353
   6   5  -8    1.46   12.37 345-0.55865 0.99212 0.74300-0.07205-0.37009-0.09193
   6   5  -5   -2.61   11.50 344-0.55531 0.99473 0.74426-0.06970-0.37256 0.08429
   6   6  -5   -5.29   12.05 344-0.55542 0.99514 0.74422 0.06602-0.37248 0.08435
 -13   0   3    0.41   13.31 345-0.56174-0.39385 0.74192-0.74278-0.36774 0.53464
 -10   1   7  -10.02   12.02 345-0.56197-0.16884 0.74183-0.60608-0.36757 0.77303
  -9   0   5   13.80    7.89 344-0.55813-0.10083 0.74330-0.74249-0.37043 0.65810
  -8  -1   2  206.76    9.69 345-0.56350-0.02353 0.74124-0.87633-0.36643 0.47720
  -6   0   5   11.88    8.69 345-0.56308 0.12424 0.74140-0.74113-0.36674 0.65777
  -3   1   6   33.43    8.18 345-0.56413 0.34799 0.74099-0.60401-0.36595 0.71775
  -2   2   7  385.93   12.91 345-0.56348 0.42114 0.74125-0.46930-0.36644 0.77827
  -1   0 -14   -1.44   13.26 344-0.55895 0.47764 0.74299-0.74803-0.36982-0.45824
   1   0 -10   16.98    8.95 345-0.56233 0.62932 0.74169-0.74357-0.36730-0.22066
   3   1  -9   17.88    9.58 345-0.55942 0.77537 0.74281-0.60933-0.36947-0.15779
   4   2 -10   21.49   10.15 345-0.56333 0.85121 0.74130-0.47331-0.36655-0.21829
   4   3 -13    3.49   12.20 346-0.56529 0.85043 0.74054-0.33801-0.36509-0.39504
   5   3  -9   12.15    9.28 345-0.56396 0.92602 0.74106-0.33779-0.36608-0.15853
   5   4  -1  280.87   11.24 345-0.56349 0.93088 0.74124-0.20151-0.36643 0.31301
   6   5  -7    0.60   10.96 345-0.55864 0.99649 0.74310-0.06895-0.37005-0.03596
   6   5  -6    4.38   10.33 344-0.55865 0.99748 0.74310-0.06877-0.37004 0.02385
 -12  -1   0   -3.55    9.97 346-0.56526-0.31727 0.74052-0.87699-0.36523 0.35485
 -12   0   4    2.61   12.14 345-0.56543-0.31333 0.74045-0.73904-0.36511 0.59055
 -11  -1   1   -0.20   11.00 345-0.56543-0.24199 0.74045-0.87462-0.36511 0.41459
 -10   0   5   11.61    9.85 346-0.56906-0.16309 0.73902-0.73863-0.36237 0.64963
  -9  -1   2   79.70    9.87 346-0.56918-0.09075 0.73897-0.87376-0.36228 0.47355
  -7  -1   2   87.21    7.89 345-0.56528 0.05180 0.74051-0.87557-0.36522 0.47725
  -5   1   7   11.91    8.70 346-0.56947 0.20647 0.73886-0.60240-0.36206 0.77056
  -2  -1 -10   38.68   13.28 348-0.58225 0.43070 0.73364-0.86954-0.35227-0.23924
  -2  -1  -2  916.32   23.13 346-0.57255 0.42344 0.73763-0.87328-0.35972 0.24044
  -2   0 -15   -5.79   13.91 347-0.57179 0.41516 0.73793-0.74114-0.36030-0.52571
   2   2 -15   -4.93   12.67 346-0.56885 0.70703 0.73911-0.47176-0.36253-0.52086
   3   1  -4  664.75   11.30 346-0.56648 0.78521 0.74004-0.60585-0.36432 0.13017
   3   2 -13   -8.62   11.48 346-0.56874 0.78174 0.73915-0.47148-0.36261-0.40119
   5   3  -4  200.06   10.01 346-0.56771 0.93357 0.73956-0.33538-0.36339 0.13230
 -13  -1  -1    7.87   11.21 346-0.57241-0.38447 0.73773-0.87404-0.36011 0.29104
 -11   1   7   -1.76   12.29 347-0.57572-0.22766 0.73638-0.60090-0.35758 0.76195
  -9   3  10   13.19   14.64 347-0.57705-0.07756 0.73584-0.32921-0.35657 0.93911
  -8   2   9    7.14   11.17 347-0.57580-0.00714 0.73635-0.46484-0.35752 0.88363
  -8   3  10  -11.52   12.87 347-0.57561-0.00620 0.73643-0.33011-0.35767 0.94266
  -7   2   9    7.74   10.19 347-0.57613 0.06763 0.73622-0.46459-0.35727 0.88192
  -7   3  10   -3.08   12.53 348-0.58040 0.07116 0.73445-0.32720-0.35399 0.94177
  -6  -1   2    7.92    8.36 347-0.57673 0.13654 0.73597-0.87108-0.35681 0.46989
   0   0 -12    9.50   11.26 347-0.57830 0.57174 0.73533-0.73849-0.35561-0.35333
   1   1 -14   -6.52   11.31 347-0.57583 0.64141 0.73634-0.60404-0.35750-0.46803
   2   1 -12   19.52    9.88 347-0.57482 0.71526 0.73675-0.60377-0.35827-0.34592
   3   1  -8  156.80    8.65 347-0.57214 0.78852 0.73784-0.60380-0.36032-0.10787
   3   6   4    4.50   15.22 347-0.57819 0.80352 0.73537 0.07861-0.35569 0.59841
   4   2  -9   15.63    9.39 347-0.57718 0.86593 0.73579-0.46708-0.35647-0.17007
   4   2  -3   24.28    7.43 347-0.57208 0.86457 0.73786-0.46823-0.36036 0.18764
   5   3  -8   36.73    8.33 347-0.57219 0.93547 0.73781-0.33389-0.36027-0.10549
   5   3  -7   85.20    9.97 347-0.57735 0.94137 0.73572-0.33153-0.35633-0.05017
   5   3  -5  112.38    9.46 347-0.57626 0.94120 0.73617-0.33161-0.35717 0.06889
   5   4 -11   -2.27   11.66 347-0.57485 0.93521 0.73674-0.19846-0.35825-0.28408
 -11   0   5   59.63   10.72 348-0.58268-0.22147 0.73334-0.73426-0.35243 0.63738
 -10  -1   2   71.51   10.26 347-0.57953-0.15333 0.73466-0.87033-0.35486 0.46392
  -9   2   9   17.59    9.57 347-0.57886-0.07745 0.73494-0.46364-0.35538 0.88036
  -5   0   5   21.81    8.62 348-0.58130 0.21695 0.73392-0.73316-0.35349 0.64401
  -4   4  10    8.97   14.45 348-0.58473 0.29707 0.73248-0.19094-0.35083 0.93777
  -2   4   9    8.37   13.73 350-0.59221 0.45097 0.72925-0.18722-0.34497 0.87637
   1   0  -9    0.94    9.45 350-0.59057 0.65726 0.72997-0.73015-0.34626-0.18013
   3   1  -7  190.40    8.72 348-0.57948 0.79640 0.73468-0.60098-0.35490-0.05437
   3   1  -6   42.68    9.02 348-0.58326 0.80044 0.73310-0.59861-0.35197 0.00158
   3   1  -5   56.57    7.49 348-0.57898 0.79683 0.73488-0.60065-0.35528 0.06377
   3   5   4    4.74   12.33 349-0.58805 0.81197 0.73106-0.05404-0.34824 0.58891
   4   3   0  121.99    9.54 348-0.58389 0.87767 0.73283-0.32776-0.35149 0.35642
   4   6   2    1.47   12.58 349-0.58637 0.88228 0.73178 0.07966-0.34955 0.47301
   5   3  -6   47.00    8.32 348-0.57937 0.94323 0.73472-0.33121-0.35498 0.00703
 -13  -1   0    5.68   12.64 349-0.58793-0.36489 0.73107-0.86534-0.34822 0.33789
 -12  -1   1  -14.26   10.78 349-0.58854-0.29388 0.73080-0.86713-0.34775 0.39686
 -10   2   9  -12.57   12.16 349-0.58800-0.14245 0.73104-0.45987-0.34817 0.87353
  -8  -2  -6   12.18   11.73 350-0.59353 0.00200 0.72863-0.99991-0.34382-0.01635
  -6   2   9   53.29   10.30 349-0.58756 0.15170 0.73123-0.46081-0.34852 0.87420
  -6   3  10    1.00   11.36 348-0.58569 0.15104 0.73202-0.32490-0.34997 0.93386
  -4  -1   1   10.97    9.21 349-0.58922 0.29552 0.73051-0.86602-0.34721 0.40258
   1   0  -3  339.17   12.80 349-0.58884 0.66084 0.73068-0.73108-0.34751 0.17084
   4   2  -8   83.79    9.10 349-0.58731 0.87755 0.73133-0.46200-0.34871-0.11811
   4   2  -4   54.09    8.63 349-0.58744 0.87982 0.73128-0.46143-0.34861 0.11744
   4   3 -12   -1.45   10.02 349-0.58525 0.87259 0.73221-0.32850-0.35032-0.35328
   4   5   2   94.33   12.10 349-0.59045 0.88499 0.72998-0.05463-0.34625 0.47075
   5   4 -10   -2.93   10.54 349-0.58843 0.95019 0.73085-0.19206-0.34783-0.23606
   5   4  -2  240.10   10.61 349-0.58817 0.95456 0.73096-0.19084-0.34804 0.23681
   5   5  -1   39.92   10.35 349-0.58989 0.95639 0.73022-0.05397-0.34669 0.29605
   5   6  -1   -9.22   11.40 349-0.58800 0.95544 0.73104 0.07860-0.34817 0.29439
 -11  -1   2   14.23   11.70 350-0.59407-0.21324 0.72814-0.86307-0.34351 0.45289
  -9  -2  -6    5.65   11.92 350-0.59917-0.06573 0.72587-0.99776-0.33945-0.02131
  -9  -2  -5    6.63   11.64 351-0.59993-0.06450 0.72553-0.99712-0.33884 0.03693
  -8  -2  -7    4.54   12.90 351-0.60356 0.01143 0.72387-0.99675-0.33592-0.08328
  -8  -2  -5    8.27   11.63 350-0.59687 0.00542 0.72690-0.99903-0.34129 0.03985
  -7  -2  -6   41.70   12.25 351-0.60235 0.08504 0.72443-0.99611-0.33689-0.02217
  -3  -1   0 3117.44   25.51 350-0.59724 0.37696 0.72674-0.86172-0.34099 0.33895
  -3   3   9    9.22   11.90 351-0.59869 0.38347 0.72609-0.31910-0.33984 0.86890
  -2   0   3 1609.13   18.52 350-0.59246 0.44714 0.72885-0.72791-0.34479 0.52064
   0   1 -15   13.58   13.26 351-0.59834 0.58988 0.72624-0.59410-0.34011-0.54295
   2   4   5    0.85   15.78 354-0.61916 0.76903 0.71650-0.17521-0.32314 0.62110
   3   2 -12   -0.59   10.09 351-0.59659 0.80893 0.72702-0.45931-0.34151-0.36009
   3   3 -14   -2.92   12.35 350-0.59578 0.80988 0.72738-0.32418-0.34215-0.48192
   4   2  -7   51.10    8.88 350-0.59509 0.88538 0.72769-0.45849-0.34270-0.06501
   4   2  -5   74.43    8.39 350-0.59638 0.88766 0.72711-0.45749-0.34167 0.05142
 -12   0   5    1.38   12.04 352-0.60478-0.27933 0.72352-0.72511-0.33501 0.62451
  -9  -2  -7   21.54   13.52 352-0.60629-0.05916 0.72283-0.99494-0.33379-0.08574
  -9   0   6   14.15    9.49 351-0.60234-0.05569 0.72464-0.72403-0.33698 0.68449
  -9   1   8    1.33   12.23 351-0.60224-0.05532 0.72469-0.58875-0.33706 0.80385
  -8  -2  -4   15.30   10.66 351-0.60525 0.01488 0.72330-0.99528-0.33463 0.09245
  -8  -1   3   20.83    9.11 351-0.60224 0.01664 0.72468-0.85938-0.33706 0.50819
  -8   0   6    1.04    9.49 351-0.60032 0.01562 0.72555-0.72458-0.33860 0.68660
  -8   1   8   40.21   10.19 351-0.59920 0.01570 0.72606-0.58965-0.33950 0.80556
  -7  -2  -7    0.45   13.11 352-0.60925 0.09124 0.72144-0.99224-0.33138-0.08630
  -7  -2  -5   59.74   11.57 351-0.60338 0.08659 0.72416-0.99544-0.33614 0.03597
  -5  -1   2   13.04    8.27 351-0.60152 0.23438 0.72501-0.86002-0.33764 0.45213
  -4   1   7   28.05    8.87 351-0.60320 0.31402 0.72425-0.58785-0.33629 0.74621
  -3   0   4   40.04    7.63 350-0.59821 0.38031 0.72651-0.72534-0.34030 0.57447
  -3   2   8   82.52   10.10 351-0.60483 0.38941 0.72350-0.45244-0.33497 0.80414
  -3   5  10    3.66   16.49 352-0.60757 0.39286 0.72223-0.04486-0.33275 0.92194
  -1   1 -16    3.17   14.73 352-0.60635 0.52425 0.72280-0.59116-0.33374-0.60976
   1   0  -8    5.70    9.21 351-0.60268 0.67237 0.72448-0.72658-0.33671-0.13537
   2   1 -11    5.66    9.42 351-0.60075 0.74189 0.72536-0.59241-0.33826-0.30832
   2   2 -14    9.23   12.20 351-0.60178 0.74128 0.72489-0.45742-0.33743-0.48542
   4   2  -6   57.16    7.39 350-0.59806 0.88873 0.72657-0.45757-0.34041-0.00924
   5   4  -9   -2.98   10.50 351-0.60096 0.96273 0.72527-0.18660-0.33809-0.18685
   5   4  -3   13.61    9.38 351-0.60444 0.97052 0.72368-0.18357-0.33528 0.16377
   5   5 -10    1.65   12.79 350-0.59902 0.96547 0.72614-0.04970-0.33965-0.24680
 -10  -2  -6    8.12   13.12 353-0.61239-0.12595 0.71988-0.99175-0.32874-0.03262
 -10  -2  -5    0.52   12.81 352-0.61124-0.12640 0.72042-0.99156-0.32968 0.02729
 -10   0   6   81.89   10.85 352-0.60917-0.12248 0.72140-0.72238-0.33137 0.67690
 -10   1   8    2.75   12.46 352-0.60724-0.12317 0.72230-0.58591-0.33294 0.79775
  -9  -2  -4   13.28   10.51 352-0.60643-0.05736 0.72267-0.99388-0.33360 0.09074
  -9  -1   3   42.46    8.68 351-0.60414-0.05495 0.72373-0.85932-0.33546 0.50494
  -7  -2  -4    7.38   10.23 352-0.61174 0.09497 0.72019-0.99128-0.32927 0.08781
  -7  -1   3   10.99    9.09 352-0.60787 0.09534 0.72201-0.85720-0.33243 0.50373
  -7   0   6   -8.19    7.18 352-0.60501 0.09461 0.72333-0.72264-0.33475 0.68290
  -7   1   8    9.20    8.32 351-0.60428 0.09416 0.72367-0.58724-0.33534 0.80259
  -5   2   9   49.59    9.43 352-0.60851 0.24661 0.72171-0.45107-0.33191 0.85827
  -5   3  10   13.59   11.51 352-0.60885 0.24747 0.72155-0.31479-0.33164 0.91739
  -1   0 -13   16.34   11.71 353-0.61261 0.53194 0.71977-0.72257-0.32855-0.43843
   3   2   0   41.80    8.47 352-0.60849 0.82908 0.72172-0.45111-0.33193 0.33551
   4   3 -11   -4.43    8.91 352-0.60470 0.89273 0.72348-0.31974-0.33501-0.30960
   4   4   1   72.76    8.78 352-0.60921 0.90351 0.72138-0.18123-0.33134 0.39576
   5   4  -8  -10.80   10.17 352-0.60829 0.97262 0.72181-0.18177-0.33209-0.13545
   5   5  -2    9.61   10.62 352-0.60922 0.97653 0.72137-0.04548-0.33133 0.21926
   5   6  -2    7.80   11.27 352-0.60654 0.97327 0.72263 0.08758-0.33351 0.22199
 -13  -1   1   -1.61   11.98 353-0.61091-0.34407 0.72058-0.85672-0.32983 0.37853
 -12  -1   2   20.04   12.32 352-0.61130-0.26915 0.72040-0.85492-0.32951 0.43825
 -10  -2  -7    5.21   15.13 353-0.61848-0.12042 0.71696-0.98856-0.32359-0.09666
 -10  -2  -4   14.04   11.22 354-0.61799-0.12010 0.71719-0.98922-0.32400 0.08021
 -10  -1   3   13.06    9.22 353-0.61112-0.12242 0.72048-0.85545-0.32966 0.49908
  -9  -2  -8    1.43   15.41 354-0.62188-0.04437 0.71529-0.98712-0.32075-0.15799
  -9  -2  -3   20.54   11.39 353-0.61729-0.04576 0.71753-0.98848-0.32458 0.14045
  -8  -2  -8   -0.84   13.57 355-0.62324 0.03034 0.71462-0.98715-0.31962-0.16007
  -8  -2  -3   50.72   10.53 353-0.61640 0.02683 0.71796-0.98895-0.32531 0.14229
   0   0 -11    1.51    9.71 355-0.62344 0.61615 0.71451-0.71552-0.31944-0.32489
   1   1 -13   24.05   10.64 353-0.61272 0.67930 0.71973-0.58676-0.32835-0.43573
   2   3   4  295.45   17.19 356-0.63182 0.78119 0.71028-0.30414-0.31235 0.55098
   3   2 -11    3.06    9.90 354-0.61720 0.83127 0.71758-0.44940-0.32465-0.32000
   5   4  -7    7.42    9.72 353-0.61343 0.97964 0.71939-0.17908-0.32777-0.08048
   5   4  -4   40.59   10.34 353-0.61405 0.97960 0.71909-0.17925-0.32725 0.09761
   5   5  -9   12.38   12.65 354-0.61574 0.97729 0.71828-0.04488-0.32586-0.19791
 -11   0   6    1.87   10.88 354-0.61928-0.18591 0.71648-0.71565-0.32307 0.66893
 -11   1   8   -8.16   12.91 354-0.61979-0.18552 0.71623-0.58079-0.32265 0.78876
  -6   0   6   77.34    9.26 353-0.61811 0.18078 0.71705-0.71617-0.32404 0.67288
  -6   1   8   30.31    8.49 353-0.61690 0.18048 0.71764-0.58137-0.32504 0.79270
  -6   4  11    7.98   14.84 356-0.62861 0.19273 0.71184-0.16751-0.31523 0.96794
  -4   0   5  731.15   11.33 353-0.61741 0.32612 0.71739-0.71626-0.32462 0.61692
  -3  -1 -11   13.37   13.82 357-0.63957 0.41303 0.70616-0.84272-0.30584-0.34378
  -3   0 -15   -7.42   14.61 355-0.62706 0.39778 0.71262-0.71654-0.31654-0.57158
   1   0  -7   19.85    8.29 354-0.62022 0.68958 0.71602-0.71758-0.32229-0.08978
   1   0  -4   28.19    8.86 354-0.62050 0.69162 0.71588-0.71686-0.32205 0.08708
   3   3   2   36.29   10.40 355-0.62522 0.84669 0.71354-0.30775-0.31809 0.44028
   4   3 -10   -1.62    9.63 354-0.62135 0.91028 0.71547-0.31213-0.32135-0.26379
   4   3  -1  177.78    9.85 354-0.62011 0.91399 0.71607-0.31053-0.32238 0.26758
   4   4 -12   19.39   10.75 354-0.61750 0.90497 0.71735-0.17943-0.32455-0.37765
   5   4  -6    3.14   10.12 355-0.62246 0.98335 0.71492-0.17757-0.32041-0.02611
   5   4  -5   53.04   10.32 354-0.61810 0.98343 0.71705-0.17851-0.32405 0.03525
   5   5  -3   15.96   10.33 354-0.62200 0.98923 0.71515-0.03930-0.32080 0.14988
   5   6  -3    0.15   12.28 354-0.61978 0.98542 0.71624 0.09315-0.32265 0.15248
 -11  -2  -6    2.70   14.14 355-0.62720-0.18290 0.71247-0.98250-0.31635-0.04511
 -11  -2  -5    0.02   12.87 354-0.62478-0.18367 0.71368-0.98291-0.31840 0.01604
 -11  -1   3    9.43    9.81 355-0.62324-0.18424 0.71445-0.84998-0.31969 0.48866
 -10  -2  -8   19.16   16.68 356-0.63401-0.10519 0.70899-0.98096-0.31057-0.16874
 -10  -2  -3    2.22   10.30 355-0.62631-0.11068 0.71292-0.98443-0.31711 0.13230
  -7  -2  -3    7.88    8.59 354-0.62446 0.10839 0.71384-0.98425-0.31867 0.13601
  -6  -2  -6   35.09   13.14 356-0.63259 0.18888 0.70973-0.98080-0.31178-0.04722
  -6  -2  -5   33.12   12.04 356-0.63128 0.18846 0.71040-0.98180-0.31289 0.01275
  -6  -1   3   16.19    7.23 354-0.62289 0.18416 0.71463-0.84958-0.31998 0.49226
  -2  -1  -9   12.25   12.05 357-0.63796 0.48662 0.70693-0.84344-0.30716-0.22481
  -2   0 -14   -0.43   13.38 355-0.62812 0.47345 0.71201-0.71565-0.31558-0.51133
   1   0  -6   53.67    8.49 356-0.62918 0.69996 0.71147-0.71233-0.31468-0.03800
   1   2 -15    1.99   12.12 356-0.62930 0.69282 0.71141-0.44462-0.31458-0.56251
   2   1 -10   76.76    9.89 355-0.62433 0.76673 0.71391-0.58051-0.31878-0.26778
   3   3 -13   -8.36   10.72 355-0.62331 0.83671 0.71442-0.31148-0.31963-0.44332
   4   6   1    5.27   12.68 356-0.62963 0.92387 0.71124 0.09920-0.31430 0.37889
   5   5  -8    2.94   11.13 355-0.62347 0.98695 0.71434-0.04011-0.31950-0.14665
   5   6  -6    4.09   12.98 355-0.62874 0.99438 0.71169 0.09819-0.31506-0.03203
   5   6  -5  -18.85   12.77 355-0.62750 0.99503 0.71232 0.09903-0.31610 0.02645
   5   6  -4    7.30   13.10 356-0.62807 0.99238 0.71203 0.09712-0.31562 0.08662
 -12   0   6   -2.55   11.75 356-0.63304-0.24456 0.70959-0.70915-0.31144 0.65643
 -11  -2  -7    6.11   15.32 357-0.63902-0.17336 0.70647-0.97887-0.30631-0.11486
 -11  -2  -4    2.91   12.25 356-0.63285-0.17815 0.70969-0.98143-0.31161 0.06734
  -9  -2  -2   34.83    9.61 356-0.63170-0.03107 0.71028-0.98107-0.31259 0.18712
  -9   2  10    3.17   11.79 356-0.63147-0.02474 0.71039-0.43787-0.31279 0.89673
  -8  -2  -2   25.53    8.91 356-0.63294 0.04390 0.70964-0.98067-0.31153 0.18712
  -8   2  10    6.23   11.83 356-0.63405 0.05128 0.70907-0.43716-0.31059 0.89663
  -6  -2  -4    1.45    9.73 356-0.63506 0.19231 0.70854-0.97861-0.30972 0.06923
  -1   0   2   64.40   10.81 356-0.63167 0.55933 0.71029-0.70911-0.31262 0.43103
   1   0  -5  301.12   11.26 356-0.63074 0.70177 0.71077-0.71175-0.31341 0.01940
   2   1  -1  617.21   14.19 356-0.63111 0.77849 0.71058-0.57486-0.31310 0.25563
   2   2 -13   17.76    9.89 356-0.63107 0.77129 0.71060-0.44332-0.31313-0.45082
   3   4   3  435.86   14.93 357-0.64002 0.86225 0.70594-0.16539-0.30544 0.48575
   4   5   1   37.73   11.71 357-0.63595 0.93031 0.70808-0.03264-0.30895 0.37363
   5   5  -7    0.62   10.67 356-0.62976 0.99405 0.71127-0.03685-0.31425-0.09329
   5   5  -6   -2.56   11.45 356-0.63304 0.99831 0.70959-0.03428-0.31144-0.03752
   5   5  -5   -0.40   10.90 357-0.63522 0.99932 0.70846-0.03428-0.30958 0.02109
   5   5  -4    6.40   10.29 356-0.63058 0.99652 0.71085-0.03600-0.31355 0.08376
 -12  -1   3    1.10   12.42 357-0.63746-0.24313 0.70729-0.84218-0.30766 0.47598
 -11  -2  -3   11.11   11.40 357-0.63998-0.17044 0.70596-0.97743-0.30548 0.12025
 -10  -2  -2   29.59   10.75 357-0.63899-0.09781 0.70648-0.97767-0.30634 0.18154
  -9  -1   4   54.27    9.83 357-0.63795-0.02067 0.70703-0.84136-0.30724 0.53657
  -8  -1   4   58.85    9.14 357-0.63942 0.05478 0.70625-0.84072-0.30597 0.53579
  -8   3  11   -5.97   13.50 357-0.63838 0.05636 0.70681-0.29928-0.30687 0.95177
  -7   2  10    5.33   10.88 357-0.64006 0.13133 0.70592-0.43379-0.30542 0.89079
  -5   1   8    7.89    9.44 357-0.63956 0.27643 0.70618-0.56934-0.30585 0.77433
  -2   1   6    4.07    9.45 358-0.64338 0.49957 0.70414-0.56772-0.30253 0.65629
   0   1 -14    2.67   11.17 356-0.63672 0.62968 0.70768-0.57622-0.30831-0.51718
   3   2 -10   32.85    8.76 357-0.63638 0.85189 0.70785-0.43977-0.30859-0.27764
   4   3  -9   -0.57    8.55 357-0.63593 0.92538 0.70809-0.30435-0.30898-0.21802
   4   4 -11   -5.91   10.11 357-0.63578 0.92387 0.70817-0.16978-0.30911-0.33501
 -10  -1   4   22.60    9.02 358-0.64243-0.09060 0.70461-0.83930-0.30337 0.53206
  -9   0   7   16.55    9.71 358-0.64398-0.01432 0.70378-0.70238-0.30201 0.70878
  -8   0   7   34.65    9.74 358-0.64555 0.06220 0.70293-0.70228-0.30064 0.70694
  -7  -2  -2   10.64    8.68 358-0.64366 0.12788 0.70395-0.97498-0.30230 0.17872
  -7   3  11   12.40   12.24 358-0.64427 0.13675 0.70362-0.29672-0.30176 0.94513
  -5   0   6   18.90    7.39 357-0.64227 0.27872 0.70470-0.70328-0.30351 0.65354
  -4  -1   2   67.28    9.06 358-0.64478 0.35169 0.70335-0.83793-0.30132 0.41678
  -4   2   9    4.91    8.98 357-0.64295 0.35384 0.70433-0.43214-0.30292 0.83083
   1   1 -12   26.71    9.64 358-0.64394 0.71159 0.70380-0.57108-0.30205-0.40443
   2   1  -9  314.56   11.02 358-0.64617 0.78822 0.70259-0.56887-0.30009-0.22858
   3   3 -12   12.08   11.44 359-0.64760 0.86113 0.70181-0.29894-0.29884-0.40419
   4   3  -2   31.43    9.03 358-0.64340 0.93656 0.70409-0.29916-0.30252 0.18889
   4   4   0   36.34    8.97 358-0.64686 0.94113 0.70221-0.16096-0.29949 0.30473
 -10   0   7   -0.76    9.00 359-0.64796-0.08294 0.70176-0.70121-0.29876 0.70493
  -9   1   9    1.32   10.14 359-0.64841-0.00756 0.70151-0.56504-0.29836 0.82295
  -7  -1   4   66.71    7.62 358-0.64782 0.13515 0.70184-0.83629-0.29888 0.52954
   4   3  -8   21.55    7.62 359-0.64824 0.93816 0.70161-0.29752-0.29851-0.16893
;
_shelx_hkl_checksum              56048
_shelx_res_file
;
    lval_all.res created by SHELXL-2014/7
TITL LVal_all in P21 #4
REM reset to P21 #4
CELL 0.71073 9.6697 5.2749 12.0628 90 90.803 90
ZERR 4 0.0016 0.0009 0.002 0 0.014 0
LATT -1
SYMM -X,0.5+Y,-Z
SFAC C H N O
UNIT 20 44 4 8
EQIV $1 -1+X,+Y,+Z
EQIV $2 1-X,-0.5+Y,1-Z
EQIV $3 +X,1+Y,+Z
EQIV $4 1-X,0.5+Y,1-Z
L.S. 5
PLAN  50
TEMP 24
HTAB N21 O21_$1
HTAB N21 O21_$2
HTAB N21 O12_$3
HTAB N11 O22_$4
HTAB N11 O11_$3
HTAB N11 O12_$3
BOND
MORE -1
BOND $H
CONF
fmap 2
acta
SHEL 40 0.8
REM <olex2.extras>
REM <HklSrc "%.\\LVal_all.hkl">
REM </olex2.extras>
WGHT    0.023900
FVAR       1.07613
O22   4    0.371075    0.164373    0.399772    11.00000    0.02327    0.04260 =
         0.04910   -0.00479   -0.00088   -0.00104
O21   4    0.855613    0.564531    0.396593    11.00000    0.02501    0.04123 =
         0.05167   -0.00857   -0.00704    0.00212
C11   1    0.764830    0.408699    0.363927    11.00000    0.02825    0.04383 =
         0.03587    0.00114    0.00391    0.00681
O12   4    0.291181   -0.205523    0.336757    11.00000    0.03503    0.02999 =
         0.06385   -0.00494    0.00119    0.00739
O11   4    0.773695    0.172313    0.368852    11.00000    0.04613    0.03040 =
         0.06946    0.00524   -0.00403    0.00727
N21   3    0.123277    0.378498    0.409911    11.00000    0.02212    0.03518 =
         0.04455   -0.00256    0.00324    0.00670
AFIX 137
H21A  2    0.184846    0.489177    0.384801    11.00000   -1.20000
H21B  2    0.140521    0.347311    0.481284    11.00000   -1.20000
H21C  2    0.038574    0.442614    0.402022    11.00000   -1.20000
AFIX   0
N11   3    0.588855    0.745531    0.375269    11.00000    0.02891    0.04457 =
         0.04705    0.00531    0.00110    0.01091
AFIX 137
H11A  2    0.641350    0.879043    0.359593    11.00000   -1.20000
H11B  2    0.596847    0.709650    0.447166    11.00000   -1.20000
H11C  2    0.500956    0.780613    0.358649    11.00000   -1.20000
AFIX   0
C22   1    0.133124    0.138391    0.345751    11.00000    0.02438    0.02605 =
         0.04409   -0.00253    0.00379    0.00049
AFIX  13
H22   2    0.064650    0.019418    0.374667    11.00000   -1.20000
AFIX   0
C12   1    0.276591    0.023463    0.363988    11.00000    0.02903    0.03640 =
         0.03465    0.00549    0.00395    0.00711
C21   1    0.634890    0.522670    0.308767    11.00000    0.02385    0.03056 =
         0.03973   -0.00209   -0.00053    0.00118
AFIX  13
H21   2    0.561277    0.394962    0.307531    11.00000   -1.20000
AFIX   0
C32   1    0.098066    0.188315    0.223270    11.00000    0.02972    0.03951 =
         0.04334   -0.00227   -0.00484    0.00680
AFIX  13
H32   2    0.023340    0.313790    0.220992    11.00000   -1.20000
AFIX   0
C31   1    0.663969    0.606376    0.189916    11.00000    0.03001    0.04323 =
         0.04082    0.00661   -0.00168    0.00057
AFIX  13
H31   2    0.738384    0.732384    0.193269    11.00000   -1.20000
AFIX   0
C41   1    0.540199    0.729993    0.133679    11.00000    0.04726    0.07406 =
         0.05357    0.02087   -0.00567    0.00860
AFIX 137
H41A  2    0.466582    0.608719    0.126573    11.00000   -1.50000
H41B  2    0.565735    0.788586    0.061454    11.00000   -1.50000
H41C  2    0.509848    0.871008    0.177375    11.00000   -1.50000
AFIX   0
C52   1    0.043181   -0.052411    0.166198    11.00000    0.04974    0.06464 =
         0.05858   -0.00922   -0.01439   -0.00341
AFIX 137
H52A  2    0.116231   -0.175035    0.161561    11.00000   -1.50000
H52B  2    0.010317   -0.011184    0.092927    11.00000   -1.50000
H52C  2   -0.031321   -0.121514    0.208424    11.00000   -1.50000
AFIX   0
C42   1    0.218490    0.298851    0.159118    11.00000    0.05468    0.05263 =
         0.04486    0.00054    0.00746    0.00268
AFIX 137
H42A  2    0.257835    0.438225    0.199865    11.00000   -1.50000
H42B  2    0.185936    0.357417    0.088064    11.00000   -1.50000
H42C  2    0.287598    0.170578    0.148991    11.00000   -1.50000
AFIX   0
C51   1    0.714548    0.385008    0.120350    11.00000    0.07943    0.08043 =
         0.04651   -0.00425   -0.00037    0.01925
AFIX 137
H51A  2    0.794240    0.310133    0.155615    11.00000   -1.50000
H51B  2    0.738781    0.444813    0.048011    11.00000   -1.50000
H51C  2    0.642511    0.260510    0.113562    11.00000   -1.50000
AFIX   0
HKLF 4
REM  LVal_all in P21 #4
REM R1 =  0.0370 for    1333 Fo > 4sig(Fo)  and  0.0912 for all    2516 data
REM    151 parameters refined using      1 restraints
END
WGHT      0.0239      0.0000
REM Highest difference peak  0.132,  deepest hole -0.152,  1-sigma level  0.035
Q1    1   0.3519  0.0843  0.3796  11.00000  0.05    0.13
Q2    1   0.7953  0.8118  0.3972  11.00000  0.05    0.11
Q3    1   0.6392  0.4009  0.0168  11.00000  0.05    0.11
Q4    1   0.0313  0.5322  0.1217  11.00000  0.05    0.11
Q5    1   0.2971  0.4438  0.4485  11.00000  0.05    0.11
Q6    1   0.7366  0.1468  0.1617  11.00000  0.05    0.11
Q7    1   0.9246  0.4062  0.4886  11.00000  0.05    0.11
Q8    1   0.7811  0.2712  0.3841  11.00000  0.05    0.11
Q9    1   0.0409  0.5815  0.5197  11.00000  0.05    0.11
Q10   1   0.2153  0.5620  0.5148  11.00000  0.05    0.10
Q11   1   0.4220  0.4477  0.4439  11.00000  0.05    0.10
Q12   1   0.3638 -0.4124  0.4302  11.00000  0.05    0.10
Q13   1   0.2952  0.2155  0.1745  11.00000  0.05    0.10
Q14   1   0.3787 -0.4782  0.3394  11.00000  0.05    0.10
Q15   1  -0.0524 -0.1693  0.3879  11.00000  0.05    0.10
Q16   1  -0.0376  0.2979  0.2436  11.00000  0.05    0.10
Q17   1   0.1345 -0.1542  0.1225  11.00000  0.05    0.10
Q18   1   0.4649  0.3201  0.0934  11.00000  0.05    0.10
Q19   1   0.2153  0.4398  0.0423  11.00000  0.05    0.10
Q20   1   0.6740  0.1487  0.3636  11.00000  0.05    0.10
Q21   1   0.3823  0.2748  0.1363  11.00000  0.05    0.10
Q22   1   0.4554  0.4304  0.1556  11.00000  0.05    0.09
Q23   1   0.5422  0.3121  0.0439  11.00000  0.05    0.09
Q24   1   0.8118  0.7585  0.0991  11.00000  0.05    0.09
Q25   1   0.2262 -0.2833  0.3228  11.00000  0.05    0.09
Q26   1  -0.0201  0.3495  0.1620  11.00000  0.05    0.09
Q27   1   0.6787  1.0131  0.2145  11.00000  0.05    0.09
Q28   1   0.0608 -0.0464  0.0434  11.00000  0.05    0.09
Q29   1   0.8537  0.6775  0.0324  11.00000  0.05    0.09
Q30   1   0.4437  0.3787  0.3463  11.00000  0.05    0.09
Q31   1   0.0442 -0.1988  0.4559  11.00000  0.05    0.09
Q32   1   0.6137  0.1956  0.2054  11.00000  0.05    0.09
Q33   1   0.2906 -0.1067  0.3663  11.00000  0.05    0.09
Q34   1   0.4836  0.6569 -0.0266  11.00000  0.05    0.09
Q35   1   0.4631  0.5082  0.0576  11.00000  0.05    0.09
Q36   1   0.1317  0.0394  0.1200  11.00000  0.05    0.09
Q37   1   0.5049  0.6720 -0.0038  11.00000  0.05    0.08
Q38   1   0.5335  0.1291  0.0818  11.00000  0.05    0.08
Q39   1   0.6526  1.0784  0.3113  11.00000  0.05    0.08
Q40   1   0.6236  0.6353  0.1447  11.00000  0.05    0.08
Q41   1   0.8772  0.6368  0.1275  11.00000  0.05    0.08
Q42   1   0.8988  0.4797  0.1397  11.00000  0.05    0.08
Q43   1   0.9357  0.6797  0.4171  11.00000  0.05    0.08
Q44   1   0.4598  0.1783  0.3511  11.00000  0.05    0.08
Q45   1   0.3276  0.3225  0.3144  11.00000  0.05    0.08
Q46   1   0.4629  0.9495  0.0655  11.00000  0.05    0.08
Q47   1   0.4154  0.7826  0.2630  11.00000  0.05    0.08
Q48   1   0.4260  0.1349  0.4446  11.00000  0.05    0.08
Q49   1   0.2453  0.1312  0.0428  11.00000  0.05    0.08
Q50   1   0.7068  0.8968  0.4296  11.00000  0.05    0.08
;
_shelx_res_checksum              72329
loop_
_space_group_symop_operation_xyz
'x, y, z'
'-x, y+1/2, -z'
loop_
_atom_site_type_symbol
_atom_site_label
_atom_site_fract_x
_atom_site_fract_y
_atom_site_fract_z
_atom_site_U_iso_or_equiv
_atom_site_adp_type
_atom_site_calc_flag
_atom_site_occupancy
O O22 0.3711(2) 0.1644(4) 0.39977(19) 0.0383(7) Uani d 1
O O21 0.8556(2) 0.5645(4) 0.3966(2) 0.0394(7) Uani d 1
C C11 0.7648(3) 0.4087(8) 0.3639(3) 0.0360(9) Uani d 1
O O12 0.2912(2) -0.2055(5) 0.3368(2) 0.0430(7) Uani d 1
O O11 0.7737(2) 0.1723(5) 0.3689(2) 0.0487(7) Uani d 1
N N21 0.1233(3) 0.3785(5) 0.4099(2) 0.0339(7) Uani d 1
H H21A 0.1848 0.4892 0.3848 0.041 Uiso calc 1
H H21B 0.1405 0.3473 0.4813 0.041 Uiso calc 1
H H21C 0.0386 0.4426 0.4020 0.041 Uiso calc 1
N N11 0.5889(3) 0.7455(5) 0.3753(2) 0.0402(9) Uani d 1
H H11A 0.6413 0.8790 0.3596 0.048 Uiso calc 1
H H11B 0.5968 0.7096 0.4472 0.048 Uiso calc 1
H H11C 0.5010 0.7806 0.3586 0.048 Uiso calc 1
C C22 0.1331(3) 0.1384(6) 0.3458(3) 0.0315(9) Uani d 1
H H22 0.0646 0.0194 0.3747 0.038 Uiso calc 1
C C12 0.2766(3) 0.0235(7) 0.3640(3) 0.0333(9) Uani d 1
C C21 0.6349(3) 0.5227(6) 0.3088(3) 0.0314(9) Uani d 1
H H21 0.5613 0.3950 0.3075 0.038 Uiso calc 1
C C32 0.0981(3) 0.1883(7) 0.2233(3) 0.0376(9) Uani d 1
H H32 0.0233 0.3138 0.2210 0.045 Uiso calc 1
C C31 0.6640(3) 0.6064(7) 0.1899(3) 0.0380(10) Uani d 1
H H31 0.7384 0.7324 0.1933 0.046 Uiso calc 1
C C41 0.5402(4) 0.7300(9) 0.1337(3) 0.0584(13) Uani d 1
H H41A 0.4666 0.6087 0.1266 0.088 Uiso calc 1
H H41B 0.5657 0.7886 0.0615 0.088 Uiso calc 1
H H41C 0.5098 0.8710 0.1774 0.088 Uiso calc 1
C C52 0.0432(4) -0.0524(8) 0.1662(3) 0.0578(13) Uani d 1
H H52A 0.1162 -0.1750 0.1616 0.087 Uiso calc 1
H H52B 0.0103 -0.0112 0.0929 0.087 Uiso calc 1
H H52C -0.0313 -0.1215 0.2084 0.087 Uiso calc 1
C C42 0.2185(4) 0.2989(8) 0.1591(3) 0.0507(10) Uani d 1
H H42A 0.2578 0.4382 0.1999 0.076 Uiso calc 1
H H42B 0.1859 0.3574 0.0881 0.076 Uiso calc 1
H H42C 0.2876 0.1706 0.1490 0.076 Uiso calc 1
C C51 0.7145(4) 0.3850(9) 0.1203(3) 0.0688(14) Uani d 1
H H51A 0.7942 0.3101 0.1556 0.103 Uiso calc 1
H H51B 0.7388 0.4448 0.0480 0.103 Uiso calc 1
H H51C 0.6425 0.2605 0.1136 0.103 Uiso calc 1
loop_
_atom_site_aniso_label
_atom_site_aniso_U_11
_atom_site_aniso_U_22
_atom_site_aniso_U_33
_atom_site_aniso_U_12
_atom_site_aniso_U_13
_atom_site_aniso_U_23
O22 0.0233(11) 0.0426(18) 0.0491(17) -0.0010(11) -0.0009(11) -0.0048(14)
O21 0.0250(12) 0.0412(16) 0.0517(17) 0.0021(12) -0.0070(11) -0.0086(13)
C11 0.0282(19) 0.044(3) 0.036(2) 0.007(2) 0.0039(16) 0.001(2)
O12 0.0350(13) 0.0300(16) 0.0638(18) 0.0074(12) 0.0012(12) -0.0049(14)
O11 0.0461(15) 0.0304(17) 0.0695(19) 0.0073(14) -0.0040(13) 0.0052(16)
N21 0.0221(14) 0.0352(18) 0.0445(19) 0.0067(12) 0.0032(13) -0.0026(16)
N11 0.0289(15) 0.045(2) 0.0471(19) 0.0109(15) 0.0011(14) 0.0053(17)
C22 0.0244(16) 0.026(2) 0.044(2) 0.0005(15) 0.0038(15) -0.0025(18)
C12 0.0290(19) 0.036(2) 0.035(2) 0.0071(18) 0.0039(16) 0.005(2)
C21 0.0239(16) 0.031(2) 0.040(2) 0.0012(15) -0.0005(15) -0.0021(19)
C32 0.0297(17) 0.040(2) 0.043(2) 0.0068(16) -0.0048(16) -0.002(2)
C31 0.0300(18) 0.043(2) 0.041(2) 0.0006(17) -0.0017(17) 0.0066(19)
C41 0.047(2) 0.074(3) 0.054(3) 0.009(2) -0.006(2) 0.021(2)
C52 0.050(2) 0.065(3) 0.059(3) -0.003(2) -0.014(2) -0.009(2)
C42 0.055(2) 0.053(3) 0.045(2) 0.003(2) 0.007(2) 0.001(2)
C51 0.079(3) 0.080(3) 0.047(3) 0.019(3) 0.000(2) -0.004(3)
loop_
_atom_type_symbol
_atom_type_description
_atom_type_scat_dispersion_real
_atom_type_scat_dispersion_imag
_atom_type_scat_source
C C 0.0033 0.0016 'International Tables Vol C Tables 4.2.6.8 and 6.1.1.4'
H H 0.0000 0.0000 'International Tables Vol C Tables 4.2.6.8 and 6.1.1.4'
N N 0.0061 0.0033 'International Tables Vol C Tables 4.2.6.8 and 6.1.1.4'
O O 0.0106 0.0060 'International Tables Vol C Tables 4.2.6.8 and 6.1.1.4'
loop_
_geom_angle_atom_site_label_1
_geom_angle_atom_site_label_2
_geom_angle_atom_site_label_3
_geom_angle
O21 C11 C21 116.2(3)
O11 C11 O21 126.0(4)
O11 C11 C21 117.8(3)
H21A N21 H21B 109.5
H21A N21 H21C 109.5
H21B N21 H21C 109.5
C22 N21 H21A 109.5
C22 N21 H21B 109.5
C22 N21 H21C 109.5
H11A N11 H11B 109.5
H11A N11 H11C 109.5
H11B N11 H11C 109.5
C21 N11 H11A 109.5
C21 N11 H11B 109.5
C21 N11 H11C 109.5
N21 C22 H22 108.1
N21 C22 C12 109.1(3)
N21 C22 C32 109.9(3)
C12 C22 H22 108.1
C12 C22 C32 113.3(3)
C32 C22 H22 108.1
O22 C12 O12 125.2(3)
O22 C12 C22 118.2(3)
O12 C12 C22 116.6(3)
C11 C21 H21 109.1
N11 C21 C11 108.9(3)
N11 C21 H21 109.1
N11 C21 C31 109.6(3)
C31 C21 C11 111.0(2)
C31 C21 H21 109.1
C22 C32 H32 107.2
C22 C32 C52 111.1(3)
C52 C32 H32 107.2
C42 C32 C22 113.3(3)
C42 C32 H32 107.2
C42 C32 C52 110.5(3)
C21 C31 H31 107.6
C41 C31 C21 112.9(3)
C41 C31 H31 107.6
C41 C31 C51 109.9(3)
C51 C31 C21 111.1(3)
C51 C31 H31 107.6
C31 C41 H41A 109.5
C31 C41 H41B 109.5
C31 C41 H41C 109.5
H41A C41 H41B 109.5
H41A C41 H41C 109.5
H41B C41 H41C 109.5
C32 C52 H52A 109.5
C32 C52 H52B 109.5
C32 C52 H52C 109.5
H52A C52 H52B 109.5
H52A C52 H52C 109.5
H52B C52 H52C 109.5
C32 C42 H42A 109.5
C32 C42 H42B 109.5
C32 C42 H42C 109.5
H42A C42 H42B 109.5
H42A C42 H42C 109.5
H42B C42 H42C 109.5
C31 C51 H51A 109.5
C31 C51 H51B 109.5
C31 C51 H51C 109.5
H51A C51 H51B 109.5
H51A C51 H51C 109.5
H51B C51 H51C 109.5
loop_
_geom_bond_atom_site_label_1
_geom_bond_atom_site_label_2
_geom_bond_distance
O22 C12 1.250(4)
O21 C11 1.262(4)
C11 O11 1.251(4)
C11 C21 1.536(4)
O12 C12 1.260(4)
N21 H21A 0.8900
N21 H21B 0.8900
N21 H21C 0.8900
N21 C22 1.488(4)
N11 H11A 0.8900
N11 H11B 0.8900
N11 H11C 0.8900
N11 C21 1.495(4)
C22 H22 0.9800
C22 C12 1.527(4)
C22 C32 1.534(5)
C21 H21 0.9800
C21 C31 1.530(5)
C32 H32 0.9800
C32 C52 1.536(5)
C32 C42 1.523(5)
C31 H31 0.9800
C31 C41 1.515(5)
C31 C51 1.523(5)
C41 H41A 0.9600
C41 H41B 0.9600
C41 H41C 0.9600
C52 H52A 0.9600
C52 H52B 0.9600
C52 H52C 0.9600
C42 H42A 0.9600
C42 H42B 0.9600
C42 H42C 0.9600
C51 H51A 0.9600
C51 H51B 0.9600
C51 H51C 0.9600
loop_
_geom_hbond_atom_site_label_D
_geom_hbond_atom_site_label_H
_geom_hbond_atom_site_label_A
_geom_hbond_site_symmetry_A
_geom_hbond_distance_DH
_geom_hbond_distance_HA
_geom_hbond_distance_DA
_geom_hbond_angle_DHA
N21 H21A O12 1_565 0.89 2.00 2.876(4) 167.3
N21 H21B O21 2_646 0.89 2.10 2.867(4) 144.3
N21 H21C O21 1_455 0.89 1.88 2.771(3) 175.2
N11 H11A O11 1_565 0.89 2.01 2.876(4) 164.1
N11 H11B O22 2_656 0.89 1.88 2.769(4) 173.3
N11 H11C O12 1_565 0.89 2.04 2.921(3) 168.5
loop_
_geom_torsion_atom_site_label_1
_geom_torsion_atom_site_label_2
_geom_torsion_atom_site_label_3
_geom_torsion_atom_site_label_4
_geom_torsion
O21 C11 C21 N11 -43.9(4)
O21 C11 C21 C31 76.9(4)
C11 C21 C31 C41 -177.6(3)
C11 C21 C31 C51 58.3(4)
O11 C11 C21 N11 138.6(3)
O11 C11 C21 C31 -100.6(4)
N21 C22 C12 O22 -18.8(4)
N21 C22 C12 O12 164.2(3)
N21 C22 C32 C52 -154.3(3)
N21 C22 C32 C42 80.6(3)
N11 C21 C31 C41 -57.3(4)
N11 C21 C31 C51 178.6(3)
C12 C22 C32 C52 83.4(3)
C12 C22 C32 C42 -41.7(4)
C32 C22 C12 O22 103.9(4)
C32 C22 C12 O12 -73.1(4)
