#------------------------------------------------------------------------------
#$Date: 2019-12-26 21:22:11 +0200 (Thu, 26 Dec 2019) $
#$Revision: 246100 $
#$URL: file:///home/coder/svn-repositories/cod/cif/2/31/17/2311757.cif $
#------------------------------------------------------------------------------
#
# This file is available in the Crystallography Open Database (COD),
# http://www.crystallography.net/. The original data for this entry
# were provided by IUCr Journals, http://journals.iucr.org/.
#
# The file may be used within the scientific community so long as
# proper attribution is given to the journal article from which the
# data were obtained.
#
data_2311757
loop_
_publ_author_name
'Ende, Martin'
'Effenberger, Herta'
'Miletich, Ronald'
_publ_section_title
;
 Evolution of the \a-BaMg(CO<sub>3</sub>)<sub>2</sub> low-temperature
 superstructure and the tricritical nature of its \a-\b phase transition.
;
_journal_issue                   'Pt 5'
_journal_name_full
'Acta crystallographica Section B, Structural science, crystal engineering and materials'
_journal_page_first              827
_journal_page_last               835
_journal_paper_doi               10.1107/S2052520617009295
_journal_volume                  73
_journal_year                    2017
_chemical_formula_sum            'C6 Ba3 Mg3 O18'
_chemical_formula_weight         845.01
_space_group_crystal_system      trigonal
_space_group_IT_number           166
_space_group_name_Hall           '-R 3 2"'
_space_group_name_H-M_alt        'R -3 m :H'
_audit_creation_method           SHELXL-2014/7
_cell_angle_alpha                90
_cell_angle_beta                 90
_cell_angle_gamma                120
_cell_formula_units_Z            1
_cell_length_a                   5.0224(2)
_cell_length_b                   5.0224(2)
_cell_length_c                   16.8222(8)
_cell_measurement_reflns_used    5148
_cell_measurement_temperature    420(2)
_cell_measurement_theta_max      45
_cell_measurement_theta_min      1.5
_cell_volume                     367.48(3)
_computing_structure_refinement  'SHELXL-2014/7 (Sheldrick, 2014)'
_diffrn_ambient_temperature      420(2)
_diffrn_measured_fraction_theta_full 0.990
_diffrn_measured_fraction_theta_max 0.993
_diffrn_measurement_device_type  StoeStadiVari
_diffrn_radiation_type           MoK\a
_diffrn_radiation_wavelength     0.71073
_diffrn_reflns_av_R_equivalents  0.0291
_diffrn_reflns_av_unetI/netI     0.0126
_diffrn_reflns_Laue_measured_fraction_full 0.990
_diffrn_reflns_Laue_measured_fraction_max 0.993
_diffrn_reflns_limit_h_max       10
_diffrn_reflns_limit_h_min       -9
_diffrn_reflns_limit_k_max       9
_diffrn_reflns_limit_k_min       -10
_diffrn_reflns_limit_l_max       17
_diffrn_reflns_limit_l_min       -33
_diffrn_reflns_number            5148
_diffrn_reflns_point_group_measured_fraction_full 0.990
_diffrn_reflns_point_group_measured_fraction_max 0.993
_diffrn_reflns_theta_full        25.242
_diffrn_reflns_theta_max         45.525
_diffrn_reflns_theta_min         3.634
_exptl_absorpt_coefficient_mu    8.191
_exptl_absorpt_correction_T_max  0.8
_exptl_absorpt_correction_T_min  0.7
_exptl_absorpt_correction_type   numerical
_exptl_absorpt_process_details   '(Stoe & Cie GmbH 2016)'
_exptl_crystal_density_diffrn    3.818
_exptl_crystal_description       prismatic
_exptl_crystal_F_000             384
_exptl_crystal_size_max          0.060
_exptl_crystal_size_mid          0.030
_exptl_crystal_size_min          0.030
_refine_diff_density_max         1.045
_refine_diff_density_min         -0.720
_refine_diff_density_rms         0.126
_refine_ls_extinction_method     none
_refine_ls_goodness_of_fit_ref   1.179
_refine_ls_hydrogen_treatment    undef
_refine_ls_matrix_type           full
_refine_ls_number_parameters     14
_refine_ls_number_reflns         428
_refine_ls_number_restraints     0
_refine_ls_restrained_S_all      1.179
_refine_ls_R_factor_all          0.0132
_refine_ls_R_factor_gt           0.0132
_refine_ls_shift/su_max          0.000
_refine_ls_shift/su_mean         0.000
_refine_ls_structure_factor_coef Fsqd
_refine_ls_weighting_details
'w=1/[\s^2^(Fo^2^)+(0.0095P)^2^+0.7440P] where P=(Fo^2^+2Fc^2^)/3'
_refine_ls_weighting_scheme      calc
_refine_ls_wR_factor_gt          0.0306
_refine_ls_wR_factor_ref         0.0306
_reflns_Friedel_coverage         0.000
_reflns_number_gt                428
_reflns_number_total             428
_reflns_threshold_expression     'I > 2\s(I)'
_cod_data_source_file            xk5041sup1.cif
_cod_data_source_block           norse_420
_cod_original_sg_symbol_H-M      'R -3 m'
_cod_database_code               2311757
_shelx_shelxl_version_number     2014/7
_shelx_space_group_comment
;
The symmetry employed for this shelxl refinement is uniquely defined
by the following loop, which should always be used as a source of
symmetry information in preference to the above space-group names.
They are only intended as comments.
;
_shelx_estimated_absorpt_t_min   0.639
_shelx_estimated_absorpt_t_max   0.791
_shelx_res_file
;

    norse_420_a.res created by SHELXL-2014/7


TITL norse_440_a.res in R-3m
REM Old TITL norse_440 in R3m

REM SHELXT solution in R-3m
REM R1 0.034,  Rweak 0.143,  Alpha 0.055,  Orientation as input
REM Formula found by SHELXT:  C2 O6 Mg Ba

CELL  0.71073   5.0224   5.0224  16.8222   90.000   90.000  120.000
ZERR    1.000   0.0002   0.0002   0.0008    0.000    0.000    0.000
LATT  3
SYMM -Y, X-Y, Z
SYMM -X+Y, -X, Z
SYMM Y, X, -Z
SYMM X-Y, -Y, -Z
SYMM -X, -X+Y, -Z
SFAC C O MG BA
UNIT 6 18 3 3
L.S. 20
TEMP 146.85
SIZE 0.06 0.03 0.03
BOND $H
LIST 4
ACTA
FMAP 2
PLAN 20
REM EXTI    0.000000
WGHT    0.009500    0.744000
FVAR       0.43448
BA1   4    0.000000    0.000000    0.500000    10.08333    0.01277    0.01277 =
         0.01812    0.00000    0.00000    0.00638
MG2   3    0.000000    0.000000    0.000000    10.08333    0.00984    0.00984 =
         0.01487    0.00000    0.00000    0.00492
O3    2    0.853745    0.707489    0.257741    10.50000    0.03697    0.01099 =
         0.02843    0.00438    0.00219    0.00550
C4    1    0.000000    0.000000    0.260774    10.16667    0.01159    0.01159 =
         0.01256    0.00000    0.00000    0.00580
HKLF 4

REM  norse_440_a.res in R-3m
REM R1 =  0.0132 for     428 Fo > 4sig(Fo)  and  0.0132 for all     428 data
REM     14 parameters refined using      0 restraints

END

WGHT      0.0095      0.7440

REM Highest difference peak  1.045,  deepest hole -0.720,  1-sigma level  0.126
Q1    1   0.0000  0.0000  0.4655  10.16667  0.05    0.90
Q2    1  -0.0716 -0.1431  0.2580  10.50000  0.05    0.55
Q3    1   0.8679  0.7358  0.2971  10.50000  0.05    0.30
Q4    1   0.6506  0.5965  0.2939  11.00000  0.05    0.27
Q5    1   0.8247  0.6493  0.3020  10.50000  0.05    0.26
Q6    1  -0.0195 -0.1854  0.0348  11.00000  0.05    0.22
Q7    1   0.8485  0.6970  0.3336  10.50000  0.05    0.22
Q8    1   0.1495  0.2990  0.0489  10.50000  0.05    0.21
Q9    1   0.1201  0.2402  0.2700  10.50000  0.05    0.21
Q10   1   0.9554  0.4777  0.2400  10.50000  0.05    0.21
Q11   1   0.5284  0.6040  0.3090  11.00000  0.05    0.21
Q12   1   0.6652  0.6325  0.2423  11.00000  0.05    0.19
Q13   1   0.7462  0.8121  0.2026  11.00000  0.05    0.19
Q14   1   0.7014  0.7403  0.2341  11.00000  0.05    0.17
Q15   1   0.0522  0.1043  0.3988  10.50000  0.05    0.17
Q16   1   0.1115  0.2230  0.3054  10.50000  0.05    0.17
Q17   1  -0.0915 -0.1831  0.0061  10.50000  0.05    0.17
Q18   1   0.0893  0.1785  0.4595  10.50000  0.05    0.16
Q19   1   0.2249  0.0000  0.0000  10.50000  0.05    0.16
Q20   1   1.2125  0.7875  0.2639  10.50000  0.05    0.15
;
_shelx_res_checksum              61598
_shelx_hkl_file
;
   4  -4   8  942.06   18.27   0
   1  -1  -7 1500.85   24.74   0
  -1   2   0 3681.56   37.16   0
   3  -3   9  416.12   15.20   0
   3  -1 -17  480.72   12.66   0
   4  -4   5  379.86   11.29   0
   3  -2 -13  446.40   11.37   0
   0   0   3  849.26   39.21   0
   4  -4   2 1475.63   18.78   0
   5  -4  -9  617.78   11.85   0
   6  -5   5  351.39   10.09   0
   6  -5  -1  253.85    9.04   0
   6  -5   2  609.27   12.04   0
   2  -1 -12 1680.15   21.95   0
   4  -2 -15  172.07    8.65   0
   2  -2  -5  181.24    8.66   0
   3  -3  -3 1923.96   21.13   0
   5  -4  -6  995.54   14.37   0
   5  -3 -13  487.35   11.00   0
   1  -1  -4 9319.00   62.69   0
   3  -3   6 2219.96   26.80   0
   3  -3   0 2349.95   23.90   0
   3  -2 -10 1300.04   17.49   0
   4  -3  -8 1845.11   18.98   0
   5  -4  -3  310.48    9.14   0
  -2   0 -14  987.50   13.92   0
  -1  -1 -15  521.87   11.20   0
  -1   0 -10 1414.84   18.40   0
   0  -3 -18  594.50   11.35   0
   1  -1   5 3625.94   35.22   0
   0  -1 -11  415.83   10.76   0
   0   0   3 1710.72   37.03   0
  -3   0 -15  440.34    9.61   0
  -3   1 -10 1324.58   16.85   0
   1  -3 -14 1060.78   16.30   0
  -2   1  -6 3869.52   32.86   0
  -2  -1 -16 1011.01   13.84   0
  -5   1 -12  496.37   10.10   0
   0   0   6  273.58   11.71   0
   2  -4 -12 1575.49   22.91   0
  -4   2  -3  769.30   15.88   0
   4  -3   4 2498.06   23.01   0
   2  -2  -2 4583.99   34.88   0
   5  -4   6  799.33   12.88   0
   1  -5  -9  294.73    9.23   0
   3  -2   2 2906.13   27.61   0
   4  -5  -3  317.01    8.10   0
   0   1   8 5144.18   45.12   0
   2  -5  -8 1487.01   16.91   0
   4  -4  -1 1228.93   14.75   0
   5  -5   1  261.39    8.03   0
   3  -4  -5  992.85   13.88   0
   4  -6  -5  254.91    7.94   0
   0  -2  -7  302.40   11.50   0
   3  -3  -3 1922.81   19.54   0
  -1   1   4 9999.99   58.83   0
   3  -1  10 1345.12   30.92   0
   6  -5   8  484.19   10.22   0
   5  -4   3  743.14   12.32   0
   1  -3  -8 1860.62   21.48   0
   4  -2   9  961.68   18.37   0
   1  -2  -6 3538.00   32.45   0
   3  -6  -9  324.09    8.73   0
   5  -5  -2  986.67   13.10   0
   6  -5   5  353.47    8.98   0
  -1  -2  -8 1872.79   34.07   0
  -3  -1  -5  949.61   22.99   0
   1  -4 -10  778.45   13.99   0
   4  -5  -6  962.01   12.68   0
   2  -4  -9  902.86   13.96   0
   2  -3  -7 1465.28   17.72   0
   4  -4  -4 1378.51   15.37   0
   5  -3   8 1595.52   20.09   0
   3  -2  -1  624.66   13.07   0
   4  -2   6  725.58   14.98   0
   6  -5   2  576.60   10.25   0
   3  -4  -8 1805.60   18.12   0
   2  -5 -11  225.34    8.02   0
   3  -1   7 1567.34   28.87   0
  -2   0  -2 4701.13   47.84   0
   0  -1  -5 3674.21   47.19   0
   2  -2  -5  203.42    8.32   0
   2  -1   0 3867.39   37.99   0
   3  -5 -10  466.05    9.98   0
   4  -3  -2 1195.43   15.26   0
   5  -5  -5  600.10   10.43   0
   3  -3  -6 1818.28   18.69   0
   6  -4   7  207.54    7.99   0
   4  -5  -9  575.01   10.49   0
   4  -4  -7  273.35    8.21   0
   4  -2   3  767.99   14.39   0
   5  -4  -3  300.06    8.01   0
   6  -4   4  702.54   12.20   0
   1  -1  -4 9236.52   59.85   0
   3  -2  -4 3176.13   26.12   0
   3  -1   4 3250.42   35.68   0
   4  -3  -5 1015.51   14.00   0
   5  -5  -8  531.01    9.60   0
   1  -3 -11  405.33   10.74   0
   2  -4 -12 1529.36   17.33   0
  -1   0  -1 1913.86   41.98   0
   1  -4 -13  513.48   11.81   0
   3  -5 -13  488.72   10.17   0
   5  -4  -6  953.71   12.56   0
   5  -3  -1  675.73   11.60   0
   4  -4 -10 1052.71   13.22   0
   6  -4  -2  690.20   11.26   0
   2  -2  -8 2733.36   24.38   0
   0  -3 -12  898.83   17.34   0
   2  -1  -3 1889.81   23.79   0
   0  -2 -10 3097.62   33.24   0
  -2   0   1 4878.75   38.24   0
   4  -3  -8 1812.42   17.38   0
   5  -3  -4 1928.24   17.92   0
   4  -2  -3  734.40   12.42   0
   5  -4  -9  607.13   10.21   0
   3  -2  -7 1475.69   17.01   0
   6  -3   3  359.75    9.57   0
   5  -2   7  314.82   11.07   0
   3  -4 -14  546.50   10.66   0
   2  -4 -15  147.57    7.10   0
   5  -2   4 2047.51   22.60   0
   2  -3 -13  436.71    9.92   0
   3  -3 -12 1324.71   15.26   0
   6  -3   0  933.07   13.76   0
   1   0  10 1513.84   27.20   0
   5  -3  -7  326.02    8.12   0
   1  -1  -7 1566.57   22.33   0
   3  -1  -2 2913.56   26.87   0
  -2  -1  -4 2955.51   40.31   0
   1  -3 -14 1079.89   16.33   0
   4  -3 -11  305.17    7.97   0
   4  -2  -6  685.42   11.59   0
   2  -2 -11 1627.14   18.24   0
   2  -1  -6 3778.10   30.17   0
   6  -3  -3  369.48    9.09   0
   1  -2 -12 1616.51   19.92   0
   3  -2 -10 1318.45   15.54   0
   5  -2  -2  610.73   11.54   0
  -1   0   2 2470.05   33.13   0
   5  -3 -10  498.96    9.75   0
  -1   2 -15  466.13   13.83   0
  -2  -1 -10 1340.94   16.23   0
  -1   1 -14 1151.87   18.31   0
  -3   1 -19  244.34    8.26   0
  -2  -1   8 1744.25   49.00   0
  -1  -1  -6 3650.99   29.98   0
   0   0  -3 1596.03   40.84   0
   0   1   5 3640.47   32.73   0
  -2   1 -18  695.88   12.87   0
  -3  -2  -4 1951.88   19.20   0
  -3  -2  -1  702.32   12.50   0
  -3  -1 -14  581.07   10.43   0
  -3   0 -18  400.93    9.55   0
  -1   0 -13 1028.55   15.80   0
  -4  -2  -2  746.82   12.52   0
  -4  -2  -5  272.38    8.46   0
  -2  -1 -13  464.57   10.13   0
  -1  -1  -9 1118.99   16.31   0
  -4  -2   1  489.34   11.02   0
  -3  -2  -7  327.20    8.79   0
  -3  -2   2  595.65   12.75   0
  -2   0 -17  235.33    7.86   0
  -2  -2  -6  702.53   12.40   0
  -2  -2   0 3937.31   30.93   0
   0   0  -6  250.88   13.11   0
  -3  -2 -10  512.40   10.27   0
  -1   0   8 4696.56   50.39   0
  -1  -1 -12 1626.35   18.12   0
  -1   1 -17  749.14   14.79   0
   0   1   2 2402.39   32.26   0
  -3  -2   5  613.48   14.63   0
  -2  -2   3  731.45   15.68   0
  -1   0 -16 1455.66   18.21   0
   0   1 -10 1355.54   29.31   0
  -2  -2 -12 1657.19   16.65   0
  -2   0 -20  624.35   11.68   0
  -1  -2  -5 1908.42   20.48   0
  -1  -2  -8 1934.95   19.79   0
  -1  -2  -2 2818.40   26.75   0
   0   2  -8 2683.61   66.27   0
  -2  -2 -15  175.00    6.75   0
  -2  -1 -19  235.15    7.62   0
  -3  -3  -6  598.44   11.10   0
  -3  -3  -3  363.04    9.46   0
   0  -1  -5 3554.84   35.05   0
   0  -1  -8 4938.99   36.97   0
  -2  -3  -8 1546.70   16.61   0
   0   0 -12 4139.27   35.69   0
  -3  -3   0  899.67   14.25   0
  -1   0 -19  211.18    8.17   0
   0   2  -5  158.93   11.13   0
  -2  -3 -11  243.40    7.86   0
  -2  -3  -2  601.43   11.64   0
  -1  -2 -14 1113.70   14.10   0
  -1  -1 -18  725.47   12.02   0
   0  -1 -11  411.14   10.56   0
   0  -1  -2 2270.96   33.80   0
  -2   0  10 2981.16   38.56   0
   0   1 -13 1016.54   22.52   0
  -1  -3  -7  616.77   11.58   0
   0   1  -1 1799.56   37.22   0
  -2  -3   1  705.59   13.62   0
  -2  -2   6  661.39   19.06   0
  -1  -3 -10  813.59   12.26   0
   0  -2  -7  313.71    9.33   0
   0  -1 -14 1133.86   16.04   0
   0   0 -15  148.75    7.89   0
  -1  -3 -13  554.39   10.46   0
   0  -2 -10 3188.86   25.29   0
   0  -2  -4 2076.88   23.53   0
  -1  -3  -1  784.89   14.05   0
   0  -2 -13 1108.13   15.25   0
  -2  -4  -7  216.90    7.41   0
  -1  -3 -16  669.14   10.82   0
  -2  -4  -4  722.16   12.28   0
   0  -1 -17  771.44   13.50   0
   0  -2 -16  570.98   11.28   0
  -1  -2   4 3048.82   38.98   0
   0  -3  -9 1209.03   15.50   0
  -1  -4  -9  318.73    8.67   0
   0   0 -18  469.06   12.01   0
   0   1 -16 1363.34   24.19   0
  -2  -3   4 1887.00   24.47   0
   0  -3 -12  953.09   13.29   0
   0  -3  -6 2408.90   22.13   0
   0  -2  -1 4930.77   40.05   0
  -2  -4  -1  512.81   11.09   0
   0  -3 -15  239.96    7.63   0
  -1  -3   2 1204.76   19.08   0
   0  -2 -19  187.53    7.71   0
   0  -1 -20  564.45   11.92   0
  -1  -4  -3  733.23   12.31   0
   0  -3  -3  470.44   11.04   0
   0  -4  -8 1296.50   15.15   0
   0  -4 -14  489.05    9.71   0
   0  -1   1 1711.15   38.72   0
  -1  -4   0 1237.55   17.04   0
   0  -4  -5  347.92    9.49   0
  -1   1   4 9269.94   60.28   0
   1  -3 -11  403.41    9.65   0
   1  -3  -5 1900.98   20.03   0
  -1   1   4 9678.96   62.47   0
   1  -4  -7  616.04   11.39   0
   1  -2  -9 1103.27   16.95   0
   1  -4 -10  788.86   12.09   0
   1  -2  -6 3713.84   31.14   0
   1  -4  -4 2462.33   21.14   0
   1  -3 -14 1130.66   15.06   0
   1  -2 -12 1575.17   18.95   0
   0  -4   4 1380.27   18.05   0
   0  -5   2 1018.66   14.59   0
   1  -5  -9  298.52    8.47   0
   1  -3  -2 2863.18   25.38   0
   2  -4  -9  918.91   12.78   0
   3  -5 -19   60.38    6.19   0
   3  -5 -16  550.49   11.39   0
   4  -5  -6  944.17   12.80   0
   8  -6  -7   67.68    7.29   0
   9  -6  -9  115.08    7.96   0
   5  -6 -19   87.76    7.39   0
   5  -6 -16  244.63    9.57   0
   6  -6  -9  190.17    7.89   0
   2  -4 -21  285.77    9.22   0
   9  -6 -12   99.40    7.77   0
   4  -5 -24   88.84    8.36   0
   6  -6 -21   70.66    7.85   0
   6  -6 -12  436.65   10.17   0
   6  -4   1  483.37   10.91   0
   8  -6 -10  130.97    8.03   0
   2  -4 -18  292.22    9.22   0
   3  -4  -5  979.51   13.11   0
   4  -5  -9  610.94   10.72   0
   5  -5  -5  602.52   10.72   0
   6  -6 -18  103.72    8.22   0
   6  -6 -15   82.78    7.86   0
   7  -5  -3  359.19    9.55   0
   2  -4 -15  162.71    6.97   0
   5  -4   0 1214.81   15.19   0
   7  -6 -11  112.14    7.09   0
   1  -3 -11  397.31    9.23   0
   6  -5  -4  640.44   11.46   0
   7  -6 -20  140.27    7.97   0
   1  -3 -20  358.20    9.79   0
   3  -4 -26  129.31    8.35   0
   4  -5 -21  150.70    8.34   0
   5  -5 -26  109.36    8.39   0
   7  -6 -14  106.01    8.15   0
   8  -6 -16  105.00    7.71   0
   9  -5  -7   46.18    7.11   0
   2  -3  -4 3049.63   23.41   0
   4  -5 -12  547.94   10.93   0
   8  -5  -5  137.05    7.64   0
   0  -2 -13 1087.36   15.87   0
   1  -3 -17  489.95   10.83   0
   1  -3 -14 1052.49   14.34   0
   4  -5 -15  134.65    7.62   0
   0  -2 -16  528.43   11.68   0
   5  -5 -23   54.55    7.78   0
   3  -4  -8 1860.71   17.72   0
   4  -4 -28   54.65    7.65   0
   9  -5 -10   70.25    6.95   0
   3  -4 -23   53.91    6.86   0
   7  -5  -6  299.96    8.57   0
   7  -4  -1  169.41    7.53   0
   4  -4  -4 1286.79   14.77   0
   5  -5 -20  147.83    9.03   0
   5  -5 -11  172.49    7.84   0
   5  -3   2  577.54   11.61   0
   8  -5  -8  289.77    9.41   0
   9  -5 -13   85.59    7.09   0
   2  -3 -25  109.73    7.78   0
   6  -5 -22   96.71    8.35   0
   3  -4 -20  335.17   10.04   0
   3  -4 -11  297.85    8.27   0
   5  -4  -3  297.88    8.09   0
   6  -5 -10  401.87   10.19   0
   6  -4  -2  725.00   12.26   0
   7  -5  -9  115.61    7.47   0
   8  -5 -20   90.72    7.59   0
   8  -5 -11   78.46    7.32   0
   2  -3  -7 1459.34   16.50   0
   4  -4 -25   90.42    8.64   0
   7  -5 -21   43.53    7.40   0
   3  -4 -14  580.00   10.79   0
   5  -4 -27   30.02    7.39   0
   8  -5 -17   74.34    7.78   0
   6  -5 -16  263.94    9.63   0
   6  -5 -13  158.65    7.56   0
   7  -5 -12  305.37    9.71   0
   4  -4  -7  272.31    8.22   0
   7  -5 -18   83.55    7.45   0
   7  -5 -15  127.84    8.51   0
   2  -3 -22  233.97    8.61   0
   3  -3  -3 1862.94   18.64   0
   3  -3 -27   61.79    7.57   0
   4  -4 -22  275.88    9.05   0
   8  -4  -6  180.45    8.15   0
   9  -4 -11   48.32    6.93   0
   4  -3 -29   49.79    7.62   0
   2  -3 -10 1310.18   15.67   0
   9  -4 -14   51.08    6.74   0
   2  -3 -19  244.32    8.55   0
   4  -4 -10 1136.60   14.56   0
   5  -4  -6  964.15   13.09   0
   6  -4  -5  260.84    7.95   0
   6  -3   0  877.58   13.74   0
   2  -3 -16  918.80   13.44   0
   4  -4 -13  616.89   11.17   0
   8  -4  -9  137.49    7.78   0
   3  -3 -24  227.62    9.26   0
   5  -4 -21  137.53    8.57   0
   6  -4 -23   54.83    7.14   0
   7  -4 -22   86.85    7.94   0
   7  -4  -7  275.34    9.14   0
   1  -2 -21  252.12    8.76   0
   8  -4 -18   77.22    7.54   0
   5  -4  -9  618.45   11.53   0
   5  -3 -28   58.03    8.10   0
   8  -4 -15   55.43    7.88   0
   8  -4 -12  227.58    9.21   0
   4  -3 -26  136.89    8.72   0
   5  -3  -1  662.94   11.58   0
   2  -2 -26  125.67    8.27   0
   3  -3  -6 1801.24   17.87   0
   5  -4 -18  341.19    9.54   0
   6  -4 -20  176.17    8.85   0
   7  -4 -19   94.84    7.93   0
   5  -4 -12  532.60   11.11   0
   7  -4 -10  295.96    9.54   0
   9  -3 -12  117.00    7.28   0
   5  -4 -15  129.49    7.13   0
   7  -4 -16  189.11    9.23   0
   1  -2 -18  744.00   13.15   0
   3  -3 -21  179.91    7.76   0
   4  -2 -30   64.90    7.78   0
   6  -4 -17  131.70    8.38   0
   6  -4 -11  285.07    9.23   0
   7  -4 -13  105.22    6.95   0
   3  -2 -28  118.12    8.63   0
   6  -4 -14  338.71   10.04   0
   1  -2 -15  512.06   11.07   0
   1  -2 -12 1585.63   18.21   0
   8  -3  -7   93.79    7.25   0
   3  -3  -9  482.79    9.91   0
   4  -3 -23   49.94    6.61   0
   6  -3  -3  360.05    9.43   0
   7  -3 -23   20.83    7.37   0
   4  -3  -5  979.22   13.40   0
   5  -2 -29   55.33    7.90   0
   6  -3 -24   98.64    7.77   0
   2  -2 -23  158.94    8.27   0
   3  -3 -15  461.81   10.01   0
   3  -3 -12 1434.74   16.01   0
   7  -3  -5  282.09    9.00   0
   8  -3 -10  171.87    8.47   0
   5  -3  -4 1873.41   18.49   0
   8  -3 -16  105.84    8.27   0
   8  -3 -13  109.08    7.68   0
   5  -3 -22  160.03    8.08   0
   7  -3 -20   96.96    7.94   0
   4  -2 -27   13.54    7.20   0
  -6  -3  -9  125.05    8.50   0
  -1  -2  -8 1883.88   18.27   0
  -6  -1 -17  114.38    8.47   0
  -5  -2 -15  115.29    7.90   0
  -4  -4  -6  196.60    7.96   0
  -2  -2 -12 1605.85   16.88   0
  -6  -4  -2   75.59    7.08   0
  -7   0 -19   17.17    6.56   0
  -5  -4  -7   60.19    7.59   0
  -4  -3 -13  116.45    8.04   0
  -1  -4   3  312.32    8.94   0
  -4  -1 -18  346.97   10.00   0
  -1  -4   0 1278.38   15.46   0
  -1  -3  -7  591.84   10.80   0
  -4  -4  -9  147.22    8.72   0
  -4   0 -19   82.91    6.70   0
  -2  -3 -11  236.39    8.39   0
  -5   0 -20  124.64    7.92   0
  -3  -1 -17  384.44    9.82   0
  -2  -4  -7  217.29    8.07   0
  -5  -1 -19   86.73    8.17   0
  -4  -5   1  115.52    8.00   0
  -3  -5   2  197.00    8.42   0
  -3   0 -18  393.35    9.92   0
  -6   0 -21   85.41    7.70   0
  -3  -5  -1  179.97    8.38   0
  -4  -5  -2   83.97    7.22   0
  -1  -2 -11  413.19    9.20   0
  -6  -1 -20  131.83    8.26   0
  -3  -4 -11  111.27    7.19   0
   0  -3   0 2174.29   21.21   0
  -3  -5  -4  336.19   10.03   0
  -3  -3 -15  135.51    7.94   0
  -2  -5   0  466.91   10.68   0
  -2  -5   3  342.19    9.56   0
  -5  -5   0  123.60    7.42   0
  -4  -5  -5  100.14    7.95   0
  -4  -3 -16  204.74    9.65   0
  -2  -4 -10  510.86   10.32   0
  -2  -1 -16  941.19   13.68   0
  -2   1 -15  449.57   11.40   0
  -1  -4  -6  764.42   11.70   0
  -1  -3 -10  778.86   11.80   0
  -2  -5  -3  119.51    7.50   0
  -5  -5  -3   45.21    7.33   0
   0  -3  -3  466.35    9.94   0
  -6  -2 -19   14.79    7.20   0
  -4  -1 -21  149.25    8.15   0
  -3  -4 -14  278.15    9.09   0
  -2   0 -17  220.56    8.30   0
  -1  -4  -9  328.88    8.58   0
   0  -2  -7  316.88    8.90   0
  -5  -1 -22   95.83    8.57   0
  -4  -4 -15   63.01    7.94   0
  -4  -2 -20  179.77    8.24   0
  -3  -2 -19   65.71    6.99   0
  -1  -5  -2  613.43   11.61   0
   0  -3  -6 2347.56   20.41   0
  -3  -5 -10  172.18    8.79   0
  -3  -1 -20  333.64    9.57   0
  -1  -5   4  638.37   12.26   0
   0  -4   1 1210.74   15.86   0
  -5  -2 -21   53.55    8.05   0
  -4  -5 -11   52.95    7.83   0
  -2  -5  -9  293.85    8.82   0
  -1  -3 -13  534.84   10.27   0
  -1   0 -13  977.25   15.31   0
   0  -4  -2 1347.42   15.68   0
  -2  -2 -18  278.05    8.94   0
  -2  -3 -17  336.33    9.56   0
   0  -4  -5  330.46    8.86   0
  -3  -6   0  205.84    9.25   0
  -1  -4 -12  725.38   11.75   0
  -5  -3 -20   93.86    8.62   0
  -3  -6  -3  123.65    7.70   0
  -3  -5 -13  135.65    8.75   0
  -1  -5  -8  533.57   11.04   0
  -1  -1 -15  479.72   10.36   0
   0  -3  -9 1178.31   14.60   0
  -3  -4 -17  128.73    7.68   0
  -2  -5 -12  235.48    9.28   0
  -2  -1 -19  248.24    8.43   0
  -4  -4 -18   88.27    8.32   0
  -2  -6  -2  178.24    8.40   0
  -2  -6   1  157.55    8.10   0
  -2  -4 -16  264.96    9.30   0
   0  -2 -10 3179.21   24.15   0
  -4  -5 -14   60.81    8.09   0
  -3  -6  -6  104.05    8.22   0
   0  -4  -8 1262.68   14.69   0
  -4  -2 -23   57.02    7.66   0
  -1  -5 -11  165.98    8.29   0
  -1  -3 -16  667.26   11.54   0
   0  -5  -1  277.77    8.61   0
  -3  -2 -22  167.53    8.22   0
  -2  -6  -8  271.51    9.60   0
   0  -5  -4  815.56   12.80   0
  -4  -3 -22   83.17    8.56   0
  -3  -3 -21  104.81    7.26   0
  -1  -2 -17  474.73   10.40   0
  -3  -5 -16  147.40    8.35   0
  -2  -5 -15   53.20    7.63   0
  -1  -6  -4  513.12   11.29   0
   0  -5   2  965.52   14.42   0
   0  -3 -12  949.28   13.37   0
  -1  -6   2  200.38    8.55   0
   0  -5  -7  549.94   10.92   0
  -3  -1 -23   58.43    6.46   0
  -2  -3 -20  312.82    8.98   0
  -1  -6  -7  110.67    7.59   0
  -2  -6 -11   73.05    7.69   0
  -2  -2 -21  259.52    8.87   0
  -2  -4 -19   69.17    7.93   0
  -1  -5 -14  305.36    9.48   0
   0  -5 -10  543.74   10.95   0
  -1  -6 -10  187.81    7.84   0
  -1   0 -16 1428.04   18.29   0
  -3  -5 -19   36.26    7.63   0
  -2  -6 -14  101.19    8.47   0
  -2  -5 -18  174.98    9.10   0
  -1  -4 -18  217.99    8.85   0
  -1  -3 -19  118.47    7.59   0
  -2  -1 -22  218.44    8.47   0
   0  -6  -3  194.17    8.15   0
   0  -4 -14  497.65   10.25   0
  -2  -7  -4  148.30    8.76   0
   0  -6  -6  320.17    9.55   0
   0  -6   0  705.11   12.67   0
  -3  -3 -24   90.72    8.19   0
  -1  -6 -13  180.69    8.83   0
  -2  -7  -7   92.55    7.53   0
  -1  -5 -17  163.93    7.94   0
  -1  -2 -20  336.68    9.63   0
   0  -5 -13  165.65    7.49   0
   1  -4  -4 2395.79   20.58   0
  -3  -4 -23   34.72    7.78   0
  -3  -2 -25   94.70    7.76   0
   1  -4  -1  805.62   13.17   0
   1  -3  -5 1912.87   19.09   0
  -2  -4 -22  125.20    8.81   0
  -2  -3 -23   32.55    6.96   0
  -1  -7  -3  129.67    8.69   0
   1  -4  -7  610.84   10.82   0
  -2  -7 -10   87.76    7.59   0
  -1  -7  -6  124.27    7.91   0
  -2  -6 -17   56.16    7.99   0
   0  -2 -16  531.59   10.45   0
   1  -3  -8 1915.77   18.57   0
  -1  -7  -9   99.00    8.34   0
   0  -1 -14 1114.44   15.40   0
   1  -5  -6  778.75   12.40   0
   1  -5  -3  721.24   11.80   0
  -2  -2 -24  196.09    8.64   0
  -1  -6 -16  178.25    9.15   0
   0  -6 -12  370.73    9.64   0
   0  -4 -17  191.68    7.73   0
   1  -4 -10  816.76   12.43   0
   1  -5   0 1223.10   15.87   0
   1  -5  -9  308.37    8.43   0
   1  -4   2 1120.93   16.34   0
  -1  -5 -20  133.51    8.55   0
  -1  -3 -22  196.86    8.65   0
   0  -7  -5  167.72    8.38   0
   1  -3 -11  410.20    9.21   0
  -1  -1 -21  246.37    9.02   0
   0  -7  -8  368.56   10.62   0
   0  -7  -2  125.23    7.61   0
   0  -6 -15   86.94    7.08   0
   1  -6  -5  373.34    9.74   0
   1  -5 -12  736.95   12.40   0
   1  -4 -13  555.06   10.80   0
   1  -6  -2  601.91   11.68   0
  -1  -6 -19   34.09    7.30   0
   1  -2  -9 1127.46   15.33   0
  -2  -4 -25   69.17    7.46   0
  -1  -7 -15   48.98    7.34   0
  -1  -2 -23   83.40    6.88   0
   0  -2 -19  182.38    7.71   0
   1  -6 -11  171.27    8.04   0
  -2  -3 -26   81.78    7.73   0
   1  -3 -14 1177.51   14.85   0
   1  -6   1  272.79    8.82   0
   1  -5 -15  238.21    8.88   0
  -1  -4 -24  114.10    8.02   0
   0  -7 -14   82.48    7.82   0
   0  -6 -18  124.48    8.69   0
   0  -1 -17  748.83   12.95   0
   0  -3 -21  231.42    8.71   0
   1  -4 -16  709.07   11.74   0
   1  -7  -7   95.39    7.69   0
   1  -6 -14  300.93    9.85   0
   1  -7  -4  518.16   11.32   0
  -1  -6 -22   64.67    7.63   0
  -1  -3 -25   97.86    7.92   0
   0  -8  -7   69.18    7.65   0
   0  -7 -17  100.01    8.10   0
   0  -8 -10   91.21    7.48   0
   1  -5 -18  232.99    8.37   0
   0  -6 -21   87.39    7.94   0
   0  -4 -23   88.76    6.93   0
   1  -7 -13  186.06    8.05   0
   1  -6 -17  162.36    8.56   0
   2  -5  -8 1507.89   16.11   0
   0  -8 -13   62.89    7.23   0
   1  -2 -15  465.52    9.87   0
   0  -2 -22  489.38   10.94   0
   2  -5 -11  215.80    7.69   0
   2  -4  -9  955.03   13.40   0
   2  -4  -6  660.62   11.37   0
   1  -7 -16  173.27    9.26   0
   2  -6 -10  515.74   11.02   0
   2  -6  -4  719.76   12.37   0
   2  -5  -2  588.69   11.30   0
  -1  -4 -27   30.25    7.65   0
   0  -7 -20   93.12    7.83   0
   0  -3 -24  136.83    7.30   0
   0  -1 -20  557.39   11.67   0
   1  -8  -9   93.74    7.53   0
   1  -8  -6  119.82    7.94   0
   2  -4 -12 1633.53   16.99   0
   1  -6 -20  134.62    8.93   0
   2  -6 -13  288.24    9.57   0
   2  -5 -14  307.82    9.43   0
   1  -8 -12  160.88    8.65   0
   1  -8  -3  126.51    7.79   0
   0  -5 -25   44.83    7.39   0
   1  -3 -20  346.27    9.10   0
   2  -7  -6  388.25    9.57   0
   2  -6  -1  494.63   10.80   0
   1  -7 -19   25.95    7.09   0
   1  -4 -22  203.74    8.77   0
   1  -2 -18  699.95   12.36   0
   2  -7 -12  229.38    8.44   0
   2  -7  -3  104.70    7.16   0
   2  -4 -15  163.48    7.52   0
   0  -4 -26   85.91    7.46   0
   2  -6 -16  260.90    8.71   0
   2  -3 -10 1331.88   15.46   0
   2  -5 -17  336.76    9.19   0
   2  -5   1  671.05   12.46   0
   2  -7 -15   56.76    7.53   0
   2  -4   0 3765.48   28.01   0
   2  -3  -4 3074.59   24.51   0
   1  -1 -13 1008.54   15.14   0
   1  -5 -24  120.92    8.17   0
   2  -8 -11   65.83    7.82   0
   2  -8  -8  256.14    8.99   0
   2  -7   0  462.88   11.20   0
   0  -2 -25  125.73    7.38   0
   1  -7 -22   71.42    7.51   0
   2  -8  -5  120.16    7.68   0
   2  -6 -19   65.18    7.07   0
   2  -7 -18  163.79    8.85   0
   0  -3 -27   39.38    6.75   0
   1  -3 -23   81.51    7.10   0
   2  -5 -20  298.24    9.08   0
   1  -4 -25  118.48    7.79   0
   1  -2 -21  259.92    8.69   0
   2  -8  -2  163.49    8.49   0
   3  -6  -9  318.89    8.82   0
   1  -1 -16 1445.37   17.78   0
   2  -8 -17   65.54    7.59   0
   3  -6 -12  472.39   10.26   0
   3  -5 -10  510.59   10.67   0
   2  -6 -22  135.40    8.50   0
   3  -7 -11  112.36    7.77   0
   3  -7  -8  320.26    9.07   0
   3  -5  -7  327.91    9.03   0
   2  -7 -21   79.65    7.99   0
   2  -4 -21  275.66    9.34   0
   2  -9 -10   86.69    7.66   0
   3  -7 -14  273.04    9.62   0
   3  -7  -5  305.68    9.43   0
   3  -6 -15  131.21    7.27   0
   1  -5 -27   28.54    7.29   0
   2  -9  -7   74.65    6.93   0
   2  -5 -23   29.35    7.06   0
   2  -3 -19  238.12    8.49   0
   3  -6  -3  363.02    9.58   0
   2  -2 -11 1714.06   18.24   0
   2  -2  -8 2803.80   23.63   0
   3  -8 -10  146.00    7.60   0
   3  -8  -7  105.89    8.00   0
   3  -5 -16  553.26   10.89   0
   3  -7 -17  125.14    7.82   0
   3  -6 -18  227.75    9.20   0
   1  -3 -26  173.96    8.36   0
   2  -2 -14  932.24   13.68   0
   3  -7  -2  504.89   10.87   0
   3  -4  -8 1791.61   17.55   0
   3  -4 -14  592.69   11.41   0
   1  -1 -19  196.09    7.80   0
   2  -6 -25   46.98    7.36   0
   3  -8 -16  136.37    7.96   0
   3  -8  -4  333.43    9.84   0
   1  -4 -28   75.98    7.38   0
   1  -2 -24  219.68    8.51   0
   2  -4 -24  197.74    8.91   0
   3  -5 -19   70.98    7.05   0
   3  -4  -5 1007.94   13.98   0
   3  -7 -20   80.50    8.02   0
   3  -6   0  883.90   13.73   0
   2  -3 -22  223.36    8.56   0
   3  -6 -21  110.95    8.17   0
   3  -5  -1  688.58   11.82   0
   2  -5 -26   72.65    7.33   0
   2  -2 -17  238.40    8.25   0
   3  -9 -12  130.91    7.85   0
   3  -9  -9   59.37    7.08   0
   3  -8 -19   15.25    7.12   0
   3  -4 -17  381.45    9.42   0
   3  -9  -6   97.82    7.29   0
   3  -5 -22  159.98    8.36   0
   4  -7 -13  102.05    8.32   0
   4  -7 -10  309.92    9.77   0
   3  -7 -23   28.57    7.15   0
   4  -6 -11  266.71    8.54   0
   3  -4 -20  312.85    9.01   0
   3  -3 -12 1444.90   15.95   0
   4  -7  -7  274.21    8.55   0
   4  -6 -14  326.13    9.90   0
   4  -6  -8  600.09   11.08   0
   3  -6 -24   77.80    7.91   0
   4  -8  -9  143.06    8.42   0
   4  -7 -16  164.38    8.10   0
   2  -4 -27   21.07    7.56   0
   4  -8 -15   67.31    7.48   0
   4  -8  -6  185.82    8.45   0
   4  -6 -17  104.37    8.10   0
   2  -3 -25  116.80    7.48   0
   3  -3  -6 1905.13   18.86   0
   4  -7  -4  429.21   10.40   0
   4  -5 -12  555.85   10.90   0
   4  -5  -9  632.62   11.60   0
   4  -8 -18   86.07    7.66   0
   4  -7 -19   70.93    7.31   0
   4  -5 -15  130.25    7.90   0
   2  -5 -29   46.77    6.41   0
   3  -5   2  583.35   11.76   0
   4  -9 -14   45.55    7.38   0
   4  -9 -11   57.84    7.58   0
   3  -5 -25  106.88    8.32   0
   3  -4 -23   51.71    7.18   0
   3  -3 -18  411.19    9.56   0
   4  -9  -8  210.82    8.78   0
   4  -6 -20  156.64    7.90   0
   4  -5  -6  978.68   13.37   0
   4  -8  -3  150.54    7.86   0
   4  -5 -18  355.73   10.01   0
   3  -6 -27   28.12    6.32   0
   4  -7 -22   78.26    7.47   0
   4  -9  -5   90.68    6.98   0
   4  -6  -2  706.70   11.86   0
   2  -2 -23  158.99    7.62   0
   4  -7  -1  175.37    7.80   0
   2  -1 -12 1550.06   18.18   0
   3  -4   1  772.17   13.20   0
   3  -3 -21  181.66    7.96   0
   3  -3  -3 1889.39   19.28   0
   4  -4 -13  605.86   11.31   0
   4  -4 -10 1114.30   14.06   0
   2  -1 -15  482.27   10.84   0
   4  -4 -16  356.40    9.47   0
   5  -8 -14   97.15    8.07   0
   5  -7 -12  306.61   10.02   0
   3  -5 -28   54.05    6.67   0
   3  -4 -26  108.89    7.55   0
   4  -4  -7  263.04    7.90   0
   5  -7 -15  120.20    7.22   0
   5  -8 -17   73.77    7.79   0
   5  -8  -8  298.50    9.60   0
   4  -4 -19   87.39    6.90   0
   5  -9 -13   83.02    7.82   0
   5  -7 -18   90.37    8.18   0
   5  -6 -13  176.54    8.11   0
   2  -1 -18  721.53   13.12   0
   5  -9 -10   77.75    7.19   0
   5  -6 -10  357.14    9.17   0
   3  -2 -10 1282.85   15.40   0
   4  -5 -24   88.74    7.69   0
   5  -7  -6  291.37    8.50   0
   5  -6 -16  267.81    8.58   0
   3  -3 -24  211.44    8.50   0
   3  -2 -16  955.96   13.79   0
   4  -6 -26   66.16    7.01   0
   4  -6   1  486.16   10.59   0
   5  -8 -20   79.60    7.38   0
   5  -8  -5  145.03    7.89   0
   5  -9  -7   51.80    6.86   0
   5  -6  -7  300.51    8.59   0
   4  -4  -4 1330.07   15.32   0
   5  -7 -21   52.44    7.34   0
   5  -6 -19   95.55    7.97   0
   4  -5   0 1227.25   15.44   0
   4  -4 -22  268.83    8.93   0
   3  -2 -19  252.66    8.50   0
   3  -2  -7 1510.50   16.73   0
   5  -5 -14  475.41   10.59   0
   5  -5 -11  190.19    7.43   0
   4  -3 -11  293.11    8.80   0
   5  -9  -4  244.49    9.06   0
   5  -5 -17  203.15    8.70   0
   5  -5  -8  553.85   11.05   0
   4  -5 -27   27.10    6.89   0
   4  -3 -17  384.49    9.47   0
   5  -8  -2  173.91    8.01   0
   4  -3  -8 1857.76   17.60   0
   4  -4 -25   80.27    6.98   0
   6  -8 -16  125.35    7.97   0
   6  -8 -13  121.42    7.45   0
   3  -2 -22  225.36    8.26   0
   5  -5  -5  601.01   11.18   0
   6  -9 -12   97.33    7.28   0
   6  -7 -14  107.42    7.81   0
   4  -3 -20  302.84    8.72   0
   6  -7 -11  110.02    6.90   0
   3  -4   4 2334.72   23.42   0
   5  -6 -25   40.69    6.32   0
   6  -9  -9  112.11    7.38   0
   6  -8 -19   19.60    6.48   0
   6  -7 -17  112.47    7.47   0
  -1  -7  -9   83.12    7.92   0
   0  -8  -4  176.00    8.96   0
   2  -7  15  123.49    7.63   0
   2  -5  -2  601.72   10.81   0
   2  -7   0  472.31   10.36   0
   0  -7  -8  368.65   10.82   0
   0  -4 -11  567.66   11.62   0
   2  -8  10  149.86    8.50   0
   1  -9   7   43.93    7.21   0
   1  -9   4   88.80    8.29   0
   1  -8  -3  143.07    8.76   0
   2  -8  13  135.05    8.30   0
   1  -6  -8  492.90   10.95   0
   2  -3   2 2862.57   24.22   0
   2  -8   1  165.49    8.90   0
   2  -6  -4  740.96   12.31   0
   1  -7  -7  110.73    7.72   0
   2  -7  -3  104.23    7.78   0
   1  -9   1   61.88    7.27   0
   1  -5  -9  303.41    9.06   0
   2  -4  -3  752.39   12.36   0
   0  -8  -7   71.95    8.21   0
   3  -6   9  336.67    8.94   0
   2  -8  16  102.47    7.71   0
   2  -5  -5  647.74   11.61   0
   2  -9   5  111.61    8.03   0
   2  -8  -2  170.43    9.00   0
   3  -7   4  428.31   10.64   0
   3  -7  10  327.35    9.19   0
   3  -6   3  372.14    9.31   0
   0  -6 -12  373.25   10.78   0
   1  -9  -2  107.67    8.26   0
   1  -8  -6  121.53    7.97   0
   2  -9  11   25.40    6.59   0
   3  -6  12  499.30   11.10   0
   3  -5   8 1537.24   17.09   0
   2  -9   2  131.83    9.02   0
   0  -7 -11   55.07    7.72   0
   3  -8   8  288.57    9.71   0
   3  -7   1  177.27    8.39   0
   3  -7  13  103.12    7.17   0
   3  -5  11  237.56    8.45   0
   0  -5 -13  164.99    7.73   0
   2  -7  -6  381.54   10.25   0
   2  -3  -1  627.65   11.65   0
   3  -8   5  140.14    7.48   0
   3  -8  11   85.68    7.37   0
   3  -6   0  901.01   12.94   0
   3  -5   2  598.01   10.80   0
   1  -4 -10  766.83   12.77   0
   3  -8   2  193.69    8.86   0
   0  -3 -12  905.02   15.04   0
   1  -7 -10  171.71    8.88   0
   2  -9  -1   45.39    7.15   0
   2  -8  -5  117.63    8.54   0
   1  -9  -5   60.62    7.34   0
   1  -6 -11  158.04    8.04   0
   0  -8 -10   83.83    8.06   0
   3  -8  14   99.37    7.38   0
   3  -7  -2  531.27   10.77   0
   3  -5  14  286.53    9.47   0
   1  -8  -9  100.53    8.40   0
   2  -4  -6  685.05   11.84   0
   3  -9   9  122.19    8.43   0
   3  -8  -1  166.67    8.66   0
   3  -9   3   51.55    7.74   0
   3  -6  -3  381.17    9.48   0
   3  -5  -1  694.32   11.45   0
   3  -4   7  623.80   12.00   0
   2  -9  -4  150.85    8.60   0
   1  -5 -12  708.51   12.54   0
   3  -9  12   94.48    7.34   0
   3  -4  10  762.40   13.39   0
   0  -4 -14  470.23   11.11   0
   2  -7  -9  274.57    8.78   0
   3  -9   0  204.31    8.84   0
   2  -8  -8  255.04    9.87   0
   3  -8  -4  346.31   10.23   0
   3  -7  -5  298.59    9.64   0
   2  -3  -4 3078.25   24.25   0
   3  -4   1  784.24   12.59   0
   2  -6 -10  490.92   10.30   0
   4  -7   8  322.27    9.63   0
   3  -5  -4 1946.01   18.40   0
   4  -8   6  188.64    8.68   0
   2  -9  -7   74.50    7.68   0
   3  -9  -3  114.58    8.01   0
   3  -6  -6  600.93   11.43   0
   4  -8   3  138.53    7.92   0
   4  -8   9  131.57    8.11   0
   4  -7   2  498.17   11.05   0
   1  -7 -13  161.81    8.56   0
   4  -7  11  121.01    7.33   0
   4  -6   7  220.77    8.28   0
   1  -8 -12  157.59    8.80   0
   4  -9   4  254.32    9.35   0
   4  -9   7   58.25    7.12   0
   4  -8   0  373.99   10.50   0
   4  -8  12  213.05    8.70   0
   3  -8  -7   96.78    7.90   0
   4  -9  10   67.89    8.22   0
   4  -6  10  492.56   10.56   0
   2  -4  -9  874.10   13.16   0
   3  -4  -2 1168.28   14.50   0
   4  -7  -1  171.68    7.68   0
   4  -6   1  504.40   10.65   0
   2  -5 -11  221.70    8.17   0
   4  -9   1  118.78    7.59   0
   1  -4 -13  501.04   10.93   0
   2  -8 -11   69.17    8.03   0
   2  -7 -12  220.93    9.11   0
   1  -3 -11  391.50    9.97   0
   4  -8  -3  137.73    8.54   0
   4  -9  13   76.31    7.20   0
   4  -6  13  278.07    9.26   0
   3  -5  -7  318.30    8.39   0
   4  -9  -2   80.39    7.40   0
   4  -6  -2  718.36   12.11   0
   4  -5   6  788.13   12.82   0
   4  -7  -4  441.65   10.04   0
   2  -6 -13  281.17    9.15   0
   4  -5   9  294.92    9.04   0
   2  -3  -7 1375.93   16.33   0
   3  -8 -10  156.91    7.69   0
   3  -3   6 2318.25   22.67   0
   4 -10  -1   58.39    7.19   0
   3  -9  -9   51.35    7.50   0
   3  -4  -5 1005.12   13.34   0
   4  -9  -5   87.50    7.80   0
   4  -8  -6  195.25    9.24   0
   4  -5   0 1221.05   14.87   0
   3  -7 -11  105.87    7.57   0
   4  -6  -5  275.30    8.70   0
   3  -3   9 1090.97   16.98   0
   4  -7  -7  271.71    9.06   0
   4  -5  12  708.10   13.21   0
   5  -9   5   88.07    7.76   0
   5  -9   2   85.26    7.67   0
   5  -9   8  236.65    9.26   0
   5  -8   1  158.56    8.48   0
   2  -8 -14  107.42    7.64   0
   5  -8  10  160.28    8.30   0
   5  -7   6  379.05    9.47   0
   3  -3   0 2421.79   21.58   0
   4  -5  -3  315.16    8.66   0
   5  -7   9  304.36    9.51   0
   2  -7 -15   60.06    7.02   0
   5  -9  -1  121.33    8.51   0
   5  -9  11   48.40    6.54   0
   2  -5 -14  311.00    9.19   0
   2  -4 -12 1532.79   17.33   0
   3  -6 -12  463.69   10.65   0
   5  -8  -2  208.25    8.16   0
   5  -7   0  474.58   10.32   0
   5 -10   0  130.58    8.60   0
   3  -9 -12  136.18    8.45   0
   3  -8 -13  114.68    8.03   0
   4  -6  -8  585.36   11.29   0
   5  -7  12  212.43    8.66   0
   3  -4  -8 1783.06   17.51   0
   4  -4   5  362.96    9.44   0
   5  -9  -4  271.53    9.31   0
   5  -7  -3  353.33    9.63   0
   5  -6   5  354.29    9.13   0
   5 -10  -3   57.78    7.31   0
   5  -8  -5  149.72    8.37   0
   5  -6   8  490.39   10.92   0
   2  -6 -16  238.75    9.24   0
   3  -7 -14  257.45    9.34   0
   3  -3  -3 1948.88   19.01   0
   4  -5  -6  974.14   13.53   0
   4  -4   2 1362.38   15.70   0
   4  -4   8 1267.79   16.69   0
   5  -6  -1  262.48    8.30   0
   4  -9 -11   42.48    7.20   0
   4  -8 -12  232.78    9.33   0
   4  -4  -1 1205.67   14.63   0
   5  -9  -7   63.63    7.65   0
   5  -7  -6  316.79    9.60   0
   5  -6  11  155.04    7.82   0
   1  -3 -14 1060.75   15.87   0
   6  -9   3  114.48    8.11   0
   6  -9   6   93.15    7.36   0
   3  -5 -13  464.49   10.46   0
   5  -6  -4  625.97   11.02   0
   6  -9   0  215.18    9.26   0
   6  -8   5  122.52    8.12   0
   4  -4  11  516.58   11.81   0
   6 -10   1   50.10    7.51   0
   6  -9   9   59.06    7.72   0
   3  -6 -15  127.81    7.46   0
   6  -8   8  240.92    8.96   0
   3  -8 -16  112.77    7.91   0
   4  -7 -13   98.91    7.52   0
   4  -5  -9  597.81   11.01   0
   4  -4  -4 1396.94   15.69   0
   3  -4 -11  284.96    8.53   0
   3  -3  -6 1822.11   18.03   0
   5  -5   4  808.45   12.49   0
   6 -10  -2   82.43    7.44   0
   6  -9  -3   42.55    7.63   0
   5  -7  -9  124.12    7.59   0
   5  -5   1  252.43    7.86   0
   5  -5   7  515.65   11.09   0
   6  -7   4  482.22   10.48   0
   2  -4 -15  146.85    7.02   0
   4  -9 -14   48.26    6.83   0
   5  -6  -7  311.66    8.72   0
   6  -8  -4  311.77    9.95   0
   6  -7   7  100.97    7.27   0
   5  -5  -2  981.59   13.45   0
   3  -7 -17  115.46    7.54   0
   6  -7  -2  188.78    8.55   0
   4  -8 -15   50.89    7.43   0
   5  -5  10  522.56   11.41   0
   6  -7  10  161.73    8.10   0
   4  -4  -7  260.15    7.80   0
   4  -6 -14  339.75    9.39   0
   6  -8  -7   76.54    7.14   0
   2  -3 -13  443.64   10.26   0
   5  -9 -13   90.14    7.98   0
   5  -5  -5  575.66   10.46   0
   6  -7  -5  181.77    8.43   0
   4  -5 -12  510.88   10.69   0
   6  -6   3  189.87    8.23   0
   4  -7 -16  182.77    8.54   0
   5  -6 -10  367.60    9.28   0
   6  -9  -9  115.33    7.66   0
   3  -3  -9  439.54    9.50   0
   6  -6   0  701.02   11.65   0
   6  -6   6  318.39    8.75   0
   7  -9   4  119.20    8.00   0
   5  -8 -14  101.91    7.88   0
   3  -6 -18  192.35    8.29   0
   4  -3   1  798.69   12.75   0
   4  -3   4 2440.01   21.75   0
   7  -9  -2  133.10    8.21   0
   7  -9   7   65.40    7.24   0
   3  -4 -14  553.07   10.98   0
   6  -8 -10  126.40    8.13   0
   6  -7  -8  455.53   10.56   0
   6  -6  -3  296.89    8.45   0
   7  -8   3  120.07    8.26   0
   5  -5  -8  553.02   10.75   0
   6  -6   9  260.05    8.85   0
   4  -4 -10 1079.68   14.05   0
   7  -8   6  114.02    7.83   0
   3  -2  -1  633.00   11.67   0
   4  -3  -2 1155.16   14.35   0
   4  -3   7  604.55   12.22   0
   5  -4   3  733.86   12.33   0
   7  -9  -5  105.89    7.80   0
   5  -4   0 1195.37   14.47   0
   7  -8  -3   66.25    6.64   0
   5  -4   6  809.41   13.21   0
   6  -6  -6  271.61    8.30   0
   7  -8   9   80.95    7.77   0
   5  -7 -15  112.90    7.54   0
   5  -6 -13  151.07    7.93   0
   5  -4  -3  314.73    8.74   0
   4  -6 -17  110.21    7.37   0
   4  -5 -15  128.59    7.16   0
   6  -7 -11  106.42    7.64   0
   7  -9  -8   99.11    7.93   0
   7  -8  -6  142.38    8.49   0
   7  -7   2  131.80    7.14   0
   4  -3  -5  996.17   13.25   0
   6  -8 -13  135.39    7.93   0
   7  -7  -1  164.96    7.62   0
   7  -7   5  171.43    7.79   0
   3  -2  -4 3068.92   23.88   0
   5  -5 -11  163.04    7.95   0
   6  -5   2  599.55   11.45   0
   3  -3 -12 1293.99   15.31   0
   5  -8 -17   77.53    7.08   0
   5  -4   9  319.52    9.77   0
   6  -6  -9  212.50    8.61   0
   6  -5  -1  266.71    8.79   0
   6  -5   5  377.58    9.83   0
   7  -7  -4  466.21   10.35   0
   7  -7   8  358.17   10.31   0
   4  -3  10  729.40   14.28   0
   5  -4  -6  956.85   12.97   0
   6  -5  -4  647.00   11.75   0
   7  -8  -9  129.41    8.36   0
   4  -4 -13  590.79   10.67   0
   7  -9 -11   17.99    6.72   0
   8  -9   2   96.19    7.86   0
   2  -3 -16  915.90   14.36   0
   6  -5   8  491.13   11.12   0
   7  -7  -7   84.16    7.71   0
   4  -3  -8 1901.51   18.17   0
   8  -9   5   49.74    6.98   0
   3  -4 -17  382.90    9.82   0
   5  -6 -16  261.45    9.20   0
   8  -9  -4   80.59    7.80   0
   3  -2  -7 1532.06   16.85   0
   5  -7 -18  105.49    7.70   0
   7  -6   1  266.08    8.39   0
   5  -4  -9  594.81   11.08   0
   6  -8 -16  117.57    8.19   0
   6  -6 -12  414.93    9.75   0
   6  -5  -7  306.84    8.50   0
   7  -6  -2  192.34    8.44   0
   7  -6   4  510.93   10.65   0
   8  -8   1   62.60    7.62   0
   5  -5 -14  466.77   10.39   0
   7  -8 -12  127.06    8.16   0
   8  -8   4  160.96    8.69   0
   7  -7 -10  103.27    7.01   0
   7  -6  -5  180.79    8.32   0
   7  -6   7   97.72    7.30   0
   8  -9  -7   48.43    6.49   0
   4  -5 -18  323.88    9.48   0
   8  -8  -5   97.94    7.71   0
   8  -8   7   69.54    7.22   0
   6  -5 -10  388.61   10.00   0
   4  -4 -16  357.12    9.55   0
   7  -6  -8  466.40   11.01   0
   5  -3  -1  691.81   11.41   0
   6  -7 -17   91.59    7.71   0
   8  -8  -8  118.36    8.19   0
   8  -7   3  124.78    8.39   0
   5  -4 -12  497.90   10.05   0
   6  -6 -15   87.46    6.61   0
   6  -4  -2  744.07   11.78   0
   7  -8 -15   26.39    7.08   0
   7  -7 -13  139.15    8.40   0
   8  -7  -3   57.48    7.35   0
   5  -3  -4 1946.83   18.18   0
   6  -4   4  747.18   12.71   0
   2  -2 -14  910.72   14.30   0
   5  -6 -19   94.88    7.20   0
   5  -3   5  635.78   11.97   0
   4  -2   0 3969.42   26.70   0
   6  -4  -5  274.05    8.09   0
   8  -7   6  112.35    7.83   0
   5  -5 -17  183.72    7.46   0
   7  -6 -11  105.18    7.96   0
   4  -2  -3  720.84   11.75   0
   4  -2   3  745.03   12.60   0
   6  -5 -13  170.82    8.09   0
   7  -5  -3  345.86    9.06   0
   7  -5   3  113.16    6.67   0
   8  -8 -11   32.70    6.99   0
   5  -3  -7  335.89    8.81   0
   6  -4   7  219.67    8.24   0
   6  -4  -8  598.19   10.69   0
   7  -5  -6  314.54    8.69   0
   7  -5   6  386.76   10.14   0
   8  -7  -9  131.06    8.29   0
   4  -3 -14  545.51   10.69   0
   4  -2  -6  694.16   11.29   0
   5  -4 -15  127.17    7.36   0
   5  -3   8 1573.33   18.88   0
   7  -7 -16  154.83    8.28   0
   8  -6  -1  154.77    8.47   0
   9  -8  -1   67.55    7.42   0
   4  -2   6  699.45   13.09   0
   6  -6 -18   91.22    7.41   0
   8  -6   2  165.96    8.20   0
   9  -8   2   99.79    7.23   0
   6  -7 -20  110.18    7.32   0
   8  -6  -4  308.53    8.86   0
   3  -2 -13  433.05    9.80   0
   5  -3 -10  483.54   10.06   0
   7  -5  -9  119.61    6.87   0
   4  -4 -19   83.14    6.52   0
   8  -7 -12  137.34    7.88   0
   8  -6   5  127.53    7.47   0
   9  -8   5   26.87    6.04   0
   6  -5 -16  263.47    9.15   0
   6  -4 -11  268.07    8.26   0
   8  -6  -7   81.42    7.70   0
   9  -8  -7   44.56    6.94   0
   4  -2  -9  914.80   12.61   0
   3  -1  -2 2969.77   24.04   0
   5  -5 -20  119.57    7.22   0
   7  -5 -12  322.60    9.32   0
   9  -7  -2  135.01    7.98   0
   8  -6 -10  129.02    7.38   0
   9  -7   1   44.55    6.84   0
   3  -1  -5 1935.67   19.06   0
   7  -7 -19   19.04    6.14   0
   9  -7  -5   98.93    7.73   0
   6  -3  -3  363.19    8.90   0
   7  -6 -17   95.79    7.35   0
   7  -4  -4  444.52   10.08   0
   9  -7   4  134.36    8.36   0
   2  -2 -17  215.07    7.94   0
   5  -4 -18  322.25    9.26   0
   7  -4   2  510.94   10.34   0
   6  -3  -6  595.80   11.04   0
   9  -7  -8   91.56    7.58   0
   6  -6 -21   76.88    6.71   0
   7  -4  -7  279.35    8.85   0
   8  -5   1  168.77    8.27   0
   5  -2  -2  599.60   10.82   0
   8  -6 -13  105.77    7.69   0
   8  -5  -5  146.04    8.01   0
   6  -5 -19   75.26    7.25   0
   7  -4   5  300.21    9.17   0
   3  -2 -16  926.99   13.65   0
   3  -1  -8 1874.78   18.13   0
   5  -2  -5  631.74   10.68   0
   8  -5   4  336.37    9.67   0
   6  -3  -9  317.14    8.52   0
   8  -5  -8  305.00    9.39   0
   9  -7 -11   32.69    6.54   0
   6  -3   6  612.88   11.87   0
   7  -4 -10  310.49    8.68   0
   9  -6  -3   40.89    7.07   0
   9  -6   0  205.00    8.45   0
   5  -3 -16  516.21   10.55   0
   5  -2  -8 1559.78   16.19   0
   5  -2   4 2012.82   19.79   0
   9  -6  -6  106.03    7.89   0
   6  -4 -17  121.19    7.61   0
   8  -5 -11   90.47    7.40   0
   9  -6   3  109.23    7.65   0
   6  -3 -12  455.68   10.21   0
   4  -2 -15  155.73    7.08   0
   7  -4 -13  105.67    7.29   0
   9  -6  -9  121.35    7.82   0
   5  -4 -21  130.22    7.47   0
   7  -5 -18   98.48    7.30   0
   4  -3 -20  303.00    8.91   0
   4  -1  -4 2513.57   20.64   0
   4  -1  -1  817.26   12.67   0
   5  -2 -11  224.03    8.01   0
   6  -5 -22   91.64    7.57   0
   8  -5 -14  116.88    7.52   0
   4  -1  -7  619.51   10.99   0
   9  -6 -12   95.51    7.71   0
   4  -1   2 1161.54   15.29   0
   5  -2   7  328.05    9.40   0
   7  -3  -5  302.48    8.59   0
   8  -4  -6  183.98    8.43   0
   8  -4   0  389.96   10.10   0
   7  -3   1  180.33    7.90   0
   2  -1 -15  465.58   10.36   0
   5  -3 -19   55.26    6.26   0
   7  -3  -8  312.35    9.08   0
   3  -2 -19  231.23    8.07   0
   6  -4 -20  151.20    7.12   0
   6  -2  -4  706.14   11.72   0
   8  -4  -9  121.02    7.90   0
   8  -4   3  134.09    7.74   0
   9  -5  -1  114.01    7.68   0
   9  -5  -7   49.04    6.86   0
   4  -1 -10  754.46   11.55   0
   4  -5   0 1233.04   14.89   0
   4  -6  -2  715.52   12.19   0
   5  -9   5   87.89    8.21   0
   3  -6  -6  586.22   10.93   0
   5  -7   3  112.91    6.89   0
   5  -6   5  383.66    9.34   0
   3  -3   0 2443.15   21.24   0
   5  -5  13  176.89    7.97   0
   5  -5  10  538.44   11.21   0
   4  -9  -2   70.76    7.78   0
   4  -4   2 1419.35   15.69   0
   5  -9   2   90.39    7.75   0
   5  -5   7  521.76   10.86   0
   4  -3  13  497.97   11.85   0
   5  -6   2  625.81   11.43   0
   3  -8  -7  100.16    7.84   0
   5  -7   0  497.33   11.18   0
   6  -8  11   78.80    7.40   0
   5 -10   3   45.19    7.54   0
   6  -9  12  138.12    7.84   0
   6  -8  14  109.78    8.14   0
   3  -9  -6   98.00    8.16   0
   3  -7  -8  330.28    9.67   0
   3  -4  -5 1009.80   13.84   0
   6  -8  17   63.13    7.62   0
   6  -7  10  183.48    8.54   0
   6  -7  13  191.96    8.42   0
   4  -6  -5  284.18    8.67   0
   4  -3   7  621.32   11.76   0
   5  -9  -1  112.77    8.12   0
   5  -5   4  809.24   12.19   0
   6  -9   6   91.49    7.72   0
   5  -8  -2  196.07    8.01   0
   6  -8   5  132.64    8.49   0
   6  -7  16  160.55    8.45   0
   4  -9  -5   88.10    8.02   0
   4  -8  -6  167.22    8.42   0
   4  -4  -1 1252.61   14.68   0
   5  -6  -1  265.12    8.21   0
   3  -6  -9  331.20    9.44   0
   5  -7  -3  343.76    9.60   0
   6  -9   3  115.87    7.87   0
   6  -7   4  491.57   11.14   0
   2  -4  -9  914.82   13.74   0
   4  -7  -7  258.99    9.02   0
   6  -8   2  167.60    8.60   0
   6  -6   9  271.02    9.11   0
   6  -6  12  368.64   10.15   0
   3  -3  -3 1866.32   18.43   0
   5  -5   1  264.69    8.57   0
   5  -4  12  757.71   13.44   0
   5  -4   9  313.73    9.21   0
   6  -6   6  315.32    9.12   0
   2  -5 -11  221.99    8.50   0
   5 -10  -3   52.29    6.99   0
   5  -4   6  838.91   12.95   0
   6  -9   0  208.02    8.56   0
   6  -7   1  270.43    9.08   0
   3  -8 -10  144.72    7.98   0
   6 -10   1   46.32    7.62   0
   4  -5  -6  960.49   13.02   0
   6  -8  -1  157.42    7.87   0
   4  -6  -8  566.14   11.11   0
   5  -6  -4  613.99   11.04   0
   6  -6   3  179.39    8.04   0
   7  -9  10   79.58    7.84   0
   4  -9  -8  211.64    9.27   0
   7  -8  12  164.36    9.05   0
   3  -7 -11  101.29    7.32   0
   4  -8  -9  126.06    8.18   0
   5  -7  -6  295.20    9.37   0
   7  -8   9   89.22    7.33   0
   4  -4  -4 1338.83   15.05   0
   4  -3   1  796.19   12.23   0
   3  -5 -10  472.11   10.40   0
   6  -9  -3   39.31    7.22   0
   7  -9   4  136.20    8.19   0
   6  -7  -2  201.92    7.96   0
   6  -5   8  506.27   10.94   0
   6  -5  11  158.56    7.80   0
   5  -9  -7   41.03    7.27   0
   4  -7 -10  288.36    9.38   0
   6  -6   0  697.93   11.61   0
   7  -8   3  130.68    8.17   0
   7  -7   8  367.46   10.47   0
   7  -7  11   74.06    7.08   0
   5  -8  -8  285.80    9.46   0
   6  -5   5  365.93    9.53   0
   7  -9   1   52.80    7.25   0
   7  -7   5  177.75    7.70   0
   3  -3  -6 1841.29   18.35   0
   5  -4   0 1225.65   14.71   0
   3  -2  -1  628.10   11.59   0
   5  -5  -5  602.80   11.13   0
   7  -8   0  268.02    8.79   0
   6  -7  -5  174.61    7.65   0
   7  -7   2  120.02    7.94   0
   4  -3  -2 1178.04   14.39   0
   5  -7  -9  118.46    6.84   0
   6  -6  -3  281.18    8.47   0
   7  -9  -2  132.60    8.14   0
   4  -6 -11  277.95    8.83   0
   4  -8 -12  221.70    9.01   0
   7  -6   7  102.71    7.41   0
   7  -6  10  173.51    8.27   0
   2  -4 -12 1526.38   17.87   0
   4  -4  -7  262.25    7.84   0
   5  -9 -10   65.80    7.56   0
   7  -8  -3   71.58    7.88   0
   4  -2   9  902.82   15.70   0
   5  -3   8 1574.75   18.30   0
   5  -3  11  215.83    8.60   0
   7  -7  -1  148.94    7.53   0
   7  -6   4  508.33   11.17   0
   2  -3 -10 1205.83   15.88   0
   5  -4  -3  310.47    8.21   0
   6  -5  -1  256.83    8.10   0
   4  -2   6  718.05   13.22   0
   5  -8 -11   79.24    7.55   0
   8  -8   7   84.76    7.39   0
   8  -8  10   84.04    7.57   0
   5  -3   5  647.82   11.45   0
   7  -9  -5  107.35    7.75   0
   8  -9   2   99.67    7.84   0
   3  -4 -11  291.68    8.57   0
   4  -7 -13   96.60    7.23   0
   6  -9  -9  123.95    7.84   0
   6  -7  -8  454.78   10.88   0
   6  -6  -6  267.13    9.10   0
   6  -4  10  531.28   11.73   0
   8  -8   4  164.88    8.33   0
   3  -5 -13  484.27   10.65   0
   6  -4   7  219.78    8.32   0
   7  -6   1  250.08    8.19   0
   5  -5  -8  558.81   10.42   0
   6  -4   4  726.07   12.21   0
   7  -7  -4  462.38   10.79   0
   4  -3  -5 1008.45   13.32   0
   4  -2   3  736.76   12.67   0
   7  -8  -6  123.69    8.50   0
   8  -9  -1   77.30    7.56   0
   8  -8   1   71.85    7.37   0
   3  -2  -4 3150.21   24.10   0
   5  -7 -12  307.00    9.61   0
   6  -8 -10  135.22    7.63   0
   6  -5  -4  658.38   11.73   0
   8  -7   9   88.82    7.30   0
   8  -7   6  121.15    8.14   0
   4  -5 -12  506.44   10.55   0
   7  -6  -2  194.06    7.75   0
   5  -4  -6  954.30   13.25   0
   7  -5   6  379.87    9.87   0
   7  -5   9  289.82    9.36   0
   8  -7   3  118.91    8.01   0
   8  -8  -2  131.64    8.38   0
   6  -6  -9  205.59    8.43   0
   7  -5   3  106.82    6.67   0
   8  -9  -4   72.78    7.23   0
   5  -3  -1  681.96   11.27   0
   6  -7 -11  109.91    7.95   0
   7  -7  -7   81.39    7.98   0
   8  -7   0  258.81    9.30   0
   4  -2   0 3853.06   26.24   0
   5  -8 -14  102.08    7.40   0
   6  -9 -12   86.05    7.20   0
   7  -8  -9  136.52    7.78   0
   7  -6  -5  167.63    8.28   0
   6  -5  -7  293.12    8.48   0
   6  -4  -2  727.57   12.00   0
   5  -6 -13  166.01    8.06   0
   8  -8  -5  109.37    7.80   0
   8  -6   8  246.87    9.16   0
   4  -3  -8 1876.90   17.93   0
   6  -8 -13  117.36    7.98   0
   8  -7  -3   67.24    7.70   0
   7  -9 -11   16.46    6.94   0
   9  -8   5   38.66    6.76   0
   8  -6   2  161.05    7.43   0
   5  -7 -15  109.37    7.57   0
   5  -4  -9  591.76   10.55   0
   5  -3  -4 1930.83   17.71   0
   7  -5  -3  361.96    9.86   0
   9  -8   2  103.28    7.54   0
   2  -4 -15  145.53    7.12   0
   3  -4 -14  549.61   11.07   0
   3  -2  -7 1439.60   16.23   0
   7  -7 -10   96.22    7.67   0
   2  -3 -13  432.78   10.22   0
   4  -2  -3  739.35   11.76   0
   6  -4  -5  272.08    8.70   0
   7  -6  -8  470.61   10.78   0
   8  -8  -8  134.12    8.36   0
   4  -5 -15  126.93    7.07   0
   7  -8 -12  128.74    7.93   0
   8  -7  -6  127.86    8.08   0
   3  -3 -12 1315.57   15.75   0
   4  -4 -13  600.36   11.20   0
   6  -7 -14   96.89    7.63   0
   6  -5 -10  386.27    9.93   0
   6  -3   6  639.73   12.00   0
   9  -7   7   76.23    7.72   0
   7  -4   5  290.20    8.73   0
   7  -4   8  319.26    9.51   0
   9  -7   4  128.55    7.82   0
   7  -5  -6  318.88    9.56   0
   4  -6 -17  106.23    7.29   0
   5  -5 -14  444.22   10.30   0
   7  -4   2  525.37   10.41   0
   8  -6  -4  303.08    8.95   0
   9  -7   1   49.58    6.87   0
   5  -3  -7  319.22    8.64   0
   5  -2   7  326.39    9.72   0
   5  -6 -16  246.34    8.79   0
   5  -2   4 2038.30   20.09   0
   8  -5   4  354.35    9.94   0
   8  -5   7   95.95    7.84   0
   4  -3 -11  295.24    8.57   0
   6  -8 -16  109.83    7.76   0
   6  -4  -8  588.42   10.57   0
   8  -7  -9  134.66    8.02   0
   3  -1  -2 2985.05   24.38   0
   4  -2  -6  693.43   11.59   0
   5  -4 -12  498.29    9.97   0
   8  -8 -11   36.57    6.84   0
   5  -2   1  717.36   12.11   0
   8  -5   1  161.87    7.52   0
   6  -6 -15   92.12    7.57   0
   8  -6  -7   69.54    6.55   0
   9  -8  -7   50.28    6.82   0
   6  -3  -3  360.34    8.78   0
   7  -8 -15   16.16    6.90   0
   7  -5  -9  116.12    6.93   0
   3  -2 -10 1203.68   14.68   0
   7  -4  -4  440.12   10.15   0
   9  -7  -5  104.07    8.01   0
   9  -6   3  108.08    7.38   0
   9  -6   6   81.91    6.87   0
   5  -2  -2  574.95   10.59   0
   6  -7 -17   89.01    7.11   0
   9  -6   0  200.82    8.46   0
   8  -7 -12  133.40    7.80   0
   3  -4 -17  376.28    9.70   0
   4  -4 -16  349.19    9.44   0
   6  -4 -11  267.88    8.30   0
   8  -5  -5  147.61    8.00   0
   4  -5 -18  309.81    9.30   0
   6  -3  -6  609.53   11.18   0
   8  -6 -10  136.04    8.02   0
   3  -1  -5 1896.52   18.60   0
   4  -1   5 1017.12   15.76   0
   5  -5 -17  202.42    8.41   0
   7  -7 -16  152.60    8.33   0
   7  -4  -7  286.08    9.10   0
   9  -7  -8   96.28    7.66   0
   4  -2  -9  910.65   12.58   0
   4  -1   2 1194.18   15.91   0
   5  -4 -15  125.07    7.24   0
   5  -2  -5  630.87   10.74   0
   7  -5 -12  318.58    8.88   0
   4  -3 -14  566.48   10.80   0
   2  -3 -16  925.56   14.58   0
   5  -6 -19   79.38    6.97   0
   6  -5 -16  246.38    9.05   0
   7  -3   4  436.42   10.50   0
   8  -5  -8  287.94    9.65   0
   8  -4   3  152.02    7.91   0
   9  -6  -6  101.92    7.57   0
   6  -6 -18   82.90    7.41   0
   7  -3   1  174.66    7.93   0
   8  -4   6  180.19    8.22   0
   8  -4   0  382.30   10.10   0
   6  -3  -9  330.84    8.61   0
   8  -7 -15   27.33    6.45   0
   8  -6 -13  119.75    8.12   0
   9  -7 -11   19.99    6.62   0
   5  -3 -13  481.67    9.83   0
   6  -4 -14  334.33    9.35   0
   7  -4 -10  312.75    8.86   0
   7  -3  -2  538.24   10.87   0
   9  -5   2   89.51    7.26   0
   6  -2   2  756.25   12.64   0
   8  -4  -3  142.16    8.03   0
   2  -2 -14  932.19   14.16   0
   5  -2  -8 1572.58   15.96   0
   6  -2   5  283.17    8.90   0
   9  -5  -1  111.93    7.56   0
   3  -1  -8 1924.78   18.32   0
   4  -1  -4 2461.18   20.36   0
   6  -2  -1  513.43   10.61   0
   7  -6 -17   92.74    7.48   0
   9  -6  -9  105.58    7.66   0
   4  -2 -12 1623.05   16.69   0
   7  -5 -15  123.22    7.03   0
   8  -5 -11   86.90    7.75   0
   7  -3  -5  282.67    8.36   0
   9  -5  -4  250.55    9.29   0
   7  -7 -19   22.86    6.61   0
   8  -4  -6  178.32    8.34   0
   6  -2  -4  715.24   11.97   0
   4  -4 -19   84.71    6.48   0
   6  -3 -12  465.60   10.30   0
   5  -5 -20  132.30    7.76   0
   7  -4 -13  102.18    7.68   0
  10  -6  -2   72.82    6.75   0
   4  -3 -17  398.80    9.71   0
   9  -5  -7   48.05    7.37   0
   4  -1  -7  584.04   10.41   0
   5  -2 -11  238.03    7.96   0
   6  -5 -19   82.54    7.42   0
   7  -3  -8  323.64    8.76   0
   9  -6 -12   99.51    7.84   0
   3  -3 -18  400.74    9.92   0
   8  -4  -9  137.13    7.95   0
   5  -1   0 1299.05   15.77   0
   5  -1   3  329.88    9.21   0
   6  -4 -17  124.98    6.84   0
   6  -2  -7  220.32    7.91   0
   8  -5 -14   98.83    7.66   0
   6  -6 -21   75.49    7.20   0
   3  -1 -11  402.93    9.05   0
   7  -5 -18   97.58    7.49   0
   2  -1 -12 1536.04   17.21   0
   5  -1   6  944.42   15.26   0
   9  -5 -10   62.67    7.03   0
   3  -2 -16  936.21   13.59   0
   7  -3 -11  108.42    7.42   0
   8  -3  -1  174.71    8.18   0
   8  -3   2  203.03    8.45   0
   9  -4   1  107.69    7.30   0
   6  -3 -15  128.61    6.90   0
   7  -4 -16  180.34    8.64   0
   9  -4  -2   81.61    7.21   0
   4  -1 -10  785.17   11.74   0
   6  -2 -10  503.65   10.60   0
   8  -4 -12  224.79    8.29   0
   8  -3  -4  358.58   10.18   0
   5  -1  -6  781.83   11.83   0
   5  -2 -14  307.55    8.93   0
   7  -2   3  356.41    9.70   0
   8  -6 -19   17.46    6.14   0
   3   0  -3  511.70   10.65   0
   7  -2  -3  125.94    7.40   0
   8  -5 -17   74.58    7.40   0
  10  -5  -3   48.75    7.39   0
   2  -2 -17  232.04    8.24   0
   9  -5 -13   92.44    7.50   0
   5  -4 -21  143.10    7.70   0
   6  -4 -20  150.01    8.12   0
   2   0  -7  322.44    8.86   0
   5  -3 -19   67.64    6.74   0
   5  -1  -9  320.96    8.68   0
   6  -5 -22   84.60    7.26   0
   7  -3 -14  249.29    8.40   0
   8  -4 -15   52.80    7.25   0
   3   0  -6 2348.32   20.07   0
   6  -2 -13  292.63    8.50   0
   7  -5 -21   49.24    7.02   0
   4  -1 -13  542.06   10.38   0
   6  -1  -2  625.45   11.45   0
   6  -1   1  263.53    8.81   0
   8  -3 -10  138.62    8.09   0
   7  -4 -19   86.44    7.24   0
   7  -2  -9  284.80    9.18   0
   4  -2 -18  280.64    8.63   0
   9  -4 -11   51.46    7.11   0
   4   0   1 1307.52   16.14   0
   6  -1   4  664.94   12.54   0
   2  -1 -15  500.46   10.41   0
   3  -2 -19  229.84    8.10   0
   4   0  -5  359.17    9.00   0
   5  -1 -12  735.65   11.90   0
   8  -5 -20   78.10    6.85   0
   3   0  -9 1197.31   14.46   0
   7  -3 -17  114.89    8.01   0
   4   0   4 1373.01   18.15   0
   6  -1  -8  495.14   10.13   0
   8  -3 -13  119.94    7.36   0
   2   0 -10 3119.50   23.28   0
   6  -2 -16  264.00    8.77   0
   7  -2 -12  227.38    7.96   0
   8  -4 -18   78.99    7.17   0
   9  -3  -3  117.35    7.94   0
   9  -3   0  198.74    8.65   0
   8  -2  -2  167.06    8.31   0
   9  -4 -14   48.87    6.84   0
  10  -4  -1   30.91    5.93   0
   4   0  -8 1261.28   14.45   0
   8  -2   1  148.95    8.00   0
   9  -3  -6   88.97    7.54   0
   6  -4 -23   63.27    7.01   0
   8  -2  -5  130.63    8.05   0
   5  -3 -22  147.62    7.60   0
   6  -3 -21  117.86    7.64   0
   5  -1 -15  216.57    7.57   0
   5   0  -1  273.47    8.49   0
   7  -4 -22   83.83    7.38   0
   3   0 -12  924.85   12.87   0
   4  -3 -23   51.39    6.63   0
   7  -2 -15   56.34    7.14   0
   8  -3 -16  137.60    7.58   0
   5  -2 -20  295.57    9.25   0
   7  -1  -4  503.51   11.00   0
   7  -1  -1  242.85    8.89   0
   4  -2 -21  249.55    8.35   0
   4   0 -11  570.03   10.32   0
   5   0  -7  544.54   10.61   0
   5   0   2 1004.54   14.62   0
   1   0 -11  377.32    9.54   0
   7  -1   2  202.88    8.20   0
   9  -3 -12  122.35    8.04   0
  -2   4  -6  668.57   12.91   0
   0   4 -13  575.44   11.48   0
   1   3 -14  553.68   10.98   0
   3   4 -16  175.67    8.56   0
  -1   8  -9  128.60    7.63   0
   0   3 -12 1397.91   16.40   0
   1   4 -15  131.39    8.04   0
   4   1 -15  230.22    9.18   0
  -1   7 -11   97.56    7.65   0
   0   5 -14  446.67   10.62   0
   1   2 -13  468.60   10.25   0
   5   3 -16  106.72    8.09   0
   0   7 -13  125.21    8.41   0
   0   8 -11   35.33    6.70   0
   2   2 -15  156.28    7.93   0
   2   3 -16  490.69   10.90   0
  -1   5 -12  495.06   10.45   0
   1   5 -16  251.28    9.23   0
   2   4 -17  110.45    7.41   0
   2   6 -16  116.03    8.10   0
   3   5 -17   66.51    8.25   0
   4   0 -14  534.01   11.54   0
  -1   6 -13  158.70    8.16   0
   0   2 -11 1684.38   17.98   0
  -1   3 -10 1240.52   15.80   0
   1   7 -15   23.13    6.79   0
   2   1 -14 1169.34   15.31   0
   3   3 -18  179.81    8.38   0
   4   4 -18   71.40    7.56   0
   6   1 -16  157.85    9.15   0
  -2   5 -10  486.10   10.78   0
   1   6 -17   99.97    8.20   0
   2   5 -18   93.37    7.64   0
  -2   6 -11  278.80    8.94   0
  -1   8 -12  123.59    8.03   0
   5   1 -17  134.96    8.25   0
   6   2 -17   61.61    6.87   0
   3   4 -19   67.21    7.86   0
  -1   7 -14  108.41    7.45   0
   0   4 -16  349.01    9.52   0
   1   3 -17  376.45    9.56   0
   1   4 -18  329.29    9.92   0
   5   0 -16  346.63   10.31   0
  -2   4  -9  919.27   14.02   0
   0   3 -15  448.61   10.51   0
   0   5 -17  178.93    8.32   0
   0   7 -16  154.24    8.50   0
   4   2 -19   69.63    7.77   0
   5   3 -19   32.48    7.04   0
  -2   7 -12  296.89    9.31   0
  -1   5 -15  128.61    7.58   0
   2   3 -19   59.00    6.64   0
   4   1 -18  232.60    8.47   0
   1   2 -16 1039.02   14.14   0
   1   5 -19   71.00    8.10   0
   2   2 -18  290.99    9.82   0
   2   6 -19   20.06    6.79   0
   4  -1 -13  554.83   12.30   0
   2   4 -20  170.23    9.13   0
   3  -1 -11  424.38   10.86   0
   3   5 -20   74.61    7.95   0
  -1   6 -16  253.20    9.24   0
  -1   2  -9 1097.03   15.23   0
  -1   8 -15   18.50    6.60   0
   0   1 -10 1483.06   17.67   0
   0   2 -14  963.68   13.58   0
   3   3 -21   97.97    8.12   0
   4   0 -17  206.21    9.07   0
  -1   3 -13  425.43    9.56   0
   1   6 -20  125.67    8.08   0
   2   1 -17  500.66   11.15   0
   2   5 -21   51.47    7.38   0
   5  -1 -15  227.35    9.45   0
  -2   5 -13  470.33   10.06   0
  -2   6 -14  316.98    9.38   0
   6   1 -19   25.65    6.36   0
  -1   7 -17  101.80    7.95   0
   3   1 -19  123.95    8.27   0
   3   4 -22   70.33    7.78   0
   5   1 -20  121.81    7.99   0
   5   2 -21   70.94    7.21   0
   0   4 -19   86.91    7.36   0
   0   7 -19   25.59    6.49   0
  -2   4 -12 1506.20   17.17   0
  -2   7 -15  111.58    7.67   0
   1   3 -20  326.29   10.24   0
   1   4 -21  145.89    8.43   0
   0   5 -20  133.37    7.50   0
   0   3 -18  419.92    9.72   0
   1   0 -11  437.59   10.34   0
   4   2 -22  140.28    8.29   0
   5   0 -19  127.21    8.71   0
  -1   4 -17  377.10    9.92   0
   1   5 -22   98.24    7.85   0
   2   3 -22  139.48    8.95   0
   1   2 -19  240.06    8.89   0
   4   1 -21  116.56    8.42   0
   4   3 -23   28.56    6.81   0
  -1   6 -19   81.75    6.67   0
   2   2 -21  272.95    9.07   0
   2   4 -23   55.59    6.93   0
   3   0 -18  686.68   12.59   0
  -1   2 -12 1645.74   17.62   0
   3  -1 -14 1177.35   16.44   0
  -2   5 -16  515.30   11.06   0
  -2   6 -17  116.36    7.76   0
  -1   3 -16  938.66   13.26   0
   0   2 -17  238.54    8.14   0
   0   1 -13 1080.81   14.31   0
   4   0 -20  322.35   10.34   0
  -1   7 -20  116.56    8.00   0
  -3   5 -11  213.51    7.96   0
  -2   4 -15  161.11    7.55   0
  -2   7 -18   93.24    7.20   0
   3   1 -22  199.31    9.39   0
   5  -1 -18  225.15    9.14   0
   0   5 -23   62.53    7.32   0
   1   3 -23   46.78    7.79   0
   1   4 -24   80.11    7.94   0
   5   1 -23   46.24    7.06   0
  -1   4 -20  326.55    9.79   0
   0   3 -21  167.62    7.78   0
   1   0 -14 1211.24   15.23   0
   1   5 -25   39.54    7.15   0
   2   3 -25  101.19    8.58   0
   4  -2 -12 1544.17   20.33   0
   4   2 -25   56.72    7.74   0
   1   2 -22  250.63    9.51   0
   2  -1 -12 1519.25   17.97   0
   2   2 -24  186.60    9.13   0
   2   4 -26   51.15    7.50   0
   4   1 -24  124.68    8.69   0
   5   0 -22  124.07    8.21   0
  -3   6 -15  121.56    7.19   0
  -2   5 -19   64.83    6.79   0
  -2   6 -20  147.40    8.23   0
  -1   2 -15  489.62   10.01   0
  -1   3 -19  234.78    8.10   0
   0   2 -20  619.23   11.99   0
  -3   5 -14  308.48    8.96   0
   0   1 -16 1494.35   16.20   0
   3  -1 -17  492.62   11.23   0
   3   2 -26   63.93    7.90   0
  -2   7 -21   50.43    7.19   0
   4   0 -23  104.10    8.32   0
   0   4 -25   89.69    7.19   0
   1   1 -21  268.21    8.84   0
   1   3 -26  124.71    8.33   0
   1   4 -27   34.11    7.03   0
   3   1 -25  111.54    7.62   0
  -1   4 -23   40.71    7.16   0
   0   3 -24  211.48    8.48   0
  -3   6 -18  192.52    8.32   0
   2  -1 -15  511.35   10.91   0
  -1   6 -25   29.32    6.81   0
  -3   7 -19   71.01    6.56   0
  -1   1 -11  420.27    9.87   0
  -1   2 -18  748.45   12.04   0
   1   2 -25  116.92    7.66   0
   2   3 -28   49.92    7.69   0
   4  -2 -15  160.98    7.57   0
  -3   4 -13  511.70   10.84   0
  -3   5 -17  313.09    9.35   0
  -2   5 -22  140.41    8.33   0
  -2   6 -23   66.48    7.53   0
  -1   3 -22  239.71    8.38   0
   0   1 -19  216.34    8.48   0
   4   1 -27   21.01    8.03   0
   0   2 -23  181.26    8.05   0
   2   0 -22  533.10   12.09   0
   0   0 -12 4374.28   28.24   0
   3   0 -24  148.25    8.17   0
   4  -1 -22  200.23    9.00   0
   3   2 -29   43.62    7.81   0
  -1   1 -14 1200.51   14.76   0
   0   4 -28   48.95    7.02   0
   3  -2 -13  447.85   10.98   0
   4   0 -26   88.36    8.56   0
  -3   4 -16  682.69   12.25   0
  -3   6 -21   93.69    7.18   0
  -1   4 -26  118.96    8.08   0
   0   3 -27   48.45    8.10   0
   1   0 -20  615.87   11.41   0
   2  -1 -18  751.49   13.06   0
  -2   2 -13 1059.44   13.90   0
  -1   2 -21  252.10    8.96   0
   1   3 -29   50.87    7.69   0
   3   1 -28   76.89    7.92   0
  -3   5 -20  293.87    9.25   0
  -3   7 -22   67.62    7.07   0
  -2   3 -20  354.94    9.34   0
   0   0 -15  152.86    6.73   0
   4  -2 -18  288.97    9.68   0
  -2   5 -25  104.02    7.40   0
  -1   3 -25  101.49    8.21   0
   0   1 -22  348.93    9.44   0
   1   2 -28  112.69    8.93   0
  -2   6 -26   57.37    7.38   0
   0   2 -26  132.07    7.90   0
  -2   2 -16  554.51   10.86   0
   3  -1 -23  100.07    8.08   0
  -3   3 -12  892.47   13.64   0
  -3   4 -19  106.61    7.34   0
   3  -2 -16  981.11   15.13   0
   3   0 -27   62.92    7.86   0
   1   1 -27   61.57    8.56   0
   2  -1 -21  277.53    9.33   0
   4  -1 -25  120.35    8.41   0
  -3   6 -24   75.98    7.19   0
   2   1 -29   61.96    8.72   0
  -3   5 -23   38.60    6.80   0
  -2   3 -23   84.92    7.52   0
  -1   2 -24  245.81    8.68   0
  -1   4 -29   51.00    7.81   0
  -4   5 -15  210.79    8.05   0
   0   3 -30   61.96    7.73   0
  -4   6 -19   49.70    6.62   0
   0   1 -25  211.75    9.41   0
   4   0 -29   30.60    6.93   0
  -2   2 -19  177.97    7.38   0
  -2   5 -28   57.28    7.24   0
  -1   1 -20  583.26   10.94   0
  -1   3 -28  114.49    8.66   0
  -3   4 -22  195.70    8.79   0
   0   2 -29   60.35    8.05   0
   1   2 -31   21.07    7.46   0
   3  -2 -19  257.90    8.99   0
  -4   5 -18  227.12    8.49   0
  -3   3 -18  613.97   11.78   0
   0   0 -21  599.02   11.17   0
   2  -2 -11 1609.35   19.61   0
   2   0 -28   83.46    8.78   0
   2  -1 -24  254.66    9.62   0
   3   0 -30   97.62    8.83   0
  -4   6 -22  135.90    8.55   0
  -3   5 -26   84.10    7.45   0
  -3   6 -27   23.71    6.14   0
  -2   2 -22  524.24   11.52   0
  -2   3 -26  178.10    8.93   0
  -1   2 -27   79.32    7.16   0
   2  -2 -14  955.19   14.35   0
  -1   1 -23   92.56    7.78   0
   2   1 -32   38.52    7.43   0
  -4   4 -14  487.25   11.04   0
   0   1 -28  148.70    9.56   0
  -4   5 -21  106.77    7.44   0
  -3   4 -25  112.27    8.42   0
  -2   1 -12 1626.20   17.48   0
  -1   0 -13 1076.36   14.18   0
  -1   0 -10 1448.99   17.23   0
   2  -2 -17  230.99    8.41   0
   3  -2 -22  247.42    9.36   0
  -1   3 -31   22.75    7.52   0
   0   0 -24  355.73   10.33   0
  -2   1 -15  493.05   10.04   0
  -2   1  -9 1075.59   14.95   0
  -4   4 -17  192.50    7.59   0
  -1   0 -16 1493.95   16.29   0
  -2   1 -18  772.48   12.58   0
  -2   2 -25  145.99    7.76   0
   2  -1 -27   68.75    8.12   0
   2   0 -31   35.38    7.88   0
   3  -1 -29   78.09    9.07   0
  -4   6 -25   58.85    7.14   0
  -2   3 -29   68.46    7.70   0
  -1   1 -26  222.35    8.72   0
  -1   2 -30   92.25    8.65   0
   0  -1 -14 1186.50   14.97   0
   0  -1 -11  429.35    9.90   0
  -3   2 -11  389.75    9.29   0
  -1   0 -19  219.28    7.90   0
  -4   4 -20  300.53    9.10   0
  -4   5 -24  128.47    8.03   0
   0  -1 -17  824.39   13.05   0
  -3   4 -28   64.27    7.63   0
   1  -1 -25  197.57    9.33   0
   0   0 -27   20.57    7.53   0
   0   1 -31   37.53    8.43   0
   3  -2 -25  115.58    8.28   0
  -2   1 -21  266.06    8.58   0
  -1   0 -22  372.58   10.15   0
   0  -1 -20  615.65   12.04   0
  -2   2 -28   81.53    8.09   0
   2  -2 -23  191.15    8.95   0
  -4   4 -23  101.59    7.89   0
  -1   1 -29   89.30    7.73   0
  -4   5 -27   41.67    7.09   0
  -4   3 -16  679.70   11.94   0
  -4   3 -13  511.77   11.10   0
  -2   1 -24  221.83    8.59   0
  -2   3 -32   33.79    6.79   0
  -1   2 -33   33.04    7.50   0
   1  -2 -15  469.97   10.25   0
   1   0 -32   47.76    7.95   0
  -3   2 -23   86.89    7.82   0
   0  -1 -23   88.35    7.71   0
   1  -2 -18  734.57   12.79   0
   1  -2 -12 1533.99   18.07   0
   1  -1 -28  139.60    9.06   0
   3  -1 -32   28.77    6.96   0
  -4   3 -19  127.18    7.55   0
  -1   0 -25  198.68    8.39   0
   0   0 -30  114.00    9.16   0
   3  -3 -15  441.85   11.27   0
   3  -2 -28  117.27    8.17   0
  -4   3 -10  754.84   13.39   0
  -4   4 -26   87.96    7.91   0
   2  -2 -26  138.64    8.92   0
  -2   2 -31   31.27    8.16   0
   1  -2 -21  259.88    9.22   0
   3  -3 -12 1303.37   19.02   0
  -4   3 -22  200.61    8.65   0
  -3   2 -26  184.50    9.25   0
  -1   1 -32   41.94    8.04   0
  -5   5 -22  107.34    7.78   0
   3  -3 -21  184.00    8.53   0
  -2   0 -17  244.94    8.66   0
  -1   0 -28  144.08    9.06   0
  -2   0 -14  999.71   13.66   0
  -3   1 -16  979.86   13.68   0
   1  -2 -24  243.29    8.80   0
   1  -1 -31   25.35    8.47   0
  -4   3 -25  116.07    7.73   0
  -4   4 -29   41.83    7.16   0
  -3   1 -19  249.19    8.26   0
  -1  -1 -15  501.21   10.34   0
  -3   1 -13  440.28    9.82   0
   2  -2 -29   62.31    8.23   0
  -5   4 -15  213.34    8.50   0
  -3   2 -29   79.18    8.68   0
  -2   0 -11 1679.17   17.69   0
  -2   1 -30   99.02    8.58   0
  -1  -1 -21  269.32    9.53   0
  -3   1 -22  226.85    8.65   0
  -2   0 -23  194.21    8.28   0
  -1  -1 -12 1676.65   17.64   0
  -5   4 -21  114.89    8.07   0
   2  -3 -16 1010.67   15.32   0
  -4   2 -18  271.63    9.28   0
  -1   0 -31   28.11    7.93   0
   1  -2 -27   66.23    8.01   0
   2  -3 -19  260.25    9.28   0
  -4   2 -15  165.72    7.14   0
  -4   3 -28   86.72    7.87   0
  -4   2 -21  262.75    9.64   0
  -3   1 -25  115.86    8.54   0
  -5   4 -24  141.15    8.65   0
  -2   0 -26  146.16    8.17   0
   2  -3 -22  256.81    9.40   0
   2  -3 -13  441.35   11.01   0
  -4   2 -24  215.87    9.74   0
  -4   2 -12 1583.63   17.62   0
   0  -2 -13 1078.57   14.66   0
  -3   2 -32   24.01    8.11   0
  -2   1 -33   29.01    7.80   0
  -1  -1 -27   71.07    8.42   0
  -1  -1  -9 1120.95   15.53   0
   2  -2 -32   60.17    7.91   0
  -2   0  -8 2728.08   23.42   0
   0  -1 -32   39.76    8.67   0
  -3   1 -28  110.37    8.21   0
   0  -2 -25  153.57    8.56   0
  -5   4 -27   29.31    6.87   0
  -2   0 -29   65.44    8.13   0
  -5   3 -20  301.28   10.25   0
  -5   3 -17  318.09    9.83   0
  -5   3 -23   25.73    6.49   0
  -5   3 -14  311.20    9.60   0
  -1  -1 -30   82.79    9.02   0
   0  -2 -10 3006.99   24.54   0
   1  -3 -20  379.08   10.51   0
   1  -3 -17  468.60   11.16   0
  -4   2  -9  908.95   14.46   0
  -3   0 -21  189.41    8.72   0
  -3   0 -18  441.60   10.15   0
  -2  -1 -19  263.01    9.49   0
   0  -2 -28   76.83    7.39   0
   2  -3 -28  123.39    8.55   0
  -3   1 -31   23.28    7.40   0
  -2  -1 -22  258.75    9.63   0
  -2  -1 -16 1054.88   14.67   0
   1  -3 -23   86.25    8.05   0
  -5   3 -26   75.21    8.41   0
  -3   0 -15  451.66   10.09   0
  -2   0 -32   67.29    8.49   0
  -3   0 -24  235.08    9.08   0
  -2  -3 -14  305.38    9.25   0
  -1  -5  10  392.23    9.94   0
  -1  -4  -9  319.74    9.05   0
  -3  -6   6  118.27    7.63   0
  -1  -5  -5  365.21    9.07   0
   0  -3  -6 2396.74   20.84   0
  -2  -6   1  166.73    8.69   0
  -2  -6   4  321.11   10.14   0
  -4  -6  -1   49.59    7.16   0
  -3  -6  -3  119.26    8.44   0
  -3  -4 -14  271.26    9.69   0
  -2  -5  -9  296.86    9.69   0
  -3  -6   9  117.09    8.34   0
  -2  -6  -2  163.81    8.66   0
  -2  -6   7   77.17    7.42   0
   0  -4  10 1030.98   15.31   0
  -4  -5 -11   50.59    7.57   0
  -4  -4 -15   54.04    7.58   0
  -2  -4 -13  304.27    9.42   0
   0  -4  -5  353.91    8.64   0
   0  -5   5  593.60   11.08   0
   0  -5  -1  280.08    8.32   0
  -3  -6  -6  100.15    8.36   0
  -2  -6  -5  134.96    8.66   0
  -2  -6  10  127.95    8.37   0
  -1  -6  -1  253.19    9.17   0
  -1  -6   5  162.25    8.20   0
  -1  -5  -8  532.36   10.42   0
  -1  -3 -13  530.64   10.85   0
   0  -5   8  545.24   11.08   0
  -1  -6   8  459.18   10.72   0
  -1  -4 -12  718.43   12.31   0
   0  -5  -4  832.64   12.71   0
  -3  -5 -13  128.13    8.14   0
  -2  -5 -12  245.53    9.36   0
  -1  -6  -4  500.27   10.56   0
  -3  -3 -18  196.69    8.60   0
   0  -4  -8 1247.60   14.63   0
  -3  -6  -9   68.30    7.95   0
  -2  -6  -8  252.03    8.67   0
  -1  -2 -14 1084.40   15.32   0
  -4  -5 -14   49.36    7.89   0
  -3  -4 -17  127.97    8.17   0
  -2  -3 -17  321.23    9.39   0
  -1  -6  -7  103.98    6.98   0
   0  -6   0  728.68   12.20   0
   0  -6   3  299.65    9.08   0
   0  -5  -7  533.61   10.71   0
  -2  -7  -1   54.15    7.58   0
  -2  -4 -16  262.92    9.33   0
  -1  -6  11   93.79    7.01   0
   0  -5  11  171.77    7.88   0
  -2  -7   5  115.76    7.97   0
   0  -6   6  270.72    8.85   0
   0  -6  -3  186.05    7.44   0
   1  -4   2 1126.04   14.65   0
  -2  -7  -4  148.65    8.39   0
   0  -2 -10 2958.00   24.90   0
   1  -3   1  604.23   11.74   0
  -3  -6 -12  138.65    8.72   0
  -2  -7   8   92.31    7.50   0
  -1  -7   3   73.14    6.92   0
   1  -4  -1  785.28   12.04   0
  -3  -5 -16  129.26    8.44   0
  -2  -5 -15   55.36    7.53   0
   1  -4   5  922.37   13.50   0
  -1  -7  -3  143.56    7.82   0
  -1  -7   6  123.96    8.05   0
  -1  -6 -10  180.37    7.88   0
  -1  -4 -15  227.05    8.38   0
   0  -6  -6  313.93    8.80   0
   0  -6   9  199.17    8.15   0
   1  -3  -2 2982.22   24.03   0
  -2  -7  -7   78.64    7.58   0
   0  -5 -10  559.90   11.03   0
   1  -5   0 1197.19   14.28   0
   1  -4  -4 2487.00   20.31   0
  -1  -7  -6  121.51    8.29   0
  -1  -5 -14  292.13    8.84   0
  -1  -3 -16  690.24   12.42   0
   0  -3 -12  905.37   13.42   0
   1  -5  -3  753.86   12.08   0
  -1  -7   9  134.03    7.88   0
   1  -5   6  962.62   13.89   0
   0  -7   4  471.76   10.87   0
  -2  -6 -14  107.10    7.95   0
   0  -7  -2  121.31    7.12   0
   0  -6  -9  262.94    9.24   0
   1  -4   8 1760.64   19.58   0
  -2  -7 -10   76.68    7.63   0
   1  -3  -5 1918.21   18.93   0
  -1  -6 -13  192.18    8.88   0
   1  -6  -2  611.11   11.48   0
   1  -6   4  657.14   11.71   0
   1  -5  -6  799.67   11.95   0
  -1  -7  -9   93.86    7.28   0
   0  -7  -5  174.71    7.86   0
   0  -7   7   88.14    7.22   0
   1  -4  -7  613.77   10.81   0
  -2  -4 -19   55.33    6.81   0
   0  -5 -13  163.12    7.73   0
   1  -6  -5  372.08    9.63   0
   1  -5   9  559.60   11.28   0
  -2  -5 -18  163.56    8.30   0
  -1  -8   1   55.27    7.11   0
   0  -4 -14  516.92   10.91   0
   1  -6   7  314.81    9.03   0
  -1  -8  -2  103.91    7.32   0
  -1  -8   4   88.14    7.07   0
   0  -7  -8  374.03   10.42   0
  -1  -8  -5   66.56    7.31   0
  -1  -5 -17  156.28    8.32   0
   1  -5  -9  308.89    8.43   0
  -1  -4 -18  223.81    8.52   0
   1  -7  -1  255.87    8.30   0
   1  -7   2  189.70    7.54   0
   1  -3  -8 1873.60   18.71   0
  -2  -6 -17   72.30    7.42   0
   0  -8   2  123.38    8.01   0
   0  -2 -13 1051.53   15.42   0
   1  -6  -8  516.54   10.32   0
  -1  -6 -16  169.89    8.88   0
   1  -7  -4  480.94   10.45   0
   1  -7   5  169.81    7.98   0
   0  -8  -4  184.63    8.57   0
   0  -8   5  102.93    7.80   0
   0  -3 -15  249.49    8.19   0
   0  -7 -11   68.42    6.65   0
   1  -6  10  369.28    9.76   0
   1  -7  -7  116.73    7.85   0
   0  -5 -16  340.50    9.75   0
   1  -7   8  440.92   10.46   0
  -1  -7 -15   36.42    7.60   0
   0  -8   8  112.68    7.59   0
   0  -6 -15   81.32    6.45   0
   1  -6 -11  167.08    7.45   0
   2  -6  -1  491.63   10.39   0
   2  -5  -2  603.22   11.01   0
   2  -5   1  652.71   11.09   0
   0  -4 -17  187.96    7.94   0
   1  -8  -3  117.72    8.13   0
   1  -8   3   77.08    7.26   0
   1  -7 -10  183.89    8.72   0
   2  -6  -4  709.79   11.88   0
   2  -5   4 1923.64   18.86   0
   0  -8 -10   86.63    7.41   0
   0  -7 -14   81.93    8.12   0
   1  -3 -11  394.48    9.42   0
   2  -5  -5  630.52   10.86   0
   1  -8  -6  114.20    7.88   0
   1  -4 -13  514.41   10.07   0
   2  -6   5  282.48    8.71   0
   2  -4   0 3930.43   26.44   0
   1  -8   6  142.26    8.06   0
   2  -7  -3  111.03    7.66   0
   2  -4  -3  748.96   12.15   0
  -1  -6 -19   31.78    6.59   0
   2  -7   3  346.54    9.51   0
   2  -6  -7  209.03    8.11   0
   1  -6 -14  308.61    9.46   0
   1  -8  -9   93.71    7.87   0
   2  -7  -6  385.39    9.89   0
   1  -5 -15  221.42    8.40   0
   2  -5   7  314.73    9.15   0
   0  -6 -18  132.73    8.15   0
   2  -7   6  296.38    9.16   0
   2  -4  -6  677.70   11.30   0
   2  -8  -2  156.85    8.54   0
   2  -6   8  578.16   11.40   0
   0  -5 -19  117.73    7.71   0
   1  -9   1   62.71    7.45   0
   2  -8   1  146.86    7.44   0
   2  -6 -10  497.28   10.93   0
   0  -7 -17   91.81    8.05   0
   0  -3 -18  595.75   12.05   0
   1  -9  -5   61.39    7.10   0
   2  -8  -5  122.39    8.22   0
   2  -7  -9  291.22    8.89   0
   0  -2 -16  523.15   11.66   0
   1  -9   4   84.36    7.00   0
   1  -8 -12  152.33    8.61   0
   2  -8   4  317.28    9.56   0
   2  -4   6  661.96   12.05   0
   2  -5 -11  230.83    7.64   0
   2  -4  -9  937.08   13.28   0
   1  -4 -16  694.90   12.25   0
   1  -3 -14 1101.96   14.98   0
   2  -8  -8  264.22    8.76   0
   1  -7 -16  161.30    8.73   0
   1  -6 -17  144.55    7.99   0
   2  -7   9  108.07    6.91   0
   2  -3  -1  639.87   11.99   0
   2  -8   7   72.39    6.86   0
   2  -7 -12  223.43    9.02   0
   2  -9  -1   45.14    6.94   0
   2  -3  -4 3130.20   24.09   0
   2  -9  -4  136.45    8.47   0
   2  -9   2  119.60    7.92   0
   2  -5  10  433.04   10.68   0
   1  -8 -15   35.29    7.10   0
   1  -5 -18  223.72    8.58   0
   2  -8 -11   73.53    8.03   0
   3  -7  -2  521.36   10.88   0
   3  -6  -3  372.11    9.52   0
   3  -6   0  896.43   13.12   0
   2  -9  -7   82.00    7.49   0
   3  -7  -5  297.21    9.34   0
   0  -7 -20   80.74    7.07   0
   2  -9   5  105.43    7.29   0
   2  -5 -14  304.42    8.83   0
   2  -4 -12 1520.53   16.63   0
   2  -3  -7 1488.34   16.83   0
   3  -6   3  362.58    9.43   0
   3  -8  -4  328.17    9.28   0
   3  -7   4  427.69   10.24   0
   1  -2 -12 1616.98   18.92   0
   2  -9 -10   90.33    8.01   0
   2  -7 -15   54.66    7.14   0
   2  -4   9  857.33   15.03   0
   3  -8   2  208.92    8.82   0
   3  -7  -8  307.51    8.97   0
   3  -5  -1  703.52   11.36   0
   3  -8  -7  112.99    7.88   0
   3  -5  -4 1896.88   17.70   0
   1  -7 -19   35.17    7.75   0
   2  -6 -16  256.45    8.94   0
   3  -6  -9  330.82    9.38   0
   1  -6 -20  132.13    7.62   0
   3  -9  -3  111.47    7.74   0
   3  -8   5  139.66    7.82   0
   3  -6   6  587.84   11.46   0
   3  -5  -7  327.37    8.39   0
   3  -9   0  206.92    8.59   0
   3  -8 -10  161.70    8.77   0
   3  -7 -11  117.67    7.82   0
   3  -7   7  280.22    8.79   0
   1  -4 -19  114.56    7.01   0
   3  -9  -6  108.40    8.09   0
   3  -9   3   45.86    6.62   0
   3  -6 -12  472.72   10.72   0
   3  -5   5  609.65   11.61   0
   2  -5 -17  317.68    9.39   0
   3  -9  -9   52.29    7.47   0
   3  -5 -10  488.80   10.36   0
   2  -8 -17   72.01    7.82   0
   2  -7 -18  154.67    8.33   0
   2  -4 -15  156.56    6.66   0
   3  -8 -13  119.50    8.04   0
   3  -8   8  256.55    8.84   0
   3  -4  -2 1194.10   14.92   0
   3  -4  -5  992.73   13.63   0
   2  -6 -19   46.81    6.58   0
   3  -9 -12  130.90    8.07   0
   3  -6   9  314.14    9.19   0
   3  -4   1  791.71   12.33   0
   4  -8  -3  136.13    7.97   0
   4  -8   0  381.19    9.99   0
   4  -7  -4  431.58    9.78   0
   4  -7  -1  178.02    7.35   0
   3  -6 -15  129.29    7.43   0
   4  -8  -6  187.23    7.88   0
   2  -3 -13  443.46   10.08   0
   4  -7  -7  282.91    8.70   0
   4  -7   2  487.80   10.71   0
   1  -2 -15  478.28   11.11   0
   4  -9  -5   78.95    7.70   0
   4  -8   3  143.60    7.89   0
   4  -6  -2  728.65   12.18   0
   3  -8 -16  119.80    7.96   0
   3  -5   8 1536.04   18.12   0
   4  -9   1  104.21    7.62   0
   4  -8  -9  132.04    7.39   0
   4  -6  -5  271.69    8.12   0
   3  -4   4 2469.25   22.11   0
   4  -9  -8  226.69    9.13   0
   4  -7 -10  333.93    9.85   0
   3  -7 -17  120.25    8.19   0
   2  -7 -21   75.79    7.77   0
   4  -7   5  306.28    9.21   0
   4  -6  -8  599.50   10.88   0
   2  -5 -20  302.22    9.21   0
   2  -4 -18  295.47    8.82   0
   4  -9   4  247.26    8.86   0
   4  -8 -12  223.90    9.29   0
   4 -10  -1   43.31    6.53   0
   4  -9 -11   47.93    7.21   0
   4  -8   6  177.71    7.90   0
   4  -6   4  690.07   12.18   0
   3  -5 -16  523.06   10.82   0
   4  -7 -13  103.39    7.67   0
   4  -6 -11  269.81    8.76   0
   3  -6 -18  201.16    8.62   0
   4  -5  -3  308.55    8.66   0
   4  -5  -6  977.18   13.31   0
   3  -8 -19   18.84    7.00   0
   4  -5   0 1237.38   14.66   0
   2  -3 -16  957.75   14.21   0
   4  -9 -14   52.93    6.92   0
   3  -4 -14  553.61   10.80   0
   4  -7   8  329.45    9.48   0
   3  -7 -20   88.60    7.61   0
   3  -4   7  590.86   12.08   0
   3  -3  -3 1937.69   18.92   0
   4  -5  -9  578.94   10.47   0
   5  -8  -5  153.55    8.19   0
   3  -3  -6 1892.64   18.48   0
   5  -9  -4  262.30    8.70   0
   5  -9  -1  107.63    7.64   0
   4  -7 -16  186.35    7.81   0
   4  -6   7  212.21    8.00   0
   4  -5   3  715.32   11.78   0
   5  -9  -7   46.22    6.82   0
   5  -8  -8  300.72    9.88   0
   5  -8   1  150.63    8.36   0
   3  -3   0 2487.42   21.82   0
   5  -7  -6  304.06    9.34   0
   5  -7  -3  346.41    9.07   0
   5 -10  -3   45.30    6.69   0
   5  -9   2   77.36    7.09   0
   2  -2 -11 1605.70   18.30   0
   5  -9 -10   70.30    7.07   0
   3  -5 -19   71.47    6.41   0
   3  -3  -9  462.61    9.63   0
   4  -8 -18   72.11    7.59   0
   5 -10   0  120.18    7.33   0
   5  -8 -11   86.15    6.80   0
   5  -7  -9  114.22    7.12   0
   3  -6 -21   99.87    7.00   0
   5  -8   4  348.67    9.67   0
   4  -6 -17  105.75    7.44   0
   5  -9 -13   86.39    7.42   0
   5  -7   3  104.43    6.39   0
   5  -6  -4  646.15   11.71   0
   3  -4 -17  392.24    9.67   0
   5 -10   3   38.02    6.64   0
   5  -9   5   82.30    7.28   0
   5  -7 -12  315.31    9.63   0
   5  -6  -7  309.22    9.27   0
   4  -7 -19   67.80    7.09   0
   4  -5   6  769.15   12.39   0
   4  -4  -4 1334.15   14.94   0
   5  -8 -14  101.96    7.58   0
   5  -6  -1  273.20    8.16   0
   4  -4  -7  263.21    7.82   0
   4  -4  -1 1252.58   15.08   0
   3  -3 -12 1308.22   15.25   0
   4  -5 -15  123.40    6.54   0
   5  -6 -10  397.83    9.46   0
   5  -8   7   93.78    7.17   0
   5  -6   2  595.14   10.81   0
   4  -4 -10 1084.24   13.59   0
   2  -2 -14  932.60   14.35   0
   6  -9  -6  108.30    7.77   0
   5  -8 -17   66.19    7.16   0
   6  -8  -4  312.59    9.63   0
   6 -10  -2   67.80    6.78   0
   6  -9  -9  125.70    7.87   0
   6  -9   0  204.16    8.61   0
   6  -8  -7   72.68    7.70   0
   3  -4  10  709.37   14.25   0
   5  -6   5  366.77    9.50   0
   5  -5  -5  599.81   10.61   0
   6  -8 -10  132.60    8.04   0
   3  -3 -15  442.99    9.99   0
   4  -5 -18  319.52    9.39   0
   4  -4 -13  566.50   10.42   0
   5  -5  -8  565.57   10.72   0
   5  -5  -2  955.39   13.00   0
   6 -10   1   38.60    6.27   0
   6  -9 -12   97.86    7.82   0
   4  -7 -22   73.06    6.60   0
   6  -9   3  105.30    7.68   0
   6  -8   2  153.17    8.12   0
   6  -7  -5  162.34    7.94   0
   3  -4 -20  321.61    9.33   0
   5  -7 -18   95.26    7.61   0
   6  -7  -8  449.57   10.83   0
   6  -7  -2  192.87    8.37   0
   3  -3   6 2313.65   23.13   0
   4  -5   9  289.89    8.95   0
   5  -6 -16  247.72    8.23   0
   5  -5 -11  165.35    7.67   0
   6  -8 -13  127.44    7.68   0
   4  -4   5  360.01    8.93   0
   5  -8 -20   70.59    7.77   0
   6  -7 -11  114.57    7.70   0
   6  -7   1  247.37    8.52   0
   4  -4 -16  375.93    9.48   0
   6  -8   5  116.92    7.51   0
   2  -2 -17  215.65    8.10   0
   3  -2  -4 3143.16   24.27   0
   5  -6   8  491.06   10.66   0
   5  -5 -14  454.69    9.67   0
   5  -5   4  834.91   12.88   0
   6  -8 -16  105.18    7.05   0
   6  -6  -6  263.12    8.24   0
   6  -6  -3  290.55    8.86   0
   3  -2  -7 1442.75   16.26   0
   4  -3  -5  978.28   13.04   0
   6  -7   4  488.12   10.85   0
   6  -6  -9  197.69    8.32   0
   4  -5 -21  139.64    7.77   0
   4  -3  -8 1889.38   17.84   0
   7  -9  -5   92.36    7.74   0
   3  -3 -18  398.27    9.95   0
   4  -3  -2 1190.05   14.35   0
   5  -7 -21   46.25    6.90   0
   7  -9  -8   95.01    7.08   0
   7  -9  -2  121.63    7.76   0
   3  -2 -10 1229.61   14.95   0
   5  -4  -6  988.64   13.20   0
   6  -6 -12  426.39   10.34   0
   7  -9 -11   31.75    6.51   0
   7  -8  -6  132.34    8.18   0
   7  -8  -3   75.50    7.39   0
  -5   4 -15  223.19    9.42   0
  -4   7 -23   28.06    8.00   0
   0   2 -17  230.76    8.91   0
  -6   4 -10  492.13   11.54   0
  -6   6 -18  109.15    8.66   0
  -7   5  -9  285.29    9.69   0
  -4   5 -21  113.43    7.83   0
   0   1 -13  996.61   15.64   0
  -5   5 -19  134.18    8.07   0
  -2   1  -9 1122.86   15.76   0
  -3   3 -18  689.86   12.84   0
  -3   6 -24   77.42    7.81   0
  -3   5 -23   33.57    7.99   0
  -2   2 -16  594.59   11.84   0
  -4   3 -16  704.55   12.63   0
  -3   2 -14 1173.15   15.36   0
  -7   6 -16  151.56    8.83   0
  -6   5 -17  155.17    8.06   0
  -1   2 -18  747.13   13.52   0
  -1   4 -23   53.18    7.34   0
  -1   5 -24   73.99    7.51   0
  -7   5 -12  211.67    9.13   0
  -6   4 -13  276.08    9.04   0
  -6   7 -22   62.44    7.68   0
  -5   4 -18  239.51   10.26   0
  -5   6 -23   41.31    8.04   0
  -8   7 -15   44.76    7.03   0
  -1   1 -14 1202.71   16.23   0
  -8   6 -11   64.20    7.40   0
  -6   6 -21   85.52    7.83   0
  -2   5 -25   95.38    8.44   0
  -7   7 -20   95.91    7.39   0
  -5   3 -14  300.39    9.65   0
  -4   2 -12 1587.28   17.69   0
  -2   1 -12 1659.84   18.22   0
  -2   6 -26   58.06    8.06   0
  -1   3 -22  220.32    8.91   0
  -5   5 -22  109.87    7.97   0
  -4   5 -24  111.56    8.93   0
  -3   1  -7 1423.72   17.54   0
  -2   4 -24  178.97    9.30   0
   1   1 -15  462.16   11.40   0
  -7   5 -15   52.36    7.55   0
  -6   3  -6  571.72   11.86   0
  -3   3 -21  232.81   10.10   0
  -6   5 -20  127.84    8.87   0
  -4   3 -19  124.96    7.89   0
  -3   2 -17  474.74   10.76   0
   0   1 -16 1419.04   17.67   0
   0   2 -20  602.50   12.48   0
  -8   6 -14  103.56    7.83   0
  -7   4  -8  304.77    9.57   0
  -3   5 -26   76.99    8.25   0
  -3   6 -27   10.57    6.52   0
  -6   3  -9  326.65    9.67   0
  -3   1 -10 1260.01   15.99   0
  -2   3 -23   98.26    7.46   0
  -5   2  -4 1861.56   20.50   0
  -5   4 -21  122.52    9.51   0
  -5   3 -17  336.97   10.08   0
  -4   2 -15  159.61    7.41   0
  -3   4 -25  109.09    8.78   0
  -1   2 -21  265.63    9.34   0
  -7   4 -11  115.23    7.72   0
  -6   6 -24   64.77    7.83   0
  -5   2  -7  316.76    9.17   0
  -2   1 -15  533.31   10.98   0
  -7   5 -18  152.00    9.18   0
  -8   5 -10  135.61    8.08   0
  -6   3 -12  460.62   10.43   0
  -6   4 -19   62.50    7.97   0
  -5   5 -25   38.54    7.85   0
  -8   6 -17   69.01    7.86   0
  -7   6 -22   71.97    7.58   0
  -5   2 -10  487.76   10.39   0
  -6   5 -23   39.41    7.74   0
  -4   3 -22  215.70    9.60   0
  -3   1 -13  459.46   10.04   0
  -2   5 -28   44.03    7.87   0
  -7   4 -14  250.00    9.45   0
  -2   4 -27   17.08    7.72   0
  -1   3 -25  105.15    8.05   0
  -8   5 -13  101.68    7.84   0
  -4   2 -18  292.86    9.11   0
  -6   3 -15  125.71    8.15   0
  -5   3 -20  312.29    9.81   0
  -4   4 -26  100.31    8.69   0
  -1   0 -10 1370.05   17.05   0
   0   1 -19  194.97    8.10   0
  -2   1 -18  774.59   12.80   0
  -3   5 -29   45.19    7.61   0
  -2   3 -26  165.08    9.36   0
   0   2 -23  166.89    8.21   0
  -4   1  -8 1770.01   18.63   0
  -4   1  -5  933.67   14.43   0
  -3   1 -16 1047.31   14.63   0
  -7   4 -17  117.87    8.40   0
  -3   4 -28   77.89    8.32   0
  -1   1 -20  607.73   12.09   0
  -1   2 -24  238.08    9.39   0
  -8   5 -16  113.73    7.68   0
  -5   2 -16  536.80   11.79   0
  -1   0 -13 1077.82   14.88   0
  -4   3 -25  128.23    9.73   0
  -3   2 -23   98.18    8.65   0
  -4   2 -21  290.17   10.06   0
  -2   0  -8 2695.45   23.22   0
  -3   3 -27   51.01    7.52   0
  -2   0 -11 1753.52   18.38   0
  -2   2 -25  132.89    8.60   0
   0   0 -15  139.11    6.55   0
  -4   1 -14  574.34   10.94   0
  -2   1 -21  263.22    9.35   0
  -8   5 -19   23.54    6.77   0
  -7   4 -20   88.59    7.97   0
  -5   4 -27   32.62    7.44   0
  -3   1 -19  240.96    8.93   0
  -2   4 -30   61.25    7.87   0
  -1   3 -28  103.54    8.03   0
   0   1 -22  327.76    9.81   0
  -6   2  -8  593.68   11.91   0
  -6   4 -25   65.59    8.34   0
  -1   0 -16 1489.60   16.57   0
  -7   3 -13  106.37    7.25   0
  -6   3 -21  110.35    8.53   0
  -2   0 -14  972.03   13.67   0
  -6   2 -11  278.49    8.70   0
  -6   2  -5  254.30    9.03   0
  -1   1 -23   83.63    7.55   0
  -2   3 -29   62.68    8.14   0
  -4   2 -24  224.91    9.35   0
  -8   4 -15   40.30    7.21   0
  -7   3 -16  194.35    9.14   0
  -6   2 -14  333.67    9.93   0
  -5   3 -26   94.81    9.07   0
  -4   3 -28   72.20    8.67   0
  -1   2 -27   56.73    7.69   0
   0   0 -18  481.66   10.76   0
  -5   2 -22  158.29    9.50   0
  -3   0  -9  470.02   10.06   0
  -2   0 -17  241.91    8.27   0
  -5   1  -9  593.10   11.55   0
  -3   0 -12 1414.37   16.47   0
   1   0 -17  732.20   13.19   0
  -6   2 -17  136.82    8.66   0
  -5   1 -12  549.94   11.40   0
  -2   2 -28   69.29    8.20   0
  -8   4 -18   81.84    8.10   0
  -6   3 -24   87.94    8.12   0
  -7   3 -19   80.87    7.83   0
  -5   1  -6  925.58   14.27   0
   0   1 -25  182.81    9.00   0
  -4   2 -27   24.25    8.28   0
  -2   0 -20  608.41   12.24   0
  -1   1 -26  210.14    9.25   0
   0   0 -21  534.78   10.90   0
  -5   2 -25  110.14    8.97   0
  -5   3 -29   55.31    8.75   0
  -3   0 -18  459.72   10.99   0
  -3   1 -25  132.77    8.24   0
  -3   2 -29   55.64    8.37   0
  -5   1 -18  348.62    9.69   0
  -1   0 -22  331.83    9.36   0
  -7   3 -22   75.98    7.75   0
  -2   1 -27   62.08    8.61   0
  -2   3 -32   25.24    6.47   0
  -6   3 -27   13.81    7.52   0
  -1   2 -30   79.40    7.85   0
  -4   0 -10 1091.01   14.73   0
  -6   2 -23   70.98    7.77   0
  -5   1 -21  138.44    9.07   0
  -3   0 -21  184.72    9.27   0
  -2   0 -23  193.60    9.16   0
  -2   2 -31   26.42    7.90   0
  -7   2 -12  301.16    9.89   0
  -1  -1 -12 1625.97   17.38   0
   0  -1 -11  392.59    9.59   0
  -7   2 -15  132.32    7.90   0
  -1  -1 -15  527.52   10.94   0
  -1  -1  -9 1101.09   15.13   0
  -5   2 -28   62.98    8.95   0
  -4   2 -30   47.67    8.58   0
   0   0 -24  331.24    9.94   0
  -8   3 -17   74.42    7.15   0
  -1   1 -29   95.68    8.10   0
  -7   2 -18  109.55    8.39   0
  -6   1 -13  163.83    8.06   0
  -4   0 -19   92.95    7.79   0
   0  -1 -17  743.48   12.70   0
  -6   1 -10  390.67   10.25   0
  -3   2 -32   37.64    8.33   0
  -2  -1 -13  470.59   10.10   0
  -1  -1 -18  767.89   12.85   0
  -5   1 -24   96.11    8.67   0
  -3   0 -24  234.12   10.54   0
  -2  -1 -16 1064.73   14.71   0
  -2  -1 -10 1304.03   15.54   0
   1   0 -23   83.20    6.69   0
  -6   2 -26   79.01    8.27   0
  -2   1 -30   84.44    8.33   0
   1  -1 -13  955.85   14.97   0
  -7   2 -21   59.19    7.27   0
  -6   1 -19   98.21    8.08   0
  -6   1  -7  290.95    9.24   0
   1  -1 -16 1395.29   17.42   0
  -4   0 -22  272.76    9.50   0
  -4   0  -4 1293.20   17.08   0
  -2  -1 -19  264.67    9.08   0
   0  -1 -20  585.18   11.20   0
  -2  -1  -7 1407.85   16.71   0
  -5   0 -14  493.32   11.35   0
  -4   1 -29   62.67    8.16   0
  -5   0 -11  188.05    7.50   0
  -3  -1 -14  596.43   11.23   0
  -3   1 -31   25.04    8.24   0
   0   0 -27   21.81    6.98   0
  -5   1 -27   34.83    7.91   0
  -3  -1 -11  300.71    8.61   0
   1  -1 -19  204.06    8.12   0
  -3   0 -27   56.36    7.80   0
  -2  -1 -22  238.66    9.54   0
  -5   0  -8  565.89   11.61   0
  -2   0 -29   47.91    8.10   0
   0  -1 -23   83.21    6.59   0
  -1  -1 -24  227.71    8.62   0
  -5   0 -23   60.55    8.42   0
  -3  -1 -23   67.75    8.18   0
  -2  -1 -25  128.01    7.82   0
  -7   1 -17  118.41    8.40   0
  -7   1 -14  102.90    7.92   0
  -4  -1 -12  534.61   10.79   0
  -4   0 -28   44.31    7.91   0
  -1   0 -31   19.68    7.69   0
  -1  -1 -27   69.64    8.31   0
   0  -1 -26  216.74    9.25   0
  -7   1 -20  119.03    8.25   0
  -5   0  -5  568.83   11.97   0
   2  -1 -15  455.11   11.71   0
  -6   0 -15   98.69    7.97   0
  -5   0 -26  105.11    9.04   0
  -1  -2 -17  486.06   10.48   0
  -1  -2 -14 1128.00   14.45   0
  -6   0 -18   90.73    8.03   0
  -4  -1  -9  617.33   11.80   0
  -3  -1 -26  123.19    9.79   0
  -3  -1  -5  963.63   14.22   0
  -2   0 -32   62.48    8.70   0
   0  -2 -13 1114.53   14.95   0
  -6   0 -12  440.98   11.10   0
  -1  -2 -20  369.06   10.34   0
   1  -1 -25  178.92    8.41   0
  -2  -2 -18  299.27    9.89   0
  -2  -2 -15  165.02    7.54   0
  -1  -2 -11  408.16    9.45   0
  -6   0 -21   93.01    8.03   0
  -4  -1 -24   92.81    9.07   0
  -2  -2 -12 1582.39   16.95   0
  -6   0  -9  190.50    8.88   0
  -2  -2 -21  291.46   10.01   0
   0  -2 -22  496.06   11.47   0
   0  -2 -10 3081.46   24.13   0
  -1  -1 -30   99.12    8.85   0
   0  -1 -29   88.54    8.12   0
   1  -2 -18  710.72   12.91   0
   1  -2 -15  466.49   10.57   0
  -6   0 -24   79.95    8.17   0
  -5  -1 -19   82.67    8.49   0
  -3  -2 -16  576.33   12.10   0
  -3  -1 -29   46.87    9.18   0
  -4  -1 -27   33.74    8.04   0
  -4  -1  -6  934.88   14.01   0
  -3  -2 -13  508.05   11.44   0
  -2  -2 -24  218.85    9.94   0
  -2  -2  -9  892.41   13.24   0
  -1  -2  -8 1812.54   18.45   0
   1  -2 -21  258.00    9.06   0
   1  -2 -12 1579.90   18.39   0
  -2  -1 -31   24.60    7.73   0
  -1  -2 -26  183.33    9.49   0
   0  -2 -25  130.70    8.49   0
  -5  -1 -10  384.05   10.33   0
  -3  -2 -22  171.17    8.80   0
  -5  -1 -25   33.06    8.47   0
  -2  -2 -27   23.39    7.81   0
   1  -2 -24  237.91    9.23   0
  -3  -2 -25  110.80    8.73   0
   0  -2  -7  302.37    8.86   0
  -7   0 -19   22.23    6.70   0
  -1  -1 -33   30.04    7.05   0
  -4  -2 -20  167.27    8.62   0
  -4  -2 -14  329.49   10.15   0
  -3  -1  -2 1128.50   16.86   0
  -1  -2 -29   71.00    8.52   0
   0  -2 -28   68.72    7.70   0
  -5  -1  -7  295.33    9.99   0
  -4  -2 -23   75.14    8.64   0
  -1  -3 -16  689.13   12.83   0
   2  -2 -17  229.60    8.72   0
  -3  -2 -28   66.60    9.08   0
   0  -3 -18  637.18   11.81   0
  -6  -1 -20  130.93    9.05   0
  -4  -2 -11  272.25    9.57   0
  -3  -2  -7  318.47    9.44   0
  -1  -3 -22  207.06    9.70   0
  -1  -2  -5 1823.16   19.45   0
   0  -3 -15  258.84    8.52   0
   1  -2 -27   56.24    7.42   0
  -6  -1 -14  106.21    8.37   0
  -2  -3 -17  333.75   10.28   0
  -1  -3 -13  559.21   11.02   0
   2  -2 -14  906.65   15.19   0
  -4  -1  -3  299.00    9.46   0
  -4  -2 -26   74.02    7.97   0
  -2  -3 -14  326.50    9.32   0
  -2  -3 -23   33.73    8.72   0
   0  -3 -24  138.85    7.92   0
   0  -3 -12  934.83   13.52   0
   1  -3 -20  372.87   10.47   0
   1  -3 -17  471.69   11.03   0
  -6  -1 -11  106.60    7.61   0
  -1  -2 -32   34.86    7.68   0
   0  -2 -31   24.84    7.20   0
  -5  -2 -18  105.40    8.49   0
  -5  -2 -21   52.02    8.20   0
  -5  -2 -15  126.52    8.48   0
  -4  -2  -8  593.66   12.13   0
  -3  -3 -18  235.90    9.20   0
  -2  -3 -11  226.26    8.70   0
  -1  -3 -10  768.14   12.46   0
   1  -3 -23   79.83    7.82   0
  -3  -3 -21  107.60    8.33   0
  -3  -3 -15  145.00    8.89   0
  -2  -3 -26   83.31    8.91   0
   0  -3 -27   40.76    7.97   0
  -1  -3 -28   81.27    9.14   0
   0  -3  -9 1178.16   15.58   0
   1  -3 -26  166.99    8.77   0
   1  -3 -11  384.07    9.55   0
  -3  -3 -27   24.92    8.89   0
  -3  -2  -4 1945.66   20.50   0
  -2  -3 -29   60.18    7.86   0
  -2  -3  -8 1509.48   17.54   0
   2  -3 -19  237.32    8.96   0
  -4  -3 -22   86.66    8.85   0
  -4  -3 -16  206.90    9.84   0
  -1  -3  -7  613.61   11.81   0
   0  -3 -30   97.83    8.42   0
   2  -3 -22  232.16    9.25   0
   2  -3 -16  902.58   14.19   0
  -5  -2  -9  109.26    7.81   0
  -3  -3  -9  337.29   10.15   0
  -1  -4 -21  128.02    8.27   0
  -4  -3 -13  104.84    8.80   0
  -4  -2  -5  269.59    9.25   0
  -1  -4 -15  226.82    9.40   0
   1  -3 -29   59.25    7.52   0
  -2  -4 -19   66.76    9.12   0
  -6  -2 -16  110.87    8.05   0
   0  -4 -14  516.69   11.06   0
   1  -4 -19  132.47    8.30   0
   1  -4 -22  218.48    9.65   0
   2  -3 -13  441.82   10.82   0
   0  -4 -26   96.54    9.23   0
  -2  -4 -25   66.74    8.78   0
  -1  -4 -12  705.48   12.61   0
   0  -3  -6 2353.93   21.55   0
   1  -3  -8 1851.68   19.58   0
  -4  -3 -10  328.23   10.44   0
  -2  -4 -13  298.41    9.58   0
   1  -4 -25  109.07    9.06   0
  -7   3  -7  269.19    8.88   0
  -7   6 -22   56.31    7.02   0
  -6   3 -15  139.28    7.98   0
  -6   6 -24   67.67    7.44   0
  -4   1  -8 1817.26   17.62   0
  -8   4  -9  138.12    8.00   0
  -6   2  -5  263.38    8.54   0
  -6   2  -2  705.26   12.26   0
  -8   5 -16  140.70    7.99   0
  -9   5  -8  216.02    8.55   0
  -7   3 -10  302.48    9.15   0
  -7   4 -17  107.24    8.01   0
  -7   5 -21   74.08    7.61   0
  -6   2  -8  573.98   11.10   0
  -6   2   1  476.63   10.73   0
  -5   5 -25   38.11    6.87   0
  -4   2 -18  303.83    9.79   0
  -2   3 -23   81.10    6.95   0
  -4   1 -11  314.06    8.42   0
  -8   4 -12  209.06    8.86   0
  -9   5 -11   41.30    7.14   0
  -6   3 -18  216.76    9.35   0
  -6   4 -22  144.65    9.03   0
  -5   2 -16  565.54   11.07   0
  -5   4 -24  133.65    8.78   0
  -1   1 -17  776.04   12.97   0
  -7   3 -13  102.49    6.95   0
  -6   2 -11  273.62    8.33   0
  -2   0  -8 2817.35   22.95   0
  -8   5 -19   26.66    7.07   0
  -3   1 -16 1013.61   13.82   0
  -7   4 -20   96.57    8.26   0
  -5   1  -6  957.40   13.46   0
  -5   1  -3  313.87    8.74   0
  -4   1 -14  597.12   11.46   0
  -9   5 -14   53.69    6.71   0
  -4   4 -26   81.26    7.46   0
  -2   1 -18  735.46   12.41   0
  -2   2 -22  522.40   11.32   0
  -7   3 -16  199.68    8.76   0
  -6   2 -14  315.34    8.96   0
  -5   1  -9  583.63   10.62   0
  -2   0 -11 1725.66   17.62   0
  -5   1   0 1162.33   15.50   0
  -3   0  -6 1799.22   18.18   0
  -5   2 -19   68.36    6.84   0
  -6   3 -21  105.61    7.47   0
  -8   3  -8  283.86    9.06   0
  -5   1 -12  529.00   10.35   0
  -4   3 -25  107.40    8.39   0
  -3   0  -9  477.51    9.73   0
  -3   2 -23   92.33    7.55   0
  -9   4  -7   41.90    6.60   0
  -8   4 -18   72.68    7.81   0
  -7   2  -6  293.67    8.80   0
  -9   4 -10   61.50    7.23   0
  -8   3 -11   72.77    7.48   0
  -7   2  -9  119.72    7.38   0
  -7   4 -23   16.45    7.54   0
  -6   2 -17  122.52    7.31   0
  -5   4 -27   23.59    7.33   0
  -7   3 -19   92.77    7.84   0
  -2   0 -14 1011.93   13.39   0
  -3   0 -12 1394.41   15.31   0
  -5   1 -15  138.35    7.03   0
  -9   4 -13   72.49    7.26   0
  -8   3 -14  119.97    7.65   0
  -7   2 -12  309.92    8.82   0
  -2   1 -21  244.36    8.64   0
  -5   2 -22  174.83    8.20   0
  -3   3 -27   42.41    6.39   0
  -6   1  -7  315.55    9.11   0
  -6   3 -24   81.51    7.94   0
  -5   3 -26   87.49    8.75   0
  -4   0  -7  258.39    7.66   0
  -4   2 -24  218.30    8.47   0
  -4   0 -10 1091.09   14.13   0
  -4   0  -4 1316.16   15.59   0
  -2   2 -25  140.65    8.15   0
  -1   0 -16 1396.54   16.31   0
  -7   2 -15  122.83    7.91   0
  -6   1 -10  383.55    9.26   0
  -6   1  -4  627.31   11.12   0
  -6   2 -20  184.34    8.21   0
  -5   1 -18  372.74   10.38   0
  -3   1 -22  252.54    9.19   0
  -7   3 -22   90.32    7.52   0
  -6   1 -13  158.82    8.14   0
  -4   0 -13  624.09   11.40   0
  -4   3 -28   74.93    8.28   0
  -6   1  -1  249.36    8.49   0
  -3   2 -26  159.06    8.62   0
   0   0 -15  141.82    6.82   0
  -4   0  -1 1232.18   15.80   0
  -7   2 -18  113.00    8.09   0
  -3   0 -18  441.96   10.43   0
  -6   1 -16  279.99    8.77   0
  -6   2 -23   69.85    8.19   0
  -4   0 -16  381.61    9.77   0
  -9   3  -9  100.82    7.75   0
  -8   3 -20   93.37    7.84   0
  -5   1 -21  158.52    8.80   0
  -2   1 -24  232.79    8.65   0
  -1   1 -23   76.11    6.19   0
  -8   2 -10  134.51    8.05   0
  -8   2  -7   77.08    6.78   0
  -5   0  -8  548.76   10.30   0
  -4   2 -27   19.57    7.42   0
  -1   0 -19  201.55    7.65   0
  -9   3 -12  105.43    7.08   0
  -5   0 -11  182.15    7.34   0
  -5   0  -5  583.05   10.97   0
  -2   0 -20  609.35   11.55   0
  -5   3 -29   58.05    7.09   0
  -8   2 -13  116.71    8.17   0
  -7   2 -21   60.95    7.65   0
  -3   1 -25  107.68    8.12   0
  -6   1 -19   86.45    7.13   0
  -5   0 -14  469.30   10.18   0
  -2  -1 -10 1316.02   15.15   0
  -7   1 -11  103.14    7.44   0
  -4   0 -19   95.96    6.99   0
  -2  -1  -7 1438.94   15.90   0
  -1  -1  -9 1092.65   14.58   0
   0   0 -18  482.61   10.71   0
  -8   2 -16  113.79    7.51   0
  -7   1  -5  174.63    7.60   0
  -5   0  -2  944.94   13.70   0
  -2  -1 -13  459.19    9.47   0
  -1  -1 -12 1623.46   17.11   0
  -7   1 -14  105.86    6.81   0
  -6   2 -26   70.01    7.87   0
  -5   0 -17  197.11    8.62   0
  -5   1 -24   97.37    8.37   0
  -3  -1 -11  315.39    8.74   0
  -3  -1  -8 1835.68   17.64   0
  -5   2 -28   51.95    7.73   0
  -2  -1  -4 2977.15   23.46   0
  -3  -1 -14  596.92   11.11   0
  -2   0 -23  175.89    8.07   0
  -7   1 -17  113.31    7.57   0
  -4   0 -22  300.43   10.28   0
  -2  -1 -16  984.49   13.17   0
  -1   0 -22  326.34    9.26   0
  -6   0  -9  197.21    7.65   0
  -2   1 -27   63.46    7.46   0
  -5   0 -20  153.29    8.41   0
  -4   2 -30   60.98    7.51   0
  -6   0  -6  256.93    8.07   0
  -4  -1 -12  553.46   11.09   0
  -4  -1  -9  612.09   11.18   0
  -3   0 -24  226.52    9.18   0
  -6   0 -15  103.39    6.95   0
  -3   1 -28  119.36    7.87   0
   0  -1 -11  387.10    9.71   0
  -7   1 -20  138.56    8.17   0
  -4  -1  -6  985.45   13.49   0
  -5   1 -27   27.90    7.74   0
  -4  -1 -15  142.49    7.04   0
  -1  -1 -18  705.24   11.98   0
  -6   1 -25   54.50    7.52   0
  -3  -1  -2 1164.78   15.14   0
   0  -1 -14 1139.98   15.20   0
  -6   0  -3  282.00    8.75   0
  -5   0 -23   57.23    7.87   0
  -8   1 -12  127.41    8.12   0
  -8   1  -9  134.64    7.70   0
  -4  -1 -18  374.64   10.26   0
  -4   1 -29   72.30    8.18   0
  -8   1 -15   25.70    6.88   0
  -2   0 -26  132.02    7.59   0
  -4  -1  -3  320.17    8.29   0
  -1   0 -25  187.07    8.45   0
  -6   0 -21   79.76    7.85   0
   0  -1 -17  763.12   12.64   0
  -5  -1  -7  326.19    8.97   0
  -3   0 -27   47.92    7.48   0
  -2  -1 -22  240.56    8.16   0
  -1  -1 -21  253.05    8.59   0
  -7   0 -10  106.30    7.64   0
  -5  -1 -16  277.83    8.90   0
  -4  -1 -21  157.28    7.88   0
  -7   0 -16  161.21    8.20   0
  -7   0  -7   78.63    6.80   0
  -5  -1 -19   86.60    8.49   0
  -5   0 -26  107.47    8.02   0
  -5  -1  -4  657.96   11.81   0
  -4   0 -28   58.70    8.21   0
  -2  -2 -12 1608.69   16.24   0
  -6   0 -24   92.72    8.12   0
  -2  -2 -15  168.44    6.96   0
  -2  -2  -9  937.48   12.63   0
  -3  -2 -10  485.38   10.23   0
  -1  -2 -11  420.65    9.56   0
   0  -1 -20  556.68   11.35   0
  -4  -1 -24  110.87    8.62   0
  -1  -2 -14 1138.39   14.03   0
  -6  -1 -14  107.16    7.72   0
  -6  -1 -11  107.06    7.85   0
  -3  -2 -16  571.09   10.87   0
  -2  -2 -18  278.29    9.07   0
  -2  -1 -25  113.02    7.22   0
  -5  -1 -22  102.46    8.72   0
  -4  -1   0 1190.42   15.71   0
  -3  -2  -7  319.94    8.84   0
  -3  -1   1  757.01   13.33   0
  -1  -2  -8 1903.36   18.26   0
  -1  -1 -24  225.39    8.54   0
  -6  -1 -17  101.16    7.97   0
  -6  -1  -8  474.34   10.89   0
  -3  -1 -26  123.53    8.36   0
  -2  -2  -6  656.49   11.02   0
  -4  -2 -11  286.67    9.12   0
  -3  -2 -19   60.80    7.22   0
  -3   0 -30   59.69    7.08   0
  -4  -2 -17  126.88    8.20   0
  -6  -1 -20  130.66    8.37   0
  -6  -1  -5  162.14    7.45   0
  -5  -1  -1  269.71    8.55   0
  -1  -2 -20  350.77    9.05   0
  -8   0 -11   43.70    6.75   0
  -5  -1 -25   41.87    7.21   0
  -4  -1 -27   30.57    7.57   0
  -3  -2 -22  158.22    8.69   0
  -3  -2  -4 1865.56   18.22   0
   0  -1 -23   79.84    6.30   0
  -4  -2 -20  181.30    8.21   0
  -1  -2  -5 1853.70   18.37   0
   0  -2 -16  539.37   10.32   0
   0  -2 -10 3012.97   23.25   0
   1  -1 -16 1371.30   18.46   0
  -2  -1 -28  116.67    7.76   0
  -5  -2 -15  126.39    7.68   0
  -4  -2  -5  290.14    8.67   0
  -3  -1 -29   63.97    7.89   0
  -2  -2 -24  210.71    9.33   0
  -1  -1 -27   68.32    6.92   0
  -7  -1 -15   28.27    6.66   0
  -7  -1 -12  128.98    8.20   0
  -5  -2 -18  105.46    8.58   0
  -5  -2  -9  126.47    6.98   0
  -1  -2 -23   85.62    7.20   0
   0  -2 -19  176.86    7.55   0
  -4  -2 -23   71.54    8.41   0
  -7  -1  -9  137.76    7.69   0
   0  -2  -7  307.34    8.84   0
  -5  -2 -21   49.48    7.15   0
  -5  -2  -6  298.38    9.20   0
  -2  -3 -14  323.35    8.77   0
  -2  -3 -17  345.18    9.72   0
  -2  -3 -11  238.52    7.79   0
  -3  -3 -15  134.97    7.44   0
  -3  -3 -12  482.48   10.80   0
  -1  -3 -13  546.29   10.58   0
   0  -2 -22  496.40   11.06   0
  -3  -3 -18  220.74    9.34   0
  -3  -2  -1  709.02   12.17   0
  -1  -3 -16  700.46   11.71   0
  -6  -2 -16  117.37    8.08   0
  -6  -2 -13  124.84    7.94   0
  -4  -2 -26   77.64    7.47   0
  -4  -2  -2  734.71   12.48   0
  -2  -2 -27   19.73    7.07   0
  -6  -2 -10  128.94    8.19   0
  -3  -3  -9  336.32    8.86   0
  -2  -3  -8 1525.08   15.97   0
  -1  -2 -26  176.68    8.44   0
  -4  -3 -13  109.32    8.02   0
  -3  -2 -28   56.13    8.15   0
  -1  -2  -2 2789.81   23.73   0
  -4  -3 -16  202.99    8.49   0
  -3  -3 -21  119.62    8.70   0
   1  -2 -15  486.64   10.78   0
  -5  -2  -3  341.23    9.56   0
  -4  -3 -19   91.93    7.73   0
  -6  -2  -7   80.52    7.11   0
  -3  -3  -6  589.85   11.24   0
  -1  -3 -22  212.34    8.84   0
  -1  -3  -7  595.74   10.58   0
   0  -3 -12  928.54   13.23   0
   1  -2 -12 1501.90   17.83   0
  -2  -2   0 3694.67   26.94   0
   0  -3 -18  663.91   11.98   0
   0  -2 -25  142.22    7.57   0
   1  -2 -18  709.63   12.86   0
  -4  -3 -22   95.25    8.44   0
  -3  -3 -24   95.61    8.02   0
  -2  -3  -5  606.79   10.74   0
  -4  -3  -7  282.83    9.28   0
  -5  -3 -17   80.69    8.04   0
  -5  -3 -14  110.51    7.74   0
  -2  -2 -30   57.57    6.97   0
   0  -3  -9 1206.71   14.89   0
  -5  -3 -11   82.33    7.65   0
   0  -3 -21  225.92    8.43   0
  -5  -3 -20   90.60    8.42   0
  -2  -3 -26   82.19    8.24   0
  -1  -3 -25  108.83    8.05   0
  -5  -3  -8  300.84    9.53   0
  -4  -2   1  479.78   11.20   0
  -3  -3 -27   30.63    7.06   0
  -3  -3  -3  367.09    9.46   0
  -2  -4 -16  267.02    8.83   0
  -2  -4 -13  308.10    9.40   0
  -2  -4 -19   64.06    8.01   0
  -1  -4 -15  237.06    8.77   0
  -1  -3  -4 2395.27   20.26   0
  -4  -3  -4  428.83    9.97   0
  -3  -4 -14  267.53    9.09   0
  -1  -4 -12  754.93   12.55   0
   0  -3 -24  142.02    8.01   0
  -2  -4 -10  514.62   10.47   0
  -3  -4 -11  125.92    7.20   0
  -3  -2   2  572.42   11.81   0
  -2  -3  -2  613.95   11.28   0
   0  -3  -6 2394.23   20.45   0
   1  -3 -17  493.73   10.79   0
   1  -3 -14 1118.39   14.88   0
  -2  -3 -29   59.17    7.66   0
  -6  -3 -12  104.58    7.46   0
  -4  -4 -15   52.34    8.09   0
  -1  -4  -9  302.96    8.91   0
  -1  -3 -28   79.61    7.83   0
  -5  -3  -5  145.69    7.55   0
  -4  -4 -18   84.75    8.26   0
   0  -4 -14  533.35   10.47   0
   1  -3 -20  347.91    9.75   0
  -4  -4 -12  220.70    9.47   0
  -3  -4 -23   29.61    7.91   0
  -2  -4  -7  220.19    8.16   0
  -6  -3  -9  106.85    8.23   0
   0  -4 -20  322.56    9.76   0
   0  -4 -11  594.72   11.24   0
  -2  -4 -25   73.90    7.79   0
  -1  -4 -24  122.32    8.65   0
  -4  -3  -1  178.20    8.32   0
  -1  -4  -6  793.42   12.50   0
   0  -4 -23   93.44    8.03   0
   1  -3 -23   84.83    6.88   0
  -3  -3   0  907.24   14.00   0
  -5  -4 -13   86.08    7.47   0
  -3  -4  -5  295.34    9.47   0
   0  -4  -8 1274.00   14.80   0
   1  -3  -8 1837.28   18.82   0
  -1  -4 -27   28.91    8.12   0
  -4  -4  -6  190.85    8.67   0
  -2  -5 -15   59.19    7.98   0
  -2  -4  -4  686.97   11.67   0
   0  -3  -3  495.43   10.54   0
   1  -4 -16  709.07   12.35   0
  -5  -4 -10   68.86    7.31   0
   1  -4 -19  132.60    7.55   0
  -2  -5 -12  229.23    9.37   0
  -3  -5 -16  144.80    8.99   0
  -2  -5 -21   81.54    7.95   0
  -1  -5 -20  130.73    8.17   0
   0  -4 -26   94.67    7.40   0
  -3  -5 -19   37.57    7.93   0
  -3  -5 -13  118.43    8.72   0
  -2  -3   1  689.24   12.26   0
  -1  -5 -11  166.47    7.67   0
   0  -5 -16  359.40    9.59   0
  -2  -5  -9  286.28    8.93   0
  -1  -5 -23   41.35    7.23   0
  -1  -4  -3  727.61   12.14   0
   0  -5 -13  162.45    8.33   0
   1  -4 -10  797.95   12.31   0
  -5  -4  -7   54.59    7.27   0
  -3  -5 -10  170.64    8.94   0
   0  -4  -5  343.75    8.62   0
  -3  -4  -2  511.51   11.20   0
  -1  -5  -8  545.26   11.29   0
  -4  -5 -14   48.91    7.30   0
   0  -5 -22  119.06    7.77   0
   0  -5 -10  570.40   11.39   0
  -4  -4  -3  145.24    8.03   0
   2  -3 -16  956.93   14.80   0
  -4  -5 -11   39.71    7.64   0
   1  -3  -5 1850.02   18.88   0
  -3  -5  -7  108.91    8.11   0
  -2  -4  -1  500.58   10.20   0
   1  -5 -18  241.80    8.85   0
   1  -4  -7  617.67   11.32   0
   2  -3 -13  431.69   10.33   0
   7  -3  -8  331.01    9.53   0
   7  -2  -6  384.42    9.52   0
   9  -3  -3  127.77    8.09   0
   4   0  -5  363.32    9.17   0
   4   2   5  278.41    8.98   0
   5   0  -4  829.65   12.30   0
   6  -5 -10  365.04    9.96   0
   8   0   8  112.01    7.78   0
   7   0   1  156.30    7.44   0
   5  -3 -10  471.82   10.50   0
   7  -1  -4  503.79   10.84   0
   9  -5  -7   49.30    6.95   0
   6   0  -3  190.62    7.69   0
   7  -4 -10  308.80    9.55   0
   9  -2  -1   41.06    6.82   0
   6   1   2  208.74    8.30   0
   8  -2  -5  123.31    7.48   0
   8   0   5  110.32    7.81   0
   8  -4  -9  122.24    8.01   0
   9  -1   4   83.71    7.72   0
   3   0  -6 2401.47   20.51   0
   6  -4 -11  271.98    9.01   0
   3  -1  -8 1870.24   18.58   0
   8  -6 -10  129.54    8.62   0
   5   1  -2  616.26   11.55   0
   3   2   1  689.15   12.39   0
   7   0  -2  126.40    7.64   0
   8  -1  -3  139.56    8.44   0
   9  -6  -9  116.03    7.65   0
   9  -3  -6   94.65    8.03   0
   4   2   2  764.63   13.05   0
   3   1  -4 2499.34   21.17   0
   5  -1  -9  324.53    9.00   0
   6  -2 -10  508.77   10.36   0
   6  -1  -8  491.51   10.19   0
   7  -2  -9  300.30    9.55   0
   8   0   2  137.07    8.14   0
   9  -1   1   68.92    7.09   0
   9  -2  -4  152.88    8.47   0
   4  -3 -11  296.72    8.42   0
   6   1  -1  268.95    9.14   0
   7  -1  -7  101.67    7.85   0
   8  -5 -11   71.14    7.59   0
   5   0  -7  522.20   10.30   0
   7  -5 -12  323.39    9.84   0
   7   1   3   72.52    7.16   0
   5  -4 -12  525.01   11.48   0
   5   2   3  353.97    9.84   0
   6   0  -6  327.11    8.81   0
   8  -2  -8  255.45    9.55   0
   9  -5 -10   75.83    7.47   0
   6  -3 -12  446.74    9.90   0
   8  -3 -10  147.85    7.57   0
   4  -1 -10  799.60   12.57   0
   2   2   0 3872.74   28.94   0
   8   0  -1   70.66    7.42   0
   8  -1  -6  116.85    7.98   0
   9  -1  -2  101.50    7.59   0
   8  -4 -12  217.99    9.21   0
   4   2  -1  518.08   10.92   0
   7  -4 -13   98.48    7.44   0
   9  -3  -9   52.66    7.01   0
   4   1  -6  808.72   12.10   0
   7   1   0  286.31    9.82   0
   9  -2  -7   92.84    7.50   0
   2   0  -7  306.20    8.57   0
   3   2  -2  603.22   11.36   0
   5  -3 -13  479.55   10.86   0
   5   2   0  469.56   10.75   0
   9  -4 -11   48.12    6.96   0
   2   1  -5 1927.88   19.34   0
   6   1  -4  501.14   10.52   0
   6  -1 -11  160.18    7.98   0
   3   0  -9 1186.04   14.81   0
   7  -2 -12  230.89    8.28   0
   7  -1 -10  176.52    8.75   0
   6  -4 -14  308.25    9.68   0
   6  -2 -13  285.70    9.04   0
   8   0  -4  176.58    8.68   0
   5  -1 -12  751.77   12.48   0
   5   0 -10  534.30   10.85   0
   6   0  -9  263.38    8.52   0
   8  -2 -11   76.36    7.61   0
   3   1  -7  583.79   10.58   0
   6   2   1  160.48    8.20   0
   7  -3 -14  258.17    9.41   0
   7   0  -8  353.54   10.44   0
   7   1  -3  125.47    8.14   0
   9  -5 -13   87.38    7.20   0
   4   2  -4  742.79   12.39   0
   5  -2 -14  291.98    8.48   0
   5   1  -8  521.85   10.84   0
   5   2  -3  117.06    6.63   0
   8   1   1   51.51    6.89   0
   9  -3 -12  115.55    7.87   0
   9  -2 -10   90.31    7.50   0
   2   2  -3  728.04   12.51   0
   4   0 -11  580.33   10.64   0
   4  -1 -13  508.46   10.68   0
   4   1  -9  305.39    8.97   0
   8  -4 -15   43.73    6.98   0
   3  -3 -12 1330.65   17.91   0
   3   2  -5  636.19   11.39   0
   6   2  -2  157.25    7.97   0
   9  -4 -14   45.87    6.78   0
   5  -4 -15  130.73    7.56   0
   7  -4 -16  175.79    8.45   0
   7  -1 -13  185.41    8.71   0
   7   1  -6  128.76    8.06   0
   8   1  -2  106.43    7.15   0
   6  -1 -14  299.86    9.03   0
   6   0 -12  359.34   10.19   0
   4   3   1  172.32    7.77   0
   7  -2 -15   44.37    6.52   0
   8  -2 -14  100.30    7.69   0
   7   0 -11   57.00    6.85   0
   2   1  -8 1900.14   18.46   0
   3   3   0  921.55   14.29   0
   5   0 -13  174.79    7.38   0
   5   2  -6  382.75    9.35   0
   4   2  -7  216.50    7.60   0
   5  -3 -16  491.19   10.74   0
   5  -1 -15  236.82    8.78   0
   2   0 -10 3153.71   23.74   0
   3   0 -12  935.89   12.87   0
   3   1 -10  774.17   11.79   0
   4  -2 -15  152.10    6.82   0
   6   1 -10  186.10    8.61   0
   6   2  -5  132.86    8.07   0
   8  -3 -16  116.03    8.45   0
   5   1 -11  169.17    7.55   0
   7  -3 -17  109.28    8.16   0
   8   0 -10   98.54    7.53   0
   8   1  -5   48.75    7.17   0
   6  -4 -17  113.26    7.86   0
   4   3  -2  522.77   11.28   0
   4   0 -14  521.11   10.19   0
   4   1 -12  755.02   12.33   0
   5  -2 -17  302.66    9.46   0
   2   3  -1  700.25   12.75   0
   3   3  -3  378.95    9.31   0
   6  -3 -18  186.54    8.82   0
   7   2  -4  137.63    7.66   0
   5   2  -9  294.96    9.46   0
   7  -1 -16  166.31    8.06   0
   8  -4 -18   66.99    7.06   0
   6  -1 -17  154.50    8.67   0
   6   0 -15   80.14    6.69   0
   6   2  -8  266.01    9.46   0
   8  -1 -15   31.32    7.14   0
   2  -1 -12 1600.96   17.87   0
   7  -2 -18  147.85    8.65   0
   4   3  -5  296.12    8.79   0
   5   0 -16  341.69    9.72   0
   5   3  -4  333.20    9.99   0
   6   1 -13  168.78    7.80   0
   8   0 -13   61.18    7.10   0
   5   1 -14  286.23    9.34   0
   7  -4 -19   67.43    7.45   0
   3   1 -13  554.37   10.86   0
   7   2  -7   79.45    7.39   0
   2   1 -11  414.20    9.19   0
   6  -2 -19   60.26    7.43   0
   8  -3 -19   44.54    6.65   0
   2   3  -4 1980.01   19.48   0
   3   3  -6  597.73   10.92   0
   4  -3 -17  386.30   10.09   0
   2   2  -9  912.64   13.03   0
   3   0 -15  255.39    7.85   0
   3   2 -11  236.41    8.03   0
   7  -3 -20   80.71    7.43   0
   2   0 -13 1091.47   14.04   0
   4  -2 -18  271.25    8.84   0
   4   1 -15  226.74    7.90   0
   5  -3 -19   70.03    6.87   0
   6   2 -11   69.94    7.55   0
   3  -3 -15  436.50   10.85   0
   3  -2 -16  944.58   14.30   0
   4   0 -17  183.87    7.54   0
   5   3  -7  101.00    7.61   0
   7  -1 -19   17.73    6.74   0
   4   2 -13  272.79    8.46   0
   6   0 -18  127.29    7.73   0
   6   1 -16  179.51    8.62   0
   6   3  -6   97.25    7.97   0
   7   2 -10   80.26    7.58   0
   1   1  -9 1126.50   14.62   0
   5  -2 -20  293.31    8.94   0
   7   1 -15   45.96    7.08   0
   1   2  -7 1452.98   16.72   0
   3   3  -9  343.17    9.22   0
   6  -3 -21  100.76    7.87   0
   2   3  -7  317.75    8.37   0
   4  -1 -19  121.60    7.47   0
   5   0 -19  127.96    8.11   0
   5   1 -17  156.24    7.57   0
   7  -2 -21   71.35    7.50   0
   1   3  -2 1154.61   16.30   0
   3   1 -16  697.17   12.09   0
   5   3 -10  161.09    8.30   0
   3   2 -14  314.30    8.94   0
   4   3 -11  120.54    7.70   0
   5   2 -15   59.99    7.20   0
   2  -2 -14  919.48   14.77   0
   2  -1 -15  471.24   10.30   0
   2   1 -14 1101.64   13.82   0
   2   2 -12 1566.71   16.10   0
   1   0 -11  414.25    9.97   0
   5  -1 -21  112.13    7.96   0
   6  -2 -22  138.52    8.02   0
   6   3  -9   56.15    6.97   0
   3   0 -18  615.23   11.58   0
   4   1 -18  231.73    8.22   0
   3   4  -4  442.80   10.50   0
   4   2 -16  256.93    8.93   0
   1   3  -5  983.44   14.19   0
   7   0 -20   88.11    6.99   0
   4   0 -20  307.34    8.90   0
   6   0 -21   74.40    7.49   0
   6   1 -19   32.34    7.00   0
   7  -3 -23   28.23    6.97   0
   2   4  -2  709.09   12.89   0
   4   4  -6  176.55    8.28   0
   1   2 -10 1293.20   14.92   0
   4  -3 -20  306.55    9.59   0
   5   3 -13  126.45    7.82   0
   1   1 -12 1705.27   17.35   0
   4  -2 -21  254.63    9.05   0
   5  -3 -22  147.69    8.16   0
   5   1 -20  139.43    8.38   0
   3   4  -7  276.45    9.03   0
   6  -1 -23   32.51    6.79   0
   6   2 -17   66.15    7.39   0
   6   3 -12  114.42    7.96   0
   2   4  -5  279.50    8.72   0
   3  -2 -19  235.19    8.57   0
   5   0 -22  120.30    7.98   0
   5   2 -18  160.22    8.54   0
   2   2 -15  150.50    7.53   0
   3   2 -17  323.65    9.49   0
   5  -2 -23   26.59    6.55   0
   3  -1 -20  356.46    9.79   0
   3   1 -19  119.29    6.87   0
   4  -1 -22  186.59    8.43   0
   4   4  -9  147.99    7.67   0
   2   1 -17  462.57   10.02   0
   2   3 -13  483.88    9.86   0
   3   3 -15  131.48    7.09   0
   3   4 -10  320.48    9.59   0
   4   1 -21  118.27    7.19   0
   4   2 -19   59.15    6.65   0
   2   4  -8  606.05   11.53   0
   5   3 -16  148.49    8.26   0
   5  -1 -24  135.59    8.55   0
   1   2 -13  461.09    9.47   0
   2  -1 -18  721.43   12.46   0
   6  -2 -25   62.61    7.12   0
   6   1 -22   55.06    6.81   0
   1  -1 -13  962.49   14.72   0
   4   3 -17  103.84    8.09   0
   4   4 -12  233.40    8.98   0
   5   4 -11   57.10    7.50   0
   1   3 -11  307.89    8.54   0
   1   1 -15  520.78   10.47   0
   1   4  -3  306.18    9.03   0
   2  -2 -17  228.12    8.28   0
   5   1 -23   37.26    6.92   0
   2   2 -18  284.25    9.05   0
   2   4 -11  282.49    8.28   0
   3   2 -20  329.25    9.11   0
   1   4  -6  977.22   14.18   0
   2   3 -16  536.34   10.95   0
   3   3 -18  210.04    8.07   0
   5   0 -25   39.42    6.65   0
   0   2  -8 2753.72   22.75   0
   2   1 -20  355.76    9.62   0
   4  -2 -24  189.75    8.75   0
   4   2 -22  128.13    7.73   0
   4   4 -15   61.04    6.95   0
   5   4 -14   51.73    6.54   0
   1   2 -16 1028.83   13.75   0
   3  -2 -22  242.50    9.27   0
   3  -1 -23   76.33    7.10   0
   4  -1 -25  107.70    7.62   0
   4   1 -24  133.98    8.11   0
   5  -2 -26   74.75    7.71   0
   1   3 -14  573.91   10.45   0
   1   4  -9  603.62   10.80   0
   4   3 -20  100.87    7.68   0
   0   1 -10 1461.03   17.06   0
   2   4 -14  336.93    9.39   0
   1   0 -17  765.30   12.42   0
   3   4 -16  205.38    8.92   0
   3   0 -24  140.69    8.34   0
   5  -1 -27   28.39    7.11   0
   1   1 -18  741.50   12.21   0
   0   2 -11 1648.94   16.83   0
   1   4 -12  540.52   10.76   0
   2  -1 -21  245.98    8.69   0
   2   2 -21  281.86    9.31   0
   2   3 -19   67.62    6.97   0
   4   0 -26   91.36    7.53   0
   0   3  -9  457.69    9.58   0
   1  -1 -16 1382.56   16.79   0
   2   0 -22  501.61   10.86   0
   3   2 -23   37.63    6.61   0
   3   3 -21  107.48    7.79   0
   2   5  -9  108.38    7.19   0
   3   5 -11   79.49    6.83   0
   4   4 -18   70.90    6.93   0
   1   3 -17  390.15    9.25   0
   0   1 -13 1076.27   14.28   0
   1   2 -19  263.95    8.03   0
   4   2 -25   65.01    7.05   0
   4   3 -23   30.29    6.46   0
   0   2 -14  984.75   13.35   0
   0   3 -12 1339.95   14.96   0
   2   5 -12  320.83    9.83   0
   3   5 -14  110.38    7.82   0
   0   4  -7  269.72    8.29   0
   1   5  -7  308.54    9.10   0
   0   4  -4 1360.75   17.03   0
   1   0 -20  583.60   11.23   0
   2   3 -22  169.20    8.53   0
   3  -1 -26  177.69    8.35   0
   4  -1 -28   71.91    7.67   0
   1   5 -10  384.32    9.86   0
   0   4 -10 1041.05   13.68   0
   2   2 -24  199.33    9.12   0
   3   0 -27   52.28    7.31   0
   3   3 -24   83.44    7.24   0
   0   3 -15  451.77    9.89   0
   1   3 -20  348.77    9.13   0
   2   4 -20  178.06    7.63   0
   2   5 -15  131.31    8.13   0
   3   2 -26   79.14    7.24   0
   0   1 -16 1510.21   16.49   0
   3   5 -17   86.44    7.50   0
   4   0 -29   31.97    7.18   0
   1  -2 -15  469.35   11.81   0
   1  -1 -19  201.81    7.95   0
   1   4 -18  351.81    9.14   0
   2  -1 -24  234.01    8.80   0
   2   0 -25  129.65    7.80   0
   3   4 -22   79.68    7.54   0
   0   2 -17  235.61    7.63   0
   1   2 -22  221.43    8.10   0
   1   5 -13  164.11    7.27   0
   2   1 -26  160.33    8.73   0
   3   1 -28   71.27    7.08   0
   0   0 -15  145.10    6.38   0
   2   5 -18  110.35    7.82   0
   0   3 -18  410.12    9.47   0
   1   5 -16  263.13    9.50   0
   2   3 -25  100.25    7.33   0
   0   4 -16  360.32    8.97   0
   1   3 -23   59.54    7.48   0
   2   4 -23   66.33    7.57   0
   3   5 -20   77.49    7.02   0
   0   5  -8  549.73   11.08   0
   1   0 -23   78.30    6.80   0
   1   1 -24  220.44    8.13   0
   1   4 -21  159.04    7.38   0
   3   3 -27   17.69    6.77   0
   0   2 -20  608.76   11.42   0
   0   5 -11  187.28    7.79   0
   2   2 -27   18.81    6.51   0
   1   2 -10 1345.16   15.73   0
   3   2 -14  317.64    9.42   0
   4   3 -14  263.28    9.47   0
   4   5 -10   65.00    7.58   0
   5   2 -15   60.46    7.24   0
   1   1  -9 1113.44   14.92   0
   0   6  -3  295.87    9.07   0
   2   6  -7   70.94    7.42   0
   3   4 -13  101.64    8.11   0
   5  -1 -15  216.45    8.77   0
   7   1 -15   37.48    7.19   0
  -1   4  -2 1125.35   16.35   0
   2   3 -13  475.22   10.03   0
   3   5 -11   90.43    6.76   0
   5   0 -16  344.94   10.19   0
   6   1 -16  158.51    8.65   0
   1   3 -11  295.23    8.30   0
   4  -2 -12 1657.52   20.72   0
   4   2 -16  240.34    9.01   0
   7  -1 -16  153.65    8.35   0
   3   3 -15  121.66    7.36   0
   3   6  -9  120.65    7.90   0
   5  -2 -14  327.70   10.47   0
   5   1 -17  138.39    8.34   0
   1   5 -10  373.91    9.26   0
   5   4 -14   56.63    7.27   0
   1   6  -8  456.86   10.81   0
   2   7  -5  107.89    8.02   0
   5   3 -16  102.99    7.96   0
   4   4 -15   49.95    7.56   0
   7   0 -17   93.42    7.79   0
  -1   5  -3  297.02    8.84   0
   0   5  -8  544.18   10.93   0
   1   4 -12  500.17   10.66   0
   4   5 -13   96.38    7.70   0
   6   2 -17   67.17    7.35   0
   0   3  -9  458.34    9.64   0
   0   6  -6  263.76    8.66   0
   2   4 -14  334.33    9.01   0
   2   6 -10  144.09    7.75   0
   6  -1 -17  146.51    8.02   0
   0   2  -8 2754.48   22.85   0
   2   1 -14 1144.01   14.57   0
   3   0 -15  249.16    8.60   0
   4   3 -17  114.85    8.42   0
   2   2 -15  155.22    6.99   0
   6   0 -18  112.40    7.95   0
   3   2 -17  314.21    9.44   0
   3   5 -14  107.29    7.41   0
   1   7  -6  135.46    7.79   0
   3   4 -16  181.26    9.01   0
   4   1 -18  221.87    9.01   0
  -1   4  -5  977.47   14.27   0
   1   2 -13  466.61   10.09   0
   3   6 -12  114.68    8.00   0
   2   3 -16  540.69   11.13   0
   2   7  -8  102.84    7.55   0
   4  -1 -16  720.91   13.22   0
   1   3 -14  586.43   11.25   0
   6   1 -19   27.63    7.23   0
   1   1 -12 1733.28   17.95   0
   1   6 -11  108.67    7.78   0
   3  -1 -14 1125.78   16.17   0
   3   3 -18  202.46    8.96   0
   5   0 -19  127.08    8.18   0
  -1   6  -4  616.79   11.99   0
   0   6  -9  203.71    8.25   0
   2   5 -15  127.38    8.34   0
  -1   5  -6  943.33   13.48   0
   0   5 -11  176.84    7.74   0
   2   6 -13  127.44    8.38   0
   4   4 -18   88.00    8.02   0
   5  -1 -18  230.31    9.11   0
   5   3 -19   17.73    6.77   0
   5   1 -20  131.28    8.13   0
   1   4 -15  127.31    6.89   0
   1   7  -9  135.53    7.47   0
   2   4 -17  126.37    7.69   0
   0   3 -12 1376.97   15.27   0
   0   7  -7   86.60    6.74   0
   3   5 -17   63.81    7.56   0
   2   7 -11   22.14    6.16   0
   4   3 -20   83.58    8.09   0
   0   2 -11 1731.52   17.77   0
   0   4 -13  585.87   11.11   0
   3   1 -19  112.64    7.40   0
   3   4 -19   87.63    8.05   0
  -1   4  -8 1736.51   17.57   0
   2   2 -18  270.44    8.45   0
   4  -2 -15  164.11    8.27   0
   5   2 -21   68.98    7.22   0
  -1   6  -7  299.21    8.95   0
   1   6 -14  101.07    7.74   0
   3   2 -20  295.46    9.67   0
   6   0 -21   87.92    7.61   0
   2  -1 -12 1659.36   19.58   0
   3   0 -18  630.91   11.75   0
  -1   5  -9  604.05   11.33   0
   0   6 -12  427.68   10.27   0
   1   2 -16 1010.43   13.89   0
   1   5 -16  246.50    8.30   0
   2   3 -19   64.82    6.49   0
   4   0 -20  305.08    9.56   0
   4   1 -21  114.72    8.25   0
   1   3 -17  383.38    9.36   0
   2   5 -18   91.47    7.67   0
   2   6 -16  125.83    7.65   0
   1   7 -12  133.83    7.99   0
   6   1 -22   68.37    6.74   0
   0   7 -10   91.14    7.09   0
   2   0 -16  566.21   11.36   0
   3   3 -21  109.41    7.16   0
   4   2 -22  123.33    8.20   0
   1   1 -15  504.13   10.14   0
   1   4 -18  328.26    9.08   0
   4  -1 -19  116.46    7.63   0
   2   4 -20  167.90    7.99   0
   5   0 -22  116.98    7.59   0
  -1   6 -10  369.41    9.51   0
   0   3 -15  460.66   10.02   0
   3   5 -20   93.64    7.09   0
   5   1 -23   31.08    7.35   0
   0   1 -10 1438.75   16.85   0
   3  -2 -13  449.85   11.46   0
   0   4 -16  354.18    9.02   0
   5  -1 -21  122.72    7.77   0
   1   6 -17   98.75    7.25   0
   3   4 -22   80.83    7.68   0
  -1   3 -10 1264.01   15.00   0
  -1   5 -12  531.00   10.25   0
   0   2 -14  971.13   13.16   0
   0   6 -15   85.01    6.43   0
   0   7 -13  140.85    7.56   0
   1   7 -15   26.66    6.71   0
   2   2 -21  265.27    8.49   0
   3   1 -22  191.42    8.79   0
   0   5 -17  186.61    7.71   0
   1   3 -20  326.69    9.83   0
   2   3 -22  158.00    7.57   0
   2   5 -21   54.79    7.31   0
   1   2 -19  240.14    8.11   0
   3   0 -21  213.76    8.80   0
   4   1 -24  130.97    8.23   0
  -1   6 -13  161.21    7.81   0
   3   3 -24   72.54    7.39   0
   4   0 -23   88.73    7.81   0
  -1   7 -11   96.16    7.26   0
   1   4 -21  151.80    7.52   0
  -1   4 -14  555.50   10.30   0
   1   1 -18  752.38   12.43   0
   2  -1 -15  504.12   10.78   0
   2   4 -23   71.83    7.72   0
   4   2 -25   59.72    7.76   0
   0   3 -18  435.02   10.18   0
   2   0 -19  189.01    8.09   0
  -2   5  -7  305.72    8.75   0
   0   1 -13 1081.22   14.14   0
   0   4 -19   83.50    6.58   0
   0   6 -18   93.79    7.50   0
  -1   2  -9 1122.86   14.68   0
  -1   3 -13  458.60    9.51   0
   5   0 -25   39.58    7.65   0
   0   2 -17  226.81    7.55   0
   1   5 -22   88.88    7.93   0
   4  -1 -22  201.60    8.94   0
  -2   4  -6  675.90   12.20   0
   0   5 -20  142.39    7.91   0
  -1   6 -16  262.16    8.92   0
  -1   7 -14  102.37    7.28   0
  -2   5 -10  484.16   10.40   0
   1   2 -22  226.37    8.72   0
   1   3 -23   39.52    6.36   0
   2   1 -23   90.83    7.25   0
   2   3 -25   90.01    7.62   0
   3  -2 -16  964.07   15.73   0
   3   1 -25  109.34    7.91   0
   3   2 -26   78.34    7.57   0
  -1   4 -17  392.67    9.65   0
  -2   4  -9  918.16   13.36   0
  -2   6 -11  267.34    8.59   0
   1   4 -24   83.93    7.98   0
  -1   2 -12 1649.41   16.88   0
   1   0 -17  771.16   12.73   0
  -1   3 -16  976.71   13.10   0
   0   3 -21  179.44    8.20   0
   0   7 -19   20.70    6.51   0
   2   4 -26   63.27    7.22   0
   3   0 -24  142.86    8.13   0
   4   1 -27   25.18    7.11   0
   0   1 -16 1547.52   16.46   0
   0   4 -22  250.05    8.66   0
  -2   5 -13  476.65   10.31   0
   2  -1 -18  735.92   13.08   0
   4   0 -26  103.55    8.17   0
  -1   7 -17  104.21    7.81   0
   2   0 -22  504.78   11.53   0
  -2   7 -12  303.15    9.25   0
  -1   6 -19   86.20    7.54   0
   0   2 -20  613.48   11.00   0
   1   5 -25   48.48    7.02   0
  -2   6 -14  314.65    9.19   0
  -1   4 -20  330.34    9.60   0
  -1   2 -15  500.40    9.92   0
   2   2 -27   31.19    6.89   0
  -1   5 -21  145.06    8.23   0
   1   3 -26  131.00    7.70   0
  -2   5 -16  514.84   10.88   0
  -1   3 -19  233.63    7.79   0
   0   0 -12 4207.49   28.29   0
   1  -1 -13  995.16   14.87   0
   3  -1 -23   94.13    7.27   0
  -2   7 -15  116.74    7.41   0
   1   4 -27   24.02    6.71   0
   2   1 -26  184.00    8.28   0
   3   1 -28   89.52    8.00   0
   3   2 -29   58.52    6.83   0
  -2   4 -15  150.55    6.61   0
  -2   6 -17  105.25    7.48   0
  -1   7 -20  123.32    7.44   0
   0   1 -19  210.08    8.08   0
   0   3 -24  226.89    9.24   0
   0   4 -25   91.48    8.16   0
   1   0 -20  604.32   11.30   0
  -2   3 -11  403.81    9.27   0
   1   1 -24  231.65    8.66   0
   0   2 -23  176.00    8.24   0
   0   5 -26   96.52    7.53   0
   3   0 -27   38.60    7.08   0
  -1   2 -18  731.61   11.72   0
   2  -1 -21  273.63    9.09   0
  -2   7 -18  108.90    7.37   0
  -1   1 -11  429.96    9.55   0
  -1   4 -23   40.96    6.19   0
   2  -2 -14  940.72   15.68   0
  -2   3 -14 1105.67   13.76   0
  -2   4 -18  278.98    8.93   0
  -1   5 -24  104.88    7.68   0
  -3   6  -9  322.14    9.10   0
  -2   6 -20  159.78    8.40   0
  -1   3 -22  233.41    8.16   0
   1  -1 -16 1511.91   17.64   0
  -3   6 -12  465.35   10.36   0
   1   3 -29   60.75    7.37   0
   2   2 -30   61.65    7.62   0
  -3   5  -8 1503.32   17.42   0
  -3   5 -11  221.55    7.91   0
   0   3 -27   52.59    6.91   0
   0   4 -28   42.40    6.99   0
   1   0 -23   95.87    7.22   0
  -3   7 -13   92.87    7.34   0
  -2   3 -17  489.59   10.19   0
  -2   7 -21   53.98    7.04   0
  -1   2 -21  245.97    8.11   0
  -3   6 -15  121.44    7.30   0
  -2   5 -22  136.32    7.37   0
   0   2 -26  121.40    7.19   0
   1   1 -27   60.96    7.42   0
  -3   5 -14  314.18    8.98   0
  -2   4 -21  296.13    8.66   0
  -1   4 -26  116.26    8.15   0
  -2   6 -23   51.31    6.93   0
   2  -2 -17  228.36    8.62   0
  -3   7 -16  176.37    7.89   0
  -2   2 -10 3149.94   23.64   0
  -1   1 -17  807.22   12.09   0
  -1   3 -25  112.09    7.20   0
  -1   5 -27   34.22    6.76   0
   1  -1 -19  209.23    8.13   0
   2   0 -28   79.05    7.84   0
  -3   4 -10  804.69   12.67   0
  -3   6 -18  210.81    8.54   0
  -2   2 -13 1121.38   14.21   0
  -2   2  -7  299.54    8.39   0
  -2   3 -20  365.88    9.85   0
  -3   5 -17  302.37    8.54   0
  -3   4  -7  566.83   11.25   0
  -1   2 -24  239.03    8.81   0
  -3   7 -19   80.83    6.98   0
  -2   2 -16  575.18   10.75   0
  -2   4 -24  204.25    8.86   0
  -2   5 -25  112.20    7.70   0
   0   0 -21  596.95   11.58   0
   0   3 -30   56.83    7.56   0
   1   0 -26  225.43    9.11   0
   1   2 -31   24.06    7.37   0
  -1   1 -20  600.15   11.52   0
  -3   6 -21  101.92    7.68   0
  -1   4 -29   56.38    7.32   0
   2   1 -32   35.45    7.83   0
  -2   3 -23   91.32    7.50   0
  -1   3 -28  119.66    8.22   0
   1  -1 -22  355.53    9.90   0
   1   1 -30   99.85    7.81   0
   2  -2 -20  609.50   12.51   0
  -3   4 -19  119.41    7.35   0
  -2   2 -19  193.72    7.44   0
  -3   7 -22   77.95    7.52   0
   2  -1 -27   56.08    7.91   0
  -2   4 -27   25.63    7.06   0
  -2   5 -28   48.50    7.40   0
  -1   2 -27   62.66    7.19   0
   0   1 -28  134.39    8.68   0
  -3   5 -23   36.58    6.06   0
  -3   6 -24   80.83    7.62   0
   0   0 -24  336.71    9.19   0
   2   0 -31   27.40    6.81   0
  -3   3 -15  253.43    7.80   0
  -4   6 -13  291.36    9.00   0
  -3   4 -22  200.53    8.46   0
  -2   2 -22  520.31   11.09   0
  -1   0 -13 1038.43   13.95   0
   0  -1 -14 1131.76   15.07   0
   0  -1 -11  392.74    9.76   0
   1   0 -29  102.94    8.32   0
  -4   6 -10  506.86   11.02   0
  -2   3 -26  171.26    7.98   0
  -1   0 -10 1387.68   16.65   0
  -4   6 -16  255.75    8.96   0
  -3   3 -18  647.81   11.86   0
  -1   0 -16 1498.65   16.39   0
  -4   7 -17  114.04    7.59   0
  -1   3 -31   21.42    7.09   0
   0  -1 -17  792.46   13.02   0
   0   2 -32   59.02    7.19   0
   1  -1 -25  190.21    8.56   0
  -4   5 -15  225.08    8.52   0
  -4   5 -12  697.64   11.77   0
  -4   6 -19   67.77    7.25   0
  -3   5 -26   83.01    7.60   0
  -2   1 -12 1709.23   17.48   0
  -3   3  -6 2294.59   21.59   0
  -2   1 -15  521.13   10.12   0
  -4   5 -18  229.78    8.72   0
  -4   5  -9  307.06    8.95   0
  -4   7 -20   85.35    7.19   0
  -3   3 -21  219.26    8.13   0
  -3   4 -25  127.50    8.23   0
  -3   6 -27   13.34    7.10   0
  -2   4 -30   71.26    7.61   0
  -2   1 -18  766.13   12.48   0
  -2   2 -25  129.50    7.71   0
   0   0 -27   30.70    6.26   0
   0   1 -31   30.28    7.45   0
   1  -2 -15  494.69   11.43   0
  -2   1  -9 1135.95   14.80   0
   0  -1 -20  604.55   11.35   0
  -4   6 -22  136.33    7.96   0
  -2   3 -29   55.84    7.38   0
   1  -2 -18  752.39   13.79   0
  -4   7 -23   24.10    7.22   0
  -1   0 -22  349.96    9.78   0
  -4   4 -14  475.84   10.11   0
  -3   3 -24  141.03    7.66   0
  -2   1 -21  275.37    8.49   0
   1   0 -32   46.08    8.25   0
  -3   2 -14 1112.17   13.94   0
  -3   5 -29   53.18    7.26   0
   1  -1 -28  128.33    8.05   0
  -4   4 -11  567.71   10.68   0
  -3   2 -17  502.60   10.16   0
  -3   4 -28   81.01    7.82   0
  -1   1 -29  100.39    8.17   0
   0  -1 -23   89.49    7.33   0
  -4   6 -25   74.49    7.68   0
  -3   2 -11  403.27    9.15   0
  -2   2 -28   78.64    8.16   0
  -4   4 -20  305.26    9.06   0
   1  -2 -21  261.67    9.46   0
  -3   2 -20  351.53    9.34   0
   0   0 -30  115.30    8.22   0
  -2   1 -24  244.47    8.69   0
  -1   0 -25  202.39    8.93   0
  -4   4  -8 1268.84   16.01   0
  -3   3 -27   42.66    6.86   0
  -2   3 -32   20.11    7.68   0
  -3   2  -8 1861.70   18.65   0
  -3   6  -9  324.22    9.10   0
  -1   4 -14  575.37   10.80   0
   0   3 -15  456.31   10.41   0
   3   1 -16  717.90   13.46   0
   3   4 -19   79.35    7.79   0
  -3   7 -10  325.93    9.44   0
  -2   9 -11   24.28    6.28   0
  -1   6 -16  250.00    8.51   0
  -3   4  -4 2361.03   22.21   0
  -1   8 -15   29.32    7.11   0
  -3   5  -8 1495.18   16.38   0
  -2   5 -13  485.64   10.64   0
  -2   6 -14  318.30    9.28   0
   0   6 -18   90.89    6.90   0
  -3   9  -9  115.15    7.35   0
  -1   2  -9 1113.46   14.98   0
   1   2 -16  958.74   14.41   0
   2   3 -19   55.83    6.32   0
  -4   7  -5  297.04    8.90   0
  -2   3  -8 1899.34   19.00   0
   2   4 -20  163.41    8.40   0
  -3   8 -11   81.31    7.50   0
  -1   7 -17  102.56    7.75   0
   2   2 -18  296.80    9.56   0
  -4   8  -6  166.42    7.97   0
  -2   4 -12 1574.04   16.73   0
  -2   7 -15  118.21    7.07   0
  -4   6  -4  686.01   12.31   0
   0   1 -10 1447.67   17.46   0
   2   5 -21   45.72    6.81   0
  -3   7 -13   97.25    6.69   0
  -1   5 -18  334.11    9.84   0
   0   4 -19   76.54    6.68   0
  -3   4  -7  587.23   11.24   0
  -3   9 -12  107.94    7.63   0
   3   3 -21  100.45    7.61   0
  -1   4 -17  384.79    9.46   0
  -1   6 -19   79.63    7.77   0
   2   0 -13 1099.62   16.60   0
   3   0 -15  252.51    9.05   0
   3   2 -20  284.13    9.59   0
  -4   8  -9  127.49    7.27   0
   0   3 -18  421.07   10.25   0
   1   4 -21  139.53    7.34   0
  -4   6  -7  214.01    7.88   0
  -3   8 -14  103.32    7.68   0
  -2   5 -16  496.44   10.35   0
  -2   6 -17  110.68    7.04   0
   0   6 -21   78.34    7.97   0
   1   3 -20  324.02    9.17   0
   3   4 -22   75.28    6.89   0
   1   1 -15  495.57   10.67   0
  -2   3 -11  397.71    9.16   0
  -2   7 -18   93.16    7.14   0
  -1   2 -12 1723.73   17.55   0
  -1   7 -20  113.40    7.71   0
  -4   9 -10   65.97    7.25   0
  -2   4 -15  159.37    7.60   0
  -1   3 -16 1036.80   13.82   0
   3   1 -19  122.18    7.71   0
   1   2 -19  257.05    9.07   0
   2   3 -22  159.63    8.34   0
  -4   7 -11  113.20    7.18   0
   2   4 -23   57.56    7.48   0
  -4   8 -12  215.70    8.68   0
   2   2 -21  259.22    9.42   0
  -4   6 -10  497.22   10.63   0
  -3   5 -14  325.97    9.22   0
  -4   5  -6  772.78   12.78   0
  -1   5 -21  149.13    7.57   0
   0   1 -13 1071.20   14.45   0
  -3   8 -17   70.99    6.82   0
  -1   4 -20  332.27    9.88   0
  -1   6 -22   90.39    7.63   0
  -2   5 -19   71.36    7.38   0
  -2   6 -20  157.59    8.59   0
  -4   9 -13   75.86    6.65   0
   1   4 -24   82.93    7.74   0
  -4   7 -14  259.26    8.90   0
  -2   2  -7  308.14    8.54   0
  -2   3 -14 1102.43   13.96   0
  -2   7 -21   53.26    7.21   0
   1   3 -23   51.59    6.40   0
   1   5 -25   38.54    7.31   0
  -4   5  -9  310.78    8.80   0
  -4   6 -13  271.53    8.82   0
  -4   8 -15   50.93    6.86   0
  -3   4 -13  506.55   10.51   0
  -3   6 -18  208.82    7.86   0
  -1   2 -15  511.11   10.21   0
  -1   3 -19  238.75    8.90   0
  -3   7 -19   74.19    6.74   0
   1   1 -18  763.06   12.73   0
  -3   5 -17  322.79    8.75   0
   1   2 -22  255.94    9.48   0
   2   3 -25   91.93    7.69   0
   2   4 -26   64.64    7.08   0
  -1   5 -24   94.48    7.75   0
  -2   2 -10 3092.23   23.06   0
  -2   6 -23   53.15    7.18   0
  -4   7 -17  113.10    6.67   0
  -2   5 -22  155.46    7.72   0
  -1   4 -23   52.57    6.40   0
   1   0 -14 1208.14   15.90   0
   2   2 -24  193.95    9.46   0
  -4   8 -18   68.62    7.35   0
  -2   3 -17  492.90   10.04   0
  -3   4 -16  698.90   11.89   0
  -5   8 -13   99.57    7.86   0
  -3   6 -21  100.88    7.97   0
  -1   1 -11  438.62    9.97   0
  -3   7 -22   75.41    7.32   0
  -2   4 -21  281.24    8.67   0
  -1   2 -18  750.62   12.09   0
   0   3 -24  221.61    8.37   0
  -3   5 -20  289.89    9.49   0
  -1   3 -22  246.86    9.22   0
   1   4 -27   21.44    6.59   0
   1   3 -26  123.80    8.28   0
  -3   3 -12  902.50   12.83   0
  -2   2 -13 1129.20   14.31   0
  -4   4  -8 1236.41   15.38   0
   1   1 -21  272.09    9.43   0
   2   1 -23   95.60    8.04   0
   2   0 -19  198.64    8.13   0
  -5   8 -16  113.33    7.29   0
   0   2 -23  186.47    8.68   0
  -5   7 -15   51.32    6.58   0
  -3   4 -19  118.50    7.69   0
  -2   3 -20  366.85    9.27   0
  -2   5 -25  112.99    7.93   0
  -2   6 -26   63.41    7.07   0
  -1   5 -27   23.02    6.41   0
   0   1 -19  211.30    8.17   0
   1   2 -25  110.86    8.28   0
  -4   4 -11  557.06   10.34   0
  -1   1 -14 1208.40   14.62   0
  -1   4 -26  123.33    7.99   0
  -3   6 -24   85.62    7.40   0
  -3   3 -15  255.17    8.20   0
  -2   4 -24  210.00    9.33   0
   0   4 -28   37.25    7.07   0
  -3   5 -23   35.31    6.94   0
  -2   2 -16  539.33   10.35   0
  -1   2 -21  264.82    8.48   0
  -5   6 -14  300.51    9.11   0
   2   2 -27   21.52    7.31   0
   0   3 -27   62.13    7.60   0
  -5   8 -19   32.20    6.36   0
  -5   7 -18  169.36    7.68   0
  -4   6 -22  132.16    8.19   0
  -3   4 -22  189.17    8.85   0
  -1   1 -17  806.45   12.13   0
   1   1 -24  237.39    9.44   0
   1   3 -29   52.40    7.00   0
  -5   5 -10  518.88   10.64   0
  -5   6 -17  142.50    8.06   0
  -3   3 -18  668.39   11.71   0
  -2   3 -23   89.41    6.87   0
  -2   5 -28   57.42    7.45   0
   0   1 -22  349.79    9.75   0
  -4   4 -17  191.88    7.83   0
  -4   5 -21  109.93    6.97   0
  -2   2 -19  196.23    7.31   0
   0   2 -26  130.99    8.89   0
   2   0 -22  491.75   11.64   0
  -5   5 -13  168.49    7.58   0
  -3   6 -27   22.34    7.08   0
   1   0 -20  610.76   12.16   0
   2  -1 -15  493.40   11.44   0
  -3   5 -26   73.17    7.57   0
  -2   4 -27   19.58    7.09   0
   1   2 -28  112.00    7.95   0
  -5   7 -21   67.26    7.03   0
  -3   2  -8 1834.09   18.19   0
  -6   7 -13  147.70    8.20   0
  -4   6 -25   66.13    7.37   0
  -3   2 -11  397.85    9.24   0
  -5   5 -16  335.48    9.54   0
  -5   6 -20  127.77    7.98   0
  -2   1  -9 1086.67   14.40   0
  -1   1 -20  617.39   11.42   0
  -1   3 -28  108.56    8.40   0
  -3   4 -25  122.10    8.13   0
  -4   3 -10  774.11   12.24   0
  -4   3  -7  574.91   10.99   0
  -4   4 -20  301.64    8.88   0
  -2   1 -12 1700.67   17.25   0
  -4   5 -24  117.57    8.28   0
  -3   2 -14 1098.65   13.64   0
  -2   2 -22  538.09   11.41   0
  -2   3 -26  175.05    8.23   0
  -6   7 -16  155.83    7.55   0
   0   1 -25  211.42    8.81   0
   1   1 -27   69.37    7.71   0
  -5   5 -19  123.14    7.61   0
  -2   1 -15  519.37   10.35   0
   2  -1 -18  733.99   13.54   0
   0   2 -29   60.24    7.79   0
   1   0 -23   87.80    7.13   0
  -6   6 -12  343.85    9.61   0
  -4   3 -16  713.32   11.76   0
  -3   5 -29   51.02    7.49   0
  -1   2 -27   81.29    8.19   0
   1  -1 -13 1013.59   15.22   0
  -2   4 -30   49.83    6.72   0
  -6   7 -19   28.69    6.14   0
  -5   4 -12  710.65   12.09   0
  -5   4  -9  306.20    8.67   0
  -4   4 -23   85.27    6.89   0
  -1   0 -10 1432.76   16.64   0
  -6   6 -15   84.16    7.00   0
  -1   0 -13 1083.06   14.31   0
  -3   4 -28   79.25    7.27   0
  -2   1 -18  759.64   12.29   0
   0   0 -21  576.68   11.04   0
  -5   4 -15  213.10    7.57   0
  -5   4  -6  742.41   12.99   0
  -4   5 -27   35.85    6.49   0
  -2   2 -25  139.85    7.58   0
  -1   3 -31   26.55    6.98   0
  -4   3 -19  120.79    6.86   0
  -3   2 -20  350.44    9.40   0
  -2   3 -29   70.52    7.58   0
   1  -1 -16 1448.94   17.44   0
  -6   6 -18  110.79    7.29   0
  -1   0 -16 1535.17   16.70   0
  -6   7 -22   67.43    6.39   0
   0   1 -28  135.11    8.63   0
  -4   4 -26   95.92    8.11   0
  -3   3 -27   57.87    7.84   0
  -2   1 -21  257.91    8.25   0
   1   0 -26  220.06    9.76   0
  -4   3 -22  204.07    8.57   0
  -1   1 -26  213.41    8.38   0
  -1   2 -30   93.00    8.23   0
  -6   6 -21   73.64    7.05   0
  -5   5 -25   48.91    7.07   0
  -3   2 -23  101.94    7.45   0
   0   2 -32   62.54    7.75   0
   1  -1 -19  219.38    8.14   0
  -6   5 -14  292.96    9.10   0
  -6   5 -17  140.90    7.78   0
  -2   1 -24  242.83    8.88   0
  -2   3 -32   32.91    6.87   0
  -4   2 -15  161.86    6.75   0
  -4   3 -25  112.15    8.03   0
  -3   1 -13  452.09    9.86   0
  -6   6 -24   61.22    7.29   0
  -4   4 -29   43.60    7.31   0
   0  -1 -14 1121.39   14.65   0
  -5   3 -14  304.90    8.88   0
  -5   4 -24  117.79    8.27   0
  -3   1 -16  996.17   13.19   0
  -3   1 -10 1276.99   14.83   0
  -3   2 -26  191.03    8.96   0
  -3   3 -30  100.74    8.09   0
   1  -1 -22  352.85    9.90   0
  -5   3 -11  227.94    7.92   0
  -4   2 -18  287.07    8.31   0
  -1   1 -29   98.54    8.55   0
   0  -1 -17  783.49   12.68   0
   0   1 -31   28.27    7.02   0
   0   0 -27   25.55    6.83   0
  -3   1 -19  247.95    8.04   0
  -2   0 -14 1007.77   13.57   0
  -2   2 -31   26.76    7.69   0
  -6   5 -23   33.12    6.73   0
  -5   3  -8 1507.79   16.89   0
  -4   2 -21  262.28    8.65   0
  -5   3 -20  308.99    8.92   0
  -3   1  -7 1390.16   16.07   0
  -2   0 -17  240.74    7.71   0
  -2   0 -11 1727.48   17.18   0
  -1   0 -25  200.85    8.91   0
   0  -1 -20  593.86   11.58   0
  -5   4 -27   22.33    7.18   0
  -4   2  -6  665.00   11.79   0
  -4   3 -28   82.23    7.66   0
  -6   4 -16  246.43    8.97   0
  -6   4 -13  267.01    8.89   0
  -3   1 -22  248.10    8.45   0
  -7   6 -19   22.04    6.96   0
  -3   2 -29   72.25    7.83   0
  -6   4 -19   53.95    7.02   0
  -6   4 -10  480.02   10.49   0
  -5   3 -23   36.50    7.22   0
  -4   2 -24  205.72    9.12   0
   1  -1 -25  188.72    8.59   0
  -2   0  -8 2756.00   22.32   0
  -7   6 -16  163.81    8.44   0
  -6   5 -17  145.97    7.65   0
  -3   4 -22  196.70    8.98   0
  -6   4 -13  286.58    8.58   0
  -6   7 -22   61.04    6.85   0
  -5   4 -18  228.79    8.45   0
  -6   6 -21   79.59    7.89   0
  -1   1 -14 1163.37   15.44   0
  -8   6 -11   68.38    7.02   0
  -7   7 -20   89.54    7.71   0
  -4   6 -25   62.10    6.78   0
  -1   3 -22  232.20    9.18   0
  -5   3 -14  331.33    9.34   0
  -4   2 -12 1625.67   16.83   0
  -6   3  -3  345.75    9.09   0
  -5   5 -22  121.91    7.32   0
  -4   5 -24  117.43    7.99   0
  -3   1  -7 1520.53   16.82   0
  -2   4 -24  181.44    8.60   0
  -7   5 -15   47.58    7.33   0
  -6   3  -6  573.54   11.04   0
  -3   3 -21  229.87    9.20   0
  -7   6 -19   21.88    6.48   0
  -6   4 -16  248.89    8.85   0
  -6   5 -20  136.03    8.45   0
  -4   3 -19  130.73    7.32   0
  -3   2 -17  491.88   10.30   0
  -8   6 -14  102.66    7.39   0
  -7   4  -8  307.02    9.20   0
   0   1 -16 1444.66   17.71   0
   0   2 -20  584.30   12.01   0
  -6   3  -9  331.95    9.01   0
  -3   5 -26   65.43    7.46   0
  -5   2  -4 1876.98   18.55   0
  -3   1 -10 1344.72   15.53   0
  -2   3 -23   87.73    7.52   0
  -8   5  -7   88.24    7.01   0
  -5   2  -1  656.23   12.23   0
  -5   4 -21  120.29    8.68   0
  -7   4 -11  112.35    7.45   0
  -5   2  -7  307.13    8.10   0
  -5   3 -17  327.37    8.98   0
  -4   2 -15  174.44    7.21   0
  -6   6 -24   74.08    7.09   0
  -3   4 -25  102.58    7.96   0
  -2   1 -15  542.56   10.95   0
  -1   2 -21  260.66    8.79   0
  -7   5 -18  149.40    8.31   0
  -1   1 -17  786.48   12.80   0
  -6   4 -19   59.69    7.60   0
  -5   2 -10  496.91    9.82   0
  -7   6 -22   65.13    7.10   0
  -6   5 -23   40.07    6.94   0
  -4   3 -22  209.66    9.27   0
  -3   1 -13  461.00    9.55   0
  -8   5 -13  104.70    7.30   0
  -4   5 -27   22.89    6.74   0
  -9   6  -9   45.64    6.01   0
  -3   3 -24  147.96    8.54   0
  -6   3 -15  142.76    7.89   0
  -5   2 -13  504.33   10.56   0
  -2   2 -22  527.92   11.54   0
  -5   4 -24  119.90    8.65   0
  -7   5 -21   91.09    7.70   0
  -4   1  -8 1840.71   17.75   0
  -4   4 -26   92.51    7.87   0
  -1   0 -10 1359.25   16.38   0
  -9   6 -12  120.62    7.47   0
  -8   5 -16  122.27    7.69   0
  -7   4 -17  118.65    8.09   0
  -4   1  -2 1109.58   15.12   0
   0   1 -19  197.27    7.75   0
  -6   4 -22  144.15    8.24   0
  -3   1 -16 1023.50   13.52   0
  -2   3 -26  181.53    8.52   0
  -4   1 -11  305.70    8.10   0
  -6   3 -18  224.76    8.93   0
  -5   2 -16  543.73   10.62   0
  -3   4 -28   84.09    8.08   0
  -1   1 -20  585.39   11.49   0
  -2   0  -8 2813.76   22.59   0
  -7   3  -4  416.72   10.07   0
  -4   3 -25  126.19    8.85   0
  -1   2 -24  224.62    8.49   0
  -8   4  -9  124.04    7.57   0
  -7   3 -10  323.30    8.67   0
  -5   3 -23   40.10    7.74   0
  -4   2 -21  300.27    9.01   0
  -4   1 -14  592.88   10.57   0
  -2   0 -11 1769.84   17.70   0
  -8   4 -12  225.51    8.68   0
  -7   4 -20   97.88    7.35   0
  -6   2  -8  581.44   10.64   0
  -6   2  -5  253.76    8.37   0
  -7   3 -13  105.33    7.49   0
  -6   2 -11  282.74    8.70   0
  -3   1 -19  264.33    9.04   0
  -3   3 -27   53.71    7.09   0
  -5   2 -19   75.18    7.65   0
  -5   4 -27   27.31    7.57   0
  -2   1 -21  258.54    8.82   0
  -2   2 -25  139.90    7.93   0
  -6   3 -21  119.10    8.23   0
  -6   4 -25   74.17    7.72   0
   0   0 -15  142.10    6.59   0
  -9   5 -11   37.78    5.99   0
  -4   4 -29   27.40    7.24   0
  -8   4 -15   48.73    7.31   0
  -2   0 -14 1008.38   13.30   0
  -1   0 -16 1410.37   16.06   0
  -9   5 -14   42.09    6.64   0
  -7   4 -23   26.58    7.18   0
  -5   1  -6  944.00   13.31   0
  -3   0  -9  471.79    9.55   0
  -5   3 -26   91.05    7.84   0
  -3   0  -6 1759.64   17.66   0
  -1   1 -23   83.11    6.59   0
  -8   4 -18   68.97    7.10   0
  -6   2 -17  130.26    7.79   0
  -5   1 -12  539.09   10.19   0
  -5   2 -22  169.87    8.82   0
  -4   3 -28   73.73    7.93   0
  -3   0 -12 1455.87   15.90   0
  -3   2 -26  178.23    8.30   0
  -7   3 -19   72.90    6.89   0
  -6   3 -24   79.20    7.97   0
  -2   0 -17  238.04    7.71   0
  -5   1 -15  135.73    7.31   0
  -5   1  -3  296.54    8.50   0
  -4   1 -20  336.29    9.28   0
   0   0 -18  495.36   10.58   0
  -2   1 -24  243.51    9.00   0
  -1   0 -19  216.98    7.82   0
  -3   3 -30   86.61    7.22   0
  -6   2 -20  170.00    7.88   0
  -8   3 -11   81.90    7.05   0
  -5   1 -18  354.98    9.80   0
  -7   2  -9  107.76    7.00   0
  -7   3 -22   87.04    7.71   0
  -4   2 -27   27.97    7.33   0
  -8   3 -14  101.74    7.43   0
  -7   2 -12  326.69    9.66   0
  -5   2 -25  118.62    7.87   0
  -4   0 -10 1097.12   13.96   0
  -3   0 -18  443.68    9.75   0
  -7   2  -6  312.97    9.02   0
  -5   3 -29   59.92    7.34   0
  -4   1 -23   60.89    6.56   0
  -3   1 -25  126.94    8.29   0
  -9   4 -13   75.67    6.48   0
  -7   2 -15  127.65    8.00   0
  -6   3 -27   24.59    7.03   0
  -4   0 -13  603.06   10.71   0
  -3   2 -29   72.58    7.78   0
  -8   3 -17   75.43    7.03   0
  -6   1 -10  407.36    9.90   0
  -6   2 -23   64.80    7.88   0
  -1   0 -22  333.67    9.32   0
  -6   1 -13  158.99    7.75   0
  -5   1 -21  169.96    7.84   0
  -4   0 -16  376.46    9.27   0
   0   0 -21  552.21   11.20   0
  -6   1  -7  322.01    8.89   0
  -2   1 -27   58.16    7.32   0
  -4   0  -4 1316.93   15.69   0
  -3   0 -21  194.53    7.88   0
  -6   1 -16  262.43    9.35   0
  -2   0 -23  193.86    8.57   0
  -1  -1 -12 1609.70   16.68   0
  -1  -1  -9 1091.53   14.47   0
  -8   3 -20   85.05    7.09   0
  -4   0 -19   95.70    6.99   0
  -6   1  -4  646.33   11.61   0
  -4   2 -30   63.75    7.63   0
  -2  -1 -13  467.17    9.54   0
  -2  -1 -10 1332.78   15.01   0
  -7   2 -21   50.24    7.16   0
  -6   1 -19   94.86    7.79   0
  -6   2 -26   58.37    7.71   0
  -5   1 -24  106.57    8.18   0
  -3   1 -28  121.40    8.59   0
   0  -1 -14 1136.63   15.00   0
  -5   0 -14  494.45   10.89   0
  -2  -1 -16  981.28   13.10   0
  -2  -1  -7 1470.60   16.08   0
  -5   0  -8  578.30   10.98   0
  -1  -1 -18  727.65   11.98   0
  -1   0 -25  193.85    8.19   0
  -5   0 -17  193.70    7.97   0
  -3  -1 -14  612.26   11.29   0
  -3  -1 -11  298.41    8.13   0
   0  -1 -17  767.17   12.49   0
  -6   1 -22  100.51    7.69   0
  -2  -1 -19  255.33    8.62   0
  -2   0 -26  126.48    8.12   0
  -8   2 -13  113.45    7.88   0
  -8   2 -10  124.34    7.16   0
  -4   0  -1 1170.18   15.79   0
  -3  -1  -8 1799.51   17.47   0
  -8   2 -16  114.13    7.48   0
  -5   0  -5  581.41   10.92   0
  -4   1 -29   73.68    8.33   0
  -2   1 -30   87.32    7.52   0
  -7   1 -14  113.30    7.66   0
  -7   1 -11  107.02    7.44   0
  -5   0 -20  151.37    7.68   0
  -5   1 -27   26.41    7.05   0
  -1  -1 -21  260.95    8.59   0
  -7   1 -17   99.34    7.78   0
  -2  -1  -4 3006.08   23.81   0
  -7   1  -8  438.66   10.39   0
  -3   0 -27   62.83    7.58   0
   0  -1 -20  590.17   11.34   0
  -6   1 -25   46.67    7.03   0
  -3   1 -31   26.16    7.25   0
  -2  -1 -22  222.21    8.13   0
  -5   0 -23   48.99    8.10   0
  -4  -1 -15  140.87    8.00   0
  -4  -1 -12  540.45   10.38   0
  -4  -1 -18  357.98   10.22   0
   1  -1 -16 1357.36   17.60   0
  -6   0 -18   97.54    8.08   0
  -6   0  -9  198.02    7.74   0
  -2   0 -29   56.30    8.25   0
  -3  -1 -23   56.98    7.07   0
  -1  -1 -24  228.85    8.69   0
  -5   0  -2  950.34   14.06   0
  -4  -1 -21  161.06    8.80   0
  -2  -1 -25  121.98    8.01   0
   0  -1 -23   87.42    6.55   0
  -6   0 -21   80.57    7.90   0
  -5   0 -26  116.96    8.52   0
  -4  -1  -6  976.73   13.54   0
  -6   0  -6  267.49    8.54   0
  -3   0 -30   71.95    8.01   0
  -1  -2 -14 1172.64   14.46   0
  -5  -1 -16  273.29    9.27   0
  -2  -2 -15  171.69    7.56   0
  -3  -1 -26  136.92    8.92   0
  -2  -2 -12 1590.98   16.18   0
  -1  -2 -11  407.59    9.06   0
  -5  -1 -19   95.39    8.29   0
  -5  -1 -10  401.94    9.43   0
  -4  -1 -24   95.17    8.65   0
  -2  -2 -18  289.19    9.18   0
  -8   1 -15   30.10    6.78   0
  -8   1 -12  128.12    7.75   0
  -6   0 -24   85.50    7.45   0
  -3  -1  -2 1114.40   14.86   0
  -1  -1 -27   68.28    7.76   0
  -2  -2  -9  931.72   13.09   0
  -1  -2 -20  375.65    9.53   0
   0  -2 -16  562.09   10.91   0
  -3  -2 -16  548.38   10.83   0
  -2  -1 -28  121.54    7.95   0
  -7   0 -13  131.29    7.91   0
  -1  -2  -8 1897.73   18.09   0
  -5  -1  -7  317.26    8.52   0
  -4  -1  -3  308.49    8.81   0
  -3  -2 -19   72.65    6.87   0
  -3  -2 -10  498.32   10.45   0
   0  -2 -19  184.25    7.75   0
  -7   0 -19   22.55    7.20   0
  -7   0 -10  100.43    7.36   0
   0  -2 -10 3001.30   23.23   0
  -4  -1 -27   26.95    7.86   0
  -1  -2 -23   93.74    7.38   0
  -4  -2 -14  344.23    9.94   0
  -2  -2 -24  219.98    9.32   0
  -6  -1 -14  115.09    8.06   0
  -4  -2 -17  139.35    7.50   0
  -2  -2  -6  664.13   11.16   0
   0  -2 -22  489.37   10.83   0
  -3  -2  -7  309.46    8.29   0
  -6  -1 -20  131.55    8.31   0
  -6  -1 -11  106.73    7.60   0
  -4  -2 -20  186.42    9.53   0
  -5  -1  -4  661.68   11.93   0
  -2  -1 -31   29.30    6.61   0
   1  -2 -15  479.11   10.56   0
  -1  -2 -26  189.96    8.88   0
  -1  -2  -5 1875.92   18.58   0
   0  -2  -7  294.76    8.39   0
   1  -2 -18  720.69   12.85   0
  -6  -1  -8  464.20   10.84   0
  -4  -2 -23   61.76    7.33   0
  -2  -2 -27   24.40    7.26   0
   0  -2 -25  137.96    7.70   0
  -5  -2 -18  112.33    8.26   0
  -1  -3 -16  725.75   12.35   0
  -2  -3 -17  333.98    9.27   0
  -2  -3 -14  325.87    8.87   0
   4   3  -2  530.21   10.83   0
   8  -4  -9  130.48    8.15   0
   5   3  -1  170.41    8.93   0
   4   4   3  147.75    8.23   0
   5  -3 -10  469.82   11.40   0
   8   1  -2  101.72    7.57   0
   9  -4  -8  199.23    9.11   0
   9  -2  -7   80.68    8.03   0
   9  -1  -5   47.90    6.86   0
   3   3  -3  344.71    9.04   0
   5   1  -8  512.63   10.89   0
   6   0  -9  269.33    9.48   0
   6   1  -7  102.20    7.11   0
   7   0  -8  385.91   10.89   0
   2   0  -7  297.75    8.66   0
   5   2  -6  399.50   10.46   0
   8  -3 -10  148.38    8.48   0
   5   0 -10  523.67   10.52   0
   7   1  -6  118.60    7.75   0
   2   4   1  511.39   11.15   0
   3   0  -9 1185.35   15.19   0
   5  -2 -11  230.75    8.08   0
   6   2  -5  130.90    7.47   0
   7  -3 -11  111.00    7.81   0
   4   1  -9  322.89    9.36   0
   4   2  -7  212.48    7.87   0
   8   0  -7   78.86    7.88   0
   9  -3  -9   63.22    7.53   0
   2   2  -6  667.25   11.42   0
   4   4   0  397.99   10.47   0
   8   1  -5   54.03    7.96   0
   2   3  -4 1946.36   18.97   0
   5   3  -4  354.88    9.50   0
   1   2  -4 2977.81   24.59   0
   1   3  -2 1154.66   15.72   0
   3   4  -1  180.48    7.59   0
   8  -2 -11   60.71    7.73   0
   4   0 -11  567.48   10.80   0
   5   4   1  110.79    8.07   0
   6  -3 -12  443.85   11.08   0
   3   2  -8 1572.59   16.72   0
   6   3  -3  112.96    8.24   0
   6   1 -10  180.87    8.76   0
   9  -2 -10   97.68    7.39   0
   2   1  -8 1866.54   18.31   0
   5   1 -11  170.51    8.35   0
   6  -2 -13  264.00    9.30   0
   6   0 -12  346.55   10.15   0
   7   0 -11   64.03    6.87   0
   7   1  -9   96.52    7.47   0
   3   1 -10  788.02   12.17   0
   5   2  -9  274.02    8.84   0
   2   4  -2  722.15   12.61   0
   1   4   0 1203.43   16.37   0
   4   4  -3  141.07    7.95   0
   7  -1 -13  156.76    7.78   0
   7   2  -7   81.70    7.27   0
   3  -2 -10 1249.87   17.48   0
   4  -2 -12 1515.03   17.95   0
   4   2 -10  525.75   10.56   0
   5   0 -13  169.45    8.25   0
   8  -3 -13  103.83    7.93   0
   9  -3 -12  118.89    7.90   0
   3  -1 -11  383.47    9.40   0
   3   4  -4  442.34   10.44   0
   4   1 -12  734.58   11.89   0
   6  -1 -14  281.61    9.58   0
   6   3  -6   96.51    7.32   0
   4  -3 -11  311.21    9.84   0
   4  -1 -13  491.55   10.70   0
   7  -3 -14  263.57    9.87   0
   6   4  -1   32.12    6.19   0
   5  -3 -13  489.90   11.81   0
   5  -2 -14  298.06    9.48   0
   2   2  -9  925.83   13.23   0
   3   0 -12  911.05   13.03   0
   8  -2 -14   95.49    8.09   0
   1   3  -5  934.13   13.66   0
   6   1 -13  169.73    8.53   0
   7   1 -12  160.23    8.51   0
   2   0 -10 3185.65   24.38   0
   3   2 -11  240.20    8.19   0
   3   3  -9  333.75    9.43   0
   4   4  -6  189.72    8.78   0
   5   4  -5   82.10    7.87   0
   6   2 -11   58.06    7.25   0
   7  -2 -15   48.42    7.47   0
   2   4  -5  265.61    8.71   0
   5   2 -12  235.82    9.27   0
   7   0 -14   70.88    7.33   0
   4   0 -14  503.16   10.33   0
   5  -1 -15  216.24    8.07   0
   7   2 -10   90.75    7.98   0
   8   0 -13   59.84    7.01   0
   1   2  -7 1508.05   16.82   0
   5   1 -14  300.72    8.98   0
   5   3 -10  158.45    8.65   0
   6   0 -15   83.81    6.71   0
   1   4  -3  313.99    8.95   0
   3   4  -7  274.44    9.12   0
   3   5  -2  184.45    8.31   0
   6  -3 -15  123.61    7.76   0
   2   1 -11  404.46    9.17   0
   3   1 -13  549.29   10.52   0
   4   2 -13  299.57    9.54   0
   4   3 -11  124.11    7.83   0
   6  -2 -16  244.28    9.30   0
   7  -1 -16  164.55    8.68   0
   8  -1 -15   35.63    7.31   0
   4   1 -15  228.78    8.78   0
   5   4  -8  211.55    8.75   0
   2   3 -10  494.17   10.46   0
   2   5  -3  340.36    9.96   0
   4   4  -9  144.72    8.07   0
   6  -1 -17  156.31    8.56   0
   4   5  -4  249.81    8.88   0
   6   2 -14  112.13    7.97   0
   7   1 -15   49.59    7.22   0
   2   4  -8  604.36   11.44   0
   3   3 -12  488.64   10.74   0
   6   1 -16  166.03    8.66   0
   3   5  -5  139.96    7.66   0
   5   2 -15   48.14    7.83   0
   8  -2 -17   54.43    6.81   0
   1   1  -9 1103.79   14.71   0
   2   2 -12 1570.61   16.24   0
   3   2 -14  324.20    9.44   0
   4  -1 -16  696.87   12.40   0
   5   3 -13  131.19    8.30   0
   6   3 -12  138.65    8.04   0
   1   4  -6  983.96   14.03   0
   3  -1 -14 1056.56   14.52   0
   3   4 -10  308.60    9.43   0
   4  -2 -15  159.70    7.61   0
   5   1 -17  149.24    8.84   0
   7  -2 -18  153.10    8.62   0
   0   4  -1 1175.09   17.21   0
   5  -2 -17  309.19    9.70   0
   4   3 -14  255.23    9.29   0
   1   2 -10 1301.63   15.41   0
   3  -2 -13  466.24   11.09   0
   4   2 -16  246.78    9.08   0
   4   5  -7   55.26    7.81   0
   5  -1 -18  217.81    8.98   0
   5   4 -11   51.90    7.42   0
   2   0 -13 1122.16   14.85   0
   2   5  -6  314.42    9.37   0
   3   1 -16  692.75   12.03   0
   4   4 -12  227.60    9.09   0
   7  -1 -19   26.51    7.30   0
   3   5  -8  296.26    9.76   0
   4  -3 -14  589.95   12.99   0
   1   5  -4  635.41   12.09   0
   2   1 -14 1144.32   14.23   0
   2   3 -13  489.51   10.66   0
   2   4 -11  275.61    8.90   0
   5   0 -19  119.94    8.40   0
   6  -2 -19   54.15    7.03   0
   6   2 -17   60.55    7.56   0
   4   1 -18  213.53    8.25   0
   3   3 -15  140.73    7.27   0
   6   1 -19   20.92    6.96   0
   1   4  -9  615.90   11.35   0
   5   2 -18  172.60    8.93   0
   5   3 -16  123.36    7.80   0
   6  -1 -20  139.87    8.56   0
   0   4  -4 1324.06   16.79   0
   1   3 -11  296.15    8.20   0
   2   2 -15  152.83    6.97   0
   3   2 -17  332.65    9.85   0
   4   5 -10   73.59    7.43   0
   7   0 -20   96.86    7.42   0
   2   5  -9  117.80    6.85   0
   5   4 -14   54.05    7.01   0
   4   3 -17  121.69    7.61   0
   5   1 -20  139.49    8.40   0
   1   1 -12 1678.89   17.25   0
   1   5  -7  316.46    9.17   0
   3   5 -11   77.68    7.37   0
   4  -1 -19  117.89    7.55   0
   4   2 -19   69.13    7.66   0
   6   0 -21   82.44    7.35   0
   1   2 -13  459.09   10.07   0
   3  -1 -17  475.09   10.76   0
   7  -2 -21   79.25    7.18   0
   1   0 -11  427.98   10.24   0
   4   0 -20  295.95    9.01   0
   4  -2 -18  291.96    9.59   0
   5  -1 -21  117.43    8.05   0
   0   2  -8 2747.07   22.79   0
   2   3 -16  534.99   11.04   0
   3   1 -19  132.94    7.72   0
   5  -2 -20  299.14    9.88   0
   0   4  -7  265.54    8.27   0
   3   4 -16  204.64    8.66   0
   4   5 -13   94.72    7.57   0
   7  -1 -22   54.87    6.93   0
   2   1 -17  482.96   10.10   0
   2   5 -12  325.95    9.87   0
   3   3 -18  211.85    8.20   0
   5   3 -19   28.49    7.14   0
   0   3  -9  454.15    9.61   0
   4   1 -21  126.09    7.25   0
   5   0 -22  109.33    8.29   0
   5   2 -21   86.55    7.99   0
   1   3 -14  566.52   10.56   0
   1   5 -10  387.12    9.99   0
   3  -2 -16  992.39   15.28   0
   3   5 -14  104.79    7.61   0
   6  -2 -22  126.51    9.00   0
   0   5  -5  588.55   11.64   0
   2   2 -18  302.30    8.75   0
   3   2 -20  313.22    9.86   0
   4   3 -20   91.86    8.24   0
   2  -1 -15  500.77   10.94   0
   4   4 -18   75.00    7.35   0
   6  -1 -23   43.29    7.32   0
   0   4 -10 1054.29   14.21   0
   1   1 -15  516.03   10.66   0
   2   4 -17  119.29    8.22   0
   4   2 -22  141.35    8.47   0
   1   2 -16 1032.77   13.90   0
   2   6 -10  123.68    7.39   0
   6   0 -24   82.86    7.70   0
   0   2 -11 1696.03   17.53   0
   1   4 -15  138.09    7.58   0
   2   5 -15  122.38    8.13   0
   0   5  -8  557.85   11.26   0
   1   6  -8  436.78   10.84   0
   2   3 -19   72.17    6.46   0
   3   0 -21  221.32    8.81   0
   3   4 -19   83.12    8.02   0
   4  -1 -22  205.52    8.81   0
   0   3 -12 1424.25   15.88   0
   1   5 -13  158.38    7.22   0
   3   3 -21  105.76    8.10   0
   4   0 -23   84.37    7.95   0
   3  -1 -20  359.85    9.98   0
   3   5 -17   81.47    7.78   0
   1   3 -17  401.92    9.45   0
   2   1 -20  348.96    9.77   0
   0   1 -10 1462.47   16.96   0
   2   0 -19  183.30    7.98   0
   5  -1 -24  124.73    8.17   0
   4  -2 -21  278.52    9.50   0
   2   2 -21  292.74    9.55   0
   2   6 -13  136.07    7.57   0
   4   3 -23   25.44    7.16   0
   5   0 -25   52.32    7.74   0
   1   6 -11   98.63    7.06   0
   3   2 -23   30.08    6.44   0
   0   5 -11  174.67    7.20   0
   2   4 -20  156.06    8.73   0
   1   4 -18  359.21    9.68   0
   1   5 -16  258.26    9.24   0
   2   5 -18   87.63    7.40   0
   0   2 -14  963.94   13.14   0
   1   1 -18  728.80   11.78   0
   1   2 -19  240.01    7.96   0
   2  -2 -14  933.42   15.44   0
   2  -1 -18  736.76   12.93   0
   3  -2 -19  253.33    8.91   0
   4   2 -25   50.68    7.59   0
   0   3 -15  449.17    9.59   0
   2   3 -22  149.60    8.13   0
   3   4 -22   69.28    7.22   0
  -1   4  -5  947.62   14.52   0
   3   5 -20   73.76    7.14   0
   0   6  -9  197.46    7.79   0
   1   3 -20  318.39    9.71   0
   3   3 -24   88.67    7.71   0
   0   1 -13 1100.48   14.55   0
   1   6 -14  105.14    7.59   0
   2   6 -16  118.91    7.84   0
   3   0 -24  135.89    8.33   0
   0   4 -16  367.98    9.78   0
   0   5 -14  489.49   10.22   0
   3   1 -25  109.97    7.99   0
   4   0 -26   94.54    8.26   0
  -1   4  -8 1796.24   18.08   0
   1  -1 -13 1011.06   15.17   0
   4  -1 -25  116.56    8.00   0
  -1   5  -6  951.93   14.39   0
   2   0 -22  506.41   10.96   0
   3  -1 -23   85.45    7.30   0
   4   1 -27   33.13    7.53   0
   0   6 -12  435.89   10.47   0
   2   2 -24  178.55    8.12   0
   2   4 -23   48.33    7.68   0
   3   2 -26   70.71    7.50   0
   0   2 -17  238.69    8.07   0
   1   4 -21  142.74    8.49   0
   5  -1 -27   29.26    7.09   0
  -1   3 -10 1251.58   14.96   0
   0   3 -18  422.28    9.54   0
  -1   5  -9  574.68   10.78   0
   1   2 -22  232.79    9.06   0
   1   6 -17  108.48    7.37   0
   0   5 -17  193.50    8.37   0
   2   3 -25  110.19    7.44   0
   0   1 -16 1525.23   16.32   0
   0   4 -19   88.12    6.51   0
   1   3 -23   61.34    7.32   0
   2  -1 -21  252.42    8.93   0
   0   6 -15   93.25    7.31   0
   2  -2 -17  230.66    8.46   0
   3   3 -27   16.50    6.71   0
  -1   2  -9 1103.96   14.65   0
  -1   3 -13  444.49    9.66   0
  -1   5 -12  523.44   10.23   0
   3  -2 -22  237.30    9.56   0
  -1   4 -14  581.09   10.96   0
   1   0 -20  624.49   11.80   0
   1  -1 -16 1443.86   17.12   0
   3   0 -27   57.94    7.42   0
   7  -4  -4  439.25   10.49   0
   7  -3  -2  516.04   10.91   0
   7  -1   8  476.27   11.12   0
   8  -6  -4  305.31    9.80   0
   8  -3   2  204.73    8.77   0
   9  -3   9  118.11    7.77   0
   5  -5  -8  541.43   11.48   0
   6   0   9  194.60    8.00   0
   8  -2   7   80.95    6.80   0
   7  -5  -6  300.10    9.24   0
   4  -2  -6  681.85   11.42   0
   5  -2  -5  645.29   11.49   0
   7  -2   0  482.92   10.67   0
   4   1   6 1009.08   15.00   0
   5  -3  -7  319.92    9.05   0
   9  -5  -1  105.07    7.49   0
   9  -3   6  112.37    8.10   0
   4  -1  -4 2543.31   20.99   0
   5   0   2 1032.53   14.22   0
   7  -1   5  163.76    7.60   0
   8  -4  -3  149.41    8.20   0
   9  -4   1  111.89    8.51   0
   6  -3  -6  598.50   11.13   0
   8  -2   4  317.41   10.05   0
  10  -6   1   46.64    7.08   0
   6   0   6  280.52    8.79   0
   8  -7  -6  133.48    8.31   0
  10  -5   3   54.82    7.12   0
   3  -1  -5 1937.44   19.26   0
   5  -1  -3  764.11   11.78   0
   6  -2  -4  722.52   11.75   0
   8  -3  -1  164.86    7.76   0
   9  -8  -4   77.91    8.13   0
   3   1   2 1207.40   16.33   0
   5  -4  -9  590.89   11.52   0
   7  -3  -5  306.66    9.19   0
   6  -6  -9  185.01    8.18   0
   7  -4  -7  280.84    9.12   0
   9  -7  -5  113.95    8.22   0
   7  -1   2  210.89    8.67   0
   8  -6  -7   69.37    7.75   0
   9  -2  11   14.87    6.03   0
   4   0  -2 1432.70   15.85   0
   6  -1  -2  634.16   11.63   0
   9  -5  -4  237.50    9.30   0
   3   0  -3  491.43   10.21   0
   7  -2  -3  124.38    7.03   0
   8  -1   9  140.55    8.13   0
   9  -4  -2   85.68    7.32   0
  10  -6  -2   75.82    7.31   0
  10  -5   0  122.96    7.94   0
   4   1   3  322.02    9.13   0
   5   1   7  322.83    9.66   0
   6   0   3  304.39    8.66   0
   9  -2   8  109.93    7.96   0
   7  -5  -9  111.97    7.53   0
   8  -4  -6  178.31    7.89   0
   9  -6  -6  105.08    7.80   0
   6  -5 -10  364.25    9.97   0
   8  -3  -4  346.79    9.48   0
   8  -1   6  134.92    8.27   0
   9  -3   0  216.64    9.03   0
   3  -3  -9  439.04   10.54   0
   8  -5  -8  273.06    8.70   0
   5  -2  -8 1518.51   16.03   0
   7   0   7  103.03    7.18   0
   6  -3  -9  319.58    9.34   0
   6  -2  -7  220.66    7.73   0
   5  -1  -6  794.93   11.95   0
   5   1   4  665.79   12.29   0
   8  -2  -2  176.41    7.99   0
  10  -5  -3   50.62    6.98   0
   4  -1  -7  621.40   10.89   0
   6   0   0  756.42   12.55   0
   7  -3  -8  320.34    9.43   0
   9  -4  -5   86.53    7.89   0
   4  -2  -9  913.32   12.95   0
   5  -5 -11  164.83    7.82   0
   8  -1   3   73.81    7.46   0
   9  -7  -8   96.72    8.11   0
  10  -4  -1   55.82    7.04   0
   6  -1  -5  381.44    9.86   0
   7  -2  -6  379.73   10.18   0
   9  -2   2  128.05    8.17   0
   6  -4 -11  257.18    8.90   0
   7  -4 -10  297.81    9.48   0
   7   0   4  467.68   11.06   0
   9  -3  -3  118.22    8.01   0
   3   1  -1  774.48   12.51   0
   4   1   0 1298.07   15.88   0
   7  -6 -11  105.59    7.56   0
   8  -6 -10  129.47    8.19   0
   8  -3  -7  107.42    8.22   0
   4   0  -5  346.31    8.67   0
   5   0  -4  830.48   12.64   0
   8  -4  -9  132.88    8.37   0
   9  -6  -9  104.78    8.13   0
   3  -1  -8 1908.80   18.58   0
   4  -3 -11  296.18    8.81   0
   7  -1  -4  493.53   10.86   0
   8  -1   0  291.24    9.44   0
   5  -4 -12  500.01   11.00   0
   5   1   1  269.59    8.67   0
   6   1   5  166.38    8.30   0
   7  -5 -12  300.82    9.61   0
   7   0   1  165.86    8.23   0
   3   0  -6 2375.96   20.41   0
   8  -5 -11   78.68    7.48   0
   9  -4  -8  224.83    8.70   0
   3  -2 -10 1200.51   15.56   0
   6  -2 -10  504.78   10.33   0
   9  -3  -6   98.65    7.82   0
   9  -5 -10   61.91    7.67   0
   3   2   4 1830.57   21.00   0
   5  -2 -11  229.38    7.66   0
   5  -1  -9  327.74    8.50   0
   6  -5 -13  148.92    7.88   0
   6  -1  -8  526.23   10.65   0
   7  -3 -11  122.96    7.78   0
   7  -2  -9  291.10    9.50   0
   9  -1   4   84.18    7.78   0
   4   1  -3  752.91   12.39   0
   6   1   2  197.73    8.22   0
   8  -1  -3  115.50    7.62   0
   8  -3 -10  156.20    8.36   0
   9  -2  -4  135.65    8.22   0
   7  -4 -13  103.05    7.85   0
   7  -1  -7   96.34    7.37   0
   7   0  -2  123.64    7.13   0
   3   1  -4 2459.19   21.04   0
   5  -3 -13  475.05   10.56   0
   5   0  -7  535.03   10.25   0
   8  -2  -8  248.49    9.39   0
   8  -6 -13  116.09    7.72   0
   9  -6 -12   98.30    8.30   0
   9  -1   1   64.60    6.85   0
   4   0  -8 1252.52   14.62   0
   6   0  -6  318.02    9.22   0
   8   0   2  132.45    8.57   0
   9  -4 -11   51.74    7.24   0
   9  -3  -9   67.60    7.37   0
   6   1  -1  263.77    9.03   0
   2   0  -7  306.30    8.59   0
   4   2   2  774.20   13.36   0
   8  -1  -6  107.08    7.83   0
   3  -3 -12 1333.71   17.49   0
   8  -5 -14  103.76    8.04   0
   7   0  -5  177.12    7.66   0
   1   2  -7 1433.72   16.17   0
   2   2 -12 1559.03   16.27   0
   2   3  -4 1945.40   19.27   0
   3   2 -14  320.58    9.18   0
   4   3  -8  329.48    9.39   0
   4  -1 -22  187.84    8.35   0
   5   3  -7  107.61    8.06   0
   6   0 -21   86.66    7.34   0
   7   0 -20   96.84    7.87   0
   7   2 -10   78.71    6.80   0
   5   2 -15   47.14    6.28   0
   1   1 -12 1656.24   16.86   0
   3   3  -9  328.74    9.19   0
   6   2 -14  100.80    7.57   0
   4   2 -16  249.77    9.12   0
   5   0 -22  124.50    8.04   0
   6   1 -19   36.55    6.85   0
   2   3  -7  299.65    8.22   0
   4   3 -11  126.33    7.57   0
   5   1 -20  131.59    7.51   0
   6  -2 -25   52.20    7.40   0
   3   1 -19  129.41    6.94   0
   5  -1 -24  122.10    7.80   0
   5   3 -10  161.08    8.39   0
   1   2 -10 1278.15   14.89   0
   2   1 -17  481.33    9.90   0
   2   0 -19  179.02    7.47   0
   2   2 -15  176.69    7.67   0
   3  -2 -22  221.75    8.55   0
   3   2 -17  337.91    9.60   0
   4  -2 -24  176.13    8.40   0
   4   1 -21  122.68    8.17   0
   5   2 -18  161.83    8.65   0
   6   3  -9   49.68    7.39   0
   4   3 -14  274.23    9.28   0
   5   3 -13  104.89    7.81   0
   6   0 -24   74.02    7.38   0
   4   2 -19   58.00    7.73   0
   5  -2 -26   80.52    7.22   0
   1   1 -15  490.34    9.89   0
   1   3  -5  978.71   14.21   0
   1   3  -2 1195.14   16.62   0
   3  -1 -23   82.05    7.06   0
   6   1 -22   71.09    7.27   0
   1  -1 -16 1414.05   17.54   0
   1   2 -13  463.95    9.59   0
   4  -1 -25  117.47    8.07   0
   2   3 -13  508.67   10.71   0
   3   3 -15  146.11    7.81   0
   5   1 -23   45.85    7.14   0
   6   3 -12  140.99    8.12   0
   1   0 -17  744.80   12.46   0
   2  -1 -21  268.72    8.78   0
   3   1 -22  214.55    8.58   0
   2   1 -20  335.78    8.97   0
   2   2 -18  298.35    9.25   0
   3   2 -20  330.62    9.83   0
   3   4  -4  435.94   10.75   0
   5   3 -16  124.21    8.21   0
   3   4  -7  282.97    9.10   0
   5   2 -21   76.27    7.70   0
   3   0 -24  142.21    8.25   0
   5  -1 -27   33.34    7.15   0
   1   3 -11  306.63    8.61   0
   4   1 -24  132.48    7.75   0
   4   4  -9  130.32    7.72   0
   0   1 -10 1404.23   16.76   0
   2   0 -22  474.89   10.69   0
   2   4  -5  282.35    8.92   0
   3   4 -10  333.36    9.65   0
   4   2 -22  130.65    8.45   0
   1   2 -16 1012.32   13.32   0
   2   3 -16  538.63   10.55   0
   3   3 -18  226.36    9.12   0
   4   0 -26   91.16    7.66   0
   2   4  -8  615.05   11.79   0
   2   4  -2  709.42   13.53   0
   0   2  -8 2771.21   22.71   0
   4   4 -12  243.76    9.19   0
   1   3 -14  570.54   11.04   0
   3   4 -13  101.46    7.67   0
   0   0 -12 4046.28   29.29   0
   2   2 -21  296.02    9.25   0
   4   3 -20   93.05    8.10   0
   0   2 -11 1745.17   17.57   0
   3  -1 -26  171.29    8.34   0
   3   2 -23   31.67    7.48   0
   0   1 -13 1007.17   13.72   0
   1  -1 -19  199.19    7.80   0
   1   0 -20  590.26   11.37   0
   4  -1 -28   72.09    7.09   0
   2   3 -19   76.14    7.05   0
   1   2 -19  253.94    8.72   0
   3   3 -21  107.14    8.05   0
   5   4 -14   43.79    6.97   0
   1   4  -6  985.51   14.14   0
   3   4 -16  193.17    7.92   0
   4   2 -25   62.61    7.25   0
   1   4  -9  607.46   10.90   0
  -3  -3 -15  147.00    7.75   0
  -2  -1 -22  220.91    8.31   0
  -5  -2 -21   57.05    7.86   0
  -5  -1 -25   43.06    7.67   0
  -4  -3 -16  208.11    9.13   0
  -4  -3   2  479.90   10.72   0
  -2  -3 -14  310.68    8.45   0
  -6  -3  -9  104.22    8.31   0
  -6  -3  -6  117.25    7.75   0
  -1  -3  -7  603.92   10.97   0
  -3  -2 -22  178.47    8.91   0
  -2  -3   1  676.56   11.92   0
  -1  -2 -17  460.73   10.14   0
  -6  -3  -3   43.08    6.61   0
  -3  -3   3  360.51   10.05   0
  -1  -3 -10  793.46   11.96   0
  -1  -3  -4 2434.52   20.72   0
  -4  -2 -23   70.74    8.00   0
  -3  -3 -18  226.58    9.46   0
   0  -1 -14 1165.06   16.21   0
  -2  -2 -21  269.36    8.72   0
   0  -2  -7  305.81    8.63   0
;
_shelx_hkl_checksum              21119
loop_
_space_group_symop_operation_xyz
'x, y, z'
'-y, x-y, z'
'-x+y, -x, z'
'y, x, -z'
'x-y, -y, -z'
'-x, -x+y, -z'
'x+2/3, y+1/3, z+1/3'
'-y+2/3, x-y+1/3, z+1/3'
'-x+y+2/3, -x+1/3, z+1/3'
'y+2/3, x+1/3, -z+1/3'
'x-y+2/3, -y+1/3, -z+1/3'
'-x+2/3, -x+y+1/3, -z+1/3'
'x+1/3, y+2/3, z+2/3'
'-y+1/3, x-y+2/3, z+2/3'
'-x+y+1/3, -x+2/3, z+2/3'
'y+1/3, x+2/3, -z+2/3'
'x-y+1/3, -y+2/3, -z+2/3'
'-x+1/3, -x+y+2/3, -z+2/3'
'-x, -y, -z'
'y, -x+y, -z'
'x-y, x, -z'
'-y, -x, z'
'-x+y, y, z'
'x, x-y, z'
'-x+2/3, -y+1/3, -z+1/3'
'y+2/3, -x+y+1/3, -z+1/3'
'x-y+2/3, x+1/3, -z+1/3'
'-y+2/3, -x+1/3, z+1/3'
'-x+y+2/3, y+1/3, z+1/3'
'x+2/3, x-y+1/3, z+1/3'
'-x+1/3, -y+2/3, -z+2/3'
'y+1/3, -x+y+2/3, -z+2/3'
'x-y+1/3, x+2/3, -z+2/3'
'-y+1/3, -x+2/3, z+2/3'
'-x+y+1/3, y+2/3, z+2/3'
'x+1/3, x-y+2/3, z+2/3'
loop_
_atom_site_label
_atom_site_type_symbol
_atom_site_fract_x
_atom_site_fract_y
_atom_site_fract_z
_atom_site_U_iso_or_equiv
_atom_site_adp_type
_atom_site_occupancy
_atom_site_site_symmetry_order
_atom_site_calc_flag
_atom_site_refinement_flags_posn
_atom_site_refinement_flags_adp
_atom_site_refinement_flags_occupancy
Ba1 Ba 0.0000 0.0000 0.5000 0.01455(4) Uani 1 12 d S T P
Mg2 Mg 0.0000 0.0000 0.0000 0.01152(14) Uani 1 12 d S T P
O3 O 0.85374(12) 0.7075(2) 0.25774(7) 0.0283(2) Uani 1 2 d S T P
C4 C 0.0000 0.0000 0.26077(10) 0.0119(2) Uani 1 6 d S T P
loop_
_atom_site_aniso_label
_atom_site_aniso_U_11
_atom_site_aniso_U_22
_atom_site_aniso_U_33
_atom_site_aniso_U_23
_atom_site_aniso_U_13
_atom_site_aniso_U_12
Ba1 0.01277(5) 0.01277(5) 0.01812(7) 0.000 0.000 0.00638(2)
Mg2 0.0098(2) 0.0098(2) 0.0149(4) 0.000 0.000 0.00492(10)
O3 0.0370(5) 0.0110(3) 0.0284(4) 0.0044(3) 0.00219(16) 0.00550(16)
C4 0.0116(3) 0.0116(3) 0.0126(5) 0.000 0.000 0.00580(17)
loop_
_atom_type_symbol
_atom_type_description
_atom_type_scat_dispersion_real
_atom_type_scat_dispersion_imag
_atom_type_scat_source
C C 0.0033 0.0016 'International Tables Vol C Tables 4.2.6.8 and 6.1.1.4'
O O 0.0106 0.0060 'International Tables Vol C Tables 4.2.6.8 and 6.1.1.4'
Mg Mg 0.0486 0.0363 'International Tables Vol C Tables 4.2.6.8 and 6.1.1.4'
Ba Ba -0.3244 2.2819 'International Tables Vol C Tables 4.2.6.8 and 6.1.1.4'
loop_
_geom_angle_atom_site_label_1
_geom_angle_atom_site_label_2
_geom_angle_atom_site_label_3
_geom_angle
_geom_angle_site_symmetry_1
_geom_angle_site_symmetry_3
O3 Ba1 O3 180.00(4) 31 7_445
O3 Ba1 O3 57.14(4) 31 32_455
O3 Ba1 O3 122.86(4) 7_445 32_455
O3 Ba1 O3 122.86(4) 31 8_545
O3 Ba1 O3 57.14(4) 7_445 8_545
O3 Ba1 O3 180.0 32_455 8_545
O3 Ba1 O3 43.91(4) 31 33_435
O3 Ba1 O3 136.09(4) 7_445 33_435
O3 Ba1 O3 95.43(3) 32_455 33_435
O3 Ba1 O3 84.57(3) 8_545 33_435
O3 Ba1 O3 136.09(4) 31 9_565
O3 Ba1 O3 43.91(4) 7_445 9_565
O3 Ba1 O3 84.57(3) 32_455 9_565
O3 Ba1 O3 95.43(3) 8_545 9_565
O3 Ba1 O3 180.0 33_435 9_565
O3 Ba1 O3 95.43(3) 31 33_545
O3 Ba1 O3 84.57(3) 7_445 33_545
O3 Ba1 O3 43.91(4) 32_455 33_545
O3 Ba1 O3 136.09(4) 8_545 33_545
O3 Ba1 O3 116.88(4) 33_435 33_545
O3 Ba1 O3 63.12(4) 9_565 33_545
O3 Ba1 O3 84.57(3) 31 9_455
O3 Ba1 O3 95.43(3) 7_445 9_455
O3 Ba1 O3 136.09(4) 32_455 9_455
O3 Ba1 O3 43.91(4) 8_545 9_455
O3 Ba1 O3 63.12(4) 33_435 9_455
O3 Ba1 O3 116.88(4) 9_565 9_455
O3 Ba1 O3 180.0 33_545 9_455
O3 Ba1 O3 95.43(3) 31 32_445
O3 Ba1 O3 84.57(3) 7_445 32_445
O3 Ba1 O3 116.88(4) 32_455 32_445
O3 Ba1 O3 63.12(4) 8_545 32_445
O3 Ba1 O3 57.14(4) 33_435 32_445
O3 Ba1 O3 122.86(4) 9_565 32_445
O3 Ba1 O3 95.43(3) 33_545 32_445
O3 Ba1 O3 84.57(3) 9_455 32_445
O3 Ba1 O3 84.57(3) 31 8
O3 Ba1 O3 95.43(3) 7_445 8
O3 Ba1 O3 63.12(4) 32_455 8
O3 Ba1 O3 116.88(4) 8_545 8
O3 Ba1 O3 122.86(4) 33_435 8
O3 Ba1 O3 57.14(4) 9_565 8
O3 Ba1 O3 84.57(3) 33_545 8
O3 Ba1 O3 95.43(3) 9_455 8
O3 Ba1 O3 180.00(4) 32_445 8
O3 Ba1 O3 63.12(4) 31 7_345
O3 Ba1 O3 116.88(4) 7_445 7_345
O3 Ba1 O3 84.57(3) 32_455 7_345
O3 Ba1 O3 95.43(3) 8_545 7_345
O3 Ba1 O3 84.57(3) 33_435 7_345
O3 Ba1 O3 95.43(3) 9_565 7_345
O3 Ba1 O3 122.86(4) 33_545 7_345
O3 Ba1 O3 57.14(4) 9_455 7_345
O3 Ba1 O3 136.09(4) 32_445 7_345
O3 Ba1 O3 43.91(4) 8 7_345
O3 Ba1 O3 116.88(4) 31 31_655
O3 Ba1 O3 63.12(4) 7_445 31_655
O3 Ba1 O3 95.43(3) 32_455 31_655
O3 Ba1 O3 84.57(3) 8_545 31_655
O3 Ba1 O3 95.43(3) 33_435 31_655
O3 Ba1 O3 84.57(3) 9_565 31_655
O3 Ba1 O3 57.14(4) 33_545 31_655
O3 Ba1 O3 122.86(4) 9_455 31_655
O3 Ba1 O3 43.91(4) 32_445 31_655
O3 Ba1 O3 136.09(4) 8 31_655
O3 Ba1 O3 180.0 7_345 31_655
O3 Mg2 O3 180.00(5) 26_455 14_544
O3 Mg2 O3 86.06(5) 26_455 25
O3 Mg2 O3 93.94(5) 14_544 25
O3 Mg2 O3 93.94(5) 26_455 13_444
O3 Mg2 O3 86.06(5) 14_544 13_444
O3 Mg2 O3 180.00(5) 25 13_444
O3 Mg2 O3 86.06(5) 26_455 27_445
O3 Mg2 O3 93.94(5) 14_544 27_445
O3 Mg2 O3 86.06(5) 25 27_445
O3 Mg2 O3 93.94(5) 13_444 27_445
O3 Mg2 O3 93.94(5) 26_455 15_554
O3 Mg2 O3 86.06(5) 14_544 15_554
O3 Mg2 O3 93.94(5) 25 15_554
O3 Mg2 O3 86.06(5) 13_444 15_554
O3 Mg2 O3 180.00(6) 27_445 15_554
O3 Mg2 Ba1 44.665(16) 26_455 13_554
O3 Mg2 Ba1 135.335(16) 14_544 13_554
O3 Mg2 Ba1 97.96(3) 25 13_554
O3 Mg2 Ba1 82.04(3) 13_444 13_554
O3 Mg2 Ba1 44.666(16) 27_445 13_554
O3 Mg2 Ba1 135.334(16) 15_554 13_554
O3 Mg2 Ba1 135.335(16) 26_455 7_444
O3 Mg2 Ba1 44.665(16) 14_544 7_444
O3 Mg2 Ba1 82.04(3) 25 7_444
O3 Mg2 Ba1 97.96(3) 13_444 7_444
O3 Mg2 Ba1 135.334(16) 27_445 7_444
O3 Mg2 Ba1 44.666(16) 15_554 7_444
Ba1 Mg2 Ba1 180.0 13_554 7_444
O3 Mg2 Ba1 97.96(3) 26_455 13_444
O3 Mg2 Ba1 82.04(3) 14_544 13_444
O3 Mg2 Ba1 44.665(16) 25 13_444
O3 Mg2 Ba1 135.335(16) 13_444 13_444
O3 Mg2 Ba1 44.666(16) 27_445 13_444
O3 Mg2 Ba1 135.334(16) 15_554 13_444
Ba1 Mg2 Ba1 77.012(3) 13_554 13_444
Ba1 Mg2 Ba1 102.988(3) 7_444 13_444
O3 Mg2 Ba1 82.04(3) 26_455 7_554
O3 Mg2 Ba1 97.96(3) 14_544 7_554
O3 Mg2 Ba1 135.335(16) 25 7_554
O3 Mg2 Ba1 44.665(16) 13_444 7_554
O3 Mg2 Ba1 135.334(16) 27_445 7_554
O3 Mg2 Ba1 44.666(16) 15_554 7_554
Ba1 Mg2 Ba1 102.988(3) 13_554 7_554
Ba1 Mg2 Ba1 77.012(3) 7_444 7_554
Ba1 Mg2 Ba1 180.0 13_444 7_554
O3 Mg2 Ba1 44.666(16) 26_455 13_544
O3 Mg2 Ba1 135.334(16) 14_544 13_544
O3 Mg2 Ba1 44.666(16) 25 13_544
O3 Mg2 Ba1 135.334(16) 13_444 13_544
O3 Mg2 Ba1 97.96(3) 27_445 13_544
O3 Mg2 Ba1 82.04(3) 15_554 13_544
Ba1 Mg2 Ba1 77.012(2) 13_554 13_544
Ba1 Mg2 Ba1 102.988(2) 7_444 13_544
Ba1 Mg2 Ba1 77.012(3) 13_444 13_544
Ba1 Mg2 Ba1 102.988(3) 7_554 13_544
O3 Mg2 Ba1 135.334(16) 26_455 7_454
O3 Mg2 Ba1 44.666(16) 14_544 7_454
O3 Mg2 Ba1 135.334(16) 25 7_454
O3 Mg2 Ba1 44.666(16) 13_444 7_454
O3 Mg2 Ba1 82.04(3) 27_445 7_454
O3 Mg2 Ba1 97.96(3) 15_554 7_454
Ba1 Mg2 Ba1 102.988(2) 13_554 7_454
Ba1 Mg2 Ba1 77.012(2) 7_444 7_454
Ba1 Mg2 Ba1 102.988(3) 13_444 7_454
Ba1 Mg2 Ba1 77.012(3) 7_554 7_454
Ba1 Mg2 Ba1 180.0 13_544 7_454
C4 O3 Mg2 139.70(11) 1_665 7
C4 O3 Ba1 94.65(5) 1_665 13_554
Mg2 O3 Ba1 105.82(3) 7 13_554
C4 O3 Ba1 94.65(5) 1_665 13_654
Mg2 O3 Ba1 105.82(3) 7 13_654
Ba1 O3 Ba1 116.88(4) 13_554 13_654
O3 C4 O3 119.841(14) 1_445 2_655
O3 C4 O3 119.841(14) 1_445 3_565
O3 C4 O3 119.841(14) 2_655 3_565
O3 C4 Ba1 62.76(4) 1_445 13_444
O3 C4 Ba1 149.07(12) 2_655 13_444
O3 C4 Ba1 62.76(4) 3_565 13_444
O3 C4 Ba1 149.07(12) 1_445 13_554
O3 C4 Ba1 62.76(4) 2_655 13_554
O3 C4 Ba1 62.76(4) 3_565 13_554
Ba1 C4 Ba1 98.95(3) 13_444 13_554
O3 C4 Ba1 62.76(4) 1_445 13_544
O3 C4 Ba1 62.76(4) 2_655 13_544
O3 C4 Ba1 149.07(12) 3_565 13_544
Ba1 C4 Ba1 98.95(3) 13_444 13_544
Ba1 C4 Ba1 98.95(3) 13_554 13_544
loop_
_geom_bond_atom_site_label_1
_geom_bond_atom_site_label_2
_geom_bond_distance
_geom_bond_site_symmetry_2
Ba1 O3 2.9470(6) 31
Ba1 O3 2.9470(6) 7_445
Ba1 O3 2.9470(6) 32_455
Ba1 O3 2.9470(6) 8_545
Ba1 O3 2.9471(6) 33_435
Ba1 O3 2.9471(6) 9_565
Ba1 O3 2.9471(6) 33_545
Ba1 O3 2.9471(6) 9_455
Ba1 O3 2.9471(6) 32_445
Ba1 O3 2.9471(6) 8
Ba1 O3 2.9471(6) 7_345
Ba1 O3 2.9471(6) 31_655
Mg2 O3 2.0653(11) 26_455
Mg2 O3 2.0653(11) 14_544
Mg2 O3 2.0653(11) 25
Mg2 O3 2.0653(11) 13_444
Mg2 O3 2.0653(11) 27_445
Mg2 O3 2.0653(11) 15_554
Mg2 Ba1 4.03344(12) 13_554
Mg2 Ba1 4.03344(12) 7_444
Mg2 Ba1 4.03343(12) 13_444
Mg2 Ba1 4.03343(12) 7_554
Mg2 Ba1 4.03346(12) 13_544
Mg2 Ba1 4.03346(12) 7_454
O3 C4 1.2733(11) 1_665
O3 Mg2 2.0653(11) 7
O3 Ba1 2.9470(6) 13_554
O3 Ba1 2.9471(6) 13_654
C4 O3 1.2733(11) 1_445
C4 O3 1.2733(11) 2_655
C4 O3 1.2733(11) 3_565
C4 Ba1 3.3037(8) 13_444
C4 Ba1 3.3037(8) 13_554
C4 Ba1 3.3037(8) 13_544
