#------------------------------------------------------------------------------
#$Date: 2019-12-26 21:22:11 +0200 (Thu, 26 Dec 2019) $
#$Revision: 246100 $
#$URL: file:///home/coder/svn-repositories/cod/cif/2/31/17/2311747.cif $
#------------------------------------------------------------------------------
#
# This file is available in the Crystallography Open Database (COD),
# http://www.crystallography.net/. The original data for this entry
# were provided by IUCr Journals, http://journals.iucr.org/.
#
# The file may be used within the scientific community so long as
# proper attribution is given to the journal article from which the
# data were obtained.
#
data_2311747
loop_
_publ_author_name
'Ende, Martin'
'Effenberger, Herta'
'Miletich, Ronald'
_publ_section_title
;
 Evolution of the \a-BaMg(CO<sub>3</sub>)<sub>2</sub> low-temperature
 superstructure and the tricritical nature of its \a-\b phase transition.
;
_journal_issue                   'Pt 5'
_journal_name_full
'Acta crystallographica Section B, Structural science, crystal engineering and materials'
_journal_page_first              827
_journal_page_last               835
_journal_paper_doi               10.1107/S2052520617009295
_journal_volume                  73
_journal_year                    2017
_chemical_formula_sum            'C6 Ba3 Mg3 O18'
_chemical_formula_weight         845.01
_space_group_crystal_system      trigonal
_space_group_IT_number           167
_space_group_name_Hall           '-R 3 2"c'
_space_group_name_H-M_alt        'R -3 c :H'
_audit_creation_method           SHELXL-2014/7
_cell_angle_alpha                90
_cell_angle_beta                 90
_cell_angle_gamma                120
_cell_formula_units_Z            2
_cell_length_a                   5.01600(10)
_cell_length_b                   5.01600(10)
_cell_length_c                   33.5170(13)
_cell_measurement_reflns_used    9325
_cell_measurement_temperature    299(2)
_cell_measurement_theta_max      45
_cell_measurement_theta_min      1.5
_cell_volume                     730.32(4)
_computing_structure_refinement  'SHELXL-2014/7 (Sheldrick, 2014)'
_diffrn_ambient_temperature      299(2)
_diffrn_measured_fraction_theta_full 0.993
_diffrn_measured_fraction_theta_max 0.999
_diffrn_measurement_device_type  StoeStadiVari
_diffrn_radiation_type           MoK\a
_diffrn_radiation_wavelength     0.71073
_diffrn_reflns_av_R_equivalents  0.0307
_diffrn_reflns_av_unetI/netI     0.0127
_diffrn_reflns_Laue_measured_fraction_full 0.993
_diffrn_reflns_Laue_measured_fraction_max 0.999
_diffrn_reflns_limit_h_max       9
_diffrn_reflns_limit_h_min       -10
_diffrn_reflns_limit_k_max       10
_diffrn_reflns_limit_k_min       -9
_diffrn_reflns_limit_l_max       66
_diffrn_reflns_limit_l_min       -35
_diffrn_reflns_number            9325
_diffrn_reflns_point_group_measured_fraction_full 0.993
_diffrn_reflns_point_group_measured_fraction_max 0.999
_diffrn_reflns_theta_full        25.242
_diffrn_reflns_theta_max         45.519
_diffrn_reflns_theta_min         3.647
_exptl_absorpt_coefficient_mu    8.243
_exptl_absorpt_correction_T_max  0.8
_exptl_absorpt_correction_T_min  0.7
_exptl_absorpt_correction_type   numerical
_exptl_absorpt_process_details   '(Stoe & Cie GmbH 2016)'
_exptl_crystal_density_diffrn    3.843
_exptl_crystal_description       prismatic
_exptl_crystal_F_000             768
_exptl_crystal_size_max          0.060
_exptl_crystal_size_mid          0.030
_exptl_crystal_size_min          0.030
_refine_diff_density_max         0.537
_refine_diff_density_min         -0.523
_refine_diff_density_rms         0.113
_refine_ls_extinction_method     none
_refine_ls_goodness_of_fit_ref   0.953
_refine_ls_hydrogen_treatment    undef
_refine_ls_matrix_type           full
_refine_ls_number_parameters     17
_refine_ls_number_reflns         698
_refine_ls_number_restraints     0
_refine_ls_restrained_S_all      0.953
_refine_ls_R_factor_all          0.0213
_refine_ls_R_factor_gt           0.0100
_refine_ls_shift/su_max          0.000
_refine_ls_shift/su_mean         0.000
_refine_ls_structure_factor_coef Fsqd
_refine_ls_weighting_details
'w=1/[\s^2^(Fo^2^)+(0.0135P)^2^] where P=(Fo^2^+2Fc^2^)/3'
_refine_ls_weighting_scheme      calc
_refine_ls_wR_factor_gt          0.0209
_refine_ls_wR_factor_ref         0.0226
_reflns_Friedel_coverage         0.000
_reflns_number_gt                490
_reflns_number_total             698
_reflns_threshold_expression     'I > 2\s(I)'
_cod_data_source_file            xk5041sup1.cif
_cod_data_source_block           norse_299
_cod_original_sg_symbol_H-M      'R -3 c'
_cod_database_code               2311747
_shelx_shelxl_version_number     2014/7
_shelx_space_group_comment
;
The symmetry employed for this shelxl refinement is uniquely defined
by the following loop, which should always be used as a source of
symmetry information in preference to the above space-group names.
They are only intended as comments.
;
_shelx_estimated_absorpt_t_min   0.638
_shelx_estimated_absorpt_t_max   0.790
_shelx_res_file
;

    norse_299.res created by SHELXL-2014/7


TITL norse_100K_woo_a.res in R-3c
REM Old TITL norse_100k_woo in R-3c

REM SHELXT solution in R-3c
REM R1 0.027,  Rweak 0.000,  Alpha 0.038,  Orientation as input
REM Formula found by SHELXT:  C2 O6 Mg Ba

CELL  0.71073   5.0160   5.0160  33.5170   90.000   90.000  120.000
ZERR    2.000   0.0001   0.0001   0.0013    0.000    0.000    0.000
LATT  3
SYMM -Y, X-Y, Z
SYMM -X+Y, -X, Z
SYMM Y, X, 1/2-Z
SYMM X-Y, -Y, 1/2-Z
SYMM -X, -X+Y, 1/2-Z
SFAC C O MG BA
UNIT 12 36 6 6
L.S. 20
TEMP 26.85
SIZE 0.06 0.03 0.03
BOND $H
ACTA
LIST 4
FMAP 2
PLAN 20
REM EXTI    0.000000
WGHT    0.013500
FVAR       0.21749
BA1   4    0.000000    0.000000    0.250000    10.16667    0.00913    0.00913 =
         0.01358    0.00000    0.00000    0.00456
MG2   3    0.000000    0.000000    0.000000    10.16667    0.00708    0.00708 =
         0.01131    0.00000    0.00000    0.00354
O3    2    0.119309    0.826757    0.129178    11.00000    0.02526    0.02115 =
         0.02145   -0.00445   -0.00767    0.01918
C4    1    0.000000    0.000000    0.130350    10.33333    0.00867    0.00867 =
         0.01010    0.00000    0.00000    0.00434
HKLF 4

REM  norse_100K_woo_a.res in R-3c
REM R1 =  0.0100 for     490 Fo > 4sig(Fo)  and  0.0213 for all     698 data
REM     17 parameters refined using      0 restraints

END

WGHT      0.0135      0.0000

REM Highest difference peak  0.537,  deepest hole -0.523,  1-sigma level  0.113
Q1    1  -0.1310 -0.0518  0.1314  11.00000  0.05    0.54
Q2    1  -0.0002 -0.0787  0.2665  11.00000  0.05    0.47
Q3    1   0.2752  0.9024  0.1454  11.00000  0.05    0.35
Q4    1   0.1271 -0.1298  0.2768  11.00000  0.05    0.32
Q5    1   0.2861  1.0839  0.1115  11.00000  0.05    0.31
Q6    1  -0.0063  0.7264  0.1146  11.00000  0.05    0.31
Q7    1   0.0515  0.6298  0.1120  11.00000  0.05    0.27
Q8    1   0.2033  0.7591  0.1449  11.00000  0.05    0.26
Q9    1   0.2998  0.9581  0.1131  11.00000  0.05    0.26
Q10   1   0.0677  0.8729  0.1012  11.00000  0.05    0.26
Q11   1  -0.0217  0.7339  0.1499  11.00000  0.05    0.26
Q12   1   0.3478  0.8959  0.1292  11.00000  0.05    0.22
Q13   1  -0.0885  0.6026  0.1254  11.00000  0.05    0.20
Q14   1  -0.0349  0.6334  0.1007  11.00000  0.05    0.19
Q15   1   0.0647  0.5643  0.1435  11.00000  0.05    0.19
Q16   1  -0.1091 -0.0742  0.2993  11.00000  0.05    0.18
Q17   1   0.0856  0.7117  0.1597  11.00000  0.05    0.17
Q18   1   0.1153  0.1275  0.1496  11.00000  0.05    0.17
Q19   1  -0.1435 -0.0549  0.1865  11.00000  0.05    0.17
Q20   1   0.4297  1.1605  0.1323  11.00000  0.05    0.17
;
_shelx_res_checksum              64945
_shelx_hkl_file
;
   0   0  -6 1586.48   52.36   0
   0   5 -14  611.84   12.72   0
   0   2 -23   -0.23    9.45   0
   0   5   7   -0.98    4.66   0
   0   4  14  332.58    8.75   0
   0   5 -11    1.77    5.11   0
   0   2  16 2980.31   26.31   0
   2   2  33   -1.66    5.10   0
   0   5  -8  993.75   14.58   0
   0   5  -2  339.99    9.32   0
   0   3  15   -5.47    4.86   0
   0   4 -19    0.58    5.38   0
   0   4  11   -7.96    5.35   0
   0   5  -5   -1.16    4.61   0
   1   2  26  519.24   11.29   0
   1   4  21    5.40    5.31   0
   0   0  -9   -0.61    7.67   0
   2  -1  27   -0.75    6.40   0
   0   1  11   -1.07    5.17   0
   0   4   8 1540.99   16.60   0
   1   1  24 1797.05   21.60   0
   0   2  13    1.19    4.51   0
   0   4 -16 1563.61   20.50   0
   1  -2   0 3526.07   33.87   0
   2   1  31   -0.97    4.96   0
   1   4  18  727.16   11.45   0
   0   3 -21   -1.37    5.46   0
   0   4   5    2.75    4.62   0
   2   2  30  192.02    8.16   0
   0   4 -13   -4.20    5.20   0
   0   4   2 1384.52   16.30   0
   1  -2   3   28.80    5.93   0
   1   2  23    3.75    4.60   0
   0   3   9   -3.13    5.03   0
   2   0  29    1.40    5.11   0
   0   0 -12  254.80   15.63   0
   0   4  -4 1610.05   18.51   0
   1   4  15    3.00    4.64   0
   1   5 -13    7.17    5.30   0
   2   3  26  590.16   10.70   0
   0   2  10  199.13    8.47   0
   0   4  -7   -1.94    4.60   0
   1   5  -1    7.81    5.12   0
   0   1   8 9843.15   63.20   0
   1   3  19   15.71    4.87   0
   1   5 -10  475.97   10.20   0
   1   5  -7    4.47    5.19   0
   1   5  -4  764.55   12.54   0
   0   3   6 2012.41   20.75   0
   0   3 -18 1388.59   23.03   0
   1   4  12 1162.79   14.35   0
   1   1  21   20.69    5.38   0
   2   2  27    0.03    5.15   0
   3   2  31   -1.60    4.47   0
   2   1  28 1295.78   17.71   0
   3   0  33    3.31    5.74   0
   0   2   7    1.94    4.86   0
   0   3   3    0.12    4.69   0
   1   0  19   -1.02    5.02   0
   1   4   9   21.86    5.71   0
   1   3  16 2163.56   19.46   0
   3   1  32  843.61   13.92   0
   0   3   0 2651.59   24.20   0
  -2   3  31    3.08    5.07   0
  -2   4  27    3.21    5.64   0
  -1  -2  -2  676.04   23.48   0
  -1  -2   1   42.36    7.92   0
  -3   4  35    7.11    5.52   0
  -2   2  32  619.19   11.58   0
  -3  -2  20  609.98   11.39   0
  -3  -1  28  723.10   11.54   0
  -3   0  33    0.66    5.08   0
  -3   2  37    1.83    4.79   0
  -2  -2  15    0.85    5.14   0
   0   1  -7    0.52    4.70   0
  -4  -2  19   -1.48    4.90   0
  -3   1  35    1.32    4.94   0
  -3   3  36  801.69   12.67   0
  -2  -1  23   -2.12    5.31   0
  -2   0  28 1115.72   14.06   0
  -2   1  30  578.55   10.74   0
  -1  -1  15    5.53    4.31   0
  -1   0  20 1547.05   18.83   0
  -1   1  22  476.10   11.34   0
  -3  -2  17    2.88    5.07   0
   0   0  -6 1633.30   34.12   0
   0   1 -10 3597.53   33.67   0
  -1   2  21   17.22    5.39   0
  -4  -2  16  733.78   12.50   0
  -3  -1  25    1.76    4.31   0
  -2   2  29   -2.37    5.15   0
  -2   3  28 1350.98   17.74   0
  -3   0  30  578.19   10.33   0
   0   0  -9    0.62    5.21   0
  -3   2  34  576.64   10.53   0
  -2  -1  20 1503.29   17.38   0
  -2   0  25    1.93    4.65   0
   1  -1 -16 5118.60   50.79   0
  -1   4   7   11.87    5.84   0
  -1   5   3    2.99    6.21   0
  -4   1  13    8.13    8.59   0
  -1   0   5    0.30   10.84   0
   1   3 -11   27.58    6.76   0
  -4   5  18  374.83   10.92   0
   0   4  -1    4.09    6.17   0
   0   5  -8 1025.33   15.08   0
   1   4 -21    4.85    6.33   0
  -4   4  19   -1.45    6.22   0
  -3   4  17   -3.38    6.38   0
  -2   5  11    3.55    5.35   0
  -2   6   7   -0.65    6.31   0
   0   2   4 4873.15   39.82   0
   0   3   3   -3.21    6.45   0
   1   4 -18  400.07   11.10   0
  -3   5  16 1788.07   19.92   0
   1   1  -6 2022.62   33.46   0
  -4   6  17    1.94    5.94   0
   1  -1 -19   -0.52    5.68   0
  -1   5   6  396.44   10.31   0
   1   3  -8 2888.62   27.10   0
   1   4 -15   12.27    6.11   0
  -3   3  18 1284.90   21.81   0
  -1   3  11   18.86    5.67   0
   0   4   2 1431.21   17.72   0
  -3   6  15   -5.91    5.78   0
  -2   6  10  338.69    9.68   0
  -1   4  10 1153.00   15.99   0
   1   2  -4 3052.14   30.75   0
   1   4 -12  971.42   15.49   0
  -2   0   7   -0.69    5.90   0
  -2   3  16 1999.75   24.13   0
  -2   1  12 3722.71   76.53   0
   0  -1  -8 9999.99   63.77   0
   0   3   6 2086.55   22.42   0
  -4   5  21    3.22    5.52   0
  -1   5   9   23.78    5.34   0
   1   4  -9    5.02    5.79   0
  -3   5  19    3.67    5.92   0
  -1   2  12 3723.06   35.79   0
   0   4   5   -3.85    5.21   0
   0   5   1   -6.65    4.98   0
  -3   4  20  868.39   15.70   0
  -2   6  13    3.89    4.79   0
  -3   6  18  425.75   10.46   0
  -1   4  13    8.47    5.85   0
   0   2   7   -1.22    5.47   0
   1   4  -6  897.21   14.36   0
  -2   4  18 1069.96   16.24   0
  -1   3  14 1630.72   20.42   0
   0   1   5   -1.30    7.05   0
   1   1  -3   31.26    7.89   0
   1   2  -1   40.67    6.82   0
  -1   5  12 1135.33   15.16   0
   1   5 -13    7.59    5.81   0
   0  -1 -11   -0.39    5.39   0
   0   5   4 1170.89   14.77   0
   0   3   9    3.89    6.01   0
  -1   1  10 3437.55   49.39   0
   1   5 -10  473.56   10.45   0
   2   2 -21    2.50    6.30   0
  -4   6  23   -2.85    5.66   0
  -3   5  22  282.75    9.36   0
   1   3   1   28.76    6.38   0
   1   5  -7   -0.65    5.85   0
  -2   3  19    2.81    5.48   0
  -1   4  16 2109.71   20.85   0
   0   5   7    0.41    4.82   0
  -1   5  15   -1.93    4.97   0
  -3   3  21   -0.81    5.41   0
  -2   5  20  582.70   11.27   0
   1   2   2  686.36   14.15   0
   2   2 -15    2.63    6.12   0
   2   3 -19    8.45    5.80   0
  -2   2  17    0.62    5.47   0
   0   2  10  184.23    8.63   0
   0   4  11    3.13    5.88   0
   1   5  -4  733.61   12.21   0
   2   3 -16 1855.23   22.88   0
  -3   4  23   14.76    5.72   0
  -2   4  21    3.90    5.67   0
   0   3  12 1972.43   20.74   0
   1   3   4 1343.20   17.50   0
   0   5  10  705.42   11.65   0
   1   4   3   -5.84    5.40   0
   2   3 -13    4.16    5.83   0
   1   1   0 4001.49   40.84   0
   1   5  -1    2.54    5.05   0
   2   3 -10  753.20   14.21   0
  -3   5  25    2.31    5.44   0
   2   1 -20 1468.15   37.11   0
   0   4  14  324.11    8.90   0
   1   2   5    8.81    6.00   0
   2   1 -23    3.78   10.10   0
   2   2  -9   -1.13    5.19   0
   2   4 -14  285.61    9.42   0
  -2   5  23    4.97    4.99   0
   0   5  13    0.21    5.24   0
   1   4   6  384.12    9.95   0
   0   1   8 9666.92   65.34   0
   1   3   7   17.28    5.33   0
   2   1 -17   10.62    7.94   0
   2   3  -7    9.03    5.93   0
   2   4 -11    3.67    5.37   0
  -2   3  22  460.82   12.31   0
   0   3  15    3.16    5.10   0
  -2   4  24 1809.71   20.18   0
   0   2  13    0.08    4.77   0
   2   2  -6  845.07   15.85   0
   2   4  -8  865.88   14.09   0
  -3   2  19    0.23    7.61   0
   2   1 -14 1677.31   31.30   0
  -3   4  26  628.68   13.91   0
   1   4   9   14.28    5.96   0
   0   4  17   -5.51    4.79   0
   2   4  -5    2.79    5.49   0
   1   1   3   33.97    7.71   0
   1   2   8 3388.81   28.49   0
   1   3  10 1123.96   15.26   0
  -2   5  26  633.23   12.00   0
   2   2  -3   -0.06    5.32   0
   2   3  -1    0.95    5.58   0
   2   1 -11   21.14    6.67   0
   2   4  -2  612.72   11.83   0
  -3   3  24 1039.07   19.84   0
   1   0 -26 1075.51   21.86   0
   1   4  12 1180.34   14.89   0
  -2   2  20 3467.09   37.71   0
   2   4   1    2.15    5.13   0
   0   4  20 1262.82   15.68   0
   1   3  13   12.28    5.97   0
   2   1  -8 3416.31   37.55   0
  -2   4  27   -1.43    5.39   0
   0   2  16 2952.26   26.90   0
  -1   3  23    3.08    5.66   0
   1   2  11   13.17    6.26   0
  -1   4  25   -2.28    4.71   0
   1   0 -23    0.53    5.86   0
   2   4   4  890.36   13.42   0
  -2   3  25    8.26    5.85   0
  -2   5  29   -1.16    5.36   0
  -1   0   2 1930.62   42.99   0
   0   1  11   -1.84    6.79   0
   1   4  15    1.04    4.73   0
   1   1   6 1919.41   25.14   0
  -3   4  29    4.01    5.73   0
   2   1  -5    7.45    5.48   0
   2   2   3    0.88    4.97   0
   0   3  21   -0.03    4.79   0
  -3   1  11   16.44    8.03   0
   0   4  23    1.69    5.44   0
   1   3  16 2083.74   19.55   0
   1   0 -20 1531.95   30.49   0
   1   4  18  733.76   12.07   0
   2   3   8 2186.26   20.00   0
  -1   2  21   16.41    5.51   0
   1   2  14 1621.78   18.71   0
  -1   4  28  705.82   12.46   0
   0   2  19    0.96    5.60   0
   2   2   6  833.17   13.76   0
  -2   4  30  200.61    8.21   0
  -1   3  26  544.17   11.99   0
   3   3 -12  735.46   14.02   0
  -2   5  32  624.52   11.38   0
   1   0 -17    0.13    6.05   0
   1   1   9   38.68    7.06   0
   1   3  19   15.65    5.67   0
   2   3  11    9.06    4.73   0
   3   3  -9    5.39    5.54   0
  -3   3  27   -0.40    6.04   0
   3   3  -6  471.63   11.01   0
   1   4  21   10.16    4.71   0
   2   1   1   41.16    5.61   0
   2   2   9    2.11    4.75   0
   3   3  -3   -0.20    5.28   0
   0   1  14 1623.04   23.88   0
   1   2  17   11.62    5.75   0
   2   3  14  389.20    9.48   0
   3   2 -14  369.01   11.89   0
   3   2 -11    3.98    5.40   0
  -2   2  23    1.38    5.88   0
   1   0 -14 1599.53   42.72   0
   3   2  -8 2228.52   23.83   0
   3   3   0 1082.24   15.07   0
  -1   4  31    7.89    4.97   0
   3   2  -5   10.44    5.46   0
  -1   0  -1   -1.28    7.20   0
   1   3  22  366.02    8.98   0
   0   4  29    0.24    5.24   0
   2   1   4 2994.24   27.67   0
   2   2  12  777.50   12.68   0
   3   3   3    5.93    5.39   0
  -2   4  33   -0.55    5.51   0
  -1   2  24 1766.87   21.80   0
  -1   3  29    3.97    5.39   0
   1   1  12 3928.45   31.85   0
   3   2  -2  824.55   13.78   0
   2   3  17    4.52    5.36   0
   1   2  20 1474.23   17.29   0
   3   2   1    1.95    5.33   0
   3   3   6  445.64    9.91   0
   2   1   7    1.19    5.34   0
   1   3  25    0.25    4.49   0
   2   2  15    0.97    4.60   0
  -3   1  17    7.39    6.04   0
  -2   1   3   38.01    8.61   0
  -2   1   0 3765.36   44.93   0
  -2   1   6 1931.41   27.78   0
   0   0   6 1707.65   46.04   0
  -5   1  21    8.87    6.22   0
  -2  -1  38  344.63   10.29   0
   0  -2  38  267.60   10.18   0
  -4   1  22  352.97    9.75   0
  -2   1   9   52.94    8.24   0
  -2   1  -3   36.62    8.56   0
  -1  -1  36  892.76   15.47   0
  -2   1  12 4084.82   35.27   0
   1  -1 -10 3773.76   37.08   0
  -4   1  25    4.14    5.88   0
  -3   1 -13   23.66   10.76   0
   0   0   9   -0.72    7.31   0
   1  -2  33    5.66    6.43   0
  -1   0 -16 5005.77   57.01   0
   0  -1  31   -1.44    6.03   0
  -3   1  23   11.12    5.63   0
  -2   1  15    2.85    5.38   0
  -4   1  28  730.07   12.39   0
   0   0  12  252.67   14.54   0
  -3   1  26  553.26   12.07   0
  -2   0  34  282.90    9.14   0
  -2   1  18 1221.80   18.57   0
  -1  -1  39   -0.20    5.94   0
   1  -1  -7    1.53    6.76   0
   2  -2  22 1868.20   53.15   0
  -5   2   5   13.04    6.28   0
  -5   2   8 2257.50   22.38   0
  -5   2  11    2.63    6.15   0
  -4   1 -17    0.00    8.68   0
  -1   0  29    6.11    5.16   0
  -6   2   7   -1.94    5.86   0
  -6   2  10  365.56   10.31   0
   0   0  15    2.24    6.91   0
  -6   2   4  901.69   15.10   0
  -6   2  13    2.36    6.01   0
  -3   1  29    2.09    6.20   0
  -2   1  21   20.02    5.62   0
  -6   2   1   -1.15    6.05   0
  -5   2  -1    4.86    6.25   0
  -5   2  17    2.60    6.00   0
  -2   0  37    2.12    5.90   0
  -6   2  16  735.72   12.61   0
  -4   2   9   -4.35    5.27   0
  -6   2  -2  583.54   13.72   0
  -4   2   3   -0.65    5.78   0
  -4   2  12  763.78   13.70   0
  -5   2  20  594.14   11.46   0
  -4   2  15   -0.94    5.11   0
  -2   1  24 1785.58   20.46   0
  -1  -1  42  311.47    9.91   0
  -5   2  -4  715.02   15.63   0
  -3   1  32 1224.81   15.97   0
  -1   0  32 1743.30   20.52   0
   1  -1  23   -0.43    7.03   0
  -5   2  23    3.61    5.70   0
  -4   2   0 4171.13   35.18   0
  -4   2  18 1029.85   14.93   0
   3  -3  15   -1.75    6.30   0
  -4   2  21    0.23    5.84   0
  -2   0  40  844.97   13.99   0
  -2   1  27   -1.61    6.12   0
   1  -1  -4 2359.34   34.82   0
   0  -1  37   -2.10    5.51   0
  -2   0 -20 3423.93   46.39   0
  -5   2  -7    8.98    6.35   0
  -4   2  -3    3.20    5.52   0
  -4   2  24 1867.62   18.81   0
  -1   0  35   -2.83    5.87   0
  -4   2  27   -0.22    5.93   0
  -3   2  10 2019.26   23.02   0
  -3   2  13   24.72    6.72   0
  -3   2   7   -1.01    5.95   0
  -3   2  16 2111.07   21.80   0
  -2   0  43   -1.44    5.86   0
   1  -1  26 1113.57   23.46   0
   0   0  24 4379.77   38.10   0
  -3   2  19    4.34    5.40   0
  -4   2  30  214.59    7.72   0
  -3   2   4 2999.69   29.89   0
  -2   1  33    1.52    5.98   0
  -1   0  38  259.37    9.51   0
   0  -1  40  717.40   14.99   0
  -4   2  -6  807.41   18.66   0
  -3   2  22  476.36   10.90   0
  -1   1  13    1.68    5.64   0
  -1   1  10 3895.63   39.11   0
  -1   1  16 5231.23   40.14   0
  -4   2  33   -4.22    5.65   0
  -3   2  25    8.77    6.20   0
  -1   1  19    5.42    4.94   0
   0   0  27   -0.26    5.44   0
   1  -1  -1   -1.26    6.38   0
  -6   3   9    8.28    5.86   0
  -6   3  12  746.79   12.68   0
  -6   3  15   -0.90    5.08   0
  -2   1  36  935.57   14.50   0
  -1   1   7   -0.28    6.68   0
   2  -2  25    0.02    9.82   0
  -3   2  28 1343.63   16.62   0
  -1   1  22  430.88   11.98   0
   1  -1  29   -2.72    6.68   0
  -6   3   6  464.72   11.21   0
  -1   0  41   -1.44    5.56   0
  -5   3  10  686.49   12.59   0
  -5   3  19    8.99    5.07   0
  -6   3   3    4.37    5.70   0
  -5   3   7    7.99    5.87   0
  -5   3  22  312.44    8.78   0
  -3   2  31    9.47    4.97   0
   0   0  30  171.54    8.87   0
  -5   3  25    3.05    5.89   0
  -2   1  39    3.18    5.00   0
  -1   1   4 2391.41   36.65   0
  -5   3   4  726.54   14.15   0
  -1   1  28 1388.80   18.91   0
  -6   3   0 1025.77   16.67   0
  -4   2  -9    0.67    6.83   0
   1  -1  32 1698.57   26.51   0
   2  -2   7   -0.19    5.67   0
  -4   3  17   -3.12    5.82   0
  -2   1  42  325.50    9.71   0
   0   0  33   -2.42    5.54   0
  -5   3   1    3.77    5.70   0
  -4   3  14  660.57   12.31   0
  -4   3  20  884.77   13.46   0
  -2   1  -9   46.06   13.85   0
  -2   2  17    1.51    6.21   0
  -1   1  31   -3.72    6.13   0
  -4   3  11   36.27    5.70   0
  -4   3  23   16.36    5.22   0
  -2   2  14  351.72   10.46   0
  -6   3  -3    3.53    6.06   0
  -4   3  26  680.79   12.18   0
  -2   2  11    6.43    6.22   0
  -2   2  23   -5.99    5.27   0
  -4   3  29    5.93    5.73   0
  -1   1  34  953.21   15.07   0
   0   0  36  600.58   13.88   0
  -2   2   8 2120.50   25.25   0
   0  -1 -11   -2.15    3.55   0
   1  -1   2 1791.88   39.65   0
  -5   3  -2  817.51   15.88   0
  -4   3  32  887.34   12.87   0
   1  -1  35   -0.86    5.76   0
   2  -2  10  170.73   12.45   0
  -3   2  -5    6.00    6.54   0
  -2   0 -17    0.80    6.34   0
  -1   1   1   -1.94    8.94   0
  -1   1  37    1.41    5.70   0
  -6   4  14  291.66    9.20   0
   0   0  39    1.61    6.04   0
  -4   3   2  856.54   15.74   0
  -2   2   5    4.07    5.39   0
  -6   4  11    2.33    5.64   0
  -2   2  35    0.66    5.16   0
  -7   4   7    2.49    5.72   0
  -3   3  18 1312.08   16.66   0
  -3   3  21    4.84    5.02   0
  -1   1  40  785.28   14.08   0
  -6   4   8  846.53   14.06   0
  -3   3  15   -0.19    5.22   0
  -5   3  -5    5.13    5.83   0
  -5   4  21   11.54    5.80   0
  -3   3  27   -0.93    5.11   0
  -2   2  38  258.61    9.06   0
  -5   4  18  387.31    9.51   0
  -3   3  12 2527.98   23.69   0
  -3   3  30  325.87    9.44   0
   2  -2  13   -1.04    7.44   0
  -6   4   5    0.68    5.53   0
  -5   4  12  923.77   14.32   0
  -4   3  -1   24.77    6.03   0
  -3   3   9    6.90    5.87   0
  -3   3  33    0.04    4.81   0
  -2   2   2 5124.06   43.65   0
  -2   2  41    0.13    5.87   0
  -1   1  43   -3.74    5.48   0
  -5   4   9    1.48    5.09   0
  -4   2 -12  764.34   25.28   0
  -6   4   2  600.97   12.86   0
  -3   3   6  517.87   12.26   0
  -5   4   6  911.67   14.59   0
  -4   4  19   -0.21    6.04   0
  -4   4  22  742.75   12.31   0
  -4   4  25   -0.15    5.01   0
   0  -1  -8 9501.05   63.98   0
  -4   4  16 1587.43   18.04   0
  -4   4  28  603.33   11.09   0
  -5   3  -8 2198.26   29.53   0
  -1   2  21   13.10    6.28   0
   0   1  23   -5.11    5.43   0
   0   1  26 1193.80   19.19   0
  -4   3  -4 1345.51   21.65   0
  -4   4  13    1.83    5.83   0
  -1   2  18 1240.02   18.73   0
  -5   5   5    2.78    5.05   0
  -1   1  -5   -1.61    8.76   0
  -1   2  24 1812.44   20.82   0
  -2   3  10 1992.72   21.27   0
  -1   2  12 3805.76   32.67   0
  -6   5  -5    3.45    5.44   0
  -3   4  17    2.73    4.89   0
  -3   4  20  916.64   13.38   0
  -3   4  23   18.82    5.75   0
  -2   3  28 1311.02   16.31   0
  -1   2  27   -0.78    5.48   0
  -5   5   2  341.04    9.56   0
  -3   4  26  643.71   11.79   0
  -3   4  11   33.27    5.56   0
  -2   3   7    2.65    5.93   0
  -2   3  31    4.96    5.41   0
  -4   4  -5   -3.54    5.53   0
  -1   2   9   44.98    6.37   0
  -5   4 -12 1090.89   17.94   0
  -3   4   8 2714.64   23.09   0
  -1   2  30  590.19   12.72   0
   1  -2   3   31.32    5.24   0
  -3   4  32  861.41   13.04   0
  -2   3  34  626.33   11.95   0
  -2   4  42  387.97   10.47   0
  -1   5  51   10.78    6.99   0
  -1   6  23   -0.49    5.92   0
   0   6  48  158.36    8.46   0
   1   6  10  234.27    9.08   0
  -1   6  26  256.61    9.49   0
  -1   6  35   -4.56    7.11   0
   2   5   0  622.16   12.39   0
  -1   5  12 1155.58   14.52   0
  -1   6  29    7.43    6.02   0
   0   6  15   -2.12    5.73   0
   2   6  11   -1.09    6.72   0
  -2   4  39    4.40    5.19   0
  -1   4   7   16.29    4.85   0
  -1   5  48  143.02    8.26   0
   1   5   2  329.55    9.60   0
   3   6  15    2.74    6.53   0
  -2   2  23   -0.83    4.23   0
  -2   3  40  452.60   11.37   0
  -2   4  36  404.69   10.18   0
  -1   3   5    8.45    5.07   0
   0   6  18  288.99    9.46   0
   1   6  13   -4.37    5.55   0
  -2   4  27    5.34    5.44   0
  -2   4  30  197.96    8.16   0
  -2   4  33   -0.49    5.34   0
  -1   5  15    4.51    6.13   0
   0   6  42  136.45    8.57   0
   1   4  -3   25.70    5.60   0
   2   4  -5    1.60    4.92   0
   2   6  14  122.08    7.97   0
   3   6  18  201.72    9.64   0
  -2   2  35   -0.60    4.71   0
  -2   3  22  452.50   10.07   0
  -1   4  52  192.72    8.84   0
  -1   5  45   -2.05    6.55   0
   0   6  21   -8.11    6.54   0
  -2   2  29    1.53    4.70   0
  -2   2  32  620.49   13.22   0
  -2   3  37    3.51    5.06   0
   0   6  39    9.29    6.64   0
   3   6  21   -0.52    7.03   0
  -2   3  25    8.23    4.12   0
  -2   3  34  575.10   11.66   0
  -1   5  18  772.79   12.48   0
  -1   5  42  224.40    9.07   0
   0   5  52  175.50    8.91   0
   0   6  24  625.59   11.74   0
   0   6  27    1.15    7.33   0
   0   6  33   -3.85    7.44   0
   0   6  36  157.40    7.99   0
   1   6  43   -9.57    7.18   0
   2   5   3    2.93    5.96   0
   2   6  17  -10.08    7.08   0
  -2   3  28 1359.11   16.86   0
  -2   3  31    1.44    5.11   0
  -1   4  10 1145.06   14.56   0
   0   6  30  147.61    7.82   0
   1   5   5    7.23    5.70   0
   3   6  24  192.09    9.10   0
  -1   4  49   -2.86    6.37   0
  -1   5  21    9.40    6.38   0
  -1   5  39    2.76    6.73   0
   0   5  10  698.04   12.22   0
   1   6  22  146.51    8.79   0
   1   6  40  213.51    8.96   0
   2   6  20  201.21    9.32   0
   3   6  27    1.47    6.23   0
   0   5  49   -8.80    6.88   0
   1   6  37   -2.91    6.93   0
  -1   5  24  696.26   11.73   0
   0   4  56   68.97    7.45   0
   1   6  25   -4.08    6.01   0
   1   6  28  169.84    8.77   0
   1   6  31   12.05    7.14   0
   1   6  34  183.26    9.11   0
   2   6  32  202.84    9.29   0
   2   6  35   -1.90    6.95   0
  -1   3   8 3310.60   25.20   0
  -1   4  13    3.33    5.48   0
  -1   5  27    3.39    5.48   0
  -1   5  30  177.09    8.43   0
  -1   5  33   -3.08    5.54   0
   1   3  -5    5.50    3.73   0
   2   5   6  440.74   10.76   0
   2   6  29    4.89    6.55   0
   3   5   7    2.03    6.13   0
  -1   4  46   86.19    7.22   0
   0   5  13   -6.54    5.14   0
   0   5  46   79.41    7.89   0
   1   4   0 1414.31   16.73   0
   1   5   8  835.17   13.07   0
   2   4  -2  601.13   11.90   0
   0   4   5    1.91    5.09   0
   1   5  50   82.61    7.87   0
   2   3  -7   10.84    4.79   0
  -1   4  16 2119.52   19.29   0
  -1   4  43    7.54    5.83   0
   0   4  53   -0.08    6.13   0
   0   5  16  717.23   11.80   0
   4   5  14   82.42    7.60   0
   2   5   9    7.14    6.20   0
   3   5  10  208.78    8.87   0
  -1   3  11   17.80    5.18   0
  -1   4  40  468.57   11.05   0
   0   5  19   -0.84    5.94   0
   4   5  17    2.03    6.62   0
  -1   3  47    1.80    5.64   0
  -1   4  19   14.03    4.95   0
  -1   4  37    6.07    5.99   0
   0   4   8 1506.16   16.30   0
   0   4  50  166.22    8.31   0
   0   5  22  255.94    8.30   0
   0   5  37    7.33    5.76   0
   1   5  44  168.03    8.75   0
   3   5  13   -4.66    6.30   0
   4   5  20  137.05    8.22   0
  -1   4  22  365.03    8.97   0
   0   5  25   -8.96    5.52   0
   0   5  28  651.96   12.27   0
   0   5  31    2.43    6.30   0
   0   5  34  277.22    8.92   0
   1   4   3   -2.39    4.42   0
   2   4   1    0.66    5.11   0
   2   5  12  396.11    9.76   0
   2   5  45    4.96    7.04   0
  -1   4  25    0.44    5.33   0
  -1   4  34  536.18   10.63   0
   0   3   3   -0.92    4.60   0
   1   4  54   62.54    7.14   0
   4   5  23   -1.42    6.90   0
   4   5  26  161.50    8.77   0
  -1   3  44  333.78    9.84   0
  -1   4  28  683.58   11.59   0
   0   3  54   82.89    8.18   0
   1   5  17    3.86    5.54   0
   1   5  41   -4.66    6.70   0
   2   5  15    8.24    6.50   0
   3   5  16  438.63   11.03   0
   4   5  29   11.17    6.95   0
  -1   3  14 1610.68   17.41   0
   0   4  47    6.12    6.69   0
   1   3  -2  831.28   13.64   0
   1   5  38  145.91    8.80   0
   2   5  42   97.44    8.15   0
   3   4   2  241.69    8.60   0
   0   4  11    4.03    4.50   0
   1   5  20  508.78   10.51   0
   3   5  19   -4.91    7.04   0
   3   5  37    0.14    6.89   0
  -1   3  41   -1.49    5.56   0
   1   3  58  105.58    8.31   0
   1   4  51   -0.25    6.86   0
   1   5  23   -6.29    6.63   0
   1   5  35    4.10    6.01   0
   2   5  39    5.38    6.60   0
   3   5  22  139.15    8.36   0
   3   5  34  133.60    8.48   0
   0   4  44  428.39   11.00   0
   1   5  26  253.66    8.67   0
   1   5  29    9.26    5.85   0
   1   5  32  414.80   10.15   0
   2   3  -4  696.76   12.86   0
   2   5  36  174.57    8.92   0
   3   5  31   -6.25    6.94   0
   4   4   6  191.92    8.93   0
  -1   3  17   10.69    4.53   0
   0   3  51    6.80    7.17   0
   2   4   4  896.53   13.66   0
   2   5  24  450.74   11.02   0
   2   5  33    5.79    7.08   0
  -1   3  38  308.57    8.75   0
   0   4  14  310.44    8.44   0
   2   4  52  113.93    7.64   0
   2   5  27    2.99    6.07   0
   2   5  30  187.21    8.25   0
  -1   3  20 1485.65   16.86   0
   0   4  41   -2.37    5.42   0
   1   4  48  137.51    8.25   0
   3   4   5   13.75    5.47   0
  -1   2  42  311.97    9.43   0
  -1   3  35   -2.63    4.51   0
   0   3   6 1966.23   19.39   0
   0   4  17    4.46    5.62   0
   5   4  16  300.16   10.02   0
  -1   3  32 1183.68   15.35   0
   1   3  55    4.04    6.42   0
   4   4   9   -0.88    5.75   0
  -1   3  29    2.56    5.19   0
   0   3  48  354.10   10.15   0
   0   4  20 1311.54   15.60   0
   0   4  35    0.86    6.27   0
   2   4   7    5.12    5.54   0
   5   4  19    3.19    6.41   0
   1   3   1   22.95    4.50   0
   3   3  -3    4.01    5.23   0
   3   4  47   -3.25    7.46   0
   5   4  22   92.77    7.73   0
  -1   2  39    4.51    4.82   0
   0   4  23    1.20    5.08   0
   0   4  29    0.94    5.70   0
   0   4  32  488.32   10.43   0
   2   4  46  116.81    8.43   0
   3   4   8  563.56   11.59   0
   4   4  12  255.36    9.38   0
   5   4  25    5.92    6.34   0
   5   4  28   92.33    7.93   0
   1   4  12 1100.29   14.09   0
   2   3  56  107.44    8.08   0
   0   3   9    1.41    4.21   0
   0   3  45   -0.35    6.13   0
   1   3  52  194.43    8.89   0
   2   3  -1    3.90    4.70   0
   2   4  10  351.39    9.62   0
  -1   2  36  911.47   14.38   0
   1   4  39    1.01    6.44   0
   2   4  43    1.74    6.95   0
   3   4  11    2.62    6.16   0
   4   4  15    3.65    6.31   0
   4   4  39   -4.88    6.76   0
   1   4  15   -2.15    5.04   0
   2   2  60  105.88    8.32   0
  -1   2  33    6.25    4.81   0
   0   2  49    0.70    6.35   0
   0   3  42  248.16    8.97   0
   1   2  56  190.35    8.74   0
   1   4  36  508.15   11.21   0
   2   3  53    0.23    7.08   0
   3   4  41    2.35    7.20   0
   4   4  18  219.19    8.86   0
   4   4  36  130.16    8.06   0
  -1   2  21   17.03    4.85   0
   1   3  49   -0.81    6.42   0
   1   4  18  743.61   11.97   0
   2   4  40  263.21    8.95   0
   3   4  14  380.27   10.28   0
   4   4  21    2.88    6.93   0
   4   4  33    2.05    6.69   0
  -1   1  37    0.35    4.57   0
  -1   2  24 1741.13   19.13   0
  -1   2  30  618.66   11.97   0
   0   3  12 2018.86   19.18   0
   1   4  21   12.02    6.26   0
   1   4  30  197.12    8.58   0
   1   4  33    6.27    5.66   0
   3   4  38  148.05    8.91   0
   4   3   1    7.32    5.36   0
   4   4  24  348.74   10.35   0
  -1   2  27   -1.54    3.88   0
   0   3  39    0.67    5.97   0
   1   4  24  698.66   11.82   0
   1   4  27    5.71    5.58   0
   2   4  37   -1.87    5.95   0
   3   3   0 1069.59   15.24   0
   3   4  17    9.76    6.63   0
   2   4  34  192.50    9.00   0
   3   4  35   -3.62    6.42   0
   0   2  46  265.30    9.73   0
   0   3  15    2.85    5.18   0
   1   3  46   88.92    7.58   0
   2   3   2  831.83   13.32   0
   2   3  50  174.73    9.09   0
   2   4  19   -2.94    5.32   0
   2   4  31    5.36    6.95   0
   3   4  32  290.64    9.22   0
   6   3  18   93.05    7.75   0
   0   3  36  544.64   10.75   0
   1   2  53    0.66    6.06   0
   2   2  57   -1.70    6.79   0
   2   4  22  361.56    9.36   0
   2   4  25    2.59    6.25   0
   2   4  28  482.32   11.16   0
   3   4  26  157.02    7.77   0
   3   4  29    8.32    6.01   0
   5   3   8  492.96   11.68   0
   6   3  21    3.52    6.16   0
   6   3  24  212.26    9.13   0
   6   3  27   -1.44    6.84   0
   3   2  58   96.05    7.55   0
  -1   1  31   -1.15    4.61   0
   0   3  18  549.83   10.61   0
   1   3   7   18.47    4.57   0
   4   3   4  661.62   12.51   0
   0   3  21    2.29    5.34   0
   0   3  30  581.53   11.33   0
   1   3  43    0.57    5.55   0
   3   3   3    4.84    5.32   0
   3   3  48  145.85    8.20   0
   4   3  46   69.81    7.70   0
  -1   1  28 1297.08   18.44   0
   0   2  43    5.96    5.54   0
   0   3  27    0.34    4.79   0
   5   3  11    5.56    6.00   0
   1   2  50  185.70    8.50   0
   2   2  54   44.66    7.20   0
   5   3  38   56.45    7.78   0
   1   3  10 1146.94   14.95   0
   2   3   5   12.08    4.36   0
   3   2  55   -1.05    6.91   0
   3   3  45   -2.78    6.98   0
   4   3  43    5.37    7.21   0
   5   3  35   -3.02    6.41   0
  -9   3  18  197.94   10.99   0
  -9   4   2  192.18   10.53   0
  -7   4   7   -5.48    7.77   0
  -6   1  35    2.18    8.79   0
  -6   3  21    9.99    7.49   0
  -6   4  -7    2.68    6.06   0
  -6   4  -4  917.19   15.97   0
  -6   4  -1   -4.28    6.70   0
  -5  -1  41    1.12    7.40   0
  -4   3   8 2618.53   24.44   0
  -3   2  16 2135.86   22.09   0
  -8   3  22  134.07   10.23   0
  -8   4   9   10.18    8.60   0
  -7   3  23    6.72    8.29   0
  -6   0  39   -3.35    7.89   0
  -6   4 -10  349.80   11.33   0
  -6   4   2  616.71   13.30   0
  -4   2  24 1799.55   19.73   0
  -9   4   5    6.98    8.42   0
  -8   2  29   -9.24    8.22   0
  -7   0  38   26.03    8.29   0
  -2  -1  35    1.22    6.39   0
  -6   2  31   -2.88    7.07   0
  -6   4   5    6.50    6.95   0
  -5   2  29   -3.44    6.61   0
  -5   3  19   -2.45    7.39   0
  -4   0  38  125.39    9.03   0
  -9   3  21    3.56    8.62   0
  -9   4   8  402.06   12.04   0
  -5   0  40  195.34   10.54   0
  -5   1  36  499.21   12.75   0
  -4   3  11   31.77    5.89   0
  -2   1  21   13.74    5.22   0
  -6   3  24  603.72   13.34   0
  -3   1  29    6.50    5.47   0
  -9   4  11   -3.09    8.59   0
  -8   3  25    1.41    7.98   0
  -7   1  37   -3.13    8.08   0
  -7   2  33   -3.52    8.31   0
  -7   3  26  176.87   10.31   0
  -4   1  34  541.19   12.81   0
  -3   2  19    0.64    5.37   0
  -8   2  32  188.77   10.58   0
  -6   1  38  130.72   10.07   0
  -4   2  27   -3.44    6.81   0
  -3   0  36  530.60   12.81   0
  -1  -1  30  563.41   13.99   0
  -9   3  24  203.76   10.43   0
  -5   3  22  304.66   10.40   0
  -4   3  14  664.27   12.71   0
  -2   0  31    0.53    5.83   0
  -6   0  42  143.53    9.56   0
  -5   2  32  722.41   14.20   0
  -8   3  28  176.43   10.49   0
  -8   4  18  198.81   10.86   0
  -6   3  27    9.15    7.66   0
  -7   3  29    8.35    9.01   0
  -6   4  14  287.30   10.73   0
  -9   3  27   -0.38    8.32   0
  -7   1  40  221.49   11.00   0
  -7   4  19   -4.23    8.06   0
  -5   1  39   10.64    7.81   0
  -5   4  -3   -0.73    5.75   0
  -5   4   0 1487.27   19.32   0
  -4   0  41   -3.01    7.09   0
  -4   3  17   -1.13    6.55   0
  -3   2  22  480.78   11.68   0
  -8   2  35    6.68    7.47   0
  -8   4  21   -0.50    8.88   0
  -5   0  43   -1.07    7.53   0
  -5   3  25   -0.79    7.00   0
  -5   4  -6  360.93   11.08   0
  -5   4   3   19.58    6.63   0
  -3   1  32 1142.00   16.82   0
  -9   4  20  131.97    9.95   0
  -6   1  41    3.49    7.88   0
  -6   4  17    1.41    7.17   0
  -5   4   6  882.45   14.85   0
  -4   1  37   -6.16    7.13   0
  -4   2  30  186.64    8.69   0
  -8   3  31    3.83    8.37   0
  -6   3  30  209.78   10.38   0
  -5   4  -9   15.00    5.96   0
  -7   3  32  307.18   11.50   0
  -7   4  22  189.40    9.31   0
  -3   0  39    0.66    6.53   0
  -8   4  24  333.45   11.96   0
  -8   5  -4  267.69   11.17   0
  -8   5  -1   -1.26    6.97   0
  -8   5   2  244.15   10.55   0
  -6   0  45   -3.58    8.50   0
  -4   3  20  910.48   14.40   0
  -9   4  23    3.11    8.41   0
  -9   5   1    3.88    7.98   0
  -9   5   4  143.13    9.54   0
  -8   5   5    5.16    7.55   0
  -7   2  39    1.40    8.50   0
  -6   4  20  702.91   13.22   0
  -3   2  25   -0.96    6.41   0
  -2   0  34  269.49    9.89   0
  -9   5   7    3.23    7.75   0
  -8   5   8  488.46   12.78   0
  -7   1  43    6.35    8.79   0
  -5   4  12  943.87   14.70   0
  -8   3  34  133.98    9.82   0
  -7   4  25   -3.80    7.27   0
  -5   1  42  217.96   10.26   0
  -2   1  27   -0.96    5.50   0
  -2   2  11    2.08    4.98   0
  -1  -1  33    5.88    5.91   0
  -1   0  26 1165.23   18.70   0
  -9   5  10  154.17   10.21   0
  -8   4  27   -6.77    8.40   0
  -8   5  11    5.37    8.41   0
  -7   3  35    3.61    8.58   0
  -7   5  -3    5.49    6.77   0
  -7   5   3    1.19    6.71   0
  -6   3  33   -2.34    6.95   0
  -3   1  35   -3.91    6.54   0
 -10   5   3   -5.77    6.79   0
  -9   4  26  157.37    9.53   0
  -9   5  13   -4.69    8.81   0
  -7   5   6  171.11    9.33   0
  -6   1  44  159.07   10.17   0
  -6   2  40  267.14   11.21   0
  -6   4  23   -1.62    6.70   0
  -5   0  46   75.35    8.22   0
  -5   2  38  100.11    9.02   0
  -5   4  15   21.54    6.19   0
  -4   1  40  444.16   12.12   0
  -4   3  23   16.59    6.05   0
  -3   3   6  515.69   11.92   0
 -10   5   6   72.63    8.19   0
  -8   5  14  167.06    9.96   0
  -7   5  -6  440.93   12.04   0
  -7   5   9    1.35    7.30   0
  -7   4  28  381.47   11.54   0
  -5   3  31   -1.80    6.51   0
  -3   3   9    1.76    4.93   0
  -2   2  14  349.84   10.29   0
  -9   5  16  356.76   12.22   0
  -8   3  37    2.27    8.65   0
  -8   4  30  102.70    9.98   0
  -7   2  42   86.34    8.87   0
  -7   5  12  521.17   12.86   0
  -5   4  18  393.37   10.47   0
  -3   2  28 1302.66   16.99   0
  -9   4  29   -8.23    7.99   0
  -6   3  36  333.63   11.33   0
  -6   4  26  382.45   10.88   0
  -3   0  42  243.74    9.99   0
  -7   3  38  129.92    9.60   0
  -4   2  36  379.13   10.86   0
  -4   3  26  688.36   12.92   0
  -3   3  12 2492.48   23.35   0
  -8   5  20  247.97   10.71   0
  -7   4  31   -7.25    8.45   0
  -5   1  45    2.65    7.59   0
  -5   4  21   16.69    6.91   0
  -2   0  37   -4.63    6.06   0
  -2   1  30  581.11   12.69   0
  -6   2  43   -2.18    8.23   0
  -5   2  41    3.72    8.03   0
  -5   3  34  447.85   12.15   0
  -3   1  38  338.28   10.80   0
  -2   2  17    1.14    4.86   0
  -8   4  33    2.20    8.12   0
  -6   1  47    1.23    7.82   0
  -6   4  29   -2.08    7.75   0
  -6   5   1    5.04    6.56   0
  -6   5   4  780.03   14.43   0
  -6   5   7   -2.10    6.88   0
  -4   1  43   -1.97    6.77   0
  -3   3  15    2.79    5.22   0
  -8   5  23   -1.71    8.24   0
  -6   5  -2  334.55   10.76   0
  -6   5  10  478.34   11.98   0
  -1   0  29    0.56    5.02   0
  -7   2  45    2.40    7.61   0
  -7   5  21   -2.57    7.59   0
  -6   5  -5   -4.14    6.60   0
  -5   4  24  943.86   15.24   0
  -4   3  29    6.86    6.05   0
  -4   4   1    2.58    5.69   0
  -4   4   4 1535.03   19.11   0
  -9   5  25    8.77    8.09   0
  -7   4  34  170.45   10.33   0
  -4   4  -2 1342.45   18.77   0
  -3   3  18 1339.03   17.43   0
  -2   2  20 3471.70   27.95   0
  -8   5  26  183.70   10.77   0
  -4   2  39   -6.11    6.92   0
  -4   4  10  401.28   10.39   0
  -8   4  36  140.66   10.18   0
  -7   5  24  345.91   11.78   0
  -6   4  32  386.56   11.07   0
  -6   5  16  663.09   13.57   0
  -6   2  46   94.98    8.86   0
  -5   1  48  132.45    9.02   0
  -5   2  44  227.98   10.76   0
  -5   4  27   -7.91    7.06   0
  -4   4  -5    2.39    5.06   0
  -4   4  13   -1.62    5.39   0
  -2   1  33    4.67    5.86   0
  -9   5  28  106.77    9.75   0
  -4   3  32  915.10   15.13   0
  -3   3  21    4.46    6.42   0
  -9   6   3    0.37    7.22   0
  -9   6   6  185.37    9.61   0
  -9   6   9   -2.51    8.02   0
  -8   5  29  -10.49    8.32   0
  -7   4  37    6.90    8.35   0
  -6   1  50   69.80    7.94   0
  -6   3  42  151.79   10.23   0
  -6   5  19   -5.23    6.33   0
  -4   1  46   73.08    9.03   0
  -4   4  16 1537.39   17.94   0
  -3   1  41    2.93    5.79   0
  -3   2  34  607.08   12.35   0
  -2   0  40  800.96   15.40   0
  -9   6  12  163.93    9.85   0
  -7   3  44  138.42    9.58   0
  -7   5  27    5.30    8.63   0
  -2   2  23    1.02    5.02   0
  -8   4  39  -11.64    8.31   0
  -8   6   1    5.03    7.84   0
  -8   6   4  233.00    9.99   0
  -8   6   7   -3.96    7.24   0
  -8   6  10  184.69   10.17   0
  -6   4  35    0.64    7.05   0
  -6   5  22  223.92    9.90   0
  -5   4  30  316.24   10.92   0
  -9   6  15    7.06    8.26   0
  -4   2  42  392.86   11.42   0
  -4   4  -8 1413.76   20.86   0
  -4   4  19   -4.88    5.71   0
  -3   3  24 1153.63   16.14   0
  -1   0  32 1646.88   21.41   0
  -9   6  18  111.40    9.61   0
  -8   5  32  237.27   10.71   0
  -8   6  13    4.95    7.01   0
  -8   6  16  383.92   11.85   0
  -7   4  40  160.09    9.84   0
  -6   2  49   -3.75    7.99   0
  -6   5  25    8.52    8.02   0
  -5   2  47   -4.24    7.75   0
  -5   5   5    1.07    6.22   0
  -5   5   8  997.44   15.52   0
  -4   4  22  733.25   13.01   0
  -3   2  37   -0.23    6.56   0
  -2   1  36  893.56   15.33   0
  -2   2  26 1210.80   16.54   0
  -9   6  21   -4.31    8.42   0
  -8   6  19  -10.20    8.01   0
  -6   3  45    6.72    8.65   0
  -5   4  33   -4.90    7.81   0
  -5   5   2  350.51   10.61   0
  -8   5  35   -1.41    7.99   0
  -7   3  47    0.20    8.40   0
  -7   6   5    3.22    7.11   0
  -7   6   8  677.26   13.93   0
  -5   5  -1    0.92    5.83   0
  -3   1  44  327.34   10.57   0
  -3   3  27   -6.09    5.59   0
  -7   5  33   -0.83    7.07   0
  -7   6   2  340.12   10.91   0
  -7   6  11    2.95    6.51   0
  -6   5  28  427.64   11.20   0
  -5   3  43   -0.93    8.15   0
  -4   1  49    0.40    7.26   0
  -4   4  25   -4.11    6.76   0
  -7   6  -1    1.71    7.30   0
  -7   6  14  147.15    8.47   0
  -5   5  17   13.64    6.17   0
  -4   2  45   -1.44    7.41   0
  -1   1  25   -2.16    5.37   0
  -7   6  17    1.08    8.04   0
  -5   5  -4 1131.75   17.41   0
  -8   6  25    1.76    8.28   0
  -6   4  41    0.04    8.37   0
  -6   5  31    2.65    8.45   0
  -5   4  36  341.68   10.52   0
  -5   5  20  690.78   12.89   0
  -1   0  35    0.49    5.79   0
  -7   5  36  277.50   11.40   0
  -6   2  52  102.24    8.92   0
  -6   3  48  150.95    9.80   0
  -5   2  50  184.68   10.77   0
  -4   4  28  655.86   12.51   0
  -3   2  40  481.72   12.04   0
  -5   5  23    7.84    7.02   0
  -2   1  39    0.45    5.95   0
  -8   6  28  165.97   10.34   0
  -7   6  23    6.30    8.10   0
  -7   4  46   54.01    9.04   0
  -5   3  46   52.69    8.72   0
  -5   5  -7    2.21    5.54   0
  -4   3  41    2.10    7.16   0
  -1   1  28 1386.60   18.76   0
  -7   5  39   -1.24    8.14   0
  -5   4  39   13.50    6.68   0
  -5   5  26  227.00    9.82   0
  -4   4  31   -5.54    6.33   0
  -3   1  47   -2.56    6.61   0
  -2   2  32  633.11   12.89   0
  -8   6  31    2.71    8.25   0
  -7   6  26  276.64   10.01   0
  -6   6   9    2.21    6.99   0
  -6   6  12  447.72   11.85   0
  -4   2  48  303.57   10.85   0
  -6   6   6  251.09   10.06   0
  -6   6  15    0.06    7.56   0
  -2   3  10 1973.98   21.61   0
  -6   3  51    4.99    8.04   0
  -6   6   3   -0.55    6.58   0
  -5   5  29   12.75    7.44   0
  -3   2  43   -3.44    6.80   0
  -3   4   8 2618.50   23.71   0
  -3   4  11   32.60    5.65   0
  -3   4  14  713.55   13.27   0
  -2   3   7    5.95    4.64   0
  -2   3  13   21.06    5.48   0
  -9   7  11    1.47    7.81   0
  -9   7  14  147.25    9.22   0
  -7   6  29    2.42    7.43   0
  -6   5  37    3.90    7.17   0
  -4   4  34  263.47    9.91   0
  -2   3  16 2082.04   21.40   0
  -9   7  17   -2.56    7.38   0
  -7   5  42  147.35    9.81   0
  -6   6   0  866.26   15.35   0
  -6   6  21    2.62    7.32   0
  -5   2  53    3.02    7.56   0
  -4   3  44  290.14   10.72   0
  -3   4  17   -5.63    5.43   0
  -2   1  42  330.18   10.64   0
  -1   0  38  253.82    9.89   0
  -9   7  20  136.85    9.65   0
  -6   4  47    6.27    8.12   0
  -5   3  49    2.42    7.47   0
  -3   4   2  853.98   15.07   0
  -2   2  35    2.79    6.03   0
  -2   3  19    7.19    6.01   0
  -1   1  31    1.77    5.45   0
  -8   7   9    2.43    7.58   0
  -8   7  12  180.96    9.89   0
  -7   6  32  272.69   10.39   0
  -6   6  24  468.56   12.17   0
  -5   5  32  503.10   11.73   0
  -3   4  20  889.03   13.98   0
  -9   7  23  -11.49    7.45   0
  -8   6  37    2.19    7.93   0
  -8   7   6  200.73    9.51   0
  -6   5  40  226.20   10.67   0
  -6   6  -3   -0.87    5.99   0
  -4   5  15   12.13    6.49   0
  -8   7  18  126.58    9.80   0
  -4   2  51   -0.16    7.19   0
  -4   4  37  -13.71    6.52   0
  -4   5   6  846.41   14.12   0
  -4   5  18  395.29   10.99   0
  -3   4  23   17.78    5.87   0
  -2   3  22  472.70   10.87   0
  -8   7  21    6.70    7.72   0
  -7   5  45    2.14    7.80   0
  -7   6  35    3.47    8.20   0
  -6   6  27   -1.46    6.90   0
  -3   2  46  132.74    8.77   0
  -3   4  -1   25.73    5.56   0
  -5   4  45    2.99    6.66   0
  -5   5  35   -8.91    6.84   0
  -4   5   3   25.92    5.45   0
  -4   5  21    6.10    7.10   0
  -3   3  39    3.16    5.84   0
  -1   2  15    1.27    4.84   0
  -8   7  24  259.89   10.84   0
  -6   4  50   90.83    9.46   0
  -6   6  30  110.91    9.74   0
  -4   3  47   -1.10    7.73   0
  -3   4  26  675.87   12.72   0
  -2   3  25    6.40    5.52   0
  -1   2  18 1185.69   17.20   0
  -6   5  43    5.20    8.35   0
  -5   3  52  136.95    9.78   0
  -4   5  24  938.45   15.05   0
  -2   1  45    2.51    6.05   0
  -1   1  34  925.63   15.23   0
  -7   6  38   57.86    8.58   0
  -7   7  13   -6.17    7.83   0
  -4   5   0 1366.80   18.12   0
  -7   7   7    8.51    7.90   0
  -7   7  10  228.72   10.09   0
  -7   7  16  535.99   13.25   0
  -5   5  38  206.09    9.38   0
  -5   6  13   13.56    7.05   0
  -3   4  -4 1232.46   19.06   0
  -3   4  29    1.41    5.89   0
  -2   3  28 1344.88   17.31   0
  -1   2  21   16.99    5.19   0
  -7   7  19    0.52    6.70   0
  -6   6  33    0.23    7.30   0
  -5   4  48  230.54   10.69   0
  -5   6  10  484.65   11.40   0
  -4   5  27    4.12    6.41   0
  -3   3  42  324.60   10.81   0
  -8   7  30   81.01    8.28   0
  -7   7   4  195.99    9.51   0
  -7   7  22  108.54    9.03   0
  -5   6   7   -4.68    5.49   0
  -5   6  19    5.86    6.35   0
  -7   6  41    4.53    8.09   0
  -5   6   4  754.79   14.18   0
  -4   3  50  200.22   10.24   0
  -4   5  -3   -1.41    5.51   0
  -4   5  30  308.82   10.44   0
  -3   2  49    0.37    6.90   0
  -3   4  32  893.50   14.78   0
  -2   2  41    1.76    6.40   0
  -8   7  33    7.99    8.41   0
  -6   4  53   -7.66    7.30   0
  -6   6  36  216.64   10.79   0
  -5   5  41   -4.92    8.06   0
  -4   4  43    5.39    6.49   0
  -1   1  37   -0.91    5.50   0
  -5   3  55    1.21    7.13   0
  -7   7  28  134.26    9.84   0
  -5   6   1    9.95    6.14   0
  -4   5  33    2.57    7.77   0
  -5   4  51   -0.87    8.28   0
  -3   3  45    2.20    7.23   0
  -3   4  35    1.39    6.88   0
  -7   6  44  119.05    8.69   0
  -7   7  31   -7.83    7.94   0
  -6   5  49   -0.49    8.24   0
  -6   6  39    8.91    7.71   0
  -5   6  31   -4.54    8.10   0
  -4   4  46  143.61    9.46   0
  -4   5  -6  347.97   11.13   0
  -6   7  11    5.96    7.41   0
  -6   7  14  142.75    8.81   0
  -6   7  17    8.74    7.24   0
  -5   6  -2  345.19   10.65   0
  -4   3  53    6.41    8.46   0
  -4   5  36  334.88   11.27   0
  -3   2  52  283.06   11.20   0
  -2   2  44  711.04   14.06   0
  -1   2  30  595.45   12.43   0
  -6   7  20  271.14    9.94   0
  -1   1  40  760.61   14.57   0
  -6   6  42  149.24    9.34   0
  -6   7   8  667.44   13.87   0
  -5   6  34  224.47   10.17   0
  -2   3  37    1.40    6.64   0
  -6   7   5   -0.92    7.74   0
  -6   7  26  279.54   11.09   0
  -3   3  48  204.32    9.80   0
  -8   8  14  129.59    8.78   0
  -8   8  17    4.13    7.21   0
  -8   8  20  134.73    9.48   0
  -7   7  37   12.91    8.11   0
  -5   4  54   58.85    8.15   0
  -4   5  39    7.43    6.83   0
  -3   5  16 1755.90   19.35   0
  -1   2  33    6.43    5.83   0
  -8   8  11    3.39    7.44   0
  -8   8  23  -10.84    8.19   0
  -6   7  29    6.33    8.08   0
  -5   6  37   -4.84    8.43   0
  -4   4  49    6.36    7.90   0
  -3   5  13    5.00    5.47   0
  -3   5  19    5.60    5.93   0
  -6   6  45   -7.50    8.00   0
  -6   7   2  341.87   10.90   0
  -2   2  47    0.35    7.30   0
  -2   4  12  798.65   13.83   0
  -2   4  15    5.36    5.23   0
  -2   4  18 1057.72   15.11   0
  -8   8  26   90.30    8.32   0
  -7   7  40  177.91   10.25   0
  -4   6  17    1.53    7.18   0
  -3   5  25    1.55    7.22   0
  -2   3  40  460.94   11.73   0
  -2   4  21   -2.58    5.53   0
   0   0  33   -1.86    5.01   0
  -6   7  32  265.45   10.38   0
  -4   3  56  133.22    8.75   0
  -4   5  42  184.32   10.25   0
  -4   6  11    0.73    6.64   0
  -4   6  20  693.33   12.90   0
  -3   5   7   13.77    5.28   0
  -2   4   9    2.64    5.61   0
  -2   4  24 1926.47   19.65   0
  -5   5  50   73.00    8.76   0
  -5   6  40  207.59   10.73   0
  -4   6  23   -8.76    6.41   0
  -3   5  28  400.52   10.60   0
  -1   1  43    0.71    5.78   0
  -1   2  36  903.68   15.15   0
  -6   7  35    5.31    8.14   0
  -4   6   8  893.54   14.84   0
  -4   6  26  394.08   11.79   0
  -3   3  51    7.89    6.86   0
  -3   4  44  282.80   10.81   0
  -2   4  27   -5.68    5.71   0
   0   1  23    1.12    4.84   0
  -6   6  48  126.27    9.70   0
  -5   4  57   -4.35    7.01   0
  -4   4  52  161.79    9.99   0
  -3   5   4  703.18   13.03   0
  -3   5  31    6.64    6.99   0
  -7   8  12  180.83    9.96   0
  -7   8  15    5.83    7.95   0
  -7   8  18  129.83    8.85   0
  -7   8  21    0.41    7.58   0
  -4   6   5   -5.55    6.24   0
  -4   6  29    3.79    6.74   0
  -2   3  43    5.86    6.85   0
  -2   4  30  193.56    9.04   0
  -7   8  24  266.77   10.87   0
  -6   7  38   48.24    8.66   0
  -5   6  43    3.01    8.30   0
  -5   7  15    9.82    7.64   0
  -5   7  18  393.34   11.46   0
  -1   3  17   10.20    5.25   0
  -1   3  20 1482.21   18.06   0
   0   1  26 1108.27   17.16   0
  -7   8   9    4.31    7.31   0
  -7   8  27   -0.11    7.83   0
  -5   7  12  513.53   12.56   0
  -4   6  32  362.91   11.67   0
  -3   5  34  460.42   12.12   0
  -2   2  50  195.38    9.35   0
  -1   2  39   -1.36    6.42   0
  -1   3  14 1616.80   18.85   0
  -1   3  23   -1.53    6.13   0
  -5   5  53    4.27    8.09   0
  -3   4  47   -6.63    7.62   0
  -3   5   1    3.43    5.65   0
  -2   4  33    1.37    5.82   0
  -1   3  11   21.90    5.93   0
  -6   7  41    4.13    8.20   0
  -5   7   9    4.90    6.97   0
  -5   7  27    1.11    6.86   0
  -4   6   2  590.57   12.92   0
  -4   6  35    3.61    8.33   0
  -1   3  26  561.46   11.66   0
   0   1  29    0.17    5.22   0
  -5   6  46   61.24    8.54   0
  -5   7  30   92.96    9.06   0
  -4   4  55   -2.87    7.33   0
  -4   5  48  222.84   10.23   0
  -3   3  54   83.99    8.04   0
  -3   5  37   -4.78    7.72   0
  -7   8  33    2.94    7.69   0
  -5   7   6  169.67    9.01   0
  -2   3  46  140.73    8.82   0
  -1   3   8 3306.25   27.62   0
  -1   3  29    2.70    5.43   0
  -5   7  33   -2.58    8.15   0
  -4   6  38  125.56    9.68   0
  -1   2  42  336.42   10.65   0
  -6   7  44  128.60    9.09   0
  -3   5  40  453.32   12.28   0
   0   1  32 1742.92   21.16   0
  -5   7   3    5.48    6.52   0
  -4   6  -1   -5.76    5.72   0
  -3   4  50  194.85    9.91   0
  -3   5  -2  828.72   14.98   0
  -2   4   0 3975.04   31.20   0
  -6   8  16  400.74   11.71   0
  -6   8  19    6.69    7.95   0
  -6   8  22  120.39    9.17   0
  -5   7  36  284.39   10.48   0
  -4   5  51   -8.72    7.54   0
  -6   8  13   -3.80    7.27   0
  -6   8  25   -2.22    7.28   0
  -4   6  41    2.21    6.87   0
  -2   3  49    1.02    7.09   0
  -1   3   5    2.73    4.75   0
  -4   4  58   67.65    7.79   0
  -1   3  35    1.36    5.49   0
  -6   8  10  190.34    9.85   0
  -6   8  31    8.01    8.10   0
  -5   7  39   -2.54    7.67   0
  -2   4  42  393.77   11.56   0
  -1   2  45    3.20    6.27   0
   0   1  35   -4.36    5.22   0
  -3   6  18  427.21   11.27   0
  -3   6  21    3.07    7.01   0
  -6   8   7   -3.86    6.78   0
  -6   8  34  136.32    9.55   0
  -4   6  -4  860.14   15.69   0
  -3   4  53    9.26    7.60   0
  -3   6  15   -1.54    6.85   0
  -3   6  27   -4.31    7.72   0
  -2   5  20  618.35   12.44   0
  -2   5  23    5.31    6.83   0
  -1   3  38  344.87   10.66   0
  -5   7  42  138.90    9.33   0
  -4   5  54   71.74    8.66   0
  -3   5  46   59.64    8.96   0
  -2   5  17    3.73    5.72   0
  -2   5  26  648.25   13.04   0
  -4   7  16  458.33   11.95   0
  -4   7  22  190.76    8.85   0
  -4   7  25    6.93    7.72   0
  -3   5  -5    9.63    5.43   0
  -3   6  30  219.94    9.34   0
  -2   4  -3    1.17    5.16   0
  -2   5  14  364.25    9.89   0
  -2   5  29    1.49    7.21   0
   0   2  19    1.39    4.78   0
   0   2  22 1825.55   20.11   0
  -6   8  37    2.89    7.20   0
  -4   7  28  402.42   11.84   0
  -2   3  52  279.11   10.64   0
  -2   4  45   12.36    7.48   0
   0   1  38  258.07    9.59   0
   0   2  16 2923.81   25.79   0
  -5   7  45    7.14    7.84   0
  -4   7  13    7.45    6.15   0
  -4   7  31    6.45    8.35   0
  -3   6   9   12.60    5.67   0
  -3   6  33    7.74    6.87   0
  -2   5  11   -0.06    5.43   0
  -2   5  32  736.37   13.81   0
  -1   2  48  330.11   11.33   0
  -1   3  41    4.36    6.80   0
   0   2  28 1089.26   16.04   0
  -4   7  10  403.16   11.45   0
   0   2  13   -2.52    5.73   0
  -7   9  17    1.97    8.04   0
  -7   9  20  138.91    8.84   0
  -4   7  34  199.57   10.20   0
  -3   4  56  143.11    8.81   0
  -3   5  49   -2.99    8.13   0
  -3   6  36  316.42   10.54   0
  -2   5  35    0.09    7.63   0
  -1   4  19   20.98    6.51   0
  -1   4  25    0.59    6.67   0
   0   2  31   -1.96    5.70   0
  -7   9  14  140.57    9.80   0
  -5   8  20  225.47   10.26   0
  -5   8  23   -0.33    7.81   0
  -4   5  57   -2.91    7.60   0
  -3   6   6  453.31   11.41   0
  -2   4  48  325.95   11.23   0
  -1   4  16 2071.72   20.79   0
  -4   7   7    0.58    6.38   0
  -4   7  37    3.88    8.35   0
   0   1  41    1.57    6.16   0
  -5   8  14  149.73    9.24   0
  -5   8  29   -4.56    7.44   0
  -2   5  38  104.97    8.92   0
  -1   3  44  339.68   10.89   0
  -1   4  13   12.72    5.31   0
  -1   4  31    0.88    7.12   0
   0   2  34  285.93    9.80   0
  -5   8  32  210.35   10.16   0
  -2   5   5    9.58    5.95   0
  -5   8  11    1.10    7.50   0
  -3   5  52  136.14    9.38   0
  -3   6   3    4.29    6.17   0
  -3   6  42  167.38   10.07   0
  -5   8  35    2.28    8.45   0
  -4   6  53   -2.59    8.06   0
  -4   7   4  674.97   13.59   0
  -1   4  10 1097.07   15.46   0
   0   2  37   -1.21    5.90   0
  -5   8   8  495.30   12.55   0
  -2   4  51   -1.24    7.99   0
  -5   8  38   61.96    8.51   0
  -4   7  43   -7.90    7.62   0
  -1   3  47   -7.12    6.14   0
  -2   5  44  243.90   10.81   0
  -6   9  18  118.01    9.28   0
  -6   9  21   -0.45    7.90   0
  -6   9  24  218.61   10.16   0
  -6   9  27    7.75    7.36   0
  -4   7   1   12.35    7.14   0
  -3   5  55   -0.51    7.27   0
  -3   6   0 1030.32   16.02   0
  -2   5   2  825.62   13.95   0
  -1   4   7   15.70    5.27   0
   0   2  40  856.96   14.96   0
  -6   9  15    0.75    8.48   0
  -5   8   5   -1.46    7.21   0
  -4   7  46   69.48    8.54   0
  -1   4  40  453.63   11.19   0
  -3   7  23    3.47    7.85   0
  -2   4  54   40.95    7.65   0
   0   3  21    0.93    5.16   0
   0   3  24 1660.79   18.56   0
   0   3  27    0.11    6.31   0
  -6   9  12  152.09    9.88   0
  -3   7  20  416.81   11.14   0
  -3   7  26  155.42    8.71   0
  -3   7  29    1.95    8.05   0
  -2   5  47   -0.23    8.03   0
  -2   6  19    7.60    7.21   0
  -2   6  22  359.34   10.38   0
  -2   6  25    4.87    6.47   0
  -1   3  50  184.21    9.36   0
   0   3  18  546.00   11.46   0
  -3   7  32  302.22   11.12   0
  -2   6  31   -3.47    7.83   0
  -1   4  43    1.81    7.33   0
  -4   8  21    7.29    7.94   0
  -3   7  14  359.78   10.68   0
  -2   6  16  758.15   13.33   0
   0   2  43    0.77    6.05   0
   0   3  15   -2.03    5.05   0
   0   3  33    4.58    6.41   0
  -4   8  18  224.84   10.17   0
  -4   8  27   -1.37    7.30   0
  -4   8  30  100.96    9.06   0
  -3   5  58  103.08    8.25   0
  -3   7  35    9.90    8.62   0
  -2   5  -1   -3.67    5.68   0
  -2   6  34  175.83    8.93   0
  -4   7  -2  244.13    9.48   0
  -4   8  33   -5.39    8.28   0
  -3   6  -3    6.92    5.81   0
  -3   6  51    2.19    8.08   0
  -3   7  11    2.60    7.33   0
  -1   5  21   13.99    6.80   0
  -1   5  24  680.15   12.68   0
  -1   5  27    2.83    6.92   0
   0   3  36  541.12   12.35   0
  -4   8  15    2.42    6.75   0
  -3   7  38  155.93   10.08   0
  -2   4  57    3.53    7.34   0
  -2   5  50  182.08    9.53   0
  -2   6  37    1.19    6.80   0
  -1   4  46   92.91    8.75   0
  -1   5  18  752.40   13.52   0
  -1   5  30  185.41    9.67   0
   0   3  12 2024.36   20.64   0
  -1   3  53    4.25    6.91   0
  -1   5  33    2.36    7.04   0
  -4   8  12  270.72    9.82   0
  -3   7   8  561.41   12.72   0
  -3   7  41    0.72    7.89   0
  -2   6  40  278.47   10.84   0
  -1   5  15    6.07    5.78   0
   0   2  46  289.84   10.28   0
   0   3  39    0.55    6.42   0
   1   0  31   -0.62    5.28   0
  -5   9  22   88.30    9.06   0
  -5   9  25   12.58    7.50   0
  -5   9  28   91.22    9.15   0
  -4   8  39    6.09    7.96   0
  -1   5  36  492.57   12.45   0
  -5   9  19    2.41    7.22   0
  -4   8   9    5.64    7.27   0
  -2   5  53    1.18    7.16   0
  -1   4  49    5.60    7.14   0
   0   3   9   -5.90    4.80   0
  -5   9  16  352.63   11.60   0
  -3   7  44  151.85    9.53   0
  -2   6   7    0.25    5.52   0
   0   3  42  253.56    9.97   0
   1   1  21   19.74    5.37   0
   1   1  24 1708.42   20.48   0
   1   1  27   -1.11    5.04   0
  -3   7   5    3.86    6.71   0
   1   1  30  588.72   12.89   0
  -5   9  13   -5.70    7.65   0
  -2   5  -4  710.22   13.89   0
  -4   8   6  205.28    9.66   0
  -3   6  -6  441.88   11.64   0
  -3   7  47    8.83    7.63   0
  -1   5   9   21.12    5.67   0
  -1   5  42  227.41   10.59   0
   0   4  23    1.03    5.72   0
   0   4  26  750.98   13.02   0
   0   4  29   -8.90    6.88   0
   1   1  33    3.07    5.32   0
  -2   5  56  115.65    9.57   0
  -2   6   4  885.90   14.82   0
  -1   4  52  200.84    9.60   0
   0   3  45   -5.34    6.76   0
   0   4  20 1325.77   16.53   0
  -5   9  10  147.08    8.90   0
   0   3   6 1922.72   20.55   0
   0   4  17   -5.57    6.13   0
  -2   6  49   -1.40    8.14   0
  -1   5  45    7.35    7.73   0
   1   1  36  932.15   15.81   0
  -4   8   3   -1.72    7.35   0
  -2   7  24  466.32   12.03   0
  -2   7  27   -7.42    8.11   0
  -2   7  30  185.87   10.46   0
  -1   4  -2  861.51   15.01   0
  -3   8  25   -7.74    7.51   0
  -3   8  28  191.00    9.67   0
  -3   8  31   10.36    7.86   0
  -2   7  21    3.84    6.73   0
  -2   7  33    9.17    8.03   0
   0   4  14  317.72    9.30   0
   0   4  38  128.55    7.88   0
   1   2  26  505.51   11.18   0
   1   2  29    9.29    5.71   0
  -3   8  19   11.92    8.15   0
  -3   8  34  127.84    9.43   0
  -2   6   1    1.86    6.08   0
  -2   7  18  180.48    8.70   0
  -1   4  55    9.69    8.17   0
   0   3  48  341.46   10.85   0
   1   1  39    3.70    6.03   0
   1   2  20 1465.63   18.08   0
   1   2  32 1187.25   16.83   0
  -3   8  16  420.94   12.25   0
  -2   6  52  121.39    9.28   0
  -2   7  36  168.42    9.61   0
  -1   5  48  149.86    9.08   0
  -1   6  23    4.99    7.47   0
  -1   6  26  238.92    9.40   0
  -1   6  29    0.15    6.81   0
   0   4  41    1.85    6.96   0
  -4   9  26  138.98    9.12   0
  -3   8  37   -4.01    7.36   0
  -2   7  39   -0.71    8.28   0
  -1   6  20  522.26   11.67   0
  -1   6  32  390.35   11.03   0
   0   4  11   -1.45    5.37   0
   1   2  35   -0.49    6.00   0
  -4   9  20  126.44    9.39   0
  -4   9  23    5.64    8.00   0
  -3   8  13    0.06    7.69   0
  -2   5  -7   10.15    5.22   0
  -1   5   3    6.15    5.88   0
  -1   6  17    3.34    6.94   0
  -1   6  35    2.78    6.92   0
   0   3   3    2.30    4.50   0
   1   2  17   12.97    4.93   0
  -3   8  40  152.67    8.62   0
  -2   7  12  427.87   11.51   0
   0   4  44  435.84   11.85   0
   1   2  38  334.31   10.44   0
  -4   9  17    1.56    7.73   0
  -2   7  42   98.01    8.54   0
  -1   5  51    4.30    8.04   0
  -1   6  14  417.07   11.11   0
   0   3  51    1.27    6.79   0
  -3   8  10  222.86   10.02   0
  -1   6  41   -6.83    8.16   0
   0   4   8 1516.30   17.66   0
   1   2  14 1683.68   19.21   0
  -4   9  14   85.21    8.68   0
  -2   6  -2  593.24   12.64   0
  -2   7   9    1.01    7.21   0
  -2   7  45   -1.93    7.70   0
   0   5  25   -2.43    6.82   0
   0   5  28  662.38   13.22   0
   1   2  41   -2.08    6.22   0
   0   4  47    1.73    7.58   0
   0   5  22  259.42    9.19   0
   0   5  31   12.58    6.50   0
   1   3  25   -1.73    5.33   0
   1   3  31    5.24    6.65   0
  -4   9  11   -8.95    8.31   0
  -1   4  -5    8.04    4.99   0
  -1   5  54   61.45    7.79   0
   0   5  19    0.84    6.98   0
   0   5  34  289.61    9.73   0
   1   3  34  533.07   12.25   0
  -3   7  -4  608.53   13.51   0
  -3   8   7    1.00    7.32   0
  -1   5   0 1423.95   17.66   0
   1   3  19   10.00    6.51   0
  -2   7   6  457.53   11.84   0
   0   4   5    4.67    5.98   0
   0   5  16  710.16   12.86   0
   1   2  11   12.73    5.19   0
   1   2  44  330.90   10.67   0
   1   3  37   -7.27    6.46   0
  -1   6  47    7.55    7.56   0
   0   4  50  156.02    9.23   0
   0   5  40  225.13   10.54   0
  -4   9   8  355.10   11.02   0
   0   5  13   -2.69    6.80   0
   1   3  16 2076.18   20.17   0
   1   3  40  460.48   12.03   0
  -3   8   4  275.15   10.24   0
   0   5  43    7.47    7.85   0
  -2   7   3    9.53    6.89   0
  -2   8  23   -2.28    7.71   0
  -2   8  26  209.61    9.81   0
  -2   8  29    3.73    7.36   0
  -2   8  32  189.06   10.18   0
  -1   6  50   81.17    9.13   0
  -2   5 -10  649.74   14.32   0
  -2   6  -5   -2.01    5.71   0
  -2   8  35   -6.06    7.80   0
  -1   6   5    5.11    6.56   0
  -1   7  25   -9.16    7.90   0
  -1   7  28  150.50    9.96   0
   0   4  53    1.65    8.07   0
   1   3  13    7.24    5.37   0
   1   3  43    9.78    6.76   0
  -3   9  24  189.15    9.45   0
  -1   5  -3   22.14    6.06   0
  -1   7  34  177.96   10.22   0
   0   5  10  681.24   12.46   0
   0   5  46   84.75    8.51   0
   1   2   8 3247.99   26.59   0
  -3   9  21   -7.29    8.08   0
  -2   8  17    0.80    7.90   0
  -1   7  19    8.64    7.89   0
  -1   7  37   -0.91    7.80   0
   1   4  24  692.82   13.29   0
   1   4  27   10.64    6.13   0
   1   4  30  187.12    8.42   0
  -7   8   0  414.26   12.06   0
  -5   7 -21   -1.22    7.35   0
  -5   7  -6  440.86   11.11   0
  -3   3  21    0.21    5.31   0
  -7   7  16  497.22   12.68   0
  -7   8 -27    1.60    7.30   0
  -5   7  -3   -8.23    7.70   0
  -4   6 -28  449.09   11.87   0
  -4   6   2  613.20   12.13   0
  -3   5 -29    1.07    6.13   0
  -5   7 -24  471.21   12.26   0
  -3   5   4  721.41   13.17   0
  -2   4   0 4146.78   29.06   0
  -7   8   3  -10.43    7.24   0
  -6   6  21   -1.73    6.64   0
  -5   5  23    0.85    6.33   0
  -5   7   0  654.03   13.46   0
  -2   4 -27   -0.95    5.43   0
  -8   8  11   -1.04    8.08   0
  -7   8 -30   45.35    8.18   0
  -4   6   5    4.21    7.00   0
  -8   7  21   -0.48    7.05   0
  -7   8   6  194.19   10.44   0
  -5   7 -27    3.62    7.45   0
  -4   6 -31   -3.33    6.28   0
  -1   3 -16 1926.93   23.06   0
  -1   3 -13   24.83    4.77   0
  -6   8 -17    9.92    8.14   0
  -6   8 -11   -4.14    8.28   0
  -6   8  -8  478.76   12.93   0
  -5   7   3   -3.17    6.66   0
  -2   4   3    2.87    5.01   0
  -8   9 -11   -6.44    7.93   0
  -7   7  19    2.08    7.79   0
  -6   8 -20  192.46   10.21   0
  -6   8  -5   13.69    8.38   0
  -4   5  18  394.11   10.67   0
  -3   4  17    3.83    5.55   0
  -3   5   7   13.39    5.70   0
  -1   3  -7   -1.42    4.39   0
  -8   9  -8  167.86    9.87   0
  -5   7 -30  187.31    9.58   0
  -4   6   8  861.93   13.84   0
  -8   8  14  133.11    9.01   0
  -8   9  -5   11.07    8.33   0
  -7   8   9   -2.76    7.55   0
  -6   8 -23   -4.00    7.43   0
  -6   8  -2  226.95   10.85   0
  -5   7   6  174.55    8.68   0
  -4   4  25   -0.49    5.63   0
  -8   9  -2  116.30    9.13   0
  -6   6  24  457.72   12.24   0
  -2   4   6  836.73   14.05   0
  -1   3  -4 2955.14   26.54   0
  -6   8 -26  199.48    9.75   0
  -6   8   1    0.41    6.93   0
  -5   6  19    2.58    6.83   0
  -3   5  10  760.50   13.46   0
  -8   9   1  -14.09    8.06   0
  -6   7  17   -4.17    7.56   0
  -5   5  26  224.20    9.34   0
  -5   7   9   -2.76    7.73   0
  -8   8  17  -12.44    7.38   0
  -7   7  22  102.41    8.99   0
  -6   8   4  229.79   10.40   0
  -3   3  24 1030.70   17.13   0
  -1   3  -1   42.43    6.25   0
  -8   9   4  208.00    9.86   0
  -6   8 -29   -1.20    6.85   0
  -4   5  21    6.49    6.46   0
  -3   6 -15    8.58    6.43   0
  -2   3  16 1944.37   21.77   0
  -7   9 -16  178.04   10.02   0
  -7   9 -10  164.73    9.83   0
  -4   7 -14  375.69   10.86   0
  -3   4  20  871.17   14.64   0
  -3   6 -18  434.26   11.38   0
  -3   6  -6  460.57   11.52   0
  -7   9 -19   -1.79    8.13   0
  -7   9  -7   -2.49    7.51   0
  -6   8   7    7.41    8.43   0
  -5   7  12  524.24   12.49   0
  -4   7 -17   20.22    7.36   0
  -4   7  -8  545.95   11.87   0
  -4   7  -5    8.34    7.59   0
  -2   4   9   -0.20    5.08   0
  -8   9   7   -0.22    7.71   0
  -7   8  15   -6.03    7.25   0
  -7   9  -4  215.08    9.99   0
  -5   6  22  227.32    9.62   0
  -4   7 -20  455.02   11.80   0
  -3   5  13    5.36    5.34   0
  -3   6 -21    0.34    6.54   0
  -3   6  -3    3.67    5.90   0
  -8   8  20  137.69    9.95   0
  -7   9 -22   47.18    7.82   0
  -7   9  -1    5.19    7.77   0
  -6   6  27   -0.67    6.86   0
  -4   7  -2  259.80   10.18   0
  -2   5 -13   -0.85    5.88   0
  -1   3   2  697.11   13.35   0
  -7   7  25   -4.41    8.22   0
  -6   8  10  200.99    9.90   0
  -4   7 -23    2.02    6.84   0
  -3   6   0 1068.94   15.02   0
  -2   5 -16 1802.77   19.77   0
  -2   5  -7    9.59    5.38   0
  -7   9   2   86.71    8.74   0
  -5   8 -16  426.87   11.22   0
  -5   8  -7   -5.72    6.76   0
  -3   6 -24  604.46   13.18   0
  -2   5 -19    9.76    6.00   0
  -2   5  -4  717.35   12.98   0
  -7   8  18  129.34    9.34   0
  -5   8 -19    0.77    7.72   0
  -5   8  -4  297.72   10.05   0
  -4   4  28  608.44   13.38   0
  -7   9   5    1.83    7.75   0
  -5   5  29    0.16    5.98   0
  -5   8 -22  137.42    9.23   0
  -5   8  -1    4.97    7.84   0
  -4   5  24  927.95   15.30   0
  -4   7 -26  148.52    9.05   0
  -4   7   4  662.19   13.35   0
  -3   6   3    1.36    5.99   0
  -2   4  12  771.92   13.23   0
  -2   5  -1    6.72    6.13   0
  -3   6 -27   -0.86    6.25   0
  -2   5 -22  300.68    9.91   0
  -1   3   5    6.60    5.72   0
  -8   8  23   -0.81    7.83   0
  -6   7  23    6.80    7.56   0
  -5   8   2  249.33   10.54   0
  -2   3  19    0.50    5.00   0
  -5   6  25    0.87    6.75   0
  -5   8 -25    4.84    7.36   0
  -4   7 -29    3.86    6.92   0
  -4   7   7   -0.12    7.62   0
  -3   4  23   14.27    5.81   0
  -3   6   6  467.79   10.86   0
  -2   5   2  814.19   13.68   0
  -6   9 -15    1.54    7.47   0
  -6   9  -9    0.85    7.42   0
  -6   9  -6   71.53    8.64   0
  -5   7  18  398.35   11.64   0
  -5   8   5    7.30    8.08   0
  -2   5 -25   -2.72    5.58   0
  -7   8  21    3.58    7.90   0
  -6   8  16  382.31   11.69   0
  -6   9 -18  181.00    9.74   0
  -3   3  27    0.20    5.11   0
  -6   9 -21    1.20    7.82   0
  -5   8 -28  164.88    9.42   0
  -4   6  20  630.47   12.96   0
  -3   6   9   10.42    6.53   0
  -2   5   5   14.12    6.45   0
  -6   9   0  336.37   11.03   0
  -5   8   8  487.97   12.73   0
  -4   7  10  399.30   10.71   0
  -3   5  19    5.89    6.28   0
  -1   3   8 3347.22   27.60   0
  -1   4 -11   32.27    5.73   0
  -6   7  26  268.47   11.09   0
  -6   9 -24  182.86    9.98   0
  -1   4 -14  702.36   13.08   0
  -6   9   3    6.68    7.37   0
  -5   7  21   -0.20    7.35   0
  -4   5  27    4.78    6.07   0
  -1   4 -17    3.59    5.23   0
  -1   4  -5    7.26    4.97   0
  -7   8  24  280.97   11.43   0
  -7   9  14  117.18    9.19   0
  -6   8  19    9.22    7.58   0
  -3   6  12  784.86   13.78   0
  -2   5   8 2283.08   21.27   0
  -6   9 -27    3.31    7.12   0
  -6   9   6  208.15   10.22   0
  -5   6  28  416.49   11.59   0
  -5   8  11    0.48    6.67   0
  -4   7  13   16.14    6.49   0
  -1   4  -2  884.45   13.99   0
  -1   4 -20  878.91   15.59   0
  -4   6  23   -0.71    6.72   0
  -4   8 -12  279.84   10.54   0
  -4   8  -6  215.16    9.95   0
  -3   4  26  634.42   13.30   0
  -3   7 -13   16.46    6.24   0
  -3   7  -7    3.04    6.27   0
  -1   4   1   29.90    5.98   0
  -7   9  17   -1.30    7.43   0
  -6   9   9    3.22    7.51   0
  -5   8  14  145.06    9.38   0
  -4   8 -15    1.11    6.56   0
  -4   8  -3    0.84    7.68   0
  -3   5  22  306.44    9.87   0
  -3   7 -16  458.45   11.21   0
  -3   7  -4  663.74   12.60   0
  -2   3  22  443.77   11.39   0
  -2   4  18 1032.39   15.47   0
  -1   3  11   16.58    5.64   0
  -6   8  22  110.30    9.07   0
  -5   7  24  325.38   10.87   0
  -4   8 -18  211.30   10.02   0
  -3   6  15   -0.70    6.77   0
  -3   7 -19    2.04    6.50   0
  -3   7  -1   10.18    7.38   0
  -2   5  11    3.53    5.47   0
  -6   7  29   -3.84    7.20   0
  -4   8   0  527.93   11.90   0
  -2   6 -11   -1.39    6.51   0
  -1   4 -23   10.99    5.59   0
  -7   8  27    2.25    7.39   0
  -6   9  12  143.52    9.60   0
  -5   9 -14   78.10    8.58   0
  -5   9 -11   -1.84    7.25   0
  -4   8 -21    0.84    7.49   0
  -3   7 -22  181.31    9.23   0
  -3   7   2  241.31    9.11   0
  -2   6 -14  300.80    9.23   0
  -2   6  -5    4.62    5.65   0
  -1   4   4 1330.28   16.63   0
  -5   9 -17    2.33    7.50   0
  -5   9  -2  181.02    9.87   0
  -4   8   3   -1.08    6.85   0
  -2   6 -17    1.46    6.39   0
  -2   6  -2  616.88   12.52   0
  -7   9  20  134.91    9.41   0
  -5   9   1   -4.37    8.36   0
  -4   5  30  288.65    9.98   0
  -4   8 -24  329.08   10.81   0
  -3   7   5    6.58    7.20   0
  -5   6  31    0.37    6.40   0
  -5   9 -20  126.83    9.14   0
  -4   6  26  372.49   10.81   0
  -4   8   6  220.14    9.14   0
  -3   7 -25    3.50    6.70   0
  -2   5  14  395.33   10.03   0
  -2   6 -20  640.22   13.18   0
  -2   6   1    1.08    5.72   0
  -6   8  25    2.62    7.31   0
  -5   9   4  132.49    9.47   0
  -1   4   7   21.12    5.38   0
  -5   7  27   -1.10    7.23   0
  -5   9 -23   -0.39    6.85   0
  -3   5  25    5.76    6.25   0
  -3   7   8  565.04   11.91   0
  -2   4  21    2.15    5.51   0
  -2   6   4  871.84   14.11   0
  -5   8  20  229.69   10.11   0
  -4   8   9    1.21    6.73   0
  -2   6 -23   -6.98    6.37   0
  -7   9  23   -0.77    6.89   0
  -5   9   7    8.72    7.59   0
  -3   4  29    3.13    5.62   0
  -6   9  18  112.35    8.52   0
  -4   7  22  173.74    9.27   0
  -3   7  11    1.17    7.05   0
  -2   6   7    3.19    6.98   0
  -1   4  10 1161.11   15.97   0
  -1   5  -9   -1.39    6.01   0
  -5   9  10  150.22    9.42   0
  -4   8  12  275.06    9.63   0
  -3   6  21    5.63    6.75   0
  -2   3  25    5.53    5.04   0
  -1   5 -12  949.56   14.61   0
  -2   6 -26  374.70   11.15   0
  -1   5 -15   20.13    5.99   0
  -1   5  -3   23.69    5.73   0
  -6   8  28  159.37    9.47   0
  -5   8  23    6.11    7.91   0
  -4   6  29   -0.05    6.51   0
  -2   6  10  364.97   10.56   0
  -1   5   0 1419.21   17.19   0
  -6   9  21    0.23    7.40   0
  -5   9  13    4.63    8.19   0
  -3   7  14  351.74   10.94   0
  -1   5 -18  365.88   10.77   0
  -5   7  30   73.26    8.22   0
  -2   4  24 1863.27   20.58   0
  -1   5   3   -2.14    6.31   0
  -4   7  25    3.51    7.47   0
  -3   5  28  393.64   11.05   0
  -3   8 -11   -7.49    7.49   0
  -1   4  13   12.51    5.18   0
   0   3 -12 2513.50   25.18   0
   0   3  -9   -0.77    4.14   0
  -4   9 -13   12.45    7.80   0
  -4   9 -10  155.89    9.53   0
  -4   9  -4  125.92    9.24   0
  -3   6  24  591.05   12.76   0
  -3   8 -14  148.13    9.49   0
  -3   8  -2  225.79   10.35   0
  -2   6  13   -4.34    6.61   0
  -1   5 -21   10.88    5.67   0
   0   3  -3   -4.32    4.42   0
  -4   9 -16  359.40   11.49   0
  -4   9  -1   -3.21    7.85   0
  -3   7  17   10.76    6.93   0
  -3   8 -17   10.79    7.33   0
  -3   8   1    5.08    7.67   0
  -1   5   6  376.86   10.14   0
  -6   9  24  233.09   10.23   0
  -5   8  26  195.30    9.40   0
  -4   9   2  179.48    9.78   0
  -2   7 -12  496.07   11.99   0
  -2   7  -9    5.33    5.91   0
  -2   7  -3   14.81    7.20   0
   0   3 -15    1.62    4.65   0
   0   3   0 2664.18   24.24   0
  -4   9 -19   -0.37    7.11   0
  -3   8 -20  227.65    9.95   0
  -3   8   4  288.21    9.87   0
  -2   7 -15    7.97    6.93   0
  -2   7   0  643.24   13.22   0
  -5  10  -3   -1.72    7.54   0
  -4   9   5   -7.42    7.87   0
  -2   6  16  742.64   13.58   0
  -1   4  16 2135.02   20.99   0
  -1   5 -24  901.97   15.96   0
  -5  10   0  233.06    9.98   0
  -4   9 -22   80.00    8.85   0
  -3   8   7  -10.39    7.67   0
  -2   7 -18  395.95   11.08   0
  -2   7   3    4.77    7.39   0
  -1   5   9   23.76    5.90   0
   0   3 -18 1239.43   19.02   0
   0   3   3   -1.80    5.46   0
  -5  10   3   -5.02    7.72   0
  -4   8  21    7.42    7.54   0
  -4   9   8  363.56   11.56   0
  -3   8 -23    6.82    6.65   0
  -2   3  28 1328.38   19.35   0
  -2   5  23   12.89    5.26   0
  -1   3  20 1388.06   18.12   0
  -3   6  27    0.99    6.72   0
  -2   7   6  456.18   11.48   0
  -6   9  27   -9.05    6.85   0
  -5   8  29    6.92    7.61   0
  -5  10   6   94.58    8.57   0
  -3   5  31    2.26    5.87   0
  -2   4  27   -2.33    5.42   0
  -2   7 -21    2.09    6.64   0
  -1   5  12 1158.19   15.68   0
  -4   9  11   -5.96    8.07   0
  -1   6 -10  469.62   11.35   0
  -1   6  -4  754.87   13.41   0
   0   3   6 2062.95   20.86   0
  -5   9  22   98.11    9.02   0
  -2   7   9   -8.02    6.39   0
  -1   6 -13    7.09    6.40   0
  -1   6  -1   11.43    6.85   0
  -4   8  24  349.99   11.04   0
  -3   7  23    0.24    7.40   0
  -3   8  13  -10.77    6.76   0
  -2   7 -24  332.98   10.76   0
  -1   6   2  356.46   10.53   0
   0   4 -10  415.13   10.28   0
   0   4  -4 1536.55   17.80   0
  -4   9  14   88.68    9.04   0
  -1   6 -16  650.40   13.11   0
   0   4 -13    0.39    5.56   0
   0   4  -1    3.63    4.95   0
  -4   7  31    2.74    6.94   0
  -2   5  26  616.85   12.68   0
  -2   7  12  422.60   10.84   0
  -1   5  15    4.21    5.61   0
  -1   6   5    1.64    6.94   0
   0   3   9    2.54    5.49   0
  -3   6  30  197.36    9.17   0
  -1   6 -19    0.50    6.38   0
   0   4 -16 1522.53   19.10   0
   0   4   2 1404.92   16.84   0
  -5   8  32  192.86   10.22   0
  -5   9  25    0.50    7.68   0
  -4   9  17    2.67    7.46   0
  -3   7  26  157.18    9.20   0
  -3   9  -9    7.26    8.17   0
  -3   9  -6  176.23    9.43   0
  -2   7  15   10.46    7.13   0
  -1   3  23    5.56    4.36   0
  -1   6   8  809.77   13.39   0
   0   4   5   -1.35    5.06   0
  -4   8  27   -4.92    8.00   0
  -3   9 -12  137.17    8.98   0
  -3   9   0  333.63   11.00   0
  -2   4  30  200.97    9.13   0
  -1   4  22  359.82   10.16   0
  -1   5  18  770.85   13.48   0
  -3   8  19   -0.87    7.96   0
  -3   9   3   -3.08    8.13   0
  -2   8 -10  190.21    9.96   0
  -2   8  -7   -3.02    7.53   0
  -1   6 -22  217.25    9.20   0
   0   3  12 1996.99   20.67   0
   0   4 -19   -0.92    5.34   0
  -4  10   1   -5.36    7.51   0
  -3   9 -15   12.52    7.61   0
  -2   8 -13    1.25    7.69   0
  -2   8  -1    4.38    6.64   0
  -1   6  11    7.57    6.12   0
   0   4   8 1546.20   17.44   0
  -5   9  28   84.29    7.96   0
  -3   9 -18  109.46    9.12   0
  -3   9   6   80.11    8.71   0
  -2   3  31    2.17    5.26   0
  -2   5  29   -0.01    6.26   0
  -2   6  25    9.94    6.47   0
  -2   8   2  215.05    9.16   0
  -4   7  34  171.47    9.21   0
  -2   8 -16  396.34   11.24   0
  -3   6  33    8.89    6.58   0
  -3   9   9    1.04    7.80   0
  -1   6  14  433.39   11.23   0
   0   5  -8  956.17   14.38   0
   0   5  -2  333.31   10.08   0
  -4   8  30   92.86    8.79   0
  -3   7  29    5.35    6.56   0
  -2   8 -19    5.13    7.97   0
  -2   8   8  451.85   12.08   0
   0   4 -22  629.15   13.79   0
   0   4  11    1.03    5.10   0
   0   5 -11    4.51    4.99   0
   0   5   1    2.39    6.31   0
  -4   9  23    2.27    7.21   0
  -1   7 -11    5.06    7.20   0
  -1   7  -8  657.85   12.56   0
  -1   7  -2  344.71   10.12   0
  -1   7   1    5.12    7.33   0
   0   3  15   -2.20    4.76   0
   0   5 -14  632.11   12.76   0
  -3   9  12  180.35    9.26   0
  -2   8  11   -3.92    8.39   0
  -1   3  26  520.65   11.94   0
  -1   4  25    0.74    4.85   0
   0   5   4 1164.63   15.34   0
  -2   6  28  451.67   11.66   0
  -1   6  17    7.59    6.07   0
  -1   7 -14  145.27    8.75   0
  -1   7   4  276.41    9.47   0
  -3   8  25    1.34    7.63   0
  -3   9  15   -6.55    7.91   0
   0   4  14  329.37    9.19   0
   0   5 -17   -2.20    5.78   0
   0   5   7    5.64    5.67   0
  -4   9  26  151.79    9.46   0
  -2   8  14  127.33    9.12   0
  -1   5  24  671.72   12.92   0
  -1   7 -17    6.68    6.47   0
  -1   7   7   13.95    6.52   0
  -4   8  33    5.11    7.30   0
  -3   7  32  288.30   10.55   0
  -2   5  32  680.43   13.50   0
   0   5  10  719.06   13.03   0
  -1   6  20  497.27   11.73   0
  -1   7  10  236.20    9.37   0
  -3   9  18  179.20    9.25   0
  -2   8  17   -6.49    8.14   0
  -1   7 -20  253.29    9.86   0
   0   4  17    4.45    5.95   0
   0   5 -20  684.30   13.62   0
  -3   8  28  179.98    9.28   0
  -1   7  13    3.09    7.66   0
  -2   6  31   -1.49    6.63   0
  -1   4  28  693.02   12.77   0
   0   5  13   -4.62    5.72   0
   0   6  -6  256.49    9.49   0
   0   6   0  883.08   14.48   0
  -4   9  29    1.75    7.55   0
  -2   7  27    2.20    7.42   0
  -2   9  -8  230.54   10.36   0
  -2   9  -5    3.82    7.56   0
   0   6  -9    0.24    6.77   0
   0   6   3   -3.34    7.13   0
  -2   8  20  202.41    9.81   0
  -2   9 -11    1.85    7.68   0
  -2   9   1   -3.24    7.01   0
  -1   5  27    3.98    5.51   0
  -1   7  16  638.51   13.52   0
   0   6 -12  446.34   11.25   0
  -3   7  35    2.37    8.00   0
  -2   9   4  212.73    9.49   0
  -1   3  29    9.28    5.11   0
   0   2  19   -2.74    4.06   0
   0   5  16  716.41   12.93   0
   0   6   6  410.04   11.21   0
   1   3  -2  853.81   14.03   0
  -2   9 -14  129.44    8.50   0
  -2   9   7    5.43    7.63   0
   0   3  21   -0.12    4.54   0
   0   6 -15    1.04    6.39   0
   1   3  -8 2691.67   24.41   0
   1   3   1   24.88    6.06   0
  -3   8  31    2.76    6.89   0
  -2   5  35    4.21    6.16   0
  -1   8  -6  206.39   10.00   0
  -1   8  -3   -2.21    7.20   0
   0   6   9  -10.89    7.32   0
   1   2  -1   39.99    5.26   0
  -3   9  24  179.31    8.92   0
  -2   9 -17   -2.15    7.24   0
  -2   9  10  169.04    9.54   0
  -1   8  -9    6.36    7.10   0
  -1   8   3    4.71    6.54   0
   1   2   2  705.96   13.50   0
   1   3 -11   32.73    5.56   0
   1   3   4 1295.08   16.28   0
  -2   6  34  166.08    8.98   0
  -2   7  30  177.02    9.48   0
  -1   6  26  226.26    9.53   0
  -1   8 -12  183.88    9.44   0
  -1   8   6   97.67    8.88   0
   0   5  19   -3.34    6.75   0
   0   6 -18  357.60   10.73   0
   0   6  12  354.90   10.87   0
  -2   9  13   -6.72    7.96   0
  -1   4  31    8.98    6.12   0
  -1   5  30  181.89    8.77   0
   1   3   7   14.02    5.75   0
   1   4  -6  885.24   13.80   0
   1   4   0 1396.39   16.77   0
  -1   8 -15   -6.58    7.01   0
  -1   8   9    1.69    7.49   0
   1   2   5   10.37    4.71   0
   1   4  -9   -0.30    5.72   0
   1   4   3    1.24    5.14   0
  -3   9  27    1.07    7.15   0
  -1   7  22  159.47    9.64   0
   0   6  15    5.38    6.95   0
   1   3 -14  664.18   13.03   0
   1   4   6  377.69   10.31   0
  -3   8  34  121.69    9.10   0
  -2   8  26  207.33    9.16   0
  -2   9  16  183.65    9.70   0
  -1   8 -18  107.88    9.21   0
  -1   8  12  217.46    9.49   0
   0   3  24 1553.33   18.52   0
   0   6 -21   -4.36    6.27   0
   1   3  10 1157.73   15.78   0
   1   4 -12  948.77   15.01   0
   0   2  22 1799.16   20.94   0
   0   5  22  237.43    8.70   0
   0   7  -7   -3.36    7.55   0
   0   7  -4  187.39    9.73   0
   0   7   2  240.58   10.04   0
   1   2   8 3326.51   26.70   0
  -2   7  33    7.40    6.90   0
  -1   6  29   12.44    6.07   0
  -1   8  15   -6.48    7.93   0
   0   7 -10  244.27    9.93   0
   0   7   5    8.38    7.61   0
   1   4   9   19.86    5.75   0
  -2   9  19    4.75    7.39   0
  -1   3  32 1154.86   17.49   0
   0   6  18  271.35    9.34   0
   1   3 -17   -0.11    4.63   0
   1   4 -15   15.37    5.67   0
  -2   6  37   -0.77    7.54   0
  -2   8  29    1.99    7.92   0
   0   4  26  749.95   13.39   0
   0   7 -13   29.88    7.45   0
   0   7   8  614.67   12.45   0
   1   3  13   15.22    5.16   0
   1   4  12 1152.14   15.59   0
   1   5  -7   -5.06    6.42   0
   1   5   2  347.07    9.63   0
  -1   5  33   -2.49    6.25   0
  -1   8  18  224.74   10.19   0
   1   2  11   17.17    4.87   0
   1   5 -10  481.02   11.58   0
   1   5   5    1.42    5.93   0
  -2   9  22   53.52    8.60   0
  -1   4  34  528.72   12.18   0
   0   6  21   -7.85    7.45   0
   0   7  11    3.15    6.74   0
   1   5   8  841.21   14.09   0
  -3   8  37   -4.39    7.79   0
   0   7 -16  501.48   12.37   0
   1   4 -18  384.55   10.66   0
  -1   6  32  394.27   11.38   0
  -1   7  28  154.57    9.27   0
  -1   9  -1   -7.57    7.78   0
   0   3  27    6.35    4.56   0
   0   7  14  146.47    9.31   0
   1   3  16 2124.33   20.29   0
   1   4  15   11.48    5.56   0
   1   5 -13    4.31    5.67   0
  -2   7  36  167.48    8.98   0
  -1   8  21    5.62    7.36   0
  -1   9  -7   -4.06    7.02   0
  -1   9  -4  191.80    8.94   0
  -1   9   5    7.23    7.88   0
   1   2  14 1675.78   19.22   0
   1   5  11    6.14    6.19   0
  -2   8  32  199.86    9.44   0
  -1   9 -10   89.65    8.87   0
   0   2  25   -0.71    5.01   0
   1   3 -20  812.13   15.68   0
  -1   9   8  134.39    9.60   0
   0   4  29    1.55    6.15   0
   0   5  28  633.69   12.98   0
   0   7  17    1.35    6.53   0
   1   4  18  763.21   13.25   0
   1   5 -16  661.72   13.30   0
   1   5  14  407.35   11.17   0
  -1   9  11    8.47    7.55   0
   1   3  19   12.63    6.04   0
   1   6  -5   13.01    6.99   0
   1   6   4  265.22   10.16   0
  -1   5  36  481.63   11.86   0
  -1   7  31   -3.11    7.66   0
   0   8  -2   98.64    8.86   0
   1   4 -21    6.57    5.53   0
   1   6  -8  685.74   13.43   0
   1   6   7    7.62    7.53   0
  -1   6  35    6.40    7.22   0
   0   7  20  177.50    9.91   0
   0   8  -5    3.51    7.17   0
   0   8   4  212.60    9.86   0
   1   5  17   11.33    7.25   0
   0   8  -8  275.02   10.03   0
   0   8   7   -1.00    7.50   0
   1   2  17   12.72    4.73   0
   1   4  21    6.68    6.78   0
   1   5 -19   -0.42    5.88   0
   1   6 -11    5.56    7.11   0
   1   6  10  222.99    9.65   0
  -2   7  39    4.72    7.82   0
  -2   8  35   -4.04    6.95   0
  -1   4  37    4.65    5.97   0
   0   3  30  553.41   12.13   0
   0   8 -11   -7.21    7.48   0
   0   8  10  180.53    9.87   0
   0   5  31    1.84    6.92   0
   0   7  23    4.59    7.94   0
   1   6 -14  142.14    8.61   0
   1   6  13   -7.45    7.36   0
   0   4  32  461.60   11.52   0
   0   8  13    7.54    7.65   0
   1   5  20  513.28   11.29   0
  -1   7  34  184.49    9.11   0
   0   8 -14  109.85    8.80   0
   0   2  28 1085.86   16.99   0
   0   6  30  149.23    9.07   0
   0   8  16  184.34   10.18   0
   1   6  16  620.86   12.59   0
  -1   5  39    0.18    6.25   0
  -1   8  30   48.66    7.78   0
   1   5  23   -2.92    7.13   0
   1   6 -17    2.27    6.39   0
   2   3  -1    3.23    4.98   0
   2   3   2  794.91   12.98   0
  -1   6  38  132.74    8.82   0
   1   6  19    3.56    7.86   0
   1   7  -3    7.42    7.94   0
   1   7   0  393.29   10.70   0
   1   7   6  111.07    9.22   0
   2   4   1    5.62    5.56   0
   2   4   4  913.86   14.21   0
   0   8  19    8.79    7.73   0
   1   3  25   -3.60    5.82   0
   1   7  -6  190.89    9.83   0
   2   3  -7   11.92    5.78   0
   2   3   8 2206.64   20.69   0
   2   4  -5   -1.02    5.42   0
   2   4   7    0.95    6.41   0
   1   7  -9   -2.48    6.99   0
   1   7   9   13.02    7.02   0
   2   4  -8  880.42   14.47   0
  -1   7  37    8.74    7.49   0
   0   3  33    0.12    5.50   0
   1   4  27    7.85    6.28   0
   2   2   0 4151.64   29.17   0
   2   3  11    3.00    6.45   0
   2   4  10  374.49    9.98   0
  -1   8  33   -2.33    7.56   0
   0   4  35   -0.78    6.28   0
   0   6  33   -3.53    7.61   0
   0   7  29    0.30    7.82   0
   0   8  22   86.65    8.43   0
   1   7 -12  181.41    9.25   0
   2   2   3    0.02    4.85   0
   2   3 -10  709.74   12.85   0
   2   5  -3    5.46    6.85   0
   2   5   3    1.25    6.93   0
   1   2  23    2.32    4.53   0
   1   7  15    7.32    7.71   0
   2   2   6  808.31   13.20   0
   2   4 -11    3.69    6.00   0
   2   4  13   -0.87    5.99   0
   2   5   6  451.78   10.97   0
   2   2  -6  810.30   13.73   0
   2   2   9   -7.27    5.69   0
   2   3  14  383.45    9.73   0
   2   5  -6  151.36    7.76   0
   2   5   9   -0.29    7.47   0
   1   3  28  699.77   13.05   0
   1   6  25    1.15    7.90   0
   1   7 -15   -4.33    6.67   0
   2   3 -13   -1.32    5.60   0
   2   4  16  763.20   13.57   0
   2   5  -9   -1.90    6.77   0
   0   8  25    5.74    7.88   0
   1   5  29    8.44    7.28   0
   2   4 -14  298.47    9.78   0
   2   5  12  447.58   10.84   0
   0   2  31    1.38    5.13   0
   0   5  37   -6.83    6.78   0
   1   4  30  173.17    8.89   0
   2   2  -9    1.31    4.92   0
   2   2  12  792.93   12.99   0
   2   3  17    8.69    5.54   0
   0   6  36  143.47    9.23   0
   1   7  21    3.58    8.00   0
   2   4  19    0.55    7.19   0
   2   5 -12  472.24   11.77   0
   2   5  15    4.24    6.47   0
   1   2  26  548.72   11.93   0
   1   8  -1   -0.12    7.20   0
   1   8   2   91.61    8.61   0
   2   6  -1    0.43    7.45   0
   2   6   5    4.30    7.48   0
   0   3  36  527.91   12.28   0
   0   4  38  126.28    8.00   0
   1   8  -4  177.71    9.16   0
   1   8   8  157.74    9.19   0
   2   2  15   -2.10    5.00   0
   2   3 -16 1813.41   21.18   0
   2   3  20  612.02   12.31   0
   2   4 -17    0.79    6.39   0
   2   5  18  177.22    9.36   0
   2   6  -4  224.95   10.06   0
   2   6   8  448.41   12.19   0
   1   8  -7   -0.84    6.90   0
   1   8  11   -6.06    7.45   0
   2   2 -12  782.75   14.56   0
   2   5 -15    4.77    6.16   0
   2   6  -7   -6.75    7.09   0
   2   6  11  -10.91    7.79   0
   0   7  35    5.34    7.27   0
   1   3  31    8.34    6.23   0
   1   5  32  380.58   10.51   0
   1   7  24  195.80    9.55   0
   2   4  22  372.13   10.33   0
   1   4  33    2.83    6.75   0
   1   8 -10   79.72    7.63   0
   2   5  21    4.20    7.37   0
   2   6 -10  198.34    9.31   0
   2   6  14  117.60    8.09   0
   0   5  40  211.99    9.55   0
   0   6  39    5.68    7.43   0
   1   6  31   -0.15    7.63   0
   2   2  18 1089.78   14.98   0
   2   3  23    2.85    6.45   0
   2   6  17    2.22    8.22   0
   1   1  21   16.86    5.07   0
   2   1   1   35.59    5.26   0
   2   1   4 3054.22   26.09   0
   2   3 -19    4.26    5.56   0
   2   4  25   -0.13    6.06   0
   2   5  24  468.56   12.29   0
   2   6 -13    2.06    7.07   0
   1   2  29    6.64    5.48   0
   1   5  35   -2.46    7.40   0
   2   1   7   -1.21    4.56   0
   2   2 -15   -1.70    4.66   0
   2   6  20  200.38   10.17   0
   0   2  34  255.50    9.91   0
   0   7  38   32.01    7.42   0
   2   7  -2   79.22    8.55   0
   2   7   1    0.74    7.93   0
   2   7   7    2.84    7.83   0
   1   3  34  508.01   11.92   0
   1   4  36  483.03   11.91   0
   1   6  34  160.38    9.38   0
   1   7  30   42.12    8.47   0
   2   1  10 2067.38   21.11   0
   2   7  -5   -5.03    7.77   0
   2   7  10  166.81    9.66   0
   2   6  23   -1.60    7.80   0
   2   7  13    4.83    7.52   0
   3   3   3    4.72    5.58   0
   3   3   6  475.98   10.74   0
   3   4   5   14.21    6.32   0
   3   4   8  589.75   12.35   0
   0   6  42  144.91    9.62   0
   2   1  13   30.67    5.84   0
   2   7  -8  227.02    9.66   0
   3   3  -3    5.62    5.43   0
   3   3   9   12.96    6.02   0
   3   4  -4  686.44   13.18   0
   3   4  11    9.79    7.10   0
   2   7  16  177.54    9.72   0
   3   3  12  764.12   13.47   0
   2   7 -11    1.65    7.85   0
   3   3  -6  469.50   10.74   0
   3   4  -7    5.86    6.86   0
   3   4  14  359.20   10.26   0
   3   5   7   -0.55    7.51   0
   1   1  24 1748.00   21.23   0
   1   7  33   -3.19    7.13   0
   2   3  29    1.86    6.61   0
   2   6  26  197.37    9.55   0
   2   7  19    6.67    7.75   0
   3   2   4  724.75   12.87   0
   3   3  15   -3.44    6.14   0
   3   5  -2  220.39    9.07   0
   3   5  10  205.97   10.27   0
   1   2  32 1148.27   16.85   0
   1   6  37   -3.23    7.76   0
   2   1  16 2003.60   20.62   0
   2   2 -18 1026.22   17.81   0
   2   4  31   -4.04    7.02   0
   3   2   1    7.34    5.19   0
   3   2   7   13.46    5.33   0
   3   3  -9    8.52    6.19   0
   3   4 -10  367.28   10.92   0
   3   4  17   -0.72    6.52   0
   3   5  -5    1.95    7.16   0
   3   5  13    6.77    7.27   0
   1   4  39   -0.75    7.43   0
   3   2  10  727.03   12.57   0
   3   3  18  430.32   11.31   0
   1   3  37    0.05    6.05   0
   2   7  22   43.78    8.68   0
   3   2  13   -0.41    6.37   0
   3   4  20  426.86   11.74   0
   3   5  -8  507.79   12.19   0
   3   5  16  437.95   12.35   0
   2   2  27   -0.88    5.05   0
   3   2  -5   12.22    5.11   0
   2   3  32  680.57   13.42   0
   2   5  33    2.70    7.53   0
   3   3 -12  772.18   14.08   0
   3   3  21   14.10    6.89   0
   3   4 -13   11.36    6.46   0
   3   5  19   12.93    7.83   0
   3   6   0  320.01   11.14   0
   3   6   3   -0.43    8.12   0
   1   5  41    4.15    7.50   0
   2   4  34  174.18    9.27   0
   3   2  -8 2194.26   21.87   0
   3   2  16 1792.60   18.63   0
   3   4  23    2.35    7.68   0
   3   5 -11   -5.58    7.16   0
   3   6  -3    5.21    7.73   0
   3   6  12  185.91    9.90   0
   1   6  40  199.75    9.46   0
   1   1  27   -0.05    4.97   0
   2   6  32  198.70    9.48   0
   3   2  19    3.39    6.34   0
   3   5  22  121.27    8.33   0
   3   6  -6  186.93    9.26   0
   3   6  15   11.00    8.57   0
   1   2  35    1.36    5.36   0
   2   2  30  206.83    8.73   0
   3   3 -15    6.22    6.50   0
   3   3  24  609.46   12.14   0
   3   4 -16  430.94   12.05   0
   3   5 -14  136.67    8.76   0
   1   4  42  207.01    9.62   0
   2   5  36  168.04    9.66   0
   3   2 -11    4.40    5.56   0
   3   4  26  160.74    8.42   0
   3   6  -9   -1.66    7.58   0
   3   6  18  208.05    9.68   0
   1   3  40  445.58   11.63   0
   2   3  35    2.81    6.74   0
   3   5  25    1.90    7.10   0
   2   4  37   -1.57    7.37   0
   2   6  35    2.67    7.37   0
   3   1   2  880.63   14.22   0
   3   1   5    9.39    5.04   0
   3   1   8 2744.97   23.21   0
   3   2  22  293.97    9.31   0
   3   6  21    5.28    8.03   0
   1   6  43   -1.59    8.00   0
   3   1  11   28.66    6.41   0
   3   1  -1   24.56    5.24   0
   3   5  28  177.86    9.62   0
   3   6  24  187.34    9.96   0
   2   1  25    3.87    5.53   0
   3   3 -18  414.27   11.67   0
   4   3   4  675.72   13.29   0
   4   3   7   -2.28    7.47   0
   4   4   6  202.60    9.84   0
   4   4   9    1.19    7.75   0
   2   2  33   -8.24    6.14   0
   2   5  39    3.87    7.03   0
   3   2 -14  385.63   10.75   0
   4   3  10  393.41   10.49   0
   4   4   0  546.89   12.88   0
   4   4  12  279.61   10.68   0
   1   1  30  585.75   13.23   0
   3   1  17   -2.90    6.05   0
   3   3  30  199.74    8.47   0
   3   6  27    9.82    8.27   0
   4   3  -2  253.86    9.09   0
   4   3  13   12.11    6.62   0
   4   4  -3    6.00    7.33   0
   4   4  15    5.09    8.04   0
   3   4  32  293.50    9.81   0
  -3   8 -32  221.10   10.06   0
  -3   8 -14  142.52    8.93   0
  -2   7 -15   12.59    6.46   0
   0   4 -13   -3.61    5.79   0
  -4   6  17    3.08    6.21   0
  -4   8   3    0.28    7.76   0
  -4   9 -28  102.36    9.17   0
  -4   9 -25  -22.02    7.89   0
  -4   9 -19   -5.66    7.89   0
  -3   5  16 1742.82   19.99   0
  -2   7 -33    3.20    6.87   0
  -2   7 -12  509.21   12.14   0
   0   3  -3   -1.04    4.65   0
  -4   9 -16  362.75   11.80   0
  -3   8 -35   -4.02    7.03   0
  -3   8 -11  -11.46    7.45   0
  -1   6 -25   11.15    6.81   0
  -1   6 -22  232.31    9.67   0
  -1   6 -19   -1.54    6.78   0
  -7   9  11   -2.78    7.57   0
  -5   8  11    3.78    7.58   0
  -4   9 -13    7.55    8.11   0
  -3   7   5    8.30    6.96   0
  -2   7  -9   12.75    7.62   0
  -1   6 -28  424.07   11.73   0
  -1   6 -16  643.12   13.23   0
  -4   5  21    6.23    5.52   0
  -4   7  13   13.10    7.15   0
  -3   8  -8  472.19   11.64   0
  -2   6   4  907.82   14.05   0
  -1   5   0 1442.67   17.58   0
  -1   6 -31    1.05    6.76   0
  -4   9 -10  145.25    9.98   0
  -6   9   9    4.02    7.27   0
  -5   7  18  391.54   11.09   0
  -3   8  -5   -6.60    7.95   0
  -2   7  -6  181.63    9.53   0
  -1   4   7   10.28    6.19   0
   0   4  -7    4.27    5.86   0
  -4   9  -7    2.74    8.03   0
  -3   4  20  885.20   15.98   0
  -2   4  15   -5.08    5.58   0
  -3   7   8  584.50   12.78   0
   0   3   0 2644.09   24.03   0
  -3   8  -2  235.88   10.40   0
  -2   7  -3    6.46    7.24   0
  -1   5   3   -7.94    6.48   0
  -5   8  14  131.72    9.27   0
  -4   9  -4  124.05    8.81   0
  -3   6  15    6.16    6.56   0
  -2   6   7    2.72    5.87   0
  -1   3  11   18.75    4.81   0
  -1   6  -7   -1.76    5.97   0
  -4   6  20  612.24   13.07   0
  -4   8   9    4.20    7.64   0
   0   4  -4 1589.80   18.08   0
  -5   9   7    4.66    7.62   0
  -3   5  19    7.08    5.87   0
   0   5 -26  225.75    9.46   0
   0   5 -23    0.18    5.53   0
   0   5 -20  679.98   12.90   0
   0   5 -17   -1.61    6.49   0
  -5  10  -6   89.57    8.65   0
  -4   9  -1   -1.95    7.40   0
  -3   8   1   -2.80    6.97   0
  -2   7   0  639.68   12.60   0
  -1   6  -4  753.11   13.18   0
  -1   4  10 1128.82   16.01   0
   0   5 -29   -2.57    6.20   0
   0   5 -14  649.08   12.36   0
  -5   7  21   -2.20    6.56   0
  -2   8 -22  113.07    9.09   0
  -1   5   6  381.52   10.52   0
   0   3   3    1.67    4.76   0
  -5  10  -3    8.50    6.98   0
  -4   9   2  184.54   10.06   0
  -3   9 -24  216.66    9.91   0
  -3   9 -21    9.58    8.11   0
  -2   6  10  343.94    9.95   0
  -2   8 -25  -10.16    7.71   0
  -2   8 -19    5.44    7.25   0
  -1   6  -1   10.69    7.18   0
   0   4  -1   -0.24    5.18   0
  -5   8  17   -4.03    7.19   0
  -5   9  10  136.33    9.78   0
  -4   8  12  256.58    9.51   0
  -3   8   4  272.99    9.81   0
  -3   9 -27    4.36    7.85   0
  -3   9 -15   21.23    8.07   0
  -2   7   3    7.36    6.63   0
  -2   8 -28  173.12    9.74   0
  -2   8 -13    1.77    7.75   0
  -6   9  15   12.21    7.49   0
  -2   8 -31    0.64    7.62   0
   0   5  -8  993.10   15.07   0
   1   3 -20  908.48   16.08   0
  -5  10   0  214.87   10.32   0
  -2   4  18 1035.46   15.96   0
  -2   8 -10  200.34   10.25   0
  -1   7 -26  275.87   10.72   0
  -1   7 -23   -3.10    7.79   0
  -1   7 -20  264.05    9.79   0
  -1   7 -17    0.19    7.63   0
   1   3 -23   15.45    5.40   0
   1   3 -17    1.53    4.95   0
  -4   7  19   -1.58    6.74   0
  -3   9  -9   -0.08    7.60   0
  -1   6   2  333.32   10.61   0
   1   3 -26  599.96   13.69   0
  -3   8   7    2.07    7.84   0
  -2   7   6  453.70   11.77   0
  -1   5   9   17.92    6.66   0
  -1   7 -29   -9.02    7.37   0
   0   4   2 1410.49   17.02   0
   0   5  -5  -10.06    6.19   0
   1   3 -14  727.75   13.85   0
  -5   9  13    7.36    7.70   0
  -4   6  23    3.77    5.97   0
  -3   9  -6  201.22    9.49   0
  -4   8  15   -0.10    7.73   0
  -3   4  23   15.33    5.81   0
  -3   5  22  299.91    9.88   0
  -2   5  17    0.20    5.06   0
  -2   8  -4  257.39   10.63   0
  -1   4  13    4.55    5.85   0
  -1   7  -8  671.77   13.65   0
   0   3   6 2037.82   20.93   0
  -3   9  -3    9.19    8.03   0
   1   3 -11   24.83    5.14   0
  -1   6   5    6.26    6.13   0
   0   5  -2  347.54    9.63   0
  -5  10   6   99.33    8.34   0
  -2   7   9   -7.47    7.12   0
  -2   8  -1   -7.26    8.11   0
  -1   7  -5   -1.17    6.72   0
   0   6 -21   -3.16    6.89   0
   0   6 -18  360.73   11.13   0
  -3   7  17    0.77    7.29   0
   0   4   5   -6.07    5.29   0
   0   6 -24  472.94   12.15   0
   0   6 -15   -2.32    7.10   0
  -5   9  16  332.23   11.47   0
  -4  10  -2   77.89    8.51   0
  -3   6  21   12.32    6.39   0
  -1   5  12 1182.17   15.99   0
   0   6 -27   -2.56    6.87   0
   0   6 -12  425.47   11.24   0
  -4   8  18  206.16   10.02   0
  -4   9  11    3.34    7.51   0
  -2   6  16  744.16   13.59   0
  -2   8   2  222.38   10.75   0
  -1   7  -2  360.36   10.31   0
   0   5   1   -0.76    5.58   0
   1   4 -24  939.76   16.13   0
   1   4 -21    4.96    5.99   0
   1   4 -18  389.87   10.89   0
  -3   9   3    3.98    8.32   0
  -1   6   8  832.18   14.24   0
   1   4 -15   17.05    5.30   0
  -4  10   1   -4.80    7.50   0
  -3   8  13   -8.75    7.70   0
  -2   4  21    6.24    5.24   0
  -2   7  12  396.81   11.50   0
   1   3  -5    5.99    4.79   0
   1   4 -12  964.86   15.08   0
  -2   5  20  598.61   12.52   0
  -1   7   1  -10.10    6.67   0
   0   3   9   -2.07    4.87   0
   0   6  -6  242.63    9.73   0
  -2   8   5    7.87    7.88   0
  -2   9 -23    7.80    7.06   0
  -2   9 -20  153.82    9.58   0
  -2   9 -17   -3.97    8.01   0
   0   4   8 1585.91   18.11   0
   0   5   4 1159.71   15.90   0
   1   4  -9    4.34    5.94   0
  -4   9  14   74.04    9.20   0
  -3   9   6   88.44    8.66   0
  -2   9 -11    6.91    7.89   0
  -5   9  19   -0.36    7.63   0
  -3   5  25    3.24    6.11   0
  -3   7  20  426.23   11.62   0
  -1   3  17   11.56    5.21   0
  -1   6  11    0.06    7.29   0
  -1   8 -24  263.81   10.63   0
  -1   8 -21    3.19    7.64   0
  -1   8 -18  128.05    9.82   0
  -1   8 -15    2.10    7.71   0
   0   6  -3   -4.51    6.28   0
  -2   9  -8  220.40   10.05   0
  -1   7   4  281.35    9.68   0
   1   3  -2  878.85   14.02   0
  -4   8  21   -1.77    7.33   0
  -3   6  24  609.33   13.00   0
  -3   8  16  408.60   11.71   0
  -2   6  19   -0.19    5.77   0
  -1   8 -27    0.84    7.63   0
   1   2  -1   40.73    5.36   0
  -4   7  25    9.30    6.74   0
  -3   9   9   14.98    7.83   0
  -2   9  -5    9.81    8.11   0
   0   5   7   -5.58    6.71   0
   0   6   0  862.37   14.66   0
  -1   8  -6  176.84    9.90   0
   1   4  -3   17.97    6.54   0
   1   5 -19   -3.50    6.29   0
   1   5 -16  668.19   13.31   0
  -4   9  17   10.82    7.52   0
  -2   9  -2   97.12    8.78   0
  -1   7   7    7.75    6.58   0
   0   4  11   -5.97    6.07   0
   0   7 -19   -4.31    7.70   0
   0   7 -16  531.56   12.90   0
   1   5 -22  219.55    9.37   0
   1   5 -13    9.04    6.82   0
  -1   8  -3   14.01    7.98   0
   0   3  12 1955.04   20.40   0
   0   7 -22  104.30    8.68   0
   0   7 -13   -5.28    7.61   0
   1   3   1   22.70    5.42   0
   1   5 -25    6.38    6.17   0
  -2   5  23    5.43    6.08   0
  -2   8  11    5.20    7.12   0
  -1   4  19   17.14    6.09   0
   0   6   3   -8.59    6.33   0
   0   7 -25   -1.29    6.91   0
   0   7 -10  230.83   10.18   0
   1   5 -10  481.37   11.11   0
  -3   7  23    6.00    7.02   0
  -3   8  19    3.55    7.73   0
  -2   7  18  164.97    9.05   0
  -2   9   1    9.44    8.22   0
   1   4   0 1463.65   17.49   0
  -2   4  24 1821.98   21.17   0
  -1   7  10  246.88   10.02   0
  -1   8   0  407.18   12.25   0
   0   5  10  689.88   12.44   0
   1   2   2  673.43   13.10   0
  -4   8  24  319.22   10.95   0
  -2   9   4  183.39   10.05   0
   0   6   6  404.01   10.54   0
   0   7  -4  207.05   10.18   0
   1   3   4 1333.46   17.02   0
   1   5  -4  747.06   13.56   0
  -1   8   3   -8.60    8.41   0
   0   4  14  333.45    9.71   0
   1   4   3   -1.69    6.29   0
  -3   6  27   -1.38    6.25   0
  -3   9  15   -3.04    7.62   0
   0   7  -1    8.35    7.67   0
  -2   9   7   -8.03    8.10   0
  -1   7  13    5.16    7.79   0
   1   5  -1    7.84    6.01   0
  -3   8  22  106.10    8.54   0
  -2   7  21    1.12    7.15   0
  -1   8   6  121.12    9.36   0
   0   3  15    2.08    4.68   0
   0   5  13   -2.71    5.80   0
   0   6   9    1.42    7.36   0
   1   6 -17   10.95    7.13   0
  -3   7  26  154.12    8.96   0
  -1   5  21   10.91    6.17   0
  -1   9 -13  -11.96    7.18   0
   0   7   2  244.87   10.09   0
   1   2   5   10.43    5.26   0
   1   6 -20  265.78   10.30   0
   1   6 -14  134.58    7.99   0
   1   6 -11    7.99    7.34   0
  -2   5  26  637.36   13.02   0
  -1   4  22  357.67   10.20   0
   1   3   7   20.69    6.16   0
   1   4   6  380.29   10.34   0
   1   5   2  352.48   10.30   0
   1   6 -23    2.38    7.19   0
  -3   9  18  185.89    9.88   0
  -2   6  25   -3.84    6.27   0
   1   6  -8  642.75   12.73   0
  -4   9  23   -0.68    7.42   0
  -1   7  16  614.59   13.07   0
  -1   8   9    1.61    7.96   0
   0   7   5   -0.49    7.90   0
  -1   9  -4  188.94    9.90   0
   0   4  17   -8.84    5.30   0
   0   6  12  376.70   10.44   0
   0   8 -20  136.52    9.18   0
   0   8 -17   -1.38    7.79   0
   0   8 -14  125.56    8.93   0
   0   8 -11    6.05    7.88   0
   2   3 -19    5.46    6.03   0
   2   3 -16 1828.70   21.15   0
   2   3 -13    0.56    5.62   0
   0   5  16  716.14   12.76   0
   0   8 -23    1.52    8.02   0
   0   8  -8  247.04   10.61   0
   1   5   5    3.33    5.98   0
  -3   8  25   -0.19    7.45   0
  -1   9  -1   -0.11    7.81   0
   1   4   9   27.94    6.53   0
   1   6  -2  341.77   10.22   0
   2   2 -18 1048.12   17.85   0
   2   2 -15    0.01    4.94   0
   2   3 -22  271.31    9.95   0
   2   3 -10  745.57   13.22   0
  -2   4  27    0.39    5.56   0
  -2   8  20  183.54   10.01   0
  -1   8  12  197.53   10.11   0
   0   7   8  633.24   13.47   0
   2   2 -12  788.72   14.62   0
   2   3  -7    7.57    5.79   0
  -3   9  21   -0.98    7.94   0
  -1   9   2  120.18    8.94   0
   1   2   8 3362.41   27.08   0
   1   3  10 1124.65   15.36   0
   1   6   1    5.59    7.16   0
   2   2 -21   -1.09    4.98   0
   2   2  -9   -0.72    4.95   0
   2   4 -17    0.01    6.01   0
   2   4 -14  298.05   10.07   0
  -3   7  29    0.37    6.95   0
   0   6  15   -2.11    6.37   0
   0   8  -2   88.66    9.19   0
   1   5   8  845.00   14.26   0
   2   4 -20  666.27   13.62   0
  -1   3  23   -0.91    5.25   0
  -1   6  23   -0.62    6.83   0
   2   4  -8  861.62   13.94   0
  -2   6  28  437.37   11.53   0
  -1   9   5   -1.38    7.95   0
   0   5  19    2.29    6.45   0
   0   7  11   -2.66    7.90   0
   0   8   1   13.34    7.71   0
   1   6   4  285.41   10.19   0
   1   7 -15   -1.48    7.85   0
   2   2  -6  818.13   14.30   0
   2   4  -5   -0.27    6.24   0
  -2   5  29   -2.70    5.95   0
  -1   4  25    1.64    5.81   0
  -1   8  15    2.58    7.37   0
   1   4  12 1129.94   15.20   0
   1   7 -18  135.48    9.18   0
   1   7 -12  189.73    9.37   0
   1   7  -9    5.16    7.45   0
  -2   8  23    5.53    7.46   0
   1   7 -21    2.00    7.45   0
   1   7  -6  187.76   10.13   0
   2   3  -1   -3.66    5.88   0
  -2   7  27    5.74    6.94   0
  -1   9   8  162.82    9.40   0
   0   6  18  266.86   10.24   0
   0   8   4  228.35    9.90   0
   1   3  13    4.25    5.71   0
   1   5  11   10.08    6.06   0
   2   5 -15    3.33    6.73   0
   2   5 -12  507.46   12.34   0
   0   7  14  137.69    9.69   0
   1   6   7   -0.59    6.79   0
   2   5 -18  409.06   11.39   0
   2   5  -9    0.30    6.72   0
  -2   9  19   -2.10    8.02   0
   1   2  11   22.17    5.80   0
   2   5 -21    1.95    6.72   0
   2   5  -6  157.26    8.91   0
  -1   5  27    6.18    6.48   0
   0   8   7   -0.57    7.37   0
   1   7   0  373.79   11.50   0
   2   3   2  813.02   13.28   0
   2   4   1   -0.50    5.76   0
  -1   6  26  226.30    8.95   0
  -1   9  11    4.31    7.65   0
   0   3  21   -3.49    5.68   0
   1   4  15    9.69    5.59   0
   1   5  14  443.59   11.40   0
   1   6  10  227.38   10.25   0
   2   2   0 4175.92   29.70   0
   1   7   3   -7.36    8.15   0
   0   4  23    0.80    6.19   0
   0   8  10  159.84    9.65   0
   2   4   4  886.18   13.82   0
  -2   4  30  183.98    8.68   0
  -2   6  31   -3.30    6.56   0
  -1   7  25    2.52    7.84   0
   1   3  16 2117.89   20.79   0
   2   3   5    6.62    5.41   0
  -3   9  27    3.94    6.64   0
  -2   7  30  168.14    9.29   0
  -2   9  22   41.77    7.57   0
  -1   8  21   -8.62    8.11   0
   1   6  13   -5.79    7.71   0
   1   7   6  104.93    9.16   0
  -1   3  26  510.25   12.49   0
   0   2  19   -0.30    4.77   0
   2   2   3   -3.11    4.88   0
   2   5   3   10.77    6.28   0
   2   6 -16  374.39   11.46   0
   2   6 -13    0.60    7.46   0
   2   6 -10  189.64    9.59   0
  -2   5  32  637.30   13.49   0
   0   8  13   -2.71    8.11   0
   1   2  14 1714.16   19.54   0
   1   4  18  718.30   12.58   0
   1   5  17    0.76    6.23   0
   1   8 -10   90.47    9.31   0
   2   4   7    8.74    5.90   0
   2   6 -19    6.15    6.96   0
   2   6  -7    7.16    7.70   0
   0   5  25   -2.13    6.71   0
   0   7  20  163.29    9.44   0
   1   7   9    3.99    8.38   0
   1   8  -7   -0.16    7.20   0
   2   3   8 2133.25   20.32   0
   2   6  -4  224.21   10.32   0
  -1   6  29    9.92    6.23   0
   1   8  -4  189.99    9.43   0
  -2   8  29   -1.24    7.16   0
  -1   5  30  189.66    8.90   0
   1   6  16  609.69   13.63   0
   2   2   6  816.54   13.79   0
  -1   7  28  152.12    9.22   0
  -1   8  24  224.12    9.60   0
   0   3  24 1565.61   18.77   0
   0   4  26  743.77   13.42   0
   0   8  16  172.50    9.67   0
   2   4  10  346.75    9.76   0
   1   3  19   11.39    5.40   0
   1   5  20  495.34   11.84   0
   1   7  12  208.94   10.34   0
   2   5   9   -3.73    7.31   0
   2   6   2  214.95    9.20   0
   1   4  21    1.89    6.89   0
   1   8   2   98.61    8.27   0
   2   3  11    5.66    5.60   0
  -2   7  33    0.68    7.10   0
   2   6   5   -3.47    7.82   0
   0   8  19    5.24    8.08   0
   1   6  19    1.45    6.78   0
   1   8   5   11.65    7.47   0
   2   4  13   -4.27    5.98   0
   0   6  27   -1.87    7.82   0
   1   2  17    5.66    4.85   0
   1   7  15   11.74    7.26   0
   2   2   9    1.97    4.93   0
   2   5  12  385.13   11.43   0
   2   7 -14  126.72    9.50   0
   2   7 -11   -3.98    7.16   0
   2   7  -8  242.32   10.41   0
   3   3 -12  757.91   14.06   0
   3   3  -9    9.92    6.07   0
  -1   4  31    8.10    5.70   0
  -1   8  27   -5.23    7.97   0
   2   1   1   35.85    5.90   0
   2   6   8  470.21   12.62   0
   2   7  -5   -1.42    7.64   0
   3   3 -15   -2.29    5.91   0
   3   3  -6  468.11   10.84   0
   3   4 -13   13.33    6.44   0
   3   4 -10  368.28   10.34   0
   3   4  -7    3.94    6.53   0
  -1   7  31    6.97    7.67   0
   0   2  22 1828.83   21.39   0
   1   5  23   -4.39    7.34   0
   1   8   8  164.64    8.90   0
   2   3  14  375.29    9.90   0
   2   7  -2   92.01    8.62   0
   3   3 -18  419.90   11.75   0
   3   3  -3    4.76    6.37   0
   3   4 -16  449.72   11.78   0
   3   4  -4  694.30   13.45   0
  -1   5  33    1.58    6.32   0
   0   7  26  218.82   10.36   0
  -1   3  29    6.35    5.06   0
   0   4  29    0.57    6.21   0
   1   6  22  164.37    9.89   0
   1   7  18  204.70   10.08   0
   2   4  16  763.89   13.22   0
   2   5  15    7.39    7.28   0
   2   6  11   -4.35    7.88   0
   3   4  -1   13.26    6.00   0
   0   3  27    2.78    5.57   0
   1   8  11   -1.99    7.10   0
   2   2  12  772.47   12.96   0
   3   2 -11    3.70    5.41   0
   3   2  -8 2258.61   22.68   0
   3   5 -11    2.04    6.85   0
   3   5  -8  501.82   12.35   0
   2   1   4 3038.62   26.47   0
   3   2 -14  380.62   10.76   0
   3   2  -5   12.77    5.69   0
   3   3   3   -1.90    6.66   0
   3   5 -14  155.48    9.22   0
   3   5  -5    5.94    7.39   0
  -1   8  30   43.96    8.47   0
   0   6  30  140.06    9.29   0
   2   3  17    7.24    6.26   0
   3   2  -2  834.44   13.96   0
   3   5  -2  262.34   10.59   0
   0   5  31   -0.96    6.94   0
   2   5  18  177.67    9.55   0
   2   6  14  109.23    8.11   0
   2   7   7    7.49    7.74   0
   3   2 -17    2.96    5.35   0
   3   4   5    9.11    7.26   0
   3   5   1   -9.61    7.47   0
   1   7  21    7.10    7.50   0
   2   4  19    4.37    6.21   0
   3   3   6  464.62   11.18   0
  -1   6  35    6.21    7.08   0
  -1   7  34  167.54    9.59   0
   0   7  29    3.89    7.41   0
   0   8  25    4.56    7.09   0
   1   4  27    0.22    5.86   0
   2   1   7    0.35    4.56   0
   2   2  15    0.56    5.22   0
   2   7  10  171.99    9.87   0
   3   4   8  570.61   11.92   0
   2   6  17  -11.36    7.32   0
   3   2   4  725.78   13.11   0
   3   6  -9   -3.46    7.30   0
   3   6  -6  185.59    9.88   0
   0   4  32  490.09   11.74   0
   1   7  24  208.15   10.19   0
   2   3  20  616.46   12.49   0
   2   5  21    0.12    7.40   0
   3   3   9   18.44    5.92   0
   3   5   7    6.01    6.65   0
   3   6 -12  125.05    8.98   0
   3   6  -3    9.62    7.50   0
  -1   8  33   -0.71    7.47   0
   0   2  25    1.06    4.98   0
   0   6  33    5.17    7.22   0
   2   4  22  383.15   10.96   0
   2   7  13    2.87    7.95   0
   3   4  11    3.57    7.48   0
   3   6   0  328.75   11.01   0
   0   3  30  548.71   12.20   0
   1   5  29    5.45    6.32   0
   3   5  10  210.93   10.21   0
   0   5  34  265.22   10.22   0
   0   7  32  261.63   10.26   0
   2   6  20  206.97    9.88   0
   3   2   7    9.68    5.38   0
   3   3  12  784.42   13.74   0
   3   6   3   -0.86    7.27   0
   2   1  10 2005.77   20.94   0
   2   2  18 1113.21   15.25   0
   2   7  16  180.12    9.82   0
   3   4  14  378.53   11.22   0
  -1   7  37    2.53    8.00   0
   1   4  30  176.68    8.85   0
   3   5  13    2.83    8.23   0
   1   3  28  708.44   12.80   0
   2   3  23   10.24    5.77   0
   3   1  -7   15.04    5.53   0
   3   2  10  735.69   13.08   0
   2   4  25    1.60    6.24   0
   2   6  23    1.04    7.92   0
   3   1 -10 1121.12   17.45   0
   3   1  -4 1316.86   17.54   0
   3   3  15    2.93    7.05   0
   3   6   9   -1.75    8.18   0
   1   5  32  395.94   11.87   0
   1   6  31    4.13    7.65   0
   2   7  19   -1.45    7.88   0
   3   4  17   11.15    7.37   0
   0   6  36  140.16    8.87   0
   3   1 -13   11.11    4.96   0
   3   5  16  440.90   12.36   0
   0   4  35    3.14    6.34   0
   0   7  35   -0.72    7.22   0
   2   1  13   32.27    5.37   0
   2   2  21   -3.34    6.18   0
   3   1   2  837.44   13.78   0
   3   2  13   -2.67    6.46   0
   3   6  12  172.11    9.45   0
   4   3  -8  579.35   12.81   0
   4   3  -5    0.67    6.75   0
   4   4  -6  211.63    9.92   0
   0   5  37   -3.62    7.72   0
   1   7  30   47.24    8.06   0
   2   5  27    2.16    6.68   0
   3   3  18  434.22   11.14   0
   4   3 -11    0.51    6.32   0
   4   3  -2  262.94    9.91   0
   4   4  -9    1.89    7.05   0
   4   4  -3    0.90    7.38   0
   1   2  26  495.08   11.58   0
   2   3  26  626.43   12.49   0
   2   6  26  220.75   10.13   0
   2   7  22   64.15    8.24   0
   3   4  20  453.39   12.00   0
   4   3   1    8.28    6.88   0
   4   4 -12  271.32   10.37   0
   4   4   0  538.32   12.07   0
   0   2  28 1109.19   17.14   0
   0   3  33    2.62    5.51   0
   1   4  33    6.22    5.84   0
   3   1   5    3.65    4.95   0
   3   5  19    1.90    6.94   0
   3   6  15   10.35    7.47   0
   4   3 -14  349.96   10.85   0
   4   4   3    6.72    7.91   0
   1   3  31   13.46    6.47   0
   4   5  -7   -1.09    7.74   0
   4   5  -4  144.55    9.30   0
   1   5  35    1.72    7.80   0
   1   6  34  171.60   10.04   0
   4   2  -7   -0.53    5.91   0
   4   2  -4  892.50   14.75   0
   4   5 -10  125.53    8.58   0
   4   5  -1    2.44    7.88   0
   2   1  16 2042.26   20.76   0
   3   1   8 2733.89   23.35   0
   3   3  21   13.35    6.37   0
   4   2 -10  353.46   10.54   0
   4   2  -1    0.65    5.47   0
   4   5   2  186.55    9.44   0
   0   6  39   -0.74    6.93   0
   1   7  33   -0.77    7.26   0
   2   2  24 1858.70   19.31   0
   3   4  23   -4.31    7.85   0
   3   5  22  120.02    8.34   0
   4   2   2  611.12   12.00   0
   4   4   9   -3.35    6.52   0
   4   5   5   13.99    7.80   0
   0   7  38   32.77    7.94   0
   4   2 -13   -0.09    6.02   0
   4   3  10  372.65   11.19   0
   0   4  38  136.60    8.27   0
   3   2  19    3.52    6.83   0
   4   4  12  256.62   10.29   0
   3   1  11   26.73    5.54   0
   3   6  21    5.44    7.58   0
   0   5  40  196.62    9.65   0
   1   2  29    6.66    5.68   0
   3   3  24  620.88   12.30   0
   3   5  25   -1.78    7.98   0
   4   2   8  869.86   13.80   0
   4   3  13   15.36    6.63   0
   4   5  11   -1.04    7.71   0
   1   3  34  540.40   12.26   0
   1   6  37   -2.54    7.90   0
   2   1  19   -0.10    4.86   0
   2   5  33    1.78    7.77   0
   3   4  26  170.54    8.70   0
   4   4  15   -4.31    7.98   0
   1   5  38  139.01    8.87   0
   4   2  11   -7.17    6.54   0
   0   3  36  524.91   12.37   0
   3   1  14  670.09   12.29   0
   3   2  22  296.94    9.29   0
   4   3  16  427.22   11.03   0
   4   5  14   83.97    8.47   0
   0   2  31   -0.39    4.96   0
   2   3  32  686.12   13.46   0
   2   4  34  165.95    9.49   0
   4   4  18  216.82   10.18   0
   3   3  27   10.12    7.60   0
   3   5  28  166.96   10.23   0
   4   1  -3   -3.07    5.82   0
   4   1   0 1438.34   17.83   0
   4   2  14  300.77   10.07   0
   4   5  17    3.53    8.36   0
   3   4  29    5.79    6.74   0
   4   1  -6  388.93   10.75   0
   4   3  19   -0.11    7.35   0
   2   1  22  464.08   11.13   0
   2   5  36  166.88    9.86   0
   3   1  17   -0.11    5.25   0
   3   6  27    1.55    7.70   0
   4   1  -9   21.90    5.72   0
   1   1  24 1731.98   20.46   0
   1   4  39    5.37    6.95   0
   1   6  40  202.36    9.70   0
   2   6  35   -1.04    8.09   0
   3   2  25    6.62    7.01   0
   4   1   6  868.56   14.22   0
   4   4  21    2.09    7.03   0
   1   2  32 1180.33   16.92   0
   2   2  30  212.56    8.97   0
   4   2  17    1.61    6.10   0
   4   5  20  137.97    9.04   0
   1   3  37    2.43    6.35   0
   1   5  41    3.51    7.12   0
   3   3  30  196.71    9.70   0
   3   5  31   -1.17    8.18   0
   4   1 -12 1109.67   17.35   0
   4   1   9   -4.25    6.35   0
   4   3  22  185.80    9.43   0
   5   3  -4  264.36   10.28   0
   5   3  -1   -2.27    7.57   0
   5   3   2  235.96   10.44   0
   5   4  -2  193.56   10.07   0
   2   3  35    4.00    7.16   0
   2   4  37   11.53    7.82   0
   5   3  -7   -1.02    6.86   0
   5   3   5    5.25    7.52   0
   5   4  -5    5.69    7.06   0
   5   4   1   -1.45    8.11   0
   5   4   4  143.25    9.53   0
   3   1  20  914.09   14.04   0
   4   2  20  662.05   12.95   0
   4   4  24  342.73   11.06   0
   4   5  23    8.18    7.73   0
   5   4   7    9.13    8.10   0
   3   0  -3    0.55    4.08   0
   4   1  12  943.78   14.17   0
   5   2   0  663.33   13.48   0
   5   3   8  482.17   11.59   0
   0   3  39    1.76    5.71   0
   2   0  11    0.80    4.64   0
   2   5  39   -3.42    7.45   0
   3   0   3   -4.42    4.53   0
   3   2  28  405.51   10.48   0
   4   3  25    9.78    7.83   0
   5   2  -6  442.77   11.74   0
   5   2  -3    8.35    6.03   0
   5   2   3   -2.64    7.30   0
   5   4  10  129.27    9.14   0
   5   5   0  201.78   10.48   0
   0   2  34  273.64   10.12   0
   3   0   6  534.78   11.99   0
   5   2   6  182.16    9.29   0
   5   5  -3    2.41    7.31   0
   5   5   3   -8.79    7.24   0
   1   4  42  215.11   10.02   0
   1   6  43    0.15    6.69   0
   2   2  33   -0.51    6.42   0
   4   2  23   -1.42    7.11   0
   4   4  27    1.11    7.69   0
   4   5  26  160.99    9.61   0
   5   2  -9   -0.56    6.46   0
   5   3  14  154.28    9.73   0
   5   5   6   84.32    8.73   0
   1   1  27    4.74    5.06   0
   3   1  23   15.46    5.73   0
   1   2  35   -3.19    5.77   0
   1   5  44  155.26    9.37   0
   2   4  40  249.96   10.30   0
   3   0   9   -2.68    4.89   0
   5   2  12  512.02   12.15   0
   5   4  16  333.61   11.45   0
   1   3  40  443.25   11.73   0
   2   0  14  342.86    9.95   0
   4   1  18  406.43   10.91   0
   4   3  28  377.06   10.96   0
   5   3  17  -10.22    7.98   0
   4   4  30   95.15    9.13   0
   4   5  29    8.08    7.85   0
   2   5  42   93.25    8.51   0
   3   0  12 2560.48   23.05   0
   3   5  37   -3.51    7.55   0
   4   2  26  383.49   10.59   0
   5   2  15    2.59    6.65   0
   5   4  19   -4.94    7.85   0
   3   1  26  657.77   12.44   0
   3   3  36  311.26   11.17   0
   5   1  -2  347.90   10.58   0
   5   1   1    5.57    5.52   0
   5   1   4  767.08   13.90   0
   5   3  20  238.11   10.93   0
   3   4  38  147.03    9.61   0
   4   1  21   13.36    6.19   0
   4   3  31   -2.78    7.99   0
   5   1  -5   10.24    6.18   0
   5   2  18  411.32   11.48   0
   2   0  17    4.54    4.57   0
   2   2  36  397.25   11.18   0
   3   0  15    3.13    5.85   0
   4   0   1   -0.68    5.50   0
   5   1  10  473.70   11.88   0
   5   4  22   95.09    9.02   0
   2   4  43   -9.80    7.90   0
   3   2  34  429.39   11.69   0
   4   0  -2 1390.11   17.87   0
   4   0   7    1.94    6.00   0
   4   2  29   -2.68    7.26   0
   4   4  33   -1.48    8.13   0
   5   1  -8  810.41   14.77   0
   5   3  23    6.08    8.11   0
   1   1  30  609.80   12.90   0
   2   3  41    1.19    6.98   0
   4   0  -5    0.31    5.41   0
   5   1  13    8.61    6.99   0
   5   2  21    8.29    7.60   0
   1   2  38  340.35   10.52   0
   3   5  40  141.25    9.00   0
   4   0  10  403.86   10.17   0
   4   1  24  963.38   14.54   0
   5   4  25   -3.08    8.17   0
   1   3  43    5.61    6.55   0
   2   1  31    1.52    6.05   0
   3   0  18 1325.61   16.79   0
   3   3  39    4.46    7.91   0
   4   3  34  182.37    9.83   0
   5   1 -11    6.71    6.51   0
   2   5  45    0.55    7.59   0
   3   4  41    2.03    7.54   0
   4   0  13   -2.13    6.33   0
   5   1  16  653.54   12.80   0
   5   3  26  187.14    9.84   0
   6   3   0  331.53   11.54   0
   6   3   3   11.43    7.36   0
   6   3   6  194.92   10.34   0
   2   0  20 3321.84   27.13   0
   4   2  32  365.44   11.19   0
   5   2  24  336.10   10.55   0
   6   3  -3    8.12    7.66   0
   6   3   9   -3.73    7.96   0
   2   2  39   -2.73    6.81   0
   4   1  27    4.81    6.95   0
   5   4  28  108.52    9.06   0
   6   2   1    3.73    7.64   0
   6   2   4  248.06   10.25   0
   3   0  21   -3.95    6.18   0
   3   2  37    5.08    6.28   0
   4   0  16 1557.46   17.77   0
   6   2  -2  228.71    9.85   0
   6   2   7    3.34    6.66   0
   2   4  46  107.85    9.75   0
   5   3  29    9.28    7.38   0
   6   2  -5    4.56    7.82   0
   6   2  10  192.19    9.08   0
   2   3  44  243.00   10.15   0
   4   0 -11   -0.26    5.28   0
   5   1  22  210.91    9.73   0
   1   1  33    8.96    5.52   0
   2   1  34  594.87   12.80   0
   3   3  42  166.39    9.61   0
   4   0  19   -1.13    5.65   0
   4   4  39   -5.31    8.57   0
   6   3  18   97.95    9.26   0
   3   4  44  160.23    9.40   0
   4   1  30  324.99   10.08   0
   5   0  -1    4.90    6.12   0
   5   0   2  351.84    9.91   0
   6   2  16  390.38   11.28   0
   1   2  41    0.81    6.00   0
   3   0  24 1072.33   15.24   0
   5   0  11    5.87    6.72   0
   5   2  30   82.91    9.16   0
   5   3  32  233.56   10.17   0
   6   1   2  355.94   11.18   0
   6   1   5   10.98    7.20   0
   5   1  25    7.02    6.93   0
   6   1   8  691.29   13.22   0
   6  -3  30  207.35   11.40   0
   6   0  24  470.29   13.83   0
   7  -1  26  272.90   12.18   0
   4  -2  27    2.16    6.91   0
   5  -6  20  517.89   13.07   0
   5  -3  29   -1.23    8.75   0
   6  -6  24  620.46   14.97   0
   8  -3  29   -4.53    9.48   0
   3  -4  19   12.57    6.16   0
   4   1  21    1.19    6.98   0
   6  -7  19    6.82    8.64   0
   8  -4  30   98.68   10.82   0
   8  -1  24  255.18   12.00   0
   3  -5  14  371.91   12.10   0
   4  -5  21    8.21    7.77   0
   4   0  25   -0.62    7.50   0
   7  -3  31   -2.61    9.38   0
   8  -7  24  216.52   11.87   0
   9  -6  27   -8.68    9.26   0
   9  -3  27   -5.72    8.82   0
   2  -2  19   -6.34    6.73   0
   3   1  20  945.74   17.64   0
   7  -7  23    7.64    9.34   0
   7  -5  30  190.75   11.72   0
   7  -2  30   85.13   10.65   0
   8  -8  19    2.97    9.04   0
   8  -2  28  168.05   11.46   0
   6  -5  29   -6.78    9.40   0
   6  -4  31   -0.59    9.35   0
   9  -5  29   10.87   10.20   0
   3  -1  25    6.40    6.62   0
   4  -6  16  760.31   15.92   0
   4  -4  26  737.79   15.19   0
   4  -3  28  708.47   14.26   0
   5  -7  15    0.61    7.52   0
   8  -6  29   -2.62    9.53   0
   8  -5  31   14.35   10.09   0
   2  -4  12  783.87   16.43   0
   3  -3  24 1580.83   20.30   0
   3   0  24 1036.14   17.55   0
   5  -2  31    1.27    7.29   0
   2  -1  21   24.88    7.22   0
   5  -6  23    4.79    8.23   0
   5  -1  30  292.65   10.86   0
   6  -3  33    3.44    9.37   0
   7  -8  18  201.14   10.99   0
   7  -1  29   -3.96    8.51   0
   3  -2  26  561.73   12.87   0
   5  -3  32  682.39   15.43   0
   6  -7  22  157.65   10.77   0
   6  -6  27    4.43    7.73   0
   6   0  27    1.88    8.41   0
   8  -3  32  191.75   11.62   0
   4  -2  30  194.98    9.67   0
   6  -1  31    8.51    8.61   0
   8  -7  27    9.02    9.34   0
   8  -4  33   -6.85    8.93   0
   4  -5  24  671.42   14.85   0
   7  -7  26  230.55   11.69   0
   7  -5  33   -0.85    9.93   0
   7  -3  34  181.48   11.62   0
   8  -8  22   76.15   10.06   0
   8  -2  31    5.58    9.48   0
   3  -5  17    1.06    7.02   0
   4   0  28  659.88   14.64   0
   4   1  24  930.51   17.38   0
   6  -5  32  388.58   13.42   0
   7  -2  33   -5.94    9.46   0
   5  -7  18  164.43   10.12   0
   5   0  29    2.94    7.68   0
   6  -4  34  179.61   10.34   0
   7  -4  35    7.89    9.50   0
   8  -6  32  181.66   11.66   0
   8  -5  34  124.17   11.64   0
   4  -6  19   -3.55    7.21   0
   7  -8  21    6.24    9.44   0
   2  -2  22 1939.87   22.12   0
   2   1  19    1.55    5.77   0
   3  -1  28 1402.93   19.27   0
   3   1  23   21.16    7.05   0
   4  -4  29    3.77    7.00   0
   4  -3  31   -2.02    7.19   0
   5  -2  34  450.38   13.19   0
   3  -3  27    3.14    7.62   0
   5  -6  26  242.39   11.44   0
   5  -4  33    1.51    7.81   0
   5  -1  33   15.28    7.90   0
   6  -7  25    5.25    8.96   0
   6  -6  30  162.36   11.44   0
   6  -3  36  315.20   12.71   0
   7  -1  32  258.97   12.15   0
   8  -7  30   50.64   10.09   0
   8  -3  35    3.38    9.86   0
   2  -4  15    2.90    5.91   0
   3   0  27   -0.87    6.89   0
   6   0  30  112.37   10.34   0
   8  -8  25   -0.76    8.24   0
   8  -4  36  116.89   10.41   0
   3  -2  29   11.44    6.68   0
   4  -2  33    5.70    8.43   0
   5  -3  35    2.41    7.63   0
   7  -7  29   11.42    8.81   0
   2  -1  24 1883.74   21.72   0
   4  -5  27   -0.55    7.70   0
   6  -1  34  232.31   10.73   0
   7  -5  36  174.77   10.90   0
   8  -2  34  125.73   10.10   0
   3  -5  20  606.74   14.27   0
   5  -7  21   -3.43    7.94   0
   6  -5  35   -0.38    9.67   0
   6  -4  37    5.33    9.47   0
   8  -6  35   -5.81    9.37   0
   4  -6  22  364.01   12.14   0
   7  -8  24  204.38   10.75   0
   7  -4  38  138.46   10.22   0
   8  -5  37    1.29    8.75   0
   4   0  31   -0.57    6.35   0
   4   1  27    5.10    7.16   0
   4  -4  32  475.22   12.33   0
   4  -3  34  508.07   12.78   0
   5  -6  29   -0.55    8.43   0
   5  -4  36  485.86   13.52   0
   5  -2  37    2.00    8.27   0
   6  -6  33    1.66    9.60   0
   8  -7  33   11.36    8.68   0
   2  -2  25   -0.83    6.03   0
   3  -3  30  582.00   13.61   0
   3  -1  31   -1.35    7.59   0
   6  -2  38  100.03    9.17   0
   7  -1  35   13.41    8.96   0
   8  -4  39   -1.95    9.07   0
   2  -4  18 1077.19   18.01   0
   2  -3  23   -0.61    6.68   0
   3   1  26  645.73   14.56   0
   5  -3  38  115.42   10.42   0
   5  -1  36  321.19   11.18   0
   7  -7  32  274.83   12.57   0
   2   1  22  448.77   12.10   0
   3  -2  32 1216.71   17.80   0
   3   0  30  322.87   11.26   0
   6   0  33    2.68    7.76   0
   7  -5  39   -2.35    9.71   0
   4  -5  30  181.36    9.41   0
   4  -2  36  384.37   11.82   0
   5  -7  24  443.80   13.51   0
   6  -5  38  136.22   10.81   0
   6  -1  37   17.20    9.26   0
   7  -8  27    1.33    9.47   0
   7  -2  39    1.24    9.18   0
   8  -2  37    6.18    8.21   0
   2  -1  27   -2.85    5.91   0
   3  -5  23   -1.73    7.11   0
   4  -6  25   -4.47    7.82   0
   6  -4  40  241.80   10.90   0
   7  -4  41    0.61    9.20   0
   4  -4  35   10.34    8.16   0
   4  -3  37   -7.13    8.71   0
   4   0  34  243.34   10.96   0
   5  -6  32  398.87   12.88   0
   5   0  35    1.91    8.25   0
   6  -7  31   -5.89    8.37   0
   1   0  19   -0.12    5.29   0
   4   1  30  303.59   11.41   0
   5  -4  39  -12.10    7.97   0
   6  -2  41   -5.14    9.30   0
   7  -7  35    2.69    9.23   0
   1  -2  18 1186.77   18.74   0
   1  -1  20 1564.16   20.97   0
   2  -2  28 1116.10   16.68   0
   3  -3  33    4.54    7.41   0
   3  -1  34  601.20   13.83   0
   6  -3  42  150.97    9.87   0
   7  -1  38   46.47   10.18   0
   2  -4  21   -2.02    6.37   0
   2  -3  26  505.78   12.74   0
   5  -7  27   -1.17    9.06   0
   5  -3  41   -5.81    9.13   0
   5  -1  39   -3.76    7.17   0
   7  -5  42   79.96    9.96   0
   3  -2  35    1.30    7.48   0
   3   1  29    1.34    6.61   0
   4  -5  33   -0.51    6.87   0
   4  -2  39   -0.29    8.68   0
   6  -5  41   -0.72    9.27   0
   7  -8  30   38.65    8.41   0
   2   1  25    5.94    6.58   0
   3  -5  26  635.88   14.34   0
   3   0  33    2.90    7.21   0
   4  -6  28  421.95   12.77   0
   6  -4  43  -14.39    9.30   0
   6  -1  40  192.64   11.26   0
   7  -4  44  149.65   10.90   0
   7  -2  42  137.99   10.43   0
   2  -5  13    2.86    5.90   0
   2  -1  30  647.63   13.30   0
   4  -4  38  138.24   10.19   0
   5  -6  35    2.92    9.03   0
   6  -7  34  154.86   10.80   0
   6  -6  39   -3.27    9.39   0
   5  -4  42  228.89   11.55   0
   7  -7  38   42.65    8.91   0
   1   0  22  480.19   12.61   0
   4   0  37   -1.37    6.61   0
   5  -5  40  208.00   11.46   0
   6  -3  45   -9.03    9.16   0
   1  -3  16 1981.75   24.45   0
   1  -2  21   20.15    5.74   0
   1  -1  23   -0.12    6.41   0
   2  -4  24 1852.61   22.23   0
   2  -3  29    3.63    7.20   0
   2  -2  31   -2.01    6.28   0
   3  -3  36  525.06   12.74   0
   3  -1  37    2.08    7.49   0
   4   1  33   15.04    7.28   0
   5  -7  30  182.14   10.45   0
   5  -3  44  235.99   12.10   0
   7  -8  33    4.97    9.42   0
   7  -5  45   12.31    9.07   0
   7  -1  41   -2.30    9.17   0
   4  -5  36  479.86   12.48   0
   6  -5  44  162.69   11.18   0
   3  -5  29   -1.20    6.13   0
   3  -2  38  327.25   10.98   0
   4  -6  31   -0.11    7.76   0
   4  -2  42  408.00   12.90   0
   6  -4  46   92.83   10.86   0
   2   2  21    0.60    5.86   0
   3  -6  21    5.62    6.95   0
   3   0  36  805.26   15.55   0
   3   1  32  845.80   16.14   0
   6  -7  37    2.07    9.25   0
   6  -1  43   -4.22    9.11   0
   7  -4  47   -2.34    9.66   0
   7  -2  45    3.14    8.37   0
   2  -1  33    5.02    6.50   0
   2   1  28 1332.27   18.86   0
   4  -4  41   -0.99    8.71   0
   5  -6  38  144.07    9.62   0
   6  -6  42  140.19   10.93   0
   4  -3  43   -2.62    8.51   0
   5  -4  45   -5.08    9.18   0
   1   1  21   14.75    5.90   0
   2  -4  27    5.98    6.90   0
   5  -7  33    1.04    9.43   0
   5  -5  43   -7.21    9.39   0
   1  -3  19    1.85    5.04   0
   1  -2  24 1791.99   21.04   0
   1   0  25   -4.17    5.54   0
   2  -3  32 1147.45   17.42   0
   2  -2  34  287.99   10.16   0
   3  -3  39    1.52    7.14   0
   4  -5  39    2.61    8.57   0
   4   0  40  431.38   12.13   0
   5   0  41    3.31    8.38   0
   6  -2  47   -1.94    9.40   0
   2  -5  19    5.46    6.59   0
   3  -5  32  710.91   14.80   0
   3  -1  40  452.47   12.08   0
   4  -6  34  177.21   10.35   0
   4   1  36  313.83   11.67   0
   5  -3  47    2.86    7.95   0
   5  -1  45    8.79    9.01   0
   6  -5  47    1.33    9.36   0
   3  -6  24  577.93   14.06   0
   3  -2  41   -0.01    8.54   0
   4  -2  45   13.10    8.80   0
   4  -1  44  279.55   10.73   0
   5  -6  41    8.81    9.04   0
   6  -7  40  212.34   10.92   0
   6  -1  46   61.58    9.71   0
   2  -1  36  957.24   15.63   0
   2   1  31    0.95    6.56   0
   2   2  24 1795.59   24.13   0
   3   0  39    0.24    6.64   0
   3   1  35    5.13    7.14   0
   4  -4  44  419.63   13.12   0
   6  -6  45    8.28    7.99   0
   1  -3  22  450.72   12.20   0
   4  -3  46   78.26    9.69   0
   5  -4  48  132.25   10.74   0
   1  -2  27    1.63    5.70   0
   1   1  24 1700.94   21.72   0
   2  -5  22  292.31   10.77   0
   2  -4  30  199.19    9.02   0
   5  -7  36  159.83   10.69   0
   5  -5  46   92.38   10.25   0
   1  -1  29   -0.49    5.97   0
   2  -3  35    3.58    6.57   0
   2  -2  37    0.25    6.68   0
   3  -6  27   -0.15    7.99   0
   3  -5  35    0.69    8.10   0
   3  -3  42  252.03   10.30   0
   4  -5  42  215.44   11.34   0
   4   0  43    3.82    7.77   0
   5   0  44  178.04   10.74   0
   6  -3  51   -0.40    8.84   0
   6  -2  50  101.61   10.58   0
   3  -1  43   -4.24    8.30   0
   4  -6  37   -6.40    8.43   0
   5  -3  50  172.99   11.00   0
   6  -5  50   86.33   10.36   0
   3  -2  44  325.29   11.99   0
   4   1  39   -0.32    7.27   0
   5  -1  48  209.05   11.24   0
   6  -7  43   -5.37    9.40   0
   4  -2  48  313.95   11.34   0
   4  -1  47   -9.68    8.15   0
   5  -6  44  161.11   10.41   0
   6  -6  48  152.93   10.91   0
   6  -4  52  106.23   10.59   0
   1  -3  25    8.08    5.64   0
   2  -5  25   -2.80    6.72   0
   2  -4  33   -2.82    7.34   0
   2  -1  39    4.01    6.56   0
   2   1  34  597.49   13.80   0
   3   0  42  307.93   11.63   0
   3   1  38  158.23    9.55   0
   4  -4  47    3.59    8.97   0
   6  -1  49    2.16    8.05   0
   1  -2  30  592.45   12.69   0
   2   2  27   -2.21    5.82   0
   4  -3  49    0.03    9.20   0
   5  -7  39    3.33    7.92   0
   5  -4  51   12.32    8.91   0
   1  -1  32 1797.34   20.85   0
   1   0  31    1.59    6.63   0
   1   1  27   -0.43    5.08   0
   2  -3  38  327.43   11.68   0
   2  -2  40  839.55   15.62   0
   3  -5  38  106.84    9.47   0
   3  -3  45   -1.11    8.39   0
   5  -5  49   10.59    8.35   0
   3  -4  43   -1.37    8.53   0
   4  -6  40  270.90   11.76   0
   1  -4  17   -0.55    5.65   0
   3  -1  46  132.67   10.05   0
   4   0  46  143.62    9.34   0
   5   0  47   -2.22    7.90   0
   6  -2  53   -2.60    8.28   0
   2  -5  28  425.81   12.28   0
   3  -2  47    7.25    7.51   0
   5  -1  51    8.94    8.75   0
   2  -4  36  395.53   11.77   0
   2  -1  42  327.39   11.66   0
   4  -2  51    3.02    8.06   0
   4  -1  50  186.04   11.34   0
   4   1  42  183.74   10.09   0
   1  -4  20  864.92   16.79   0
   1  -2  33    8.11    6.26   0
   2   1  37    2.47    7.14   0
   2   2  30  206.21   10.13   0
   3  -6  33   -1.05    7.43   0
   3   0  45   -7.58    8.26   0
   3   1  41   -1.67    7.41   0
   4  -4  50  152.43   10.18   0
   5  -7  42   81.94    9.64   0
   1  -1  35    5.58    6.31   0
   1   0  34  973.47   16.20   0
   1   1  30  571.01   12.64   0
   2  -3  41    5.29    8.11   0
   2  -2  43   -7.95    7.82   0
   3  -5  41  -10.70    8.60   0
   4  -3  52  195.31   11.26   0
   5  -5  52  170.84   10.91   0
   5  -4  54   62.48    9.80   0
   0  -1  19    4.74    5.12   0
   3  -3  48  325.83   11.49   0
   4  -6  43   -0.83    8.24   0
   2  -5  31    7.29    7.30   0
   3  -4  46   95.56    8.58   0
   0   0  21   -0.72    6.11   0
   1  -4  23   16.12    6.39   0
   1   2  23   -0.07    5.70   0
   3  -2  50  176.95   10.89   0
   4   0  49   -1.18    8.52   0
   5  -3  56   98.28   10.24   0
   1  -2  36  914.07   15.23   0
   2  -4  39    3.01    6.83   0
   2  -1  45   -5.10    7.90   0
   5  -6  50   75.23    9.23   0
   5   0  50   72.50    9.60   0
   0  -1  22  462.07   11.76   0
   1   1  33   -1.67    6.53   0
   3  -6  36  283.73   11.59   0
   4  -4  53    0.90    9.33   0
   4  -1  53   -0.19    9.15   0
   5  -7  45   -0.97    8.94   0
   5  -1  54   57.97    9.63   0
   1  -1  38  255.66    9.77   0
   1   0  37    3.61    6.20   0
   2  -3  44  310.57   11.03   0
   2  -2  46  283.92   11.26   0
   2   1  40  463.73   12.11   0
   2   2  33    4.96    6.73   0
   3  -5  44  242.56   11.07   0
   3   0  48  201.90    9.94   0
   3   1  44  289.31   11.34   0
   1  -4  26  663.28   14.52   0
   2  -5  34  449.95   12.58   0
   3  -3  51   -0.64    8.89   0
   4  -6  46  104.37    9.47   0
   4  -3  55    5.55    8.15   0
   5  -5  55  -10.66    8.55   0
   5  -4  57   10.59    8.63   0
   0  -1  25   -6.88    6.00   0
   1   2  26  503.55   13.07   0
   3  -4  49    0.21    7.67   0
   1  -2  39   -2.02    7.37   0
   2  -4  42  380.90   12.05   0
   2  -1  48  359.78   12.40   0
   3  -6  39   -7.76    7.53   0
   3  -2  53   -4.29    7.78   0
   4   0  52  143.07   10.01   0
   5  -2  58   85.82    9.01   0
   0   0  27    3.37    5.60   0
   1  -4  29    2.61    6.80   0
   1  -1  41   -1.57    6.59   0
   1   0  40  743.27   14.50   0
   1   1  36  895.71   15.30   0
   4  -2  57   -2.02    9.13   0
   0  -1  28 1374.95   18.03   0
   1   2  29    1.67    6.82   0
   2  -5  37   -2.73    7.56   0
   2  -3  47    0.87    7.43   0
   2  -2  49    3.80    8.35   0
   2   1  43    2.62    7.53   0
   2   2  36  372.84   12.05   0
   3  -5  47    1.51    8.58   0
   3   0  51   -6.00    8.87   0
   4  -4  56   87.04   10.00   0
   4  -1  56  142.93   10.48   0
   5  -1  57    4.24    8.01   0
   3  -3  54   82.61   10.04   0
   3   1  47    3.91    7.95   0
   4  -6  49   -1.57    8.12   0
   1  -2  42  326.85   11.53   0
   0  -2  26 1188.18   17.15   0
   0   0  30  173.36    8.26   0
   1  -4  32  859.56   15.95   0
   2  -4  45    4.08    7.16   0
   3  -6  42  162.78   10.23   0
   0  -1  31   -6.93    5.96   0
   1  -1  44  458.25   12.37   0
   1   1  39    1.44    7.03   0
   2  -1  51    2.49    9.14   0
   3  -2  56  193.13   11.16   0
   1   0  43    0.11    6.59   0
   1   2  32 1183.77   18.34   0
   2  -5  40  431.75   12.61   0
   2  -3  50  192.04   10.88   0
   4   0  55   11.02    8.11   0
   0  -2  29    1.04    5.66   0
   2  -2  52  177.72   10.63   0
   2   0  50  195.79   10.31   0
   2   1  46  132.78    9.57   0
   2   2  39   -0.02    6.86   0
   3  -5  50  186.73   10.77   0
   4  -2  60  112.76    9.71   0
   0   0  33   -0.33    5.86   0
   1  -4  35    5.97    7.42   0
   1  -2  45    3.77    8.49   0
   3   0  54   94.00    9.49   0
   4  -6  52  112.89    9.51   0
   4  -4  59  -10.49    7.95   0
   4  -1  59  -12.64    8.96   0
   0  -1  34  967.70   15.26   0
   3  -3  57    3.81    8.41   0
   3   1  50  188.37   10.23   0
   4  -3  61    2.74    8.76   0
   0  -2  32  636.66   13.41   0
   1   1  42  319.25   11.28   0
   3  -6  45   -0.39    8.69   0
   0  -3  18 1282.42   19.70   0
   0  -3  21   -1.90    5.63   0
   1  -1  47   -1.39    7.14   0
   1   0  46  110.96    9.49   0
   1   2  35   -2.20    6.35   0
   2  -5  43    7.69    8.38   0
   2  -1  54  118.15   10.59   0
   1  -4  38  164.61    9.96   0
   2  -3  53   10.72    9.25   0
   3  -2  59   -3.97    8.41   0
   0  -3  24 1091.20   17.44   0
   0  -1  37    8.40    6.30   0
   2   0  53   -8.87    8.63   0
   2   1  49   10.42    8.11   0
   2   2  42  396.38   12.19   0
   3  -5  53   -0.30    8.13   0
   4   0  58   69.93    9.39   0
   0  -2  35    4.09    6.18   0
   1  -2  48  345.13   11.28   0
   0  -3  27    1.28    6.17   0
   1  -3  46  130.50    9.93   0
   1   1  45    2.19    7.83   0
   1   2  38  324.48   11.25   0
   3  -6  48  138.42    9.76   0
   3  -4  58  112.36    9.75   0
   3  -3  60  109.18    9.80   0
   3   0  57    0.65    8.97   0
   3   1  53   -5.17    9.23   0
   0  -1  40  768.93   14.77   0
   0   0  39    2.15    6.33   0
   1  -5  27    2.53    6.85   0
   1  -4  41    6.43    7.49   0
   1  -1  50  291.06   10.83   0
   1   0  49   -6.39    7.77   0
   2  -5  46   51.50    9.15   0
   0  -3  30  309.50   10.77   0
   0  -2  38  240.51   10.16   0
   0   2  22 1810.24   23.25   0
   2  -1  57   -8.49    9.18   0
   0   2  25    0.11    5.76   0
   1  -5  30  287.56   10.91   0
   2  -3  56  201.98   10.85   0
   2   2  45   -0.83    7.15   0
   3  -5  56  110.33   10.17   0
   3  -2  62   38.03    9.25   0
   3  -1  61  -14.08    8.62   0
   1  -2  51    1.51    7.44   0
   2  -2  58   81.17   10.32   0
   2   0  56  104.14    9.83   0
   2   1  52  285.67   11.69   0
   0  -3  33   -0.10    5.81   0
   0   0  42  793.54   14.37   0
   0   2  28 1045.19   17.15   0
   1  -4  44  291.29   11.59   0
   1  -3  49   -4.42    7.38   0
   1   2  41   -1.54    7.05   0
   3  -6  51   -1.96    8.95   0
   0  -2  41    5.28    7.85   0
   0  -1  43    3.69    6.92   0
   1  -5  33    2.48    7.53   0
   1  -1  53    5.28    8.88   0
   1   1  48  333.13   10.98   0
   2  -5  49   -1.21    8.63   0
   3  -4  61    2.49    8.44   0
   3  -3  63   -4.57    8.66   0
   3   0  60  165.80   10.04   0
   0   2  31   -3.82    6.14   0
   3   1  56  143.11    9.60   0
   0  -3  36  855.33   15.12   0
   2  -3  59   -4.29    9.23   0
   2  -1  60  172.58   11.02   0
   0   0  45    1.37    8.03   0
   1  -2  54  113.41    9.12   0
   2   2  48  272.57   10.97   0
   0  -2  44  726.18   14.29   0
   0  -1  46  115.98    8.73   0
   0   2  34  270.18   10.31   0
   1  -4  47   -3.55    8.67   0
   1  -3  52  275.02   10.81   0
   1   2  44  337.58   11.50   0
   2  -2  61   -7.17    9.21   0
   2   0  59   -1.94    8.44   0
   2   1  55   -2.77    8.40   0
   3  -1  64   80.61    8.71   0
   0  -3  39    1.20    6.51   0
   1  -1  56  228.92   11.36   0
   1   1  51   -0.53    6.97   0
   2  -5  52  153.53   10.43   0
  -1   0  23   -1.08    6.32   0
   1  -5  39    0.62    7.61   0
  -1   0  20 1490.36   19.77   0
  -1   0  29   -0.36    6.72   0
   0   0  48  477.22   12.79   0
   0   2  37   -6.71    6.73   0
   3   0  63    0.70    7.94   0
  -1  -1  21   18.29    6.36   0
  -1  -1  24 1790.78   20.68   0
  -1  -1  27    1.79    6.54   0
   0  -3  42  303.72   11.26   0
   0  -2  47   -4.35    7.27   0
   0  -1  49   -5.18    7.43   0
   1  -4  50  200.89   10.79   0
   1  -2  57    6.01    9.25   0
   2  -3  62   47.41    9.36   0
   2  -1  63   11.69    8.84   0
  -1  -1  30  598.50   13.19   0
  -1   0  32 1757.06   19.89   0
   0  -4  25   -4.23    6.02   0
   0  -4  28  598.18   13.95   0
   1   2  47   -6.17    7.43   0
   0  -4  31   -0.91    7.61   0
   0   2  40  798.31   15.42   0
   1  -5  42  181.66   10.23   0
   1   1  54  119.07   10.27   0
   2  -5  55    0.58    8.12   0
   2  -2  64  117.23   10.54   0
   2   0  62   59.71    9.49   0
   2   1  58  111.97    9.65   0
  -1  -1  33    3.04    6.11   0
  -1   0  35   -0.70    6.14   0
  -1   1  22  466.76   11.80   0
  -1   1  25   -0.67    5.29   0
  -1   1  28 1368.95   18.06   0
   0  -4  19    2.57    5.69   0
   1  -1  59   -3.20    7.99   0
  -1   1  31   -3.61    5.64   0
   0  -4  34  256.34   10.50   0
   0  -3  45   -6.71    6.88   0
   0  -2  50  217.34   11.02   0
  -1   0  38  262.87   10.47   0
  -1   1  19    2.63    5.05   0
   1  -5  45    0.27    8.10   0
   1  -4  53   10.40    8.71   0
   1  -2  60  161.06   10.64   0
   1   2  50  167.82   10.15   0
  -1   1  34  969.26   15.37   0
   0  -4  37   -0.00    7.28   0
   0   2  43   12.31    7.39   0
   1  -3  58   98.91    9.73   0
  -1  -2  25    3.99    5.57   0
  -1  -2  28 1330.61   17.94   0
  -1  -1  39   -2.82    6.63   0
   1   1  57   10.66    8.38   0
   2  -5  58  106.31    9.82   0
  -1  -2  22  452.25   11.44   0
  -1   0  41    2.58    6.74   0
  -1   1  37   -7.59    6.13   0
   0  -2  53   -8.97    8.87   0
   0   0  54   34.28    9.16   0
   1  -1  62   51.90    9.25   0
   2   0  65   -0.72    8.73   0
   2   1  61    2.86    7.96   0
   0  -4  40  437.93   12.84   0
   0  -1  55   -4.80    7.76   0
   1  -5  48  219.53   10.81   0
  -1  -2  19   -1.43    5.65   0
  -1  -1  42  348.24   10.84   0
  -1   1  40  757.61   14.24   0
   0   2  46  266.04   10.11   0
   1  -4  56  123.81    9.70   0
   1   2  53   -0.80    8.24   0
   0  -3  51    1.26    8.50   0
   0   1  53    3.34    8.32   0
   1  -3  61   -9.41    9.16   0
  -1  -1  45    9.15    8.19   0
   0  -4  43    1.24    7.94   0
   0  -2  56  106.76   10.53   0
   0   3  27   -1.08    5.99   0
   0   3  30  557.99   13.97   0
  -1   1  43    6.95    6.65   0
  -1   2  27    0.72    5.13   0
  -1   2  30  565.49   12.46   0
  -1   2  33    2.50    6.57   0
   0  -1  58  170.88   10.97   0
   0   0  57   -7.23    7.60   0
   0   3  33    0.56    6.85   0
   1  -5  51   -2.40    8.64   0
   1  -1  65   -9.41    9.10   0
   1   1  60  140.49    9.97   0
  -1  -2  16 1941.85   23.88   0
   0   2  49   -1.75    6.96   0
   1  -4  59    8.68    9.10   0
  -1   2  36  887.01   15.04   0
   0  -4  46  150.38   10.21   0
   0  -3  54   78.05    9.51   0
   0   1  56  205.59   11.32   0
   0   3  36  533.47   13.33   0
  -1  -1  48  360.22   11.37   0
  -1   1  46  118.06    8.47   0
  -1   2  21   16.15    6.14   0
   1  -3  64   64.46    9.28   0
   1   2  56  188.37   10.69   0
  -1   2  39    1.74    6.02   0
   0  -2  59    6.78    8.78   0
   0   0  60  173.68   10.81   0
   0   3  39   -0.69    6.61   0
  -1  -3  29   -0.45    6.67   0
  -1  -3  32  902.24   16.00   0
   0  -4  49    0.19    8.16   0
   0  -1  61   -9.23    8.95   0
   0   2  52  199.75   10.69   0
   1  -5  54   58.54    9.24   0
   1   1  63    6.19    8.21   0
  -1  -3  26  650.41   14.07   0
  -1  -3  35    4.75    7.33   0
  -1  -1  51   -9.82    9.16   0
  -1   1  49    4.26    7.19   0
  -1   2  42  334.14   11.31   0
   0  -3  57   -3.56    8.97   0
  -1  -3  38  170.27    9.47   0
   0   1  59  -10.72    8.68   0
   0   3  42  251.01   10.51   0
  -1  -3  23   15.55    6.23   0
  -1   0  53    4.87    7.48   0
  -1   2  45   10.50    7.66   0
   1   2  59    0.96    7.59   0
  -1  -3  41    6.03    7.89   0
  -1  -1  54  127.72   10.61   0
  -1   1  52  320.03   11.78   0
   0  -4  52  145.14   10.39   0
   0  -2  62   70.05    9.22   0
   0   0  63   12.99    8.57   0
   0   2  55    2.78    7.97   0
   0  -1  64   76.75    9.69   0
   0   3  45    4.89    7.09   0
  -1  -3  20  867.78   16.36   0
  -1  -3  44  298.67   11.84   0
  -1  -2  52  282.28   12.09   0
  -1   0  56  226.63   11.89   0
  -1   2  48  349.96   12.08   0
   0  -3  60  160.35   10.50   0
  -2   0  31   -0.38    5.98   0
  -2   0  34  269.12    9.58   0
   0   1  62   46.97    9.34   0
  -2   0  28 1096.73   16.19   0
  -2   0  37    1.34    6.59   0
  -2   1  33   12.37    7.18   0
  -1  -3  47    1.25    8.71   0
  -1  -1  57    4.89    8.92   0
   0  -4  55   -7.27    8.89   0
   0   2  58   95.08   10.04   0
   0   3  48  325.18   11.77   0
  -2   0  25   -0.05    6.65   0
  -2   0  40  851.70   14.81   0
  -1  -2  55    8.69    9.12   0
  -1   2  51  -10.27    8.53   0
   0  -2  65   -0.24    7.98   0
   0   0  66  131.32    9.94   0
  -2  -1  29    6.83    6.86   0
  -2  -1  32 1225.66   17.05   0
  -2  -1  35    1.65    6.49   0
  -2   0  43    2.23    7.70   0
  -2   1  27   -0.85    5.71   0
  -2   1  39   -0.02    6.52   0
  -1   0  59   -5.22    9.03   0
  -1   3  32 1189.35   18.22   0
  -1   3  35    1.62    6.55   0
   0  -3  63    0.65    9.05   0
  -2  -1  38  337.42   10.58   0
  -2   1  42  331.99   11.51   0
  -1  -3  17   -2.56    5.51   0
  -1  -3  50  196.44   10.76   0
  -1   3  29    3.19    6.39   0
  -1   3  38  349.25   11.29   0
  -2  -1  41    4.57    7.03   0
  -2   0  22 1868.35   21.12   0
  -2   0  46  290.28   11.28   0
  -2   1  24 1848.76   20.81   0
  -1  -1  60  176.34   10.85   0
  -1   3  41    8.04    7.18   0
   0  -4  58   78.38    9.57   0
   0   1  65    4.86    8.31   0
   0   3  51    3.15    7.80   0
  -2  -1  44  344.47   11.65   0
  -2   1  45   -2.22    7.08   0
  -1  -2  58  104.18    9.97   0
  -1   2  54  123.07   10.25   0
  -1   3  26  511.03   13.05   0
   0   2  61    1.88    8.22   0
  -1  -3  53   -3.86    8.47   0
  -1   0  62   45.15   10.18   0
  -1   3  44  329.99   11.63   0
  -2  -1  47   14.67    8.20   0
  -2   0  49    4.45    7.44   0
  -2   1  21   17.39    6.77   0
  -1  -4  33    2.77    7.06   0
  -1  -4  36  319.01   11.47   0
  -2   0  19   -2.36    6.18   0
  -2   2  29    2.69    5.68   0
  -1  -4  30  285.54   10.81   0
  -1  -4  39    4.44    7.67   0
  -1  -1  63   -8.32    8.65   0
  -2  -2  33    4.05    7.15   0
  -2  -2  36  406.83   11.29   0
  -2  -2  39    3.33    7.44   0
  -2  -1  50  184.93   11.21   0
  -2   0  52  205.25   10.80   0
  -2   1  51   -6.24    9.13   0
  -1  -4  42  179.67   10.11   0
  -1  -2  61   -3.46    8.50   0
  -1   2  57    2.44    8.24   0
  -1   3  23    1.90    5.49   0
  -1   3  47    0.98    7.70   0
  -2  -2  30  198.65    9.02   0
  -2  -2  42  399.58   12.31   0
  -2   2  26 1229.09   17.34   0
  -1  -3  56  149.20    9.96   0
   0   2  64  126.51    9.43   0
  -2  -2  27    4.34    6.56   0
  -1  -4  45   -1.36    8.13   0
  -1   0  65  -15.30    8.90   0
  -1   3  50  174.65   10.28   0
  -2  -2  45    1.20    7.03   0
  -2  -1  53   -5.65    8.87   0
  -2   0  55   -2.05    9.06   0
  -2  -2  48  303.17   12.09   0
  -2   2  23   -1.97    5.37   0
  -1  -4  48  209.03   10.65   0
  -1  -3  59    6.56    8.19   0
  -1  -2  64   78.25    9.38   0
  -1   2  60  165.99   10.27   0
  -2  -2  24 1943.78   22.49   0
  -2   0  16 2975.56   27.78   0
  -1   3  53    1.26    8.34   0
  -2  -1  56  207.63   11.28   0
  -2   0  58   90.35   10.15   0
  -2   1  57   11.58    9.24   0
  -1  -4  51   -2.56    8.29   0
  -2  -2  51   -2.76    7.28   0
  -2   3  34  608.89   13.69   0
  -2   3  37    2.13    7.22   0
  -1   2  63    0.25    8.30   0
  -2   2  20 3358.34   28.80   0
  -7   5  15   -0.89    8.21   0
  -6   5   7    8.10    7.50   0
  -5   4  18  394.83   11.12   0
  -4   3  23   17.41    6.38   0
  -4   4  -8 1412.12   18.12   0
  -3   2  25    4.99    5.81   0
  -9   5  19   -4.66    8.54   0
  -7   4  28  394.69   12.05   0
  -6   3  33    8.30    7.15   0
  -6   5 -14  405.34   11.60   0
  -4   4   4 1495.64   17.91   0
  -3   3  12 2617.51   24.36   0
  -8   5  20  221.70   11.01   0
  -7   3  35    2.99    7.34   0
  -4   4 -11   -0.74    4.90   0
  -9   4  29  -10.39    7.53   0
  -8   4  30   94.59    9.73   0
  -7   5  18  408.08   12.09   0
  -6   4  26  392.42   11.62   0
  -6   5  10  489.73   11.55   0
  -4   4   7    0.51    6.48   0
  -9   6  -6   66.31    8.97   0
  -6   5 -17   -1.99    6.66   0
  -4   2  33    0.65    6.66   0
  -4   4 -14  311.55   10.17   0
  -9   6  -9    3.24    8.28   0
  -9   6   3   12.37    7.97   0
  -6   5  13    6.15    7.43   0
  -5   3  31   -0.26    6.83   0
  -9   6 -12  156.86    9.78   0
  -9   6   6  192.71   10.79   0
  -8   6  -8  462.52   12.87   0
  -8   6  -5   -0.29    8.43   0
  -8   6   1    5.84    8.57   0
  -4   4  10  424.36   10.62   0
  -3   3  15   -0.41    5.96   0
  -9   6   9  -11.60    8.33   0
  -8   6   4  227.57    9.83   0
  -7   4  31   -6.03    8.24   0
  -7   5  21   -4.26    7.63   0
  -4   3  26  624.87   13.12   0
  -9   6 -15    1.11    7.75   0
  -8   6 -11   12.51    8.20   0
  -8   6   7   -0.62    8.35   0
  -6   5 -20  507.62   12.76   0
  -6   5  16  646.15   13.57   0
  -9   5  25    8.33    7.99   0
  -9   6  12  168.86   10.13   0
  -8   4  33    0.47    8.99   0
  -6   3  36  303.56   11.13   0
  -6   4  29    3.35    7.47   0
  -4   4 -17    1.41    5.42   0
  -4   4  13    9.92    6.44   0
  -8   6 -14  121.04    9.45   0
  -8   6  10  195.03    9.90   0
  -5   4  24  909.05   15.23   0
  -5   5  -1   -0.19    5.80   0
  -9   6 -18  155.74    9.33   0
  -5   5  -7    2.71    5.60   0
  -5   5   5   -1.93    7.11   0
  -9   6  15    8.69    9.04   0
  -8   6 -17    1.87    7.56   0
  -8   6  13  -10.15    8.84   0
  -7   6  -7    8.90    7.83   0
  -7   6   2  348.87   10.70   0
  -7   6   5   11.94    8.10   0
  -6   5  19   -3.68    7.60   0
  -5   5 -10  714.06   13.77   0
  -7   6 -10  235.33   10.03   0
  -5   3  34  426.87   11.90   0
  -4   4  16 1553.22   18.20   0
  -9   5  28   91.01    9.51   0
  -7   4  34  192.14    9.76   0
  -7   6   8  669.55   13.33   0
  -5   5 -13    3.11    6.38   0
  -4   3  29    4.72    6.23   0
  -4   4 -20 1225.10   19.00   0
  -9   6  18  115.25    9.04   0
  -8   6  16  390.32   11.38   0
  -7   6 -13   -5.83    7.23   0
  -5   5  11   13.74    6.84   0
  -8   4  36  118.28    9.49   0
  -8   5  29   -3.71    8.39   0
  -7   5  27    1.84    8.02   0
  -7   6  11   -3.80    7.04   0
  -6   4  32  337.06   11.32   0
  -6   5  22  214.33   10.12   0
  -5   4  27    8.22    5.99   0
  -4   4  19    1.03    6.56   0
  -2   2  20 3296.04   29.30   0
  -9   6  21    1.82    8.23   0
  -8   6  19   -4.44    7.59   0
  -7   6 -16  648.11   14.07   0
  -7   6  14  144.81    9.53   0
  -5   5 -16  703.11   14.10   0
  -5   5  14  655.54   13.27   0
  -3   3  21   -1.48    4.97   0
  -3   2  31    3.06    5.40   0
  -9   7  -1    3.89    8.63   0
  -8   5  32  206.52   10.21   0
  -8   6  22  111.24    9.37   0
  -7   4  37    4.67    7.12   0
  -7   5  30   93.15    9.26   0
  -7   6 -19    2.94    7.87   0
  -7   6  17    4.80    7.11   0
  -6   6   0  874.40   14.58   0
  -6   6   3   -3.30    7.18   0
  -5   3  37   -4.48    7.42   0
  -5   5  17    8.96    6.81   0
  -9   7  -4  202.75   10.28   0
  -9   7   5    2.63    8.05   0
  -6   4  35    3.06    7.20   0
  -6   6  -6  386.67   10.81   0
  -6   6   6  249.45   10.44   0
  -5   4  30  310.97   10.81   0
  -5   5 -19    5.78    5.96   0
  -4   3  32  917.58   15.63   0
  -9   7  -7    4.56    8.39   0
  -9   7   8  249.93   11.13   0
  -6   6  -9    8.09    7.28   0
  -9   7 -10  175.47    9.58   0
  -7   6  20  295.03   11.41   0
  -6   6   9    9.29    6.67   0
  -3   3  24 1042.94   16.00   0
  -3   4  -1   26.52    6.35   0
  -9   7  11    9.33    8.53   0
  -8   7  -3   -4.86    8.38   0
  -8   7   3   -3.40    8.53   0
  -6   5  28  457.09   12.36   0
  -6   6 -12  366.27   11.02   0
  -3   4   2  827.46   13.91   0
  -9   6  27    8.79    8.41   0
  -9   7 -13   -1.78    7.25   0
  -8   7  -6  116.04    9.24   0
  -8   7   6  197.14   10.45   0
  -3   4   5    4.20    5.31   0
  -2   2  23   -1.40    5.05   0
  -2   3  -2  663.66   13.54   0
  -2   3   1   41.72    5.70   0
  -9   7  14  120.55    9.82   0
  -8   7  -9   -1.56    8.32   0
  -8   7   9   -6.07    8.75   0
  -7   5  33    7.29    7.58   0
  -3   4  -7   13.35    4.88   0
  -3   4   8 2768.56   24.15   0
  -2   3   4 3064.16   26.94   0
  -7   6  23    6.07    7.34   0
  -6   6 -15    0.86    6.35   0
  -6   6  15   10.29    6.78   0
  -4   4  25    0.92    5.62   0
  -4   5   0 1420.58   17.80   0
  -4   5   3   19.69    7.01   0
  -2   3   7   -1.69    5.73   0
  -9   7  17    2.73    8.14   0
  -8   6  28  151.48    9.82   0
  -8   7 -12  209.26   10.33   0
  -8   7  12  198.28   10.40   0
  -5   4  33    1.78    6.23   0
  -4   5   6  866.14   14.49   0
  -3   4 -10 1094.74   16.70   0
  -6   4  38   97.43    8.37   0
  -4   5  -6  365.57   10.06   0
  -3   4  11   30.61    5.77   0
  -8   7  15   -3.75    8.13   0
  -6   5  31   12.70    7.84   0
  -6   6  18  402.63   10.93   0
  -4   3  35    1.61    6.38   0
  -4   5   9    0.93    5.93   0
  -3   3  27   -0.43    5.97   0
  -2   3  10 2104.20   22.27   0
  -8   7 -15    1.97    7.05   0
  -6   6 -18  257.37   10.06   0
  -4   5  -9   22.53    5.47   0
  -7   5  36  252.85   10.75   0
  -7   7  -5    3.02    7.72   0
  -7   7   4  201.53    9.27   0
  -7   7   7    3.80    8.28   0
  -4   4  28  627.87   13.03   0
  -4   5  12  963.07   15.10   0
  -3   4 -13    5.74    5.31   0
  -3   4  14  714.68   12.84   0
  -8   5  38   56.30    8.24   0
  -8   6  31    0.11    7.60   0
  -6   6  21   -5.82    7.86   0
  -9   7  23    6.24    7.89   0
  -7   7  -8  604.49   13.16   0
  -7   7  10  239.55    9.82   0
  -5   6   1    3.95    6.24   0
  -5   6   4  777.13   14.08   0
  -4   5 -12 1141.79   16.96   0
  -2   2  26 1224.91   18.46   0
  -2   3  13   27.06    5.33   0
  -8   7  21    4.47    8.91   0
  -7   6  29    1.12    8.06   0
  -7   7  13   -1.29    8.27   0
  -5   4  36  305.24   10.70   0
  -5   6  -5   -3.70    6.83   0
  -5   6   7   -6.09    6.28   0
  -4   5  15   12.25    6.07   0
  -3   4  17   -0.96    6.27   0
  -7   7 -11   -4.39    6.58   0
  -6   5  34  212.25   10.38   0
  -5   6  10  490.24   11.86   0
  -6   6  24  493.34   11.87   0
  -5   6  -8  851.69   14.20   0
  -8   6  34  113.51    9.58   0
  -7   7 -14  133.31    9.22   0
  -7   7  16  523.80   12.48   0
  -5   5  29   -3.24    7.29   0
  -5   6  13   12.67    7.16   0
  -4   5 -15   -1.99    5.74   0
  -3   3  30  311.69   10.14   0
  -3   4 -16 2007.88   23.31   0
  -2   3  16 2036.64   21.44   0
  -9   8  -2  122.02    8.86   0
  -9   8   1   -1.81    8.12   0
  -8   7  24  267.64   11.03   0
  -7   5  39    4.13    7.10   0
  -5   6 -11    8.97    6.68   0
  -4   3  38  176.05    9.23   0
  -4   4  31    1.46    6.48   0
  -9   8  -5    0.70    7.36   0
  -9   8   7    8.55    7.33   0
  -7   6  32  272.66   10.62   0
  -7   7  19    0.77    8.20   0
  -3   4  20  907.21   14.34   0
  -9   8  -8  151.50    9.39   0
  -9   8  10   94.05    8.39   0
  -5   6  16  679.47   13.01   0
  -9   8  13    2.47    7.85   0
  -7   7 -17   -0.64    7.24   0
  -6   5  37    1.54    7.47   0
  -6   7   2  328.08   11.18   0
  -5   6 -14  398.17   11.21   0
  -4   5  21    1.56    6.04   0
  -9   8 -11   -2.97    8.35   0
  -7   7  22  123.11    9.45   0
  -6   7  -4  272.07   10.22   0
  -6   7   8  660.52   13.89   0
  -5   4  39   -3.13    6.64   0
  -5   5  32  505.31   12.45   0
  -5   6  19    6.96    7.18   0
  -4   5 -18  733.99   14.30   0
  -2   2  29    0.40    5.69   0
  -8   6  37   -3.83    7.12   0
  -8   8  -1   -0.83    7.80   0
  -8   8   5    6.37    7.84   0
  -6   7  -7    6.28    7.40   0
  -6   7  11   13.28    7.53   0
  -8   8  -4  230.44   10.48   0
  -7   6  35    4.27    8.13   0
  -6   6  30  115.14    9.36   0
  -8   8  -7   -2.61    7.37   0
  -8   8  11    4.69    7.78   0
  -7   7  25   -1.49    8.19   0
  -6   7  14  147.04    9.61   0
  -5   6 -17    6.65    6.97   0
  -4   4  34  256.66    9.85   0
  -3   3  33    2.94    5.63   0
  -3   4 -19   16.08    5.44   0
  -8   7  30   88.76    8.43   0
  -8   8  14  145.29    9.58   0
  -6   7 -10  223.26    9.33   0
  -5   6  22  226.15    9.25   0
  -8   8 -10  161.99    9.54   0
  -6   7  17    5.23    8.04   0
  -2   3  22  451.84   11.29   0
  -8   8  17   -1.54    8.01   0
  -6   5  40  208.03   10.58   0
  -6   7 -13    0.78    7.05   0
  -6   6  33   11.40    7.88   0
  -5   5  35    1.22    7.20   0
  -4   5 -21    9.70    5.42   0
  -4   5  27   -1.53    6.80   0
  -3   4  26  625.24   12.28   0
  -8   8 -13   -5.98    7.44   0
  -6   7  20  287.43   10.11   0
  -3   5   1    6.71    6.19   0
  -3   5   4  702.68   12.65   0
  -3   5   7    4.36    6.57   0
  -8   7  33    0.13    7.94   0
  -8   8  20  144.82    9.05   0
  -7   6  38   46.85    8.24   0
  -7   8   0  394.38   11.79   0
  -7   8   6  199.66   10.10   0
  -5   6 -20  463.42   12.03   0
  -4   6   2  608.28   12.09   0
  -4   6   5   -1.09    5.90   0
  -7   8  -3    2.58    8.05   0
  -7   8   9    4.18    7.64   0
  -6   7 -16  631.60   13.72   0
  -4   4  37   -0.18    6.38   0
  -4   6   8  872.91   13.91   0
  -3   5  10  721.57   12.71   0
  -8   8  23    7.33    8.12   0
  -7   8  -6  113.40    8.83   0
  -7   8  12  176.03   10.39   0
  -6   7  23   -1.94    6.87   0
  -4   6  -4  876.39   14.02   0
  -4   6  11   -2.05    6.10   0
  -3   5  13   -5.73    6.60   0
  -2   2  32  652.57   14.21   0
  -7   7  31   -2.57    8.43   0
  -7   8  15   17.83    8.47   0
  -5   6  28  412.86   11.05   0
  -3   3  36  814.70   15.08   0
  -3   4  29   11.56    6.20   0
  -2   3  25    3.93    4.75   0
  -2   4   3    6.63    5.78   0
  -2   4   6  814.10   13.96   0
  -7   8  -9    6.01    7.13   0
  -6   6  36  214.22    9.98   0
  -5   5  38  199.13    9.52   0
  -5   7   3   -3.18    7.07   0
  -5   7   6  164.26    9.01   0
  -4   5  30  297.00    9.67   0
  -4   6  -7   -5.40    5.36   0
  -4   6  14  295.92    9.54   0
  -3   5  -8 2239.56   22.27   0
  -2   4   0 4029.33   29.02   0
  -7   8  18  132.78    9.98   0
  -6   7  26  263.79   10.53   0
  -5   7  -3   -0.51    7.15   0
  -5   7   9   -8.59    7.60   0
  -3   5  16 1835.22   19.19   0
  -2   4  -3   -3.03    5.50   0
  -2   4   9   -1.19    5.07   0
  -8   8  26   92.49    9.06   0
  -7   6  41    1.14    7.38   0
  -5   7  12  498.95   12.26   0
  -4   6 -10  348.43   10.52   0
  -4   6  17   -2.89    6.09   0
  -2   4  12  815.02   13.83   0
  -7   7  34  154.93    9.84   0
  -7   8 -12  211.57    9.87   0
  -5   6  31  -12.88    7.62   0
  -5   7  -6  463.50   11.66   0
  -7   8  21    1.83    8.26   0
  -5   7  15   -4.22    6.83   0
  -4   6  20  667.02   13.43   0
  -3   5 -11    3.64    5.82   0
  -3   5  19    2.94    5.71   0
  -5   7  -9   -1.60    6.91   0
  -4   5  33    7.12    6.95   0
  -2   3  28 1334.58   18.08   0
  -2   4  15    0.93    4.95   0
  -7   8 -15    3.49    8.04   0
  -6   6  39    2.36    7.57   0
  -4   4  40  414.04   11.68   0
  -4   6 -13   -1.35    6.05   0
  -3   4  32  890.01   15.10   0
  -8   9   1   -8.18    8.10   0
  -6   8   4  238.70    9.80   0
  -3   5  22  294.70    9.76   0
  -1   2  21   19.81    5.39   0
  -8   9  -2  124.12    8.57   0
  -8   9  10   98.93    8.77   0
  -6   8  -2  234.97   10.46   0
  -6   8  10  192.99    9.15   0
  -5   5  41    1.86    6.97   0
  -5   6  34  228.60   10.33   0
  -5   7 -12  374.67   11.16   0
  -5   7  21    2.44    7.85   0
  -4   6  23    7.90    6.21   0
  -2   4  -9    0.16    5.14   0
  -2   4  18 1064.25   15.07   0
  -8   9  13   -5.87    7.69   0
  -7   7  37    5.13    7.27   0
  -6   7  32  264.96   11.03   0
  -6   8  -5   -3.37    7.82   0
  -6   8  13   -0.68    6.89   0
  -3   5 -14  369.18   10.69   0
  -8   9  -5    3.72    7.73   0
  -7   8  27    0.76    7.69   0
  -6   8  16  405.81   12.00   0
  -6   8  -8  470.03   12.48   0
  -5   7  24  330.80   11.07   0
  -4   5  36  305.35   10.52   0
  -4   6 -16  756.67   14.16   0
  -8   9  -8  146.88    9.03   0
  -5   7 -15   -4.83    7.25   0
  -6   6  42  138.14    9.16   0
  -3   4  35    4.97    6.19   0
  -2   3  31   -1.68    5.39   0
  -2   4 -12  769.95   14.42   0
  -1   3   2  698.31   13.58   0
  -1   3   5    6.43    4.73   0
  -1   3   8 3414.20   27.32   0
  -6   7  35    0.78    7.65   0
  -6   8 -11    6.41    7.15   0
  -5   6  37    2.66    7.01   0
  -1   2  24 1783.29   21.71   0
  -6   8  22  107.00    8.55   0
  -4   6  29    8.52    7.13   0
  -3   5 -17   -2.34    5.41   0
  -1   3  -1   42.17    5.45   0
  -1   3  11   17.33    5.06   0
  -7   9   2   85.39    8.85   0
  -7   9   8  243.23   10.66   0
  -7   9  11   -9.93    7.55   0
  -3   5  28  397.90   10.36   0
  -2   4  24 1772.08   19.10   0
  -7   9  -1   -0.54    8.13   0
  -7   9  14  128.92    9.40   0
  -4   6 -19    1.13    6.02   0
  -4   7   4  651.11   13.03   0
  -4   7   7    8.83    6.99   0
  -3   6   3    3.41    6.32   0
  -3   6   6  477.08   11.51   0
  -3   6   9   10.66    7.06   0
  -1   3  14 1648.43   18.99   0
  -7   8  33    0.30    7.34   0
  -7   9  -4  212.92    9.71   0
  -6   8 -14  114.13    8.80   0
  -6   8  25    2.96    7.46   0
  -5   7 -18  175.52    8.73   0
  -4   5  39    3.07    6.78   0
  -4   7  10  385.25   10.45   0
  -3   6   0 1034.49   15.36   0
  -3   6  12  779.10   13.75   0
  -7   9  17   -5.63    7.94   0
  -5   7  30   86.97    7.65   0
  -4   7  -2  260.51    9.90   0
  -4   7  13   10.41    6.58   0
  -7   9  -7   -1.14    7.19   0
  -6   7  38   61.25    8.38   0
  -5   6  40  197.95    9.85   0
  -5   8   5   11.84    7.93   0
  -4   6  32  360.74   10.95   0
  -4   7  16  469.27   11.80   0
  -3   4  38  171.59    9.25   0
  -3   6  15   -4.82    6.07   0
  -2   4 -15   -1.05    4.79   0
  -1   3  17    9.21    4.71   0
  -7   9  20  141.27    9.13   0
  -5   8   8  476.06   11.54   0
  -5   8  11    6.58    7.44   0
  -4   7  -5    2.51    5.92   0
  -3   5  31    0.13    5.52   0
  -2   3  34  578.99   12.85   0
  -2   4  27   -2.02    5.00   0
  -5   8  -1    1.47    7.89   0
  -5   8  14  141.64    9.42   0
  -4   7  19    3.94    7.25   0
  -3   6  -6  475.56   11.41   0
  -3   6  18  425.07   10.55   0
  -2   5   2  826.82   13.77   0
  -2   5   5    5.00    5.36   0
  -2   5   8 2199.66   20.52   0
  -2   5  11    7.52    6.33   0
  -1   2  27    3.09    5.00   0
  -7   9 -10  159.71    9.38   0
  -7   9  23   -1.62    7.54   0
  -5   7  33    1.95    7.32   0
  -5   8  -4  298.53   10.75   0
  -4   7  -8  551.70   12.42   0
  -3   5 -20  551.63   12.78   0
  -2   5  -1    4.27    5.93   0
  -5   8  17    4.17    6.80   0
  -3   6  21   -1.48    6.67   0
  -2   5  14  382.80    9.96   0
  -6   8  31   -6.07    7.97   0
  -4   6  35   -1.66    6.94   0
  -4   7  22  172.22    8.62   0
  -3   6  -9    4.78    6.16   0
  -6   7  41    3.44    6.78   0
  -5   8  -7   -1.78    6.34   0
  -5   8  20  232.69    9.54   0
  -3   5  34  423.26   11.23   0
  -2   4  30  182.69    8.60   0
  -2   5  17    2.34    5.59   0
  -6   9   3   10.77    8.01   0
  -6   9   9    6.77    7.30   0
  -6   9  12  148.09    9.21   0
  -5   6  43    0.70    7.83   0
  -4   7 -11    5.35    5.73   0
  -4   7  25   -8.77    7.93   0
  -3   6  24  616.24   12.69   0
  -6   9   0  347.07   11.45   0
  -6   9  15    2.38    7.93   0
  -5   7  36  260.06   10.26   0
  -5   8 -10  224.58    9.68   0
  -5   8  23    5.50    7.93   0
  -2   5  20  607.45   12.24   0
  -1   3  23    4.29    5.24   0
  -6   8  34  115.64    8.83   0
  -6   9  -3  -11.77    7.27   0
  -3   6 -12  763.36   13.94   0
  -2   3  37   -0.87    5.78   0
  -2   5  -7   12.47    5.06   0
  -6   9  18   97.12    9.19   0
  -2   4 -18 1004.95   17.30   0
  -6   9  -6   82.73    8.00   0
  -5   8  26  196.40    9.97   0
  -4   6  38  114.85    8.48   0
  -4   7 -14  360.80   10.66   0
  -1   2  30  588.82   13.31   0
  -6   9  21   -3.29    8.25   0
  -5   8 -13   -4.59    6.74   0
  -3   5  37    3.11    6.36   0
  -2   4  33    4.47    6.15   0
  -1   4   7   18.84    6.04   0
  -5   7  39    2.87    7.66   0
  -2   5 -10  727.82   13.55   0
  -1   3  26  548.64   11.98   0
  -1   4   4 1282.40   16.23   0
  -1   4  10 1110.66   15.13   0
  -6   8  37   -8.16    7.54   0
  -6   9  -9    5.89    7.09   0
  -6   9  24  223.23    9.90   0
  -3   6 -15   -3.75    5.87   0
  -1   4   1   31.07    6.00   0
  -1   4  13   10.35    5.17   0
  -4   7  31   -6.99    6.34   0
  -3   6  30  186.81    8.39   0
  -4   7 -17   13.55    6.11   0
  -4   8   6  201.35    9.70   0
  -4   8   9   14.88    7.53   0
  -3   7   5   11.23    6.81   0
  -3   7   8  576.44   12.59   0
  -3   7  11  -10.38    7.46   0
  -1   4  16 2136.74   20.35   0
  -6   9 -12  162.41    9.06   0
  -6   9  27    2.08    7.51   0
  -4   6  41    0.45    7.00   0
  -4   8  12  281.38    9.58   0
  -3   7   2  238.47    9.56   0
  -3   7  14  376.62   10.98   0
  -1   4  -2  861.70   13.79   0
  -5   8  32  205.84    9.97   0
  -4   8   0  518.89   12.53   0
  -4   8  15    0.69    6.60   0
  -2   5 -13    3.07    5.33   0
  -1   4  19   11.24    5.31   0
  -5   7  42  124.76    9.58   0
  -4   7  34  182.86    9.45   0
  -3   5  40  435.77   11.65   0
  -3   6  33    4.91    6.67   0
  -3   7  17   11.25    6.61   0
  -2   4  36  399.82   10.92   0
  -2   5  29   -0.11    6.48   0
  -1   3  29    7.31    5.43   0
  -5   9   7   -4.31    7.23   0
  -5   9  10  142.33    8.75   0
  -5   9  13    7.41    7.75   0
  -4   8  -3   -3.53    6.22   0
  -3   7  -4  638.89   12.85   0
  -3   7  20  455.01   12.00   0
  -2   6   4  892.93   14.20   0
  -2   6   7   -0.57    5.74   0
  -2   6  10  346.21    9.80   0
  -1   2  33    1.14    5.27   0
  -5   9   1    1.64    7.76   0
  -5   9  16  366.53   11.22   0
  -4   8  21    4.39    7.68   0
  -3   6 -18  412.73   11.29   0
  -2   6   1    5.57    6.52   0
  -2   6  13    2.64    5.96   0
  -5   8  35   -4.58    7.38   0
  -5   9  -2  174.85    9.61   0
  -2   6  16  778.25   13.12   0
  -5   9  19   -3.60    7.29   0
  -4   8  24  350.28   11.24   0
  -3   7  -7    1.10    6.59   0
  -3   7  23   -5.40    6.52   0
  -2   6  19    5.00    7.05   0
  -5   9  -5    9.71    7.92   0
  -4   7  37    7.02    7.56   0
  -3   6  36  330.84   10.55   0
  -2   5  32  649.62   12.47   0
  -1   4  -8 2688.80   24.40   0
  -5   9  22   68.62    8.12   0
  -4   8  -9    1.10    7.09   0
  -3   7  26  160.47    9.26   0
  -2   5 -16 1720.85   20.40   0
  -1   4  25    7.32    4.96   0
  -4   8  27   10.11    7.54   0
  -2   4  39   -0.09    5.80   0
  -2   6  -5   -1.34    5.22   0
  -2   6  22  364.23    9.95   0
  -5   8  38   64.93    7.61   0
  -5   9  -8  380.06   11.07   0
  -5   9  25    0.28    7.50   0
  -3   7 -10  380.79   10.31   0
  -6  10  -1    5.20    6.72   0
  -1   5   9   23.71    6.19   0
  -4   7  40  150.25    8.79   0
  -4   8 -12  272.41   10.22   0
  -2   5  35    5.79    6.47   0
  -2   6  -8  853.25   14.31   0
  -1   4  28  706.04   13.08   0
  -1   5   3   -4.78    6.15   0
  -1   5  12 1160.81   15.12   0
   0   2  19   -0.59    4.94   0
  -5   9  28   85.03    8.86   0
  -3   6  39    4.16    7.11   0
  -1   4 -11   22.77    5.45   0
  -1   5  15    4.07    5.49   0
  -5   9 -11   -3.38    7.25   0
  -3   7 -13   11.55    6.01   0
  -1   5   0 1418.48   17.09   0
  -1   5  18  750.38   13.20   0
  -3   7  32  292.64   10.69   0
  -4   8 -15   -2.55    6.99   0
  -4   8  33    7.64    7.42   0
  -3   8  10  222.15   10.18   0
  -2   6 -11    6.70    5.92   0
  -1   3  35   -3.36    5.20   0
  -1   5  21    8.31    6.26   0
   0   2  22 1809.01   20.97   0
   0   3   6 2097.11   20.77   0
   0   3   9   -0.37    4.70   0
   0   3  12 2070.64   20.48   0
  -4   9   8  371.37   11.29   0
  -4   9  11   -5.90    8.07   0
  -3   8   4  258.94   10.22   0
  -3   8   7   10.35    6.26   0
  -3   8  13    7.16    8.03   0
  -2   5 -19    3.11    5.40   0
  -1   4  31   11.80    6.08   0
   0   3  15   -1.93    5.35   0
  -4   7  43    2.48    7.17   0
  -4   9  14   78.54    8.91   0
  -3   8  16  429.52   11.13   0
  -2   5  38  104.79    7.99   0
  -2   6  31    2.38    7.12   0
   0   3   3    1.42    4.46   0
  -4   9   2  178.61    9.54   0
  -4   9  17    1.61    7.94   0
  -3   6  42  170.26    8.76   0
  -3   7 -16  428.45   11.73   0
  -3   7  35   -3.68    7.61   0
  -3   8  19   12.26    7.66   0
  -2   7   6  470.44   11.67   0
  -2   7   9   -2.97    7.31   0
  -2   7  12  405.57   11.01   0
  -4   8  36  133.51    8.71   0
  -4   9  -1   -3.28    7.54   0
  -4   9  20  145.01    8.95   0
  -3   8  -2  244.34    9.92   0
  -2   7   3    9.44    6.61   0
  -2   7  15    1.35    6.35   0
  -1   5  -6  867.38   13.98   0
   0   3   0 2540.14   23.42   0
  -5  10   6  102.34    8.89   0
  -2   7  18  179.18    9.06   0
  -1   4 -14  676.48   13.56   0
  -5  10   3    6.78    7.65   0
  -4   9  -4  133.95    9.42   0
  -4   9  23   -2.33    7.71   0
  -2   6 -14  283.51    9.67   0
  -1   4  34  515.87   11.93   0
  -1   5  27   -2.46    6.07   0
   0   2  25    4.23    4.66   0
  -3   8  -5    7.39    6.09   0
  -3   8  25    6.13    7.56   0
  -2   7  21   -4.16    6.41   0
  -5  10   0  202.77    9.69   0
  -4   9  26  139.50    8.91   0
  -3   7  38  140.42    8.70   0
  -2   5  41    0.66    6.27   0
  -2   7  -3    0.70    6.97   0
  -1   5  -9   10.79    5.63   0
   0   3  -3    2.23    4.31   0
  -4   8  39   11.33    7.40   0
  -4   9  -7    3.52    6.82   0
  -2   7  24  473.60   11.31   0
   0   3  24 1616.01   18.61   0
  -5  10  -3    1.24    7.24   0
  -3   8  -8  490.59   12.01   0
  -3   8  28  198.56    9.15   0
  -1   5  30  193.21    8.89   0
  -1   6   5    1.04    6.35   0
  -1   6   8  809.01   13.15   0
  -1   6  11   11.04    5.98   0
  -1   6  14  409.22   10.98   0
   0   4   8 1582.19   17.72   0
   0   4  11    5.03    5.16   0
  -2   6  37   -2.91    7.13   0
  -2   7  -6  148.58    7.82   0
  -1   6  17    3.72    7.13   0
   0   4   5   -2.17    5.02   0
   0   4  14  337.21    9.16   0
  -2   6 -17    1.46    5.62   0
  -1   4  37    0.24    5.90   0
  -1   6   2  342.06    9.51   0
  -1   6  20  492.28   12.03   0
   0   2  28 1072.02   16.66   0
   0   4  17    4.93    5.16   0
  -4   9 -10  142.20    8.96   0
  -3   8 -11   -1.56    7.48   0
   0   4   2 1381.53   16.46   0
  -3   7  41    0.75    7.31   0
  -2   7  -9   -2.87    6.58   0
  -2   7  30  178.56    9.55   0
  -1   4 -17   -0.30    5.19   0
  -1   5 -12  930.72   14.85   0
  -1   5  33   -0.83    6.63   0
  -1   6  23   -0.83    7.11   0
   0   3  27    2.55    4.42   0
   0   4  20 1280.88   15.93   0
   0   4  -1    6.40    5.61   0
  -3   8  34  152.29    9.10   0
  -1   6  -4  734.39   13.20   0
  -3   9   9   -1.35    7.91   0
  -3   9  12  173.39    9.42   0
  -2   6  40  261.04    9.98   0
  -3   8 -14  152.86    8.68   0
  -3   9  15    0.75    8.10   0
  -2   7  33    8.88    7.29   0
  -3   9   3    2.44    7.66   0
  -3   9  18  199.25    9.31   0
  -2   7 -12  490.71   11.62   0
  -2   8   5    4.52    7.74   0
  -2   8   8  448.89   11.08   0
  -2   8  11   -0.90    6.60   0
  -1   4  40  463.17   12.03   0
  -1   5  36  477.40   11.73   0
   0   2  31    3.65    4.95   0
   0   4  26  782.38   13.62   0
  -3   7  44  124.40    8.56   0
  -3   8  37   -4.54    7.56   0
  -3   9   0  333.31   10.80   0
  -2   8  17   -0.35    6.78   0
  -1   6  -7    1.62    5.39   0
  -1   6  29   -2.03    6.99   0
   0   3  -9    0.48    4.66   0
  -2   8  20  186.32   10.04   0
  -1   5 -15   13.18    5.61   0
   0   5   7   -3.64    6.43   0
   0   5  10  697.27   12.28   0
   0   5  13    0.06    5.65   0
   0   5  16  721.39   13.07   0
  -3   9  24  192.11    9.68   0
  -2   7  36  168.68    9.17   0
  -2   8  -1    3.10    7.65   0
  -2   8  23   -0.99    7.88   0
   0   5   4 1161.70   15.47   0
  -3   9  -3    2.00    7.09   0
  -2   6  43    0.93    6.38   0
  -1   6  32  400.64   11.24   0
  -1   7  10  235.00    9.49   0
  -1   7  13   -5.05    7.07   0
   0   4  -7    0.63    5.35   0
   0   4  29    6.68    6.08   0
   0   5  19    8.91    5.64   0
  -3   9  27    0.94    7.21   0
  -1   6 -10  476.79   11.49   0
  -1   7   7   10.09    6.38   0
  -1   7  16  635.98   12.62   0
   0   3  33   -2.68    5.37   0
   0   5   1   -2.03    6.17   0
  -3   8  40  134.01    8.34   0
  -3   9  -6  191.28    9.47   0
  -2   8  -4  238.56   10.19   0
  -2   8  26  205.35    9.47   0
  -1   5  39   -1.09    6.47   0
  -1   7   4  264.48    9.30   0
  -1   7  19    4.99    8.13   0
   0   5  22  238.01    8.57   0
  -1   4 -20  796.90   15.63   0
  -2   7  39    3.31    7.42   0
   0   2  34  257.28    9.56   0
   0   4  32  482.36   11.68   0
   0   5  -2  334.13    9.29   0
  -2   8  -7    0.88    6.90   0
  -1   6  35    8.05    6.33   0
  -1   7  -2  330.12   10.61   0
   0   3 -12 2449.40   24.70   0
  -3   9  -9   -0.29    6.93   0
  -1   5 -18  375.27   10.48   0
  -1   6 -13    5.04    5.90   0
   0   4 -10  414.26   10.50   0
  -2   8  32  202.87    9.38   0
   0   5  28  635.09   12.28   0
  -1   5  42  208.77    9.10   0
  -1   7  -5    7.97    6.75   0
   0   3  36  519.47   12.02   0
   1   2   8 3386.62   26.96   0
   1   2  11   20.10    4.84   0
   1   2  14 1553.37   18.23   0
  -2   7  42   82.72    7.81   0
  -2   8 -10  195.48    9.39   0
  -1   6  38  123.78    8.82   0
   0   4  35   -2.19    6.17   0
   0   6   9    2.27    6.06   0
   0   6  12  358.94   10.14   0
   0   6  15    4.35    6.24   0
   1   3  10 1152.77   15.15   0
   1   3  13    5.18    5.08   0
  -3   9 -12  132.80    8.25   0
   0   5  31    9.41    6.42   0
   0   6   6  403.76   10.33   0
   0   6  18  291.50    9.49   0
   1   2   5   12.91    5.43   0
   1   3   7   20.85    5.23   0
   1   3  16 2080.67   20.00   0
  -2   8  35    6.84    7.66   0
  -2   9  10  167.75    9.36   0
  -2   9  13   -6.99    7.60   0
  -2   9  16  177.87    9.74   0
  -1   7  31   -1.30    7.86   0
   0   5  -8  976.94   14.82   0
   0   6   3    3.36    6.03   0
   0   6  21    1.25    7.34   0
   1   2  20 1411.97   17.84   0
  -2   9  19   -0.53    7.98   0
  -1   6 -16  624.51   12.87   0
  -1   7  -8  643.71   12.49   0
   1   3   4 1291.76   16.08   0
   0   6   0  880.65   13.99   0
  -1  -1  15    4.05    6.94   0
   0  -5  35    0.12    8.66   0
   0  -3  33   -0.18    7.46   0
   0  -2  29   -0.04    6.79   0
   0  -1  22  478.45   13.41   0
   3  -3  39    1.96    7.94   0
   4  -5  45    1.42    9.44   0
  -2  -3  16 1816.96   23.11   0
  -1  -7  18  115.77   11.20   0
  -1  -5  28  409.99   13.58   0
   0  -7  31    1.29   10.16   0
   1  -7  38   46.74   10.67   0
   1  -6  40  180.75   12.85   0
   1  -3  37   -8.78    7.56   0
   2  -6  44  210.40   12.71   0
   2  -4  42  377.79   12.51   0
   2  -2  34  271.84   11.25   0
   3  -4  43    2.13    9.48   0
   4  -7  47    9.33    9.44   0
  -2  -4  17   -0.62    8.11   0
  -2  -2  12  800.18   16.47   0
  -1  -6  26  260.39   13.11   0
   0  -8  26   82.21   10.03   0
   1  -1  26 1123.73   19.09   0
  -1  -7  21    1.80    9.50   0
  -1  -3  29   -2.81    8.81   0
  -1  -2  25    8.09    6.96   0
   0  -6  36  217.47   12.89   0
   0  -4  37   -2.20    9.32   0
   1  -5  42  159.79   12.13   0
   1  -4  41   11.98    9.76   0
  -2  -3  19    8.10    8.06   0
   4  -4  44  402.22   14.28   0
  -2  -4  20  652.49   15.57   0
  -2  -2  15   -2.77    6.98   0
  -1  -1  18 1206.79   19.17   0
   0  -5  38  221.15   11.26   0
   2  -7  45  -10.49   10.18   0
   2  -3  41   -2.69    8.77   0
   2  -1  27    2.63    6.09   0
   3  -6  48  142.87   11.65   0
   3  -5  47   13.68   10.02   0
  -2  -5  18  405.82   13.64   0
  -1  -6  29   -4.02   10.05   0
   0  -7  34  138.07   11.12   0
   0  -1  25   -2.18    7.20   0
   1  -7  41   -4.93   10.33   0
   1  -6  43    0.46   10.29   0
   3  -2  35   -5.58    7.02   0
   4  -6  49    6.73   10.28   0
  -1  -7  24  275.46   12.79   0
   2  -6  47   -2.30    9.87   0
   2  -4  45   -9.15    9.69   0
  -2  -3  22  319.10   11.98   0
  -1  -4  33    7.50    8.26   0
   3  -4  46   73.95   10.55   0
   3  -3  42  250.87   11.80   0
  -2  -5  21   -2.58    8.80   0
  -2  -4  23   -0.88    8.84   0
  -1  -3  32  924.86   16.39   0
  -1  -2  28 1331.38   18.97   0
   0  -6  39   12.41   10.05   0
   0  -4  40  424.05   14.31   0
   2  -2  37   -5.01    7.55   0
  -1  -1  21   26.70    6.67   0
   1  -5  45    4.08    8.79   0
   1  -4  44  284.59   12.93   0
   1  -1  29    1.08    6.70   0
  -1  -7  27    6.05    9.57   0
  -1  -6  32  262.82   12.65   0
   0  -7  37    8.34   10.27   0
   0  -5  41   -1.80    8.72   0
   0  -3  39   -1.07    7.96   0
   0  -2  35   -0.06    8.32   0
   1  -7  44  128.37   11.24   0
  -2  -5  24  324.09   13.23   0
  -2  -4  26  379.53   13.28   0
  -1  -4  36  310.69   12.67   0
   0  -1  28 1355.70   19.50   0
   1  -6  46   64.04   10.58   0
   2  -3  44  308.73   12.62   0
   3  -6  51   -7.82    9.24   0
   3  -5  50  164.50   12.01   0
  -1  -3  35   -7.16    8.88   0
  -1  -2  31    1.53    8.44   0
   2  -6  50   96.69   11.23   0
   2  -1  30  586.40   15.03   0
   4  -6  52  106.27   10.33   0
  -1  -1  24 1873.30   22.80   0
   0  -6  42  130.25   11.23   0
   2  -4  48  281.04   12.98   0
   3  -2  38  316.42   12.73   0
  -1  -7  30   85.88   10.77   0
  -1  -6  35    7.98    9.88   0
   0  -4  43   -8.96    8.58   0
   1  -5  48  225.30   13.06   0
   1  -2  39    0.05    8.12   0
   4  -5  51   -4.23    9.38   0
  -2  -6  22  107.08   10.48   0
  -2  -5  27  -10.20    9.75   0
  -2  -4  29   -3.66    8.58   0
  -2  -2  24 1825.64   22.32   0
   0  -5  44  206.17   11.21   0
   1  -4  47   -7.75    9.92   0
   2  -2  40  820.59   16.79   0
   3  -4  49    1.43    9.51   0
   3  -3  45   11.07    8.27   0
   1  -1  32 1688.92   22.23   0
  -1  -4  39    2.95    8.68   0
   0  -2  38  264.93   10.71   0
   0  -1  31   -0.03    7.43   0
   1  -6  49    0.51   10.09   0
  -2  -6  25    2.00   10.42   0
  -1  -7  33   -0.61    8.92   0
  -1  -3  38  176.40   10.22   0
  -1  -2  34  617.76   13.96   0
  -1  -1  27    2.65    7.34   0
   2  -5  52  135.37   11.66   0
  -2  -5  30   81.77   10.82   0
  -2  -4  32  367.33   13.48   0
  -2  -3  31    0.02    8.92   0
  -2  -2  27    1.98    8.25   0
  -2  -1  17    4.26    7.03   0
  -1  -6  38   52.52   10.42   0
  -1  -5  40  204.30   12.54   0
   0  -6  45   -8.85    9.24   0
   2  -3  47    9.45    8.90   0
   3  -5  53   -9.01   10.11   0
  -3  -3   9   13.15    7.28   0
   0  -4  46  146.13   12.04   0
   2  -1  33    8.85    7.59   0
  -3  -3  12  757.02   16.55   0
   0  -5  47    9.76    9.58   0
   1  -5  51    4.36    9.90   0
   1  -2  42  328.55   12.26   0
   2  -4  51    1.10    8.48   0
  -3  -3  15    2.74    7.70   0
  -2  -6  28  154.30   11.08   0
  -2  -1  20 1470.50   20.36   0
  -1  -4  42  186.12   12.14   0
   3  -2  41    4.38    8.18   0
  -2  -5  33    2.85    9.25   0
  -1  -3  41    2.44    9.30   0
  -1  -2  37   -6.99    8.85   0
  -1  -1  30  649.20   14.33   0
   0  -3  45   -3.94    8.39   0
   0  -2  41    3.87    8.79   0
   1  -1  35   -9.94    6.97   0
   2  -2  43   -4.06    7.94   0
   3  -4  52  206.18   11.43   0
  -3  -3  18  424.45   13.22   0
  -2  -3  34  453.15   13.82   0
  -2  -2  30  197.32   10.03   0
  -1  -6  41    0.88    9.60   0
  -1  -5  43    0.06    9.75   0
   0  -6  48  137.32   12.12   0
   3  -3  48  308.88   12.76   0
  -3  -3  21    2.38    8.24   0
  -3  -2  11    6.19    6.98   0
  -2  -6  31   12.48    9.24   0
  -2  -1  23    8.39    6.46   0
   0  -4  49    3.88   10.15   0
   1  -3  49  -10.05    9.65   0
   2  -5  55    7.77   10.05   0
  -3  -4  22  194.96   10.97   0
  -3  -2  14  376.23   12.42   0
  -2  -5  36  268.89   12.65   0
   0  -5  50   86.22   10.47   0
   2  -3  50  165.87   11.40   0
   3  -5  56   95.33   10.16   0
  -3  -2   5    8.35    6.47   0
  -3  -2  17    1.67    7.17   0
  -2  -3  37   -9.99    9.46   0
  -2  -2  33   -6.45    7.52   0
  -1  -4  45    5.32    9.22   0
  -1  -1  33    4.68    7.73   0
   1  -5  54   54.92   10.50   0
   1  -2  45   -1.44    8.86   0
   2  -4  54   20.54    9.79   0
   2  -1  36  905.14   17.75   0
  -3  -3  24  611.81   15.11   0
  -2  -1  26  551.99   13.65   0
  -1  -3  44  296.39   11.96   0
   0  -3  48  213.38   11.11   0
   0  -2  44  710.78   15.61   0
  -3  -4  25   -1.15    9.08   0
  -3  -2  20  611.61   14.49   0
  -2  -6  34  119.07   11.19   0
   1  -1  38  268.05   10.26   0
   2  -2  46  266.81   11.63   0
   3  -4  55    0.78    9.46   0
  -3  -3  27    7.20    7.57   0
  -3  -2  23    7.08    7.98   0
  -2  -5  39    9.36   10.44   0
  -2  -2  36  413.72   13.09   0
  -1   0  20 1504.10   21.09   0
   0  -4  52  158.50   11.56   0
  -3  -4  28  403.86   13.83   0
  -2  -3  40  457.46   14.13   0
  -2  -1  29    8.81    6.83   0
  -1  -4  48  216.05   12.47   0
  -1  -1  36  940.26   17.02   0
   0  -5  53    8.70    9.86   0
   1  -3  52  269.07   12.65   0
   2  -5  58  110.20   10.31   0
  -2  -6  37    2.98    8.74   0
  -1  -3  47   -2.65   10.03   0
  -1  -2  43    3.13    8.15   0
  -3  -3  30  210.70   11.65   0
  -3  -2  26  647.34   14.19   0
  -1  -5  49    3.57   10.11   0
  -1   0  23    1.84    6.05   0
   0  -3  51   -7.42   10.15   0
   1  -2  48  334.49   12.72   0
   1   0  25    0.63    4.92   0
   2  -3  53   -6.39    9.39   0
  -3  -4  31   -3.05    8.98   0
  -2  -5  42  127.11   11.18   0
  -2  -1  32 1245.78   18.77   0
   1  -4  56  150.70   10.69   0
   1  -1  41    1.11    7.73   0
   2  -4  57   -4.83    9.84   0
   2  -1  39    2.62    6.85   0
  -2  -2  39   -0.33    7.95   0
  -3  -5  29    2.47    9.21   0
  -3  -3  33    4.61    8.98   0
  -2  -3  43   -3.30    8.51   0
  -1  -1  39    5.61    8.52   0
  -1   0  26 1189.66   18.59   0
   2  -2  49    4.45    9.35   0
  -3  -4  34  174.28   11.71   0
  -3  -1  13    9.09    5.82   0
  -3  -1  16 2022.79   23.55   0
  -3  -1  19   22.32    7.34   0
  -1  -4  51    1.28    9.39   0
  -1  -2  46  134.35   10.79   0
   0  -4  55    8.29    9.24   0
  -3  -1  10 1115.48   19.24   0
  -2  -1  35    8.25    8.13   0
  -1  -3  50  192.99   12.49   0
   1  -3  55    2.95    9.24   0
   1   0  28 1249.43   20.12   0
  -3  -5  32  206.67   11.63   0
  -2  -2  42  414.01   13.40   0
   0  -1  43   -2.30    7.14   0
  -3  -3  36  330.68   11.82   0
  -3  -1   7   15.68    6.23   0
  -2   0  13    0.18    5.57   0
  -2   0  16 2915.07   28.64   0
  -2   0  19   -8.22    7.06   0
  -1   0  29   -7.32    6.33   0
   1  -2  51    7.42    7.52   0
   2  -3  56  189.74   11.28   0
  -3  -4  37    4.85    9.19   0
  -2  -4  47    3.49    9.43   0
  -1  -1  42  346.83   12.57   0
   1  -4  59    4.38    9.88   0
   1  -1  44  428.84   12.34   0
   2  -4  60  108.65   11.51   0
   2  -1  42  336.17   12.04   0
  -3  -5  35    3.71    8.65   0
  -2  -1  38  328.49   11.95   0
  -2   0  22 1895.39   22.21   0
  -1  -4  54   68.01   10.70   0
   0   0  33    2.59    6.84   0
   1   0  31    2.76    6.27   0
  -3  -1  28  724.93   15.21   0
  -2   0  25   -1.59    7.36   0
  -1  -2  49   -1.51    8.35   0
   0  -4  58   65.70   10.37   0
  -2  -2  45   10.43    8.26   0
  -1  -3  53   -8.90    8.96   0
   0  -1  46  107.03   10.26   0
   2  -2  52  195.11   11.43   0
  -3  -4  40  145.51   11.80   0
  -2  -3  49   -1.10   10.44   0
   0  -2  53    8.92    9.38   0
   1  -3  58  102.73   10.52   0
  -3  -5  38   54.30   10.12   0
  -3  -2  38   93.31    9.18   0
  -3  -1  31    3.70    7.32   0
  -2  -4  50  108.03   10.44   0
  -2  -1  41    2.23    9.06   0
  -2   0  28 1101.54   17.11   0
  -1  -1  45    3.73    9.02   0
   1  -2  54  112.13   10.63   0
  -4  -3  20  417.74   14.00   0
  -1   0  35   -0.50    7.78   0
   0   0  36  593.68   13.42   0
   1  -1  47    2.89    7.96   0
   1   0  34  924.06   17.45   0
  -4  -3  23    7.71    8.37   0
  -2   0  31   -3.48    7.93   0
  -1  -4  57   -9.17    9.49   0
  -1  -2  52  275.37   12.67   0
   2  -3  59    1.31    8.75   0
   2  -1  45   -1.04    7.20   0
  -4  -3  26  148.85   10.62   0
  -3  -4  43   -7.16   10.19   0
  -3  -2  41   -1.48    9.33   0
  -2  -2  48  317.53   12.28   0
  -1  -3  56  142.31   11.33   0
  -4  -2  16  759.92   16.36   0
  -4  -2  19   -1.40    7.59   0
   0  -1  49   -4.97    8.26   0
  -4  -3  29    3.04    8.92   0
  -4  -2  13   -5.32    7.57   0
  -4  -2  25   -0.44    8.17   0
  -2  -4  53   -9.82   10.36   0
  -2  -3  52  142.63   11.03   0
  -2  -1  44  345.55   11.98   0
  -2   0  34  284.85   11.36   0
  -1  -1  48  353.54   13.04   0
  -1   0  38  271.17   11.11   0
   0   0  39   -2.36    7.37   0
  -4  -2  28  462.94   13.57   0
  -3  -1  37   -9.11    7.77   0
   0  -3  60  148.87   11.19   0
   0  -2  56  106.67   10.75   0
   1  -3  61    3.41    8.90   0
   1   0  37   -2.90    6.72   0
   2  -2  55    2.76    8.63   0
  -4  -3  32  274.77   12.62   0
  -3  -4  46   44.96    9.75   0
  -3  -2  44  276.26   12.19   0
   1  -2  57   -0.01    9.01   0
   1  -1  50  273.15   11.61   0
  -4  -2  31   -7.09    8.81   0
  -3   0  21    2.42    6.13   0
  -3   0  24 1571.45   20.41   0
  -1  -2  55   -2.57    9.33   0
  -3  -1  40  475.68   12.98   0
  -3   0  27   -4.63    7.63   0
  -2  -1  47    8.98    8.89   0
  -2   0  37    0.64    7.11   0
  -1  -3  59  -13.58    9.67   0
  -4  -4  33    1.23    8.95   0
  -4  -3  35    6.80    9.22   0
  -3  -3  48  156.15   10.92   0
  -2  -3  55    3.54    9.02   0
   0  -1  52  325.17   12.96   0
   0   0  42  760.94   15.52   0
  -4  -2  34  185.40   10.40   0
  -4  -1  18  738.52   15.52   0
  -4  -1  24  693.59   14.93   0
  -3  -2  47   10.45    9.68   0
  -3   0  30  598.92   14.07   0
   1   0  40  758.79   15.97   0
  -4  -1  15    2.87    6.80   0
  -4  -1  27   10.28    8.20   0
  -3  -1  43    7.70    9.64   0
  -2  -2  54   41.71   10.65   0
  -2   0  40  874.25   16.33   0
   0  -2  59    3.28    9.08   0
  -4  -4  36  107.53   10.59   0
  -4  -3  38  143.76   10.48   0
  -4  -2  37   -9.20    9.30   0
  -4  -1  30  197.69   10.83   0
  -3   0  33    0.38    8.36   0
   0  -3  63   -6.19    9.75   0
  -3  -3  51   -7.17    9.76   0
  -2  -1  50  177.49   10.64   0
   1  -2  60  148.45   11.29   0
   1  -1  53   -3.37    8.47   0
  -4  -1  12 1139.20   19.17   0
  -4  -1  33    8.54    8.10   0
  -3  -2  50  172.12   12.17   0
   0   0  45   -1.08    8.08   0
  -4  -4  39    3.45    9.11   0
  -4  -3  41    3.55    9.87   0
  -4  -2  40  263.70   12.39   0
  -3  -1  46   88.15   10.62   0
  -3   0   9   -1.31    5.74   0
  -3   0  36  539.10   13.00   0
  -2   0  43   -6.17    7.57   0
   0  -1  55    8.06    9.26   0
   1   0  43   -2.17    7.25   0
  -3   0  39   -4.72    8.30   0
  -2  -2  57    3.91    8.92   0
  -2  -1  53    6.44   10.27   0
  -1   0  47    1.36    7.31   0
  -4  -3  44  136.16   10.58   0
  -4  -2  43   -0.35    9.21   0
  -4  -1   9   12.25    7.03   0
  -1   1  22  451.80   12.70   0
  -1   1  25    1.53    6.46   0
   0  -2  62   66.80    9.43   0
  -3  -1  49    6.53    9.75   0
  -2   0  46  278.02   10.98   0
  -1   1  19    2.92    6.30   0
  -1   1  28 1280.61   18.61   0
   0   0  48  472.09   13.47   0
   1  -1  56  199.48   11.43   0
  -2   1  21   15.77    7.15   0
  -2   1  24 1824.53   21.53   0
  -2   1  27    4.08    7.22   0
  -1  -1  57   -5.76    9.92   0
   1  -2  63    7.44    9.62   0
  -4   0  23    5.14    7.32   0
  -2   1  30  616.91   13.69   0
  -1   0  50  284.37   12.22   0
   0  -1  58  155.79   11.04   0
   1   0  46  103.57    9.12   0
  -4  -3  47   11.13    8.26   0
  -4  -1  42  227.85   10.71   0
  -4   0  20 1284.54   18.46   0
  -2  -1  56  177.49   11.83   0
  -2   1  18 1151.82   18.11   0
  -4   0  17    4.08    6.81   0
  -4   0  32  483.71   12.61   0
  -3  -1  52  204.99   12.02   0
  -3   0  45    2.39    9.41   0
  -2   0  49    2.86    7.92   0
  -2   1  33   -3.14    6.77   0
   0   1  23   -0.99    5.99   0
   0   1  26 1113.80   18.77   0
  -4   0  35    3.85    8.39   0
  -3  -2  56  100.11   10.12   0
  -1  -2  64   58.35   10.35   0
   0  -2  65   -3.36    9.29   0
   0   0  51   -7.33    7.91   0
   0   1  29   -0.64    6.05   0
  -5  -2  27    4.77    8.96   0
  -4  -1  45   -0.66    8.13   0
  -2   1  15    5.61    6.51   0
  -2   1  36  942.99   15.85   0
  -1  -1  60  168.27   12.05   0
  -1   1  37    3.20    6.29   0
   0   1  32 1720.41   22.27   0
  -5  -2  30  183.75   10.96   0
  -4   0  14  314.57   11.21   0
  -4   0  38  141.77   10.16   0
  -3   1  23    6.07    7.12   0
  -3   1  26  521.16   12.44   0
  -3   1  29    3.20    7.81   0
  -1   0  53    8.75    8.88   0
   1  -1  59    1.98    7.92   0
   1   0  49   -0.93    8.36   0
  -5  -2  33    1.11    8.43   0
  -3   1  32 1240.43   18.13   0
  -2  -1  59   -1.27    9.79   0
  -2   0  52  185.56   11.79   0
  -2   1  39   -3.73    7.76   0
   0  -1  61    5.98    8.50   0
   0   1  35   -1.88    6.67   0
  -4  -1  48  149.27   11.16   0
  -3  -1  55    9.05    8.67   0
  -3   1  20 1412.92   19.04   0
  -1   1  40  724.91   14.37   0
  -5  -2  36  173.39   11.41   0
  -5  -1  23    1.34    7.83   0
  -5  -1  29    0.14    8.44   0
  -4   0  41   -6.36    7.83   0
  -3   1  35   -0.15    7.04   0
   0   0  54   34.90    9.05   0
  -5  -1  32  404.70   13.26   0
  -3   1  17    9.78    6.89   0
   0   1  38  256.57   10.93   0
  -5  -2  39    0.48    9.34   0
  -5  -1  20  481.29   13.55   0
  -5  -1  35    1.78    9.33   0
  -4   0  11    2.89    6.18   0
  -4   0  44  442.95   13.96   0
  -3   0  51    2.81    8.30   0
  -3   1  38  331.35   11.32   0
  -1  -1  63    7.04    9.45   0
  -1   0  56  206.02   11.48   0
  -1   1  43   -8.47    6.66   0
  -5  -2  42   88.21    9.97   0
  -5  -1  17    6.40    7.45   0
  -5  -1  38  141.65    9.78   0
  -3   1  41   -3.58    7.68   0
   0  -1  64   69.97   10.71   0
   0   1  41    0.07    6.99   0
  -4   0  47    6.68    9.55   0
  -3   1  14 1527.13   20.39   0
  -1   1  46  122.09    9.88   0
  -5  -1  41    3.47    8.83   0
  -4  -1  54   52.51   10.27   0
  -4   1  25   -2.42    7.51   0
  -4   1  28  714.24   14.14   0
  -4   1  31    3.75    8.31   0
  -3   0  54  101.12   10.27   0
  -3   1  44  340.14   12.12   0
   0   0  57    1.24    8.20   0
  -5  -2  45    0.56    9.25   0
  -5   0  25    3.93    7.91   0
  -5   0  28  677.64   15.12   0
  -5   0  31    4.90    8.55   0
  -4   1  34  513.55   12.80   0
  -1   0  59   -1.35    9.30   0
  -5  -1  44  169.44   10.98   0
  -5   0  22  258.67   11.01   0
  -5   0  34  296.71   10.96   0
  -4   0   8 1505.41   21.96   0
  -4   0  50  173.98   11.44   0
  -4   1  37    4.63    8.18   0
  -3  -1  61   -0.64    9.10   0
   0   1  44  456.65   13.18   0
  -5   0  37   -9.96    9.59   0
  -3   1  47    0.48    8.84   0
  -1   1  49    2.21    8.36   0
   1   1  30  584.69   15.18   0
  -4  -1  57    3.22    9.92   0
  -4   1  40  498.81   12.87   0
  -3   0  57   -6.45    9.69   0
   1   1  33    3.59    6.60   0
  -5  -1  47    8.13    8.73   0
  -5   0  19    0.90    6.39   0
  -3   1  11   15.37    5.58   0
   0   1  47    0.81    7.60   0
  -4   0  53   -0.00    9.00   0
  -4   1  43   -6.19    7.89   0
  -3   1  50  184.42   11.40   0
  -2   0  61  -10.48    9.06   0
   0   0  60  175.64   10.85   0
   1   1  36  889.07   17.47   0
  -4   1  16 1988.16   22.82   0
  -1   0  62   51.64    9.48   0
  -1   1  52  308.52   11.96   0
  -5  -1  50   71.45    9.59   0
  -5   0  16  709.85   15.14   0
  -4   1  46   77.67   10.12   0
  -3   0  60  113.97   10.63   0
   1   1  39   -0.43    6.96   0
  -4   0  56   82.10   10.71   0
  -2   1  54  118.45   10.87   0
   0   1  50  299.49   12.32   0
  -3   1  53    3.35    9.81   0
  -5   0  49   -7.81    9.67   0
  -5   1  27    4.27    8.03   0
  -5   1  36  505.40   13.83   0
  -4   1  49   -4.44    9.96   0
  -2   0  64  111.10   10.14   0
  -2   2  29    1.68    6.69   0
  -2   2  32  657.57   14.16   0
  -1   1  55   -7.28    8.90   0
  -5   0  13   -1.16    7.28   0
  -4   0   5   -3.40    5.81   0
  -4   1  13    7.98    5.64   0
  -3   2  28 1382.72   18.85   0
  -3   2  31   -5.40    6.60   0
  -3   2  34  619.18   13.27   0
  -6  -1  31    0.15    9.28   0
  -5   1  24  680.98   13.98   0
  -5   1  39   11.17    7.92   0
  -3   0  63   -7.25    8.93   0
  -3   2  25    2.24    7.08   0
  -3   2  37   10.00    6.98   0
  -2   1  57   10.76    8.86   0
  -1   0  65   -4.49    9.22   0
  -6  -1  34  175.90   10.99   0
  -6  -1  37    3.52    8.87   0
  -5   0  52  169.13   11.19   0
  -4   1  52  229.36   12.20   0
  -3   1  56  198.28   11.02   0
  -3   2  40  495.88   12.60   0
  -2   2  23    5.79    6.28   0
   0   1  53    3.81    7.46   0
  -6  -1  40  209.14   12.09   0
  -5   1  21    6.15    6.39   0
  -3   2  22  466.77   12.33   0
  -5   1  45   -8.29    9.69   0
  -4   2  30  202.31   10.09   0
  -4   2  33   -9.63    7.26   0
  -4   2  36  362.93   12.28   0
  -3   2  43    5.17    7.43   0
  -2   2  44  720.98   15.08   0
  -1   1  58  169.57   10.61   0
  -1   2  30  557.10   12.76   0
  -1   2  33    2.53    5.77   0
  -1   2  36  929.58   16.49   0
  -6  -1  43   -6.21    8.25   0
  -6   0  30  156.37   10.58   0
  -6   0  33   -2.30    8.38   0
  -6   0  36  153.52   10.95   0
  -4   1  55   -8.29    9.34   0
  -4   2  27   -1.32    6.69   0
  -4   2  39   -0.98    8.33   0
  -2   1  60  153.42   11.57   0
  -1   2  27   -2.10    6.28   0
  -1   2  39   -3.56    7.39   0
  -6   0  27    2.39    7.70   0
  -6   0  39    8.33    8.58   0
  -5   0  55    8.54    9.71   0
  -5   1  18  731.04   15.16   0
  -5   1  48  131.87   10.92   0
  -4   1  10 1099.10   18.18   0
  -2   2  20 3384.11   28.94   0
  -6   0  42  142.20   11.24   0
  -4   2  24 1827.77   20.69   0
  -4   2  42  407.81   12.22   0
  -3   2  19    1.79    5.94   0
  -2   2  47   -3.21    7.03   0
  -1   2  42  327.04   11.63   0
  -6   0  24  618.57   14.77   0
  -4   2  45    5.04    8.86   0
  -6   0  45    4.81    8.71   0
  -5   1  51    4.49    8.97   0
  -4   1  58  104.61   10.26   0
  -4   2  21    2.43    7.16   0
  -2   2  50  212.30   11.23   0
  -1   1  61   -4.23    8.40   0
  -1   2  45    6.97    7.88   0
  -6   0  21    1.38    7.33   0
  -5   1  15   -2.76    6.75   0
  -3   1  62   43.43    9.46   0
  -2   1  63    9.21    9.56   0
  -2   2  17   -4.81    6.48   0
  -6   0  48  168.13   11.21   0
  -5   2  32  715.15   14.98   0
  -5   2  35    0.26    8.36   0
  -3   2  16 2061.61   22.96   0
  -6   1  29    6.47    8.26   0
  -6   1  32  402.01   12.90   0
  -6   1  35    0.22    7.94   0
  -6   1  38  142.42   10.55   0
  -5   1  54   59.70    9.38   0
  -6   1  41   -1.03    8.95   0
  -5   2  41    5.10    7.88   0
  -4   1  61    1.96    8.96   0
  -4   2  18 1058.82   16.43   0
  -4   2  51   -8.55    9.78   0
  -2   2  53   -2.69    8.72   0
  -6   1  26  218.94   10.92   0
  -6   1  44  165.76   10.99   0
  -5   2  44  250.67   12.31   0
  -3   2  55    4.11    9.49   0
  -1   1  64   68.98   10.38   0
  -5   1  57    9.92    8.99   0
  -4   1   7   15.86    6.35   0
  -1   2  51   -1.08    7.84   0
   0   2  34  271.32   10.65   0
   0   2  37   -3.63    6.48   0
  -6   1  23   -0.03    7.69   0
  -5   1  12 1148.98   18.39   0
  -5   2  47    4.77    8.17   0
  -2   2  56  106.35   10.51   0
   0   2  31   -1.81    6.29   0
   0   2  40  821.25   16.27   0
  -4   2  15    5.14    6.86   0
  -3   2  13   33.24    7.00   0
  -2   2  14  333.81   10.78   0
  -5   2  50  190.17   11.00   0
  -3   2  58  101.94   10.36   0
   0   2  28 1095.92   18.66   0
   0   2  43    1.07    6.78   0
  -6   1  20  518.70   13.60   0
  -4   2  57   -1.78    8.88   0
  -1   2  54  119.68    9.89   0
  -5   2  53    2.67    9.34   0
  -2   2  59   -2.45    9.02   0
  -6   2  31    4.81    8.49   0
  -4   3  35    7.30    8.60   0
  -3   3  33   10.71    7.41   0
  -3   3  36  823.63   14.99   0
  -3   3  39    0.05    7.86   0
   0   2  25    1.27    5.66   0
  -6   2  43   -3.73    9.11   0
  -5   2  17   12.96    7.12   0
  -4   3  38  169.41    9.58   0
  -4   3  41   18.69    8.43   0
  -3   2  61   12.29    8.76   0
  -3   3  30  317.28   11.25   0
  -6   1  17   -2.05    7.08   0
  -6   2  28  451.12   12.25   0
  -6   2  46  113.59   10.84   0
  -5   1   9   19.28    6.63   0
  -5   2  56  118.44   10.63   0
  -4   3  29   -1.44    8.02   0
  -4   3  44  287.69   11.90   0
  -1   2  57   -3.63    8.21   0
  -3   3  27    4.07    6.44   0
  -6   2  25   -0.46    6.91   0
  -6   2  49   -5.00    8.88   0
  -5   3  37   -1.24    8.49   0
  -4   3  26  665.43   13.55   0
  -4   3  47    5.58    7.73   0
  -3   3  48  214.20   11.37   0
  -2   2  62   76.81   10.21   0
  -2   3  34  579.75   13.03   0
  -2   3  37   -4.04    6.46   0
  -2   3  40  470.09   12.99   0
  -5   3  31    1.72    8.16   0
  -5   3  34  448.62   12.25   0
  -5   3  40  477.62   12.78   0
  -5   3  43   -7.17    9.38   0
  -3   2  10 1929.71   22.68   0
  -3   2  64   81.91    9.26   0
  -2   2  11    1.51    5.40   0
  -2   3  43    2.94    8.04   0
  -7   1  34  166.73   10.58   0
  -7   1  37   11.48    8.93   0
  -7   1  40  223.16   11.09   0
  -6   2  22  379.61   12.19   0
  -6   2  52  115.99   10.59   0
  -4   1   4 1223.93   20.18   0
  -4   3  50  179.95   10.15   0
  -3   3  24 1075.53   16.38   0
  -3   3  51   -6.34    9.16   0
  -2   3  46  135.76    9.96   0
  -7   1  31   -4.57    8.73   0
  -7   1  43    3.25    9.03   0
  -5   2  14  376.81   10.87   0
  -5   3  28  426.21   11.79   0
  -5   3  46   45.97    8.90   0
  -4   3  23   14.47    6.78   0
  -6   1  14  399.54   12.36   0
  -5   3  49   -6.37    9.29   0
  -2   2  65    6.68    9.50   0
  -2   3  49   -1.98    8.31   0
  -5   3  25    0.94    6.78   0
  -3   3  21   -1.26    6.22   0
  -3   3  54   93.75    9.97   0
  -6   2  19   -3.29    7.69   0
  -5   3  52  141.32   10.70   0
  -4   3  20  901.90   15.76   0
  -6   3  36  320.07   12.35   0
  -6   3  39   -1.60    9.23   0
  -6   3  42  150.79   11.42   0
  -7   2  33   -2.42    9.14   0
  -7   2  36  170.20   10.69   0
  -7   2  39   -0.86    9.08   0
  -7   2  42   94.50    9.78   0
  -6   3  33    3.46    7.57   0
  -6   3  45    4.08    9.19   0
  -5   3  22  309.14   10.45   0
  -3   3  57   -0.40    8.44   0
  -7   2  45   -2.35    8.72   0
  -5   2  11    1.40    6.61   0
  -5   3  55   -4.56    8.56   0
  -2   3  22  461.33   12.33   0
  -1   3  35   -1.87    6.89   0
  -1   3  38  341.98   11.46   0
  -1   3  41    3.89    7.16   0
  -7   2  30  182.34   11.19   0
  -6   3  48  138.78   10.52   0
  -4   3  59   -3.90    8.98   0
  -3   3  18 1320.15   18.02   0
  -2   3  55    0.20    8.46   0
  -1   3  32 1222.99   18.64   0
  -1   3  44  333.22   11.93   0
  -6   2  16  735.95   15.10   0
  -6   3  51    2.48    9.43   0
  -5   3  19    5.43    7.59   0
  -4   3  17    2.47    6.04   0
  -3   2   7   -1.04    5.26   0
  -7   2  27   -1.40    8.66   0
  -5   3  58   98.78    9.35   0
  -3   3  60  171.37   11.07   0
  -1   3  47   -0.49    7.58   0
  -2   3  58  120.84   10.33   0
  -1   3  29   10.07    5.60   0
  -7   2  24  467.73   13.44   0
  -2   3  19   -2.69    6.52   0
  -1   3  50  174.48   10.50   0
  -4   4  37    7.82    8.62   0
  -4   4  40  473.99   13.50   0
  -4   4  43    4.07    8.92   0
  -7   3  38  127.12   10.66   0
  -6   3  21    9.43    7.54   0
  -5   4  36  337.88   12.14   0
  -5   4  39   -5.05    7.83   0
  -4   4  34  256.62   10.39   0
  -3   3  15   -0.99    5.84   0
  -1   3  26  532.67   13.03   0
  -6   2  13    0.07    7.22   0
  -5   4  33    1.05    8.94   0
  -5   4  45   -1.67    8.67   0
  -4   2   6  785.23   15.11   0
  -4   3  14  682.39   13.59   0
  -4   4  31    8.25    8.18   0
  -2   3  61    3.48    8.56   0
  -7   2  21    0.62    7.79   0
  -7   3  32  292.04   11.51   0
  -5   2   8 2185.85   23.98   0
  -5   4  30  299.85   11.44   0
  -5   4  48  226.65   11.70   0
  -3   4  38  155.77    9.10   0
  -3   4  41   11.81    6.98   0
  -3   4  44  281.79   11.96   0
  -7   3  29   -1.71    8.72   0
  -4   4  28  635.95   13.46   0
  -3   4  47    1.25    8.72   0
  -6   3  18  421.49   12.39   0
  -6   4  35   -6.79    9.10   0
  -6   4  38  105.66   10.96   0
  -6   4  41    2.52    9.88   0
  -6   4  44  239.94   11.99   0
  -5   4  27    2.52    8.37   0
  -5   4  51    2.95    8.88   0
  -4   4  52  169.60   10.44   0
  -1   3  23    7.91    6.18   0
  -7   3  26  179.34   10.70   0
  -6   4  47   -5.31    9.40   0
  -3   4  29    5.29    7.76   0
  -3   4  50  182.05   10.76   0
  -2   3  16 1992.85   22.45   0
  -5   4  54   53.97    9.18   0
  -3  -2  23   10.60    6.55   0
   0  -4  46  132.54    9.05   0
  -3  -1  13    8.49    6.57   0
  -2  -4  38  118.30   10.49   0
   0  -6  48  109.33   10.48   0
   1  -2  39    8.37    6.48   0
  -3  -6  24  227.82   10.72   0
  -2  -3  37   -0.41    8.15   0
  -2  -2  33    1.97    7.57   0
   0  -1  31   -3.51    5.07   0
  -4  -4   9    1.06    7.91   0
  -4  -3   2  237.12   10.74   0
  -4  -3   5    3.85    6.86   0
  -4  -3   8  563.47   13.65   0
  -3  -4  31   -1.52    8.94   0
  -3  -3  30  197.46   10.68   0
  -2  -6  37  -12.88    9.48   0
  -2  -5  39   -7.38    9.45   0
  -2  -1  26  566.87   12.75   0
  -1  -6  44  121.22    9.64   0
   1  -5  51    6.06    8.33   0
  -4  -4  12  285.60   11.24   0
  -4  -3  11   -1.96    6.63   0
  -3  -2  26  652.85   13.30   0
  -3  -1  16 2090.67   21.75   0
   0  -3  45   -5.10    7.97   0
  -4  -4  15   -2.94    8.33   0
  -4  -3  14  382.97   12.06   0
  -3  -6  27    5.74    8.14   0
   1  -3  46  133.76    9.12   0
  -3  -5  32  216.84   10.96   0
  -3  -1  19    9.33    6.71   0
  -2  -4  41   -1.68    8.88   0
   0  -5  50   93.87    9.41   0
  -4  -4  18  224.98   10.76   0
  -4  -3  17    2.87    7.03   0
  -3  -4  34  175.70   11.20   0
  -3  -2  29    3.47    8.02   0
   0  -4  49   -4.24    8.61   0
   0  -2  41   -6.07    6.00   0
  -4  -5  13    5.18    8.82   0
  -4  -2   4  898.34   16.07   0
  -4  -2   7    4.39    6.57   0
  -3  -3  33    6.22    7.42   0
  -2  -5  42  140.17   10.31   0
  -2  -3  40  455.34   12.27   0
  -2  -2  36  372.88   11.09   0
  -2  -1  29    2.68    6.25   0
  -4  -4  21   -2.75    8.71   0
  -4  -3  20  450.35   11.90   0
  -4  -2  13   -0.98    5.90   0
  -3  -1  22  363.65   10.95   0
   0  -1  34  957.42   16.28   0
  -4  -5  16  328.56   12.06   0
  -4  -2   1    2.29    6.48   0
  -4  -2  16  764.20   14.73   0
  -3  -5  35   -5.29    8.38   0
   1  -2  42  306.49   10.85   0
  -4  -5  19    2.79    8.50   0
  -4  -3  23    5.29    8.31   0
  -2   0  13    1.56    6.12   0
   1  -5  54   50.14    9.57   0
  -4  -4  24  333.41   12.29   0
  -4  -2  19    1.96    7.55   0
  -3  -4  37    4.15    8.13   0
  -3  -2  32  733.99   13.85   0
  -3  -1  25    7.95    7.19   0
  -2  -4  44  241.56   11.04   0
  -1   0  20 1462.94   20.14   0
   0  -3  48  189.97   10.28   0
  -4  -5  22   70.69    9.56   0
  -2  -5  45    6.67    9.07   0
  -2  -3  43    2.09    8.19   0
  -2  -2  39    0.73    6.89   0
  -2  -1  32 1216.11   16.71   0
  -2   0  16 3032.64   27.32   0
  -1  -3  47   15.27    8.66   0
  -1  -2  43    3.60    7.48   0
   0  -4  52  147.60   10.28   0
   0  -2  44  695.09   14.39   0
   1  -3  49   -0.84    7.17   0
  -4  -4  27   -0.33    8.18   0
  -3  -5  38   49.80    8.56   0
  -1  -1  36  882.05   14.86   0
   1  -4  53    1.06    8.07   0
  -4  -5  25   -1.00    7.87   0
  -3  -4  40  157.36   10.46   0
  -3  -2  35    0.52    7.13   0
  -3  -1  28  731.59   13.50   0
  -2   0  19    0.98    5.24   0
   0  -1  37   -0.17    6.18   0
  -4  -2  25    6.78    6.75   0
  -3  -3  39   -5.43    8.02   0
  -2  -4  47   -2.32    8.46   0
  -1  -4  51   10.00    8.77   0
  -1   0  23   -0.42    4.83   0
   1  -1  35   -0.10    5.53   0
  -4  -1   9   21.38    6.73   0
  -4  -1  12 1156.88   17.08   0
  -2  -1  35    1.36    6.31   0
  -4  -5  28   92.86    9.58   0
  -4  -1   6  382.20   11.37   0
  -4  -1  15    9.54    5.87   0
  -2  -3  46   47.74    9.57   0
  -2   0  22 1943.16   21.00   0
   0  -3  51   -1.24    8.04   0
   1  -2  45    0.08    6.54   0
  -4  -3  32  290.44   11.38   0
  -4  -2  28  432.99   11.65   0
  -3  -2  38  113.16    9.13   0
  -3  -1  31   14.96    6.58   0
  -4  -1   3    2.50    5.94   0
  -3  -4  43   -3.51    8.45   0
  -1  -2  46  141.41    9.66   0
  -1  -1  39   -1.91    5.97   0
  -4  -1  21    9.64    6.28   0
  -3   0  12 1951.49   21.45   0
  -3   0  15   -3.40    6.11   0
  -2   0  25   -1.41    5.41   0
   0  -4  55   10.40    7.73   0
   0  -2  47    6.45    7.19   0
  -4  -2  31   10.62    7.16   0
  -3   0  18  534.28   12.08   0
  -2  -4  50  105.18    9.86   0
  -2  -1  38  329.54   10.29   0
   0  -1  40  757.71   14.75   0
  -4  -3  35    0.68    7.81   0
  -4  -1  24  686.52   13.25   0
  -3  -1  34  538.50   12.13   0
  -1  -4  54   66.51    8.66   0
  -4  -4  36  115.88    9.24   0
  -3  -2  41    5.01    7.23   0
  -3   0  21   -2.12    6.46   0
   1  -1  38  242.29   10.28   0
  -5  -3  13   -0.84    7.61   0
  -5  -3  16  414.89   12.22   0
  -4  -1  27    1.17    7.32   0
  -3  -4  46   58.88    9.14   0
  -3  -3  45   -1.48    8.61   0
  -2   0  28 1092.17   15.90   0
  -5  -3  19   -2.48    7.95   0
  -4  -3  38  133.45   10.43   0
  -3   0  24 1651.68   19.22   0
  -1  -3  53    1.54    8.38   0
  -1  -1  42  330.72   11.14   0
   0  -3  54   77.64    8.89   0
   0   0  27    0.85    5.27   0
  -5  -3  22  117.86    9.32   0
  -5  -2  12  396.89   12.01   0
  -5  -2  15   10.79    7.27   0
  -4  -4  39    3.92    8.62   0
  -3  -1  37   -2.54    6.82   0
  -1  -2  49    7.04    6.68   0
  -5  -4  20  139.91    9.63   0
  -5  -2   9    1.73    6.77   0
  -5  -2  18  176.09    9.97   0
  -4  -1  30  197.84    9.85   0
  -2   0  31   -2.36    6.58   0
   0  -2  50  189.72    9.81   0
  -5  -4  23   -4.36    7.50   0
  -5  -3  25   -2.23    8.04   0
  -5  -2  21    0.97    7.82   0
  -4  -2  37    6.44    7.24   0
  -4  -1  -3   21.65    6.43   0
  -3  -2  44  262.23   10.28   0
  -3   0  27    8.07    5.70   0
  -1   0  32 1699.34   20.20   0
   0  -4  58   64.85    8.16   0
  -5  -2  24  466.53   12.68   0
  -4  -3  41   -1.41    8.78   0
  -3  -3  48  165.10   10.19   0
  -2  -3  52  129.77   10.28   0
  -1  -4  57   -1.10    8.34   0
   0  -1  43   -0.67    6.47   0
  -5  -4  26  135.99    9.32   0
  -5  -3  28  184.52   10.08   0
  -4  -1  33   -6.41    8.10   0
  -3  -1  40  486.13   12.36   0
  -5  -2  27   12.00    8.62   0
  -3   0  30  586.01   12.11   0
  -1  -1  45    0.26    6.87   0
  -5  -4  29    1.93    7.62   0
  -5  -3  31    1.06    8.81   0
  -4  -2  40  244.14   10.42   0
  -4   0  11    2.67    5.93   0
  -4   0  17   -1.88    5.52   0
  -4   0  20 1262.61   17.16   0
  -2   0  34  253.13    9.11   0
  -1  -3  56  126.29   10.05   0
  -1  -2  52  274.85   11.24   0
  -5  -1  14  414.59   11.77   0
  -5  -1  17   10.03    6.91   0
  -4  -1  36  495.57   12.79   0
  -3  -2  47    2.67    7.19   0
  -1   0  35    6.03    6.00   0
   0  -3  57    4.21    8.54   0
  -5  -1  11    0.86    6.70   0
  -5  -1  20  506.80   11.92   0
  -4  -3  44  133.28    9.51   0
  -4   0   8 1542.25   19.35   0
  -4   0  23   -1.75    5.97   0
  -3   0  33   -4.23    6.90   0
  -2  -2  51    2.95    6.68   0
  -5  -3  34  130.90    9.48   0
  -5  -1   8  818.19   15.07   0
  -5  -1  23   -0.88    7.53   0
  -4   0  26  731.84   13.83   0
  -3  -3  51   -4.25    7.58   0
  -3  -1  43    1.80    7.08   0
  -2  -3  55    7.69    8.04   0
   0  -2  53   -1.17    7.42   0
  -4  -2  43   -4.59    7.71   0
   0  -1  46  114.40    8.41   0
   0   0  33    2.02    5.37   0
  -4   0   5    3.64    5.38   0
  -2  -1  47    4.14    6.63   0
  -5  -1   5   -2.86    6.08   0
  -5  -1  29    8.72    7.92   0
  -4  -3  47   -6.65    8.35   0
  -4   0  29   -2.66    6.33   0
  -3  -2  50  171.32   10.39   0
  -3   0  36  538.99   11.95   0
  -1  -1  48  328.92   10.43   0
  -1   0  38  263.53    9.81   0
  -5  -2  36  164.36   10.13   0
  -3  -1  46   96.17    9.36   0
  -1  -2  55   -0.65    8.00   0
  -4  -2  46  108.06    9.54   0
  -2  -2  54   32.04    8.68   0
  -2   0  40  845.76   14.79   0
  -1  -3  59    9.54    7.37   0
  -5  -1  32  376.13   11.21   0
  -5  -2  39  -12.65    8.24   0
  -4   0   2 1351.55   19.25   0
  -3   0  39   -1.58    6.38   0
  -2  -3  58   89.44    9.27   0
  -2  -1  50  172.72   10.16   0
   0   0  36  583.20   13.25   0
  -5  -1  35    7.89    7.70   0
  -4   0  35   -3.47    7.79   0
   0  -1  49    1.91    7.15   0
  -5   0  16  719.83   13.73   0
  -5   0  19    4.44    6.96   0
  -1  -1  51    4.15    6.99   0
  -1   0  41   -4.98    6.47   0
  -5   0  13    4.53    6.24   0
  -5   0  25   -6.45    7.36   0
  -4  -2  49   -1.27    7.85   0
  -4  -1  45   -9.17    8.76   0
  -2   0  43   -3.15    7.07   0
  -6  -3  24  164.89   10.24   0
  -6  -2  17   -4.03    6.99   0
  -6  -2  20  190.34    9.83   0
  -6  -2  23    3.23    8.07   0
  -5  -2  42  103.90    9.83   0
  -5  -1  38  130.04    9.92   0
  -4   0  38  134.99    9.12   0
  -3   0  42  256.72    9.48   0
  -3   1  17   10.82    6.17   0
  -3   1  20 1462.12   18.17   0
  -2  -2  57    5.11    7.72   0
  -2   1  18 1172.49   17.18   0
  -2   1  21   23.10    6.21   0
  -6  -2  26  219.68   10.41   0
  -5   0  10  696.27   13.69   0
  -5   0  28  672.03   13.19   0
  -3   1  23    3.09    5.47   0
  -2   1  15    2.70    5.66   0
  -2   1  24 1807.01   20.30   0
  -1  -2  58  105.72    9.32   0
  -6  -3  27   -0.45    7.79   0
  -3   1  14 1536.33   18.71   0
  -3   1  26  544.08   12.10   0
  -2  -1  53    5.26    8.03   0
   0   0  39   -0.86    5.55   0
  -5  -2  45   -1.21    8.66   0
  -5  -1  41   -4.20    8.38   0
  -5   0  31   -8.38    6.69   0
  -4  -2  52  122.61    9.86   0
  -4  -1  48  145.41    9.87   0
  -4   0  -1   -0.54    5.13   0
  -3  -2  56  111.89    9.21   0
  -2   1  27   -2.00    5.14   0
  -1   0  44  446.73   11.78   0
  -6  -1  16  651.21   14.00   0
  -6  -1  19    5.84    7.78   0
  -6  -1  22  148.55    9.71   0
  -5   0   7   -0.32    5.97   0
  -4   0  41    2.16    6.94   0
  -3  -1  52  190.28   10.02   0
  -3   1  11   17.58    5.14   0
  -3   1  29    9.37    5.73   0
  -2   0  46  290.68   10.71   0
  -6  -2  32  188.32    9.70   0
  -6  -1  13   -7.61    7.69   0
  -6  -1  25   -3.39    6.97   0
  -5   0  34  283.98   10.06   0
  -4   1  19   22.97    5.80   0
  -4   1  22  341.83    9.69   0
  -1  -1  54  110.27    8.92   0
  -6  -1  28  155.91    8.87   0
  -4   1  16 2006.58   20.46   0
  -4   1  25   -3.23    5.82   0
  -3   1  32 1195.45   16.55   0
  -6  -2  35    3.76    8.13   0
  -6  -1  10  230.41   10.23   0
  -6  -1  31   -2.41    8.22   0
  -5  -1  44  168.47   10.58   0
  -5   0  37    4.93    8.23   0
  -4   0  44  435.89   12.34   0
  -4   1  13    7.78    6.00   0
  -4   1  28  724.39   12.96   0
  -2  -2  60  110.81    8.74   0
  -5   0   4 1143.70   17.46   0
  -4  -1  51   -0.69    7.94   0
  -4   1  31    5.25    6.34   0
  -3  -1  55    1.38    7.83   0
  -3   0  48  322.12   10.42   0
  -3   1  35    2.42    5.91   0
  -2  -1  56  194.45   10.29   0
  -1   0  47    6.76    6.48   0
  -1   1  25    1.00    5.21   0
  -5   0  40  234.87   10.71   0
  -2   0  49    0.32    6.36   0
  -6   0  21   -4.55    7.52   0
  -6   0  24  599.73   13.47   0
  -5  -1  47   -4.06    7.75   0
  -4   0  47   -2.51    8.60   0
  -4   1  34  525.43   11.67   0
  -2   1  36  912.94   14.95   0
  -1   1  28 1268.05   17.53   0
  -6   0  18  261.16   10.41   0
  -6   0  27   10.56    7.82   0
  -5   1  21    7.00    6.98   0
  -5   1  24  682.40   13.42   0
  -3   1  38  325.32    9.93   0
  -1  -1  57    1.91    6.87   0
  -6   0  15   -0.70    6.97   0
  -5   0  43   -0.86    8.28   0
  -5   1  27    5.42    7.45   0
  -4   1  37   -6.65    7.23   0
  -1   1  31    0.38    5.62   0
  -6  -1  40  224.02   10.45   0
  -5   0   1   -2.59    5.71   0
  -5   1  30  179.22    9.28   0
  -4   1   7   12.79    5.69   0
  -3   0  51    2.11    6.62   0
   0   0  45    0.06    5.71   0
  -6   0  12  361.89   10.94   0
  -6   0  33   -9.49    6.94   0
  -5  -1  50   91.84    8.55   0
  -3  -1  58  111.02    8.98   0
  -2  -1  59    9.99    7.36   0
  -2   0  52  200.11    9.74   0
  -2   1  39    0.77    5.56   0
  -1   0  50  293.29   10.22   0
  -5   1  12 1160.05   16.46   0
  -5   1  33   -0.64    6.72   0
  -4   0  50  169.49    9.65   0
  -4   1  40  480.82   12.06   0
  -1   1  34  941.98   15.50   0
  -6  -1  43   -4.03    8.02   0
  -5   0  46   88.11    8.61   0
  -6   0   9    5.24    6.44   0
  -5   1  36  500.04   11.85   0
  -6   0  39   -6.63    8.01   0
  -4   1  43    7.66    7.82   0
  -3   0  54   88.82    9.12   0
  -3   1  44  333.74   10.87   0
  -1   1  37   -2.22    5.86   0
  -5   0  49    4.12    8.44   0
  -5   1   9   16.52    5.39   0
  -5   1  39    4.62    7.65   0
  -4   1   4 1223.25   17.41   0
  -7  -1  21   -3.77    8.23   0
  -7  -1  24  207.62   10.09   0
  -7  -1  27   -1.22    8.50   0
  -3  -1  61    4.23    7.20   0
  -2   0  55   -3.49    7.09   0
  -1   0  53    0.34    7.45   0
  -7  -1  30   55.55    8.56   0
  -6   0  42  145.82    9.33   0
  -6   1  20  523.22   12.41   0
  -2  -1  62   41.64    7.47   0
  -7  -1  33   -1.69    8.49   0
  -6   1  29    2.49    6.69   0
  -5   1  42  240.62    9.87   0
  -4   1  46   90.51    7.90   0
  -3   1  47   -2.98    7.61   0
  -2   1  45    0.09    5.77   0
  -1   1  40  732.06   14.09   0
  -6   1  17    3.41    5.94   0
  -6   1  32  410.23   11.15   0
  -5   1   6  374.51   10.88   0
  -3   0  57    7.41    7.74   0
  -6   0  45    3.79    7.58   0
  -6   1  14  439.13   11.51   0
  -6   1  35   -4.10    7.94   0
  -5   0  52  179.73    9.44   0
  -4   0  56   77.88    8.72   0
  -7   0  20  163.60   10.43   0
  -7   0  23   -3.79    7.65   0
  -7   0  26  222.53   10.35   0
  -7   0  29    6.53    7.53   0
  -5   1  45    8.11    8.59   0
  -4   2  24 1922.03   20.04   0
  -4   2  27  -10.30    6.73   0
  -7   0  32  260.95   10.74   0
  -6   1  38  148.75    9.94   0
  -4   2  21   -1.60    5.61   0
  -4   2  30  198.85    9.25   0
  -3   1  50  186.94    9.94   0
  -2   0  58   91.93    8.84   0
  -2   1  48  322.43   10.85   0
  -7   0  17    0.06    7.49   0
  -7   0  35    1.91    8.42   0
  -6   0  48  163.10    9.67   0
  -6   1  11   11.94    6.48   0
  -4   1   1   24.87    5.43   0
  -4   2  18 1059.36   15.50   0
  -4   2  33   -4.47    6.62   0
  -3   2  22  465.69   10.82   0
  -3   2  25    5.85    5.54   0
  -3   2  28 1359.47   16.89   0
  -1   1  43   -1.26    6.07   0
  -6   1  41   -1.38    7.99   0
  -5   0  55   10.79    7.74   0
  -5   1  48  150.94    9.79   0
  -5   2  23   -5.89    6.97   0
  -5   2  26  667.73   13.25   0
  -5   2  29   -8.49    7.34   0
  -3   2  19   10.70    5.95   0
  -3   2  31    0.97    5.61   0
  -7   0  38   41.76    8.17   0
  -5   1   3    1.70    5.40   0
  -5   2  20  621.84   12.52   0
  -5   2  32  704.41   13.50   0
  -4   0  59    0.99    8.15   0
  -4   2  36  393.15   11.35   0
  -3   0  60  112.60    8.75   0
   0   1  29    2.11    4.91   0
  -4   1  52  218.89   10.47   0
  -4   2  15   -1.64    5.06   0
  -6   1   8  837.83   14.88   0
  -6   1  44  169.80    9.40   0
  -5   2  17   -1.36    5.73   0
  -5   2  35   -8.49    6.83   0
  -4   2  39   -3.64    7.53   0
  -3   1  53   -0.88    7.44   0
  -3   2  16 2047.39   20.91   0
  -2   1  51   -0.62    6.75   0
  -1   1  46  114.59    8.20   0
   0   1  32 1633.77   21.58   0
  -7   1  28  183.20    9.99   0
  -5   1  51  -12.31    7.96   0
  -5   2  38  117.03    8.92   0
  -7   1  22  174.40    9.74   0
  -7   1  31    0.35    8.30   0
  -4   2  12  788.62   13.78   0
   0   1  35   -2.27    5.61   0
  -7   1  19    6.85    7.30   0
  -6   1  47   -6.27    7.65   0
  -6   2  25   -0.99    7.50   0
  -6   2  28  477.53   12.19   0
  -6   2  31    4.77    7.82   0
  -4   1  55    5.15    8.05   0
  -4   2  42  400.00   10.88   0
  -3   2  40  434.31   10.96   0
  -2   2  23   -1.70    5.65   0
  -5   2  41   -0.69    6.75   0
  -3   2  13   26.31    5.39   0
  -2   2  32  606.58   12.10   0
  -7   1  16  645.52   13.76   0
  -3   1  56  178.15    9.57   0
  -3   2  43    1.93    6.83   0
  -2   1  54  103.09    9.44   0
  -2   2  20 3525.28   27.99   0
  -2   2  35   -1.64    6.05   0
  -1   1  49   -2.25    6.93   0
  -7   1  40  217.96   10.28   0
  -6   1   5    2.27    5.92   0
  -6   1  50   83.90    8.85   0
  -6   2  37   -5.91    7.09   0
  -5   1   0 1348.78   19.37   0
   0   1  38  254.37    9.85   0
  -6   2  16  757.46   13.95   0
  -6   2  40  275.14   11.30   0
  -4   2   9    1.31    4.74   0
  -2   2  38  260.15    9.71   0
  -7   1  13   -4.43    6.77   0
  -7   1  43    2.96    7.94   0
  -4   1  58  118.87    9.01   0
  -2   2  17    1.76    5.42   0
  -5   1  57    4.86    8.40   0
  -5   2  47    1.31    8.42   0
  -3   2  10 1998.10   21.27   0
  -3   2  46  148.60    8.99   0
  -6   2  13    5.64    6.51   0
  -6   2  43   -5.73    7.83   0
  -3   1  59   -3.92    8.49   0
  -2   2  41   -0.26    6.37   0
  -7   1  10  241.09   10.18   0
  -7   2  27   -6.38    7.76   0
  -5   2   8 2167.07   21.45   0
  -7   2  24  448.45   12.42   0
  -7   2  33    4.93    8.40   0
  -6   1   2  318.97   10.75   0
  -6   2  46  120.53    9.37   0
  -4   2  51    7.71    7.93   0
  -3   2  49   -4.96    7.25   0
  -7   2  21    3.17    7.54   0
  -7   2  36  176.66   10.15   0
  -2   2  14  326.67    9.76   0
  -2   2  44  746.10   14.29   0
  -7   2  39   -0.43    8.02   0
  -6   2  10  364.62   10.71   0
  -4   1  61   -0.63    7.85   0
  -8   1  24  217.13   10.74   0
  -8   1  27    1.98    7.30   0
  -8   1  30   56.76    8.40   0
  -8   1  33   -0.46    7.19   0
  -7   2  18  179.78    9.47   0
  -6   2  49    6.85    8.27   0
  -7   2  42   92.07    8.72   0
  -5   3  25   -2.85    6.72   0
  -5   3  28  418.60   10.66   0
  -5   3  31    7.56    6.32   0
  -5   3  34  427.07   11.53   0
  -3   1  62   52.88    8.88   0
  -3   2   7    1.45    4.68   0
  -8   1  21    3.85    7.62   0
  -7   2  15    0.54    7.12   0
  -5   2   5    6.65    4.94   0
  -5   3  22  310.54   10.18   0
  -5   3  37    2.18    7.80   0
  -4   2  54   32.44    7.97   0
  -4   3  26  661.41   12.87   0
  -4   3  29   -2.17    5.91   0
  -4   3  32  915.10   14.90   0
  -3   2  52  272.27   10.36   0
  -2   2  47    0.03    6.29   0
  -7   2  45    2.05    8.01   0
  -6   2  52  111.60    9.49   0
  -6   3  27    1.58    7.36   0
  -6   3  30  208.17    9.67   0
  -6   3  33   -3.10    8.05   0
  -5   1  -3   18.55    5.66   0
  -4   3  23   18.52    6.45   0
  -4   3  35   -2.48    6.17   0
  -1   2  30  607.70   12.92   0
  -6   2   7    0.30    6.03   0
  -6   3  36  333.68   11.08   0
  -5   3  19   11.18    6.47   0
  -5   3  40  483.00   12.41   0
  -2   2  11    0.54    4.76   0
  -1   2  27    1.22    5.07   0
  -1   2  33    3.87    5.48   0
  -6   3  21   13.94    7.35   0
  -6   3  39   -2.31    8.49   0
  -5   2  56   99.68    9.00   0
  -4   3  20  902.31   14.46   0
  -1   2  36  890.43   15.39   0
  -7   2  12  423.50   11.68   0
  -5   3  43    0.23    8.29   0
  -4   2   3   -3.55    5.45   0
  -4   2  57   -2.97    7.65   0
  -3   2  55   -0.18    7.50   0
  -2   2  50  201.91    9.53   0
  -8   2  26  209.19   10.53   0
  -8   2  29    0.50    7.75   0
  -8   2  32  206.81   10.02   0
  -5   3  16 1782.89   18.96   0
  -1   2  39    0.86    6.32   0
  -8   2  23   -1.80    7.96   0
  -8   2  35   -0.26    8.17   0
  -7   3  29   12.99    8.23   0
  -4   3  17    1.52    5.43   0
  -4   3  44  304.66   10.66   0
  -3   3  27    0.15    5.33   0
  -1   2  21   19.03    5.52   0
  -7   3  32  306.63   10.52   0
  -7   3  35   13.38    8.04   0
  -6   3  45   -5.24    8.12   0
  -3   3  24 1118.88   15.90   0
  -3   3  36  847.50   14.02   0
  -8   2  20  193.89    9.84   0
  -7   2   9    2.19    6.13   0
  -7   3  38  138.22    9.63   0
  -6   2   4  872.21   15.20   0
  -5   2   2  813.73   14.21   0
  -5   3  13    1.86    6.26   0
  -3   2   4 2867.13   26.51   0
  -3   3  39    0.64    6.31   0
  -1   2  42  328.95   10.60   0
  -7   3  41    3.60    8.06   0
  -4   2  60  107.48    8.54   0
  -4   3  14  677.98   12.87   0
  -4   3  47    3.21    7.65   0
  -3   2  58  112.12    8.92   0
  -3   3  21   -3.07    6.13   0
  -2   2  53    1.64    6.95   0
  -7   3  20  460.93   11.38   0
  -3   3  42  312.26   10.42   0
  -8   2  17    6.67    7.32   0
  -7   3  44  157.19    9.91   0
  -7   3  17   10.61    7.19   0
  -6   3  12  749.56   13.71   0
  -5   3  52  146.33    9.53   0
  -4   3  50  194.06   10.08   0
  -3   3  18 1338.71   17.24   0
  -7   3  47    6.92    8.08   0
  -6   3  51    2.80    7.40   0
  -3   3  45    0.87    6.31   0
  -8   2  14  118.54    8.75   0
  -8   3  31   -0.75    8.44   0
  -7   2   6  424.75   11.68   0
  -4   3  11   35.00    6.13   0
  -8   3  28  185.72   10.08   0
  -7   3  14  362.56   10.96   0
  -4   2   0 3970.19   31.05   0
  -4   3  53   -3.04    8.07   0
  -8   3  25    6.08    8.07   0
  -8   3  40  144.31    9.87   0
  -6   2   1   -3.36    5.58   0
  -5   3  55   -2.31    7.61   0
  -3   3  15    2.85    5.94   0
  -3   3  48  211.01    9.91   0
  -8   3  22  126.63    9.02   0
  -6   3   9   11.79    5.50   0
  -5   2  -1    4.80    5.22   0
  -6   4  29   -1.08    6.61   0
  -6   4  35   -7.32    6.91   0
  -5   4  33    4.14    7.27   0
  -2   3  31    2.61    5.16   0
  -2   3  34  591.55   12.17   0
  -2   3  37    4.71    6.28   0
  -8   3  19    5.30    7.60   0
  -7   3  11   -0.19    6.60   0
  -6   4  26  387.76   10.80   0
  -5   4  27   -2.85    6.38   0
  -5   4  36  327.72   10.33   0
  -3   3  51   -3.44    7.32   0
  -7   4  34  189.17   10.09   0
  -6   4  23  -10.22    7.58   0
  -6   4  41    6.40    7.39   0
  -5   3  58  104.46    8.54   0
  -5   4  24  947.44   14.86   0
  -5   4  39    2.63    6.66   0
  -4   3   8 2707.00   24.01   0
  -4   3  56  150.45    9.57   0
  -2   3  25    6.70    4.93   0
  -2   3  40  448.71   11.77   0
  -7   4  28  374.09   11.01   0
  -7   4  37    7.76    8.66   0
  -6   4  44  251.27   10.91   0
  -3   3  12 2562.22   23.58   0
  -8   3  16  415.03   11.74   0
  -7   4  25    2.82    6.89   0
  -6   3   6  468.87   11.62   0
  -6   4  20  687.37   12.86   0
  -5   4  21    2.86    7.23   0
  -2   3  43    7.23    6.31   0
  -7   4  43   -0.31    7.81   0
  -6   4  47   -2.96    8.55   0
  -4   4  28  657.16   13.01   0
  -4   4  31    6.59    5.95   0
  -3   3  54   78.70    8.71   0
  -7   3   8  561.33   12.65   0
  -4   3  59    1.30    7.72   0
  -4   4  25   -9.12    6.88   0
  -4   4  40  464.27   12.27   0
  -7   4  46   67.69    8.80   0
  -6   4  17   -3.93    6.17   0
  -5   4  48  228.51   10.40   0
  -2   3  46  126.93    8.47   0
  -9   3  27    0.24    7.65   0
  -8   3  13   -5.72    7.43   0
  -8   4  33   -1.04    8.24   0
  -5   3   4  731.55   13.18   0
  -4   4  22  739.99   13.57   0
  -4   4  43   -5.00    7.89   0
  -2   3  19    1.96    4.92   0
  -8   4  27   -1.48    8.33   0
  -8   4  39   -4.08    8.00   0
  -9   3  24  189.73    9.79   0
  -8   4  24  322.96   11.36   0
  -5   4  15   11.71    6.94   0
  -5   4  51    2.79    7.62   0
  -4   2  -3   -0.62    4.80   0
  -4   3   5    6.09    4.97   0
  -4   4  46  157.91    9.72   0
  -3   3   9    2.98    4.97   0
  -6   3   3    4.50    6.23   0
  -6   4  53   -8.22    7.63   0
  -4   4  19   -1.83    6.61   0
  -9   3  21   -5.68    7.74   0
  -8   3  10  211.99   10.00   0
  -8   4  21   -0.04    8.21   0
  -7   3   5    1.41    6.48   0
  -5   2  -4  683.37   14.38   0
  -5   4  54   57.71    8.22   0
  -4   4  49    0.41    7.24   0
  -2   3  16 1923.24   20.76   0
   0   2  31    1.87    5.07   0
  -8   4  18  224.66   10.48   0
  -7   4  13   12.42    7.49   0
  -5   4  12  890.01   14.41   0
  -3   4  32  896.77   14.48   0
  -3   4  35    0.63    6.84   0
  -3   4  38  172.52    9.18   0
  -4   4  16 1571.21   17.95   0
  -5   3   1    3.99    5.67   0
  -4   4  52  157.13    9.84   0
  -3   4  41    4.92    7.14   0
  -9   4  29    2.33    7.42   0
  -8   4  15    6.72    7.89   0
  -7   5  33    0.79    8.72   0
  -6   5  31   -5.59    8.06   0
  -5   4  57    0.93    7.21   0
  -3   4  44  293.70   10.77   0
  -9   4  26  162.39    9.23   0
  -7   5  30   88.41    8.07   0
  -7   5  39   -0.95    8.03   0
  -6   5  28  427.70   12.20   0
  -6   5  40  196.23   10.35   0
  -3   3   6  538.33   12.17   0
  -3   4  23   18.20    5.78   0
  -7   3   2  237.39   10.29   0
  -7   5  27   -0.38    6.83   0
  -7   5  42  145.30    9.98   0
  -6   4   8  862.80   14.63   0
  -6   5  25    0.36    7.63   0
  -6   5  43    6.83    8.39   0
  -5   4   9    1.74    6.55   0
  -4   4  13   -1.58    5.51   0
  -4   4  55    7.83    8.45   0
  -2   3  13   25.79    5.38   0
  -9   4  23    2.37    7.95   0
  -7   5  24  348.94   11.51   0
  -6   3   0 1072.54   16.67   0
  -5   5  32  508.46   12.50   0
  -5   5  35   12.76    7.45   0
  -3   4  47    3.88    7.18   0
  -1   3  32 1186.03   17.70   0
  -1   3  35    0.93    5.54   0
  -8   4  12  275.37   10.76   0
  -8   5  29   -3.24    8.09   0
  -8   5  32  240.47   10.93   0
  -8   5  35   -6.06    8.74   0
  -8   5  38   49.83    8.69   0
  -7   5  45   10.66    7.38   0
  -6   5  22  225.10   10.16   0
  -5   5  29    8.30    6.53   0
  -3   4  20  894.63   14.17   0
  -1   3  29    8.83    5.56   0
  -1   3  38  326.32   10.85   0
  -9   4  20  129.12    9.20   0
  -7   5  21    3.95    7.94   0
  -5   5  26  219.98   10.14   0
  -7   4   7   -1.11    7.02   0
  -6   5  19    6.76    7.64   0
  -6   5  49    0.68    7.87   0
  -5   5  44  194.01   10.22   0
  -3   4  50  178.72    9.33   0
  -1   3  26  520.82   12.32   0
  -5   5  23    2.29    6.38   0
  -4   4  10  407.41   10.68   0
  -9   4  17    4.81    7.74   0
  -6   4   5    8.92    6.47   0
  -5   5  47   -2.10    7.79   0
  -3   4  17   -0.22    5.35   0
  -8   4   9    0.39    6.90   0
  -8   5  20  244.66   10.60   0
  -5   3  -2  823.41   14.72   0
  -5   5  20  702.61   13.51   0
  -2   3  10 2025.64   21.67   0
  -5   5  50   78.34    9.33   0
  -4   5  36  334.14   11.25   0
  -1   3  23    6.14    5.27   0
  -3   3   3    0.84    4.81   0
   5   2   9    5.79    6.65   0
   5   4   7    8.57    8.25   0
   5   5   3   11.40    7.13   0
   7   1  -6  113.81    9.45   0
   5   0   5    0.50    5.67   0
   6  -1  -5    6.86    6.52   0
   6   2   4  243.73   10.89   0
   7   0  -8  642.22   13.86   0
   2   1  13   35.18    6.13   0
   3   6  12  185.25   10.11   0
   4   5  11   -3.52    7.87   0
   5  -1   0 1436.70   17.66   0
   6   3   3    4.78    7.73   0
   7  -1 -13   -3.53    6.85   0
   0   5  19   -0.58    5.82   0
   3   0   9   -1.26    5.65   0
   3   2  16 1803.29   19.51   0
   3   4  17    4.27    7.50   0
   4   1  12  934.98   14.18   0
   4   2  14  291.16    9.48   0
   2   4  19    1.08    5.81   0
   5   3  11    5.76    8.11   0
   6   1   5   17.56    7.99   0
   7   1  -3   -9.64    8.37   0
   3   1  14  706.78   12.94   0
   5   1  10  481.89   11.20   0
   6  -2 -13    3.02    5.85   0
   6   4   2   96.17    8.73   0
   7   0  -5    3.67    8.04   0
   2   6  17   -5.52    7.38   0
   4   3  16  440.97   11.89   0
   5  -2  -8 2183.88   23.92   0
   5   2  12  541.98   12.54   0
   5   4  10  124.63    8.89   0
   6  -1  -2  357.25   10.72   0
   7  -1 -10  241.53    9.91   0
   1   3  19   11.98    5.67   0
   6   2   7   -7.73    7.02   0
   6   3   6  179.26    9.64   0
   7   2  -1   -3.62    7.85   0
   4   0  10  398.20   10.15   0
   5   0   8  988.44   14.60   0
   3   6  15    1.86    7.44   0
   4   5  14   89.94    9.05   0
   6  -2 -10  358.02   11.31   0
   7   0  -2  250.37   10.30   0
   8   0 -16  171.19    9.70   0
   1   2  17    9.38    4.57   0
   1   4  21    6.08    6.30   0
   6   1   8  660.86   13.55   0
   7  -1  -7   -3.56    7.18   0
   3   4  20  419.31   11.79   0
   4  -1   5    2.41    5.68   0
   4   1  15    1.61    6.59   0
   4   2  17   -2.80    6.18   0
   8   0 -13   -6.31    7.49   0
   8   1 -11   -0.62    7.24   0
   2   5  21   -0.42    6.98   0
   3   5  19   -4.48    7.70   0
   5   1  13   11.43    7.42   0
   5   4  13   -6.31    8.20   0
   6  -1   1   12.18    6.72   0
   6   0   6  250.58    9.33   0
   6   2  10  198.05   10.51   0
   6   3   9  -12.34    8.12   0
   7   2   2   78.68    8.41   0
   3   2  19    6.63    5.82   0
   4   4  18  190.31   10.05   0
   5  -2  -5    9.54    5.42   0
   5   2  15    4.81    7.60   0
   2   4  22  359.09   10.81   0
   3   0  12 2626.22   23.76   0
   6  -2  -7   -5.22    5.80   0
   7  -1  -4  286.82   10.45   0
   7   0   1   -5.78    6.55   0
   8   0 -10  192.70    9.64   0
   8   1  -8  154.02    9.12   0
   2   1  16 2072.27   21.57   0
   3   3  21    7.51    5.91   0
   5   0  11    3.00    6.87   0
   3   1  17   -6.78    5.39   0
   4   5  17    3.80    7.95   0
   6   1  11   -2.95    7.66   0
   7   2   5    3.80    7.95   0
   3   6  18  189.57    9.81   0
   4   0  13    4.46    5.34   0
   5   3  17  -13.85    8.36   0
   8   0  -7    3.35    7.44   0
   8   1  -5   -0.10    7.44   0
   1   5  23   -1.27    6.29   0
   2   0  11   -4.00    4.72   0
   6  -1   4  745.26   13.27   0
   6   2  13   -2.86    8.06   0
   7  -1  -1   -8.06    7.19   0
   7   1   6  208.10   10.54   0
   4  -2  -3    0.29    5.07   0
   4   2  20  646.02   13.20   0
   5  -2  -2  826.77   14.68   0
   5   1  16  638.99   13.06   0
   1   3  22  341.50   10.30   0
   2   3  23    7.27    6.46   0
   3   4  23  -10.57    7.46   0
   4  -1   8 2784.73   24.32   0
   4   1  18  390.03   10.20   0
   5   2  18  401.94   11.58   0
   6  -2  -4  918.34   15.46   0
   8   0  -4  219.25    9.94   0
   8   1  -2  121.21    9.51   0
   3   5  22  118.73    9.05   0
   4   4  21   10.77    8.19   0
   7  -2  -9    1.53    6.30   0
   7   2   8  236.59   10.59   0
   8  -1  -9    4.92    6.88   0
   5   0  14  663.03   13.12   0
   6   1  14  137.56    9.26   0
   3  -1   7    0.30    4.51   0
   4   5  20  119.86    9.03   0
   6   3  15    4.94    8.05   0
   7  -1   2  363.62   11.25   0
   7   1   9   -0.80    8.36   0
   1   2  20 1402.57   18.63   0
   2   4  25   -3.68    6.49   0
   5   3  20  218.96   10.29   0
   6   0  12  437.19   11.00   0
   6   2  16  402.58   12.01   0
   7  -2  -6  472.43   12.50   0
   8  -1  -6  107.01    8.53   0
   8   0  -1    2.10    7.95   0
   8   1   1    2.51    7.58   0
   3   0  15    1.03    5.10   0
   3   1  20  924.65   14.61   0
   3   6  21    0.48    6.91   0
   4   0  16 1588.40   18.36   0
   5   4  19    5.47    7.38   0
   6  -2  -1   -1.38    6.05   0
   5  -2   1   -2.28    5.67   0
   5   1  19   11.03    7.51   0
   7   2  11   10.86    8.41   0
   0   4  23   -3.12    5.20   0
   2   1  19    5.60    5.74   0
   4   2  23    1.71    7.15   0
   5   2  21   -6.42    7.43   0
   8  -1  -3    5.24    7.55   0
   0   3  21    3.99    5.47   0
   4  -2   0 4164.55   32.45   0
   4   1  21   18.55    6.72   0
   6   1  17    4.68    8.37   0
   7  -1   5    2.76    6.27   0
   7   1  12  175.42    9.93   0
   8   0   2  123.58    8.91   0
   8   1   4  169.53    9.75   0
   3   5  25    3.11    7.46   0
   4  -1  11   23.37    6.49   0
   6   3  18  108.18    9.10   0
   7  -2  -3    8.54    6.72   0
   4   3  25    3.85    7.80   0
   4   5  23    4.31    7.87   0
   5   0  17   -2.86    6.05   0
   6  -2   2  617.74   12.94   0
   6   0  15    1.96    7.67   0
   6   2  19   -6.62    8.56   0
   2   0  14  336.48    9.87   0
   2   3  26  603.54   12.86   0
   5  -1  12  936.18   14.32   0
   5   4  22   87.97    9.00   0
   7   2  14  160.09    9.59   0
   8  -1   0  425.43   11.83   0
   2   5  27    0.39    6.99   0
   8   0   5   -3.89    8.53   0
   1   3  25    1.91    5.56   0
   3  -1  10 2056.98   21.97   0
   3   3  27   -0.95    6.84   0
   5  -2   4  734.35   13.64   0
   7  -2   0  656.75   13.60   0
   7  -1   8  670.55   12.97   0
   7   1  15   -1.21    8.54   0
   2   4  28  434.95   11.86   0
   4   0  19    2.13    5.73   0
   5   1  22  218.82    9.11   0
   5   2  24  340.75   11.41   0
   7   0  13    1.11    8.32   0
   1   4  27    4.35    5.98   0
   3   0  18 1332.16   16.79   0
   3   1  23   22.99    6.48   0
   6   1  20  267.89    9.81   0
   6   3  21    6.23    8.13   0
   8  -1   3    7.94    7.88   0
   4  -2   3   -0.56    5.00   0
   4   4  27    4.11    8.11   0
   6  -2   5   -1.93    6.44   0
   6   0  18  390.82   11.44   0
   7   2  17   -3.08    8.15   0
   8  -2  -5    3.10    7.10   0
   8   0   8  257.80   10.71   0
   4  -1  14  745.04   13.40   0
   4   1  24  882.00   14.12   0
   5   0  20  706.54   13.53   0
   7  -2   3    6.68    6.75   0
   8   1  10  100.66    8.31   0
   1   2  23    5.37    5.34   0
   3   4  29   20.42    7.49   0
   3   5  28  161.69    9.33   0
   4   3  28  362.99   11.79   0
   5  -1  15   17.56    5.82   0
   5   4  25   -4.24    8.25   0
   2   1  22  446.86   10.73   0
   7   0  16  495.43   12.77   0
   7   1  18  127.45    9.44   0
   8  -2  -2  246.12   10.15   0
   5  -2   7    6.57    5.15   0
   2   3  29    2.37    6.42   0
   5   1  25    7.88    7.26   0
   6  -2   8  893.97   14.75   0
   6   1  23    1.75    8.09   0
   8   1  13    0.04    7.83   0
   4   0  22  753.23   13.57   0
   5   2  27   -0.41    6.81   0
   6  -1  16  678.06   13.56   0
   7  -2   6  174.16    9.22   0
   7   2  20  130.07    9.42   0
   2   0  17   -3.32    4.86   0
   2   2  27   -0.50    5.26   0
   3  -1  13   25.50    5.41   0
   6   0  21    4.85    6.99   0
   6   2  25    4.02    7.94   0
   8  -2   1    0.47    7.23   0
   8  -1   9    1.23    8.12   0
   3   0  21    5.90    5.86   0
   4  -2   6  827.10   14.22   0
   5   0  23   -2.25    6.98   0
   2   4  31   -7.58    6.55   0
   3   1  26  628.42   12.28   0
   4   1  27    7.47    6.20   0
   4   4  30   89.68    9.03   0
   5  -1  18  384.49   10.14   0
   7   0  19    9.79    8.59   0
   7   1  21   -2.62    7.42   0
   9  -1   1   -0.31    6.93   0
   1   3  28  680.42   13.59   0
   4  -1  17   -0.77    5.30   0
   4   3  31    5.90    8.00   0
   4   5  29    1.05    7.52   0
   5   3  29    6.23    8.41   0
   5   4  28   98.94    9.10   0
   8  -2   4  235.22   10.24   0
   1   4  30  166.96    8.97   0
   3   5  31    1.39    7.60   0
   6  -2  11    3.45    6.48   0
   7  -2   9    3.43    7.19   0
   5   1  28  462.19   12.17   0
   6  -3  -3    4.32    6.03   0
   6  -1  19    5.44    6.93   0
   6   1  26  287.45   11.25   0
   7   2  23   -1.95    8.35   0
   8  -1  12  181.67   10.21   0
   9  -1   4  175.28    9.80   0
   7  -1  17    8.25    6.68   0
   3   2  31   -8.58    6.95   0
   4   0  25   -0.17    6.44   0
   6   2  28  143.50    9.95   0
   8  -2   7   -6.94    7.71   0
   8   0  17    6.99    8.15   0
   1   2  26  507.11   11.92   0
   3   3  33   -0.75    7.38   0
   7  -3  -2  245.49    9.65   0
   7   0  22  111.11    8.29   0
   7   1  24  272.66   10.56   0
   2   3  32  664.26   13.52   0
   3  -1  16 2064.52   20.88   0
   4   2  32  339.66   11.12   0
   5  -1  21    6.70    5.96   0
   6  -3   0 1096.79   16.82   0
   7  -2  12  533.03   11.82   0
   8  -1  15   10.50    8.17   0
   9  -1   7   -2.99    7.20   0
   2   2  30  197.17    8.65   0
   3   0  24 1124.39   15.81   0
   4  -1  20  920.28   14.43   0
   4   1  30  302.31   10.43   0
   4   4  33   -0.92    7.42   0
   5  -3  -4  671.54   14.57   0
   5   3  32  207.22    9.88   0
   2   0  20 3520.40   27.37   0
   6  -1  22  226.76   10.06   0
   6   1  29    5.20    8.52   0
   7  -3   1    5.80    6.48   0
   7  -1  20  272.38   10.36   0
   9  -2   2   81.99    9.06   0
   4   3  34  166.49    9.85   0
   8   0  20  135.26    9.44   0
   5   1  31    4.38    6.75   0
   6  -3   3    4.92    5.77   0
   6   0  27   -2.55    6.87   0
   7   0  25    1.65    8.45   0
   9  -1  10   92.54    8.75   0
   3   4  35    2.97    7.38   0
   5  -3  -1    4.69    5.10   0
   6   2  31    1.79    7.17   0
   7  -2  15    4.12    6.23   0
   7   1  27    3.94    7.63   0
   1   3  31    1.47    6.00   0
   4   0  28  658.33   12.95   0
   7  -3   4  689.74   13.80   0
   9  -2   5    1.33    7.71   0
   5  -2  16 1783.51   18.99   0
   5  -1  24  921.05   14.30   0
   5   0  29   -4.62    6.65   0
   8  -2  13    3.90    7.90   0
   0   3  27    2.60    5.01   0
   4   2  35   -1.22    7.58   0
   7  -1  23    6.89    7.27   0
   8   0  23    5.46    8.10   0
   3  -1  19    5.15    5.08   0
   3   3  36  291.12   10.65   0
   4  -1  23   22.86    5.76   0
   4   4  36  123.66    9.08   0
   5  -3   2  840.58   15.01   0
   5   3  35    0.53    7.51   0
   6  -3   6  472.30   11.67   0
   6  -1  25    2.97    6.80   0
   6   1  32  267.65   10.85   0
   9  -2   8  233.01    9.94   0
   2   3  35    5.46    6.47   0
   3   0  27   -2.08    6.41   0
   6   0  30  120.30    9.38   0
   7  -3   7   10.80    6.68   0
   7   0  28  121.53    9.92   0
   1   1  24 1727.56   20.36   0
   1   2  29    6.74    4.70   0
   2   0  23    0.40    5.61   0
   2   2  33    5.10    6.36   0
   4   3  37    7.67    7.24   0
   5   1  34  216.85    9.98   0
   8  -3   5    2.52    6.66   0
   8  -2  16  393.83   11.93   0
   5   2  36  246.36   10.40   0
   6  -2  20  662.55   13.04   0
   4  -2  15   -2.02    4.87   0
   5  -2  19    5.14    6.69   0
   6  -3   9    6.58    6.18   0
   7  -1  26  275.02   11.24   0
   9  -2  11   -0.43    7.67   0
   3   4  38  120.32    8.37   0
   4   0  31   -5.60    6.17   0
   5  -3   5   11.33    5.69   0
   5  -1  27    9.55    6.38   0
   5   0  32  498.70   11.66   0
   7  -3  10  393.69   11.35   0
   8  -3   8  485.23   12.52   0
   8   0  26   92.93    9.20   0
   8  -1  24  265.86   11.15   0
   3   2  37   -1.08    7.19   0
   4   2  38   95.50    8.99   0
   6   1  35    7.02    7.88   0
   7   0  31    2.22    8.49   0
   8  -2  19   10.81    7.63   0
   9  -2  14  133.74    9.31   0
   2  -1  15    2.92    5.62   0
   2   1  31    0.82    6.08   0
   3  -1  22  471.46   10.71   0
   5   3  38   49.83    8.55   0
   6   0  33    3.88    8.36   0
   7   1  33    0.87    7.80   0
   3   3  39   -1.53    6.96   0
   4   4  39    3.04    6.71   0
   5  -3   8 2242.24   22.52   0
   6  -3  12  777.59   13.48   0
   6  -2  23   -1.95    6.27   0
   7  -3  13   -0.11    7.02   0
   8  -3  11    2.45    6.95   0
   0   2  25   -1.91    5.38   0
   3   1  35   10.87    6.48   0
   4  -2  18 1065.02   15.07   0
   6   2  37    2.28    8.13   0
   7  -1  29    1.11    8.04   0
   2   3  38   90.81    7.80   0
   4   3  40  138.75    9.47   0
   5  -1  30  289.36   10.25   0
   5   2  39   -0.55    7.90   0
   7  -2  24  332.15   11.02   0
   9  -2  17    4.00    7.84   0
   2   0  26 1266.62   16.52   0
   2   2  36  370.27   10.86   0
   3  -2  11   16.19    4.91   0
   6  -1  31   -0.33    7.54   0
   8  -2  22  111.84    9.36   0
   8  -1  27   12.99    8.20   0
   1   1  27    0.83    5.26   0
   4   0  34  263.45    9.50   0
   6  -3  15    0.78    6.50   0
   7  -3  16  474.28   11.94   0
   9  -3   9   -1.00    7.34   0
   4  -1  29    4.41    6.45   0
   5  -3  11    5.39    5.87   0
   6   1  38   40.44    8.13   0
   7   0  34  145.01    9.17   0
   1   0  19    1.93    4.38   0
   3  -1  25   14.65    6.20   0
   6  -2  26  385.94   10.43   0
   6   0  36  207.21    9.32   0
   3   2  40  430.02   11.72   0
   4  -2  21    0.67    5.94   0
   4   1  39   -1.05    7.44   0
   4   2  41   -3.75    7.68   0
   5  -2  25    4.18    6.81   0
   7  -1  32  259.37   10.77   0
   9  -3  12  149.58    9.32   0
   9  -2  20  142.66    9.53   0
   2  -1  18 1170.75   16.41   0
   3   0  33   -1.41    6.56   0
   7  -2  27    8.63    6.69   0
   8  -3  17    2.35    7.66   0
   8  -1  30   80.60    8.58   0
   3  -2  14 1600.75   18.89   0
   3   3  42  156.67    9.11   0
   5  -3  14  397.05   10.57   0
   5  -1  33   13.12    7.60   0
   6  -3  18  443.45   11.33   0
   7  -3  19    2.07    6.09   0
   1   3  37    0.48    6.51   0
   3   1  38  161.73    8.01   0
   4   3  43    3.53    7.81   0
   5   0  38  204.97   10.00   0
   5   2  42  141.72    9.67   0
   6  -1  34  206.84    9.40   0
   2   0  29    2.40    5.92   0
   4  -3   4 1267.30   18.52   0
   4   0  37    4.55    7.34   0
   6  -2  29   -1.52    7.31   0
   7   0  37   -5.54    7.87   0
   9  -3  15    2.57    7.16   0
   9  -2  23   -0.10    7.17   0
   2   2  39   -2.82    6.73   0
   2   3  41   -3.85    6.76   0
   4  -1  32  910.61   14.58   0
   6   0  39  -10.42    7.83   0
   3  -1  28 1394.92   17.23   0
   4  -2  24 1854.95   19.53   0
   5  -2  28  406.59   11.07   0
   7  -3  22  196.84    9.63   0
   7  -2  30   85.04    8.69   0
   7  -1  35    1.52    7.89   0
   0   2  28 1057.67   17.28   0
   1   1  30  592.25   12.63   0
   1   2  35    3.09    5.89   0
   4  -3   7   20.66    5.42   0
   7  -4   5    2.62    5.92   0
   8  -1  33    1.31    8.35   0
   9  -3  18  104.43    9.65   0
   1   0  22  445.07   10.84   0
   2  -1  21   15.98    5.20   0
   3  -2  17    6.35    5.02   0
   4   1  42  169.83    9.75   0
   4   2  44  188.60    9.80   0
   5   1  43    6.68    8.33   0
   3   2  43    4.32    6.98   0
   5  -1  36  324.71   10.18   0
   6  -1  37    5.65    7.32   0
   8  -3  23    1.48    8.02   0
   2   1  37    4.32    6.24   0
   5   0  41    7.51    7.77   0
   5   2  45   -5.78    7.64   0
   6  -2  32  372.95   11.10   0
   7  -4   8  561.50   12.82   0
   8  -4   9    3.92    6.38   0
   3   1  41    5.39    7.10   0
   3   3  45    0.03    8.01   0
   4  -3  10 1110.45   16.34   0
   7  -3  25    7.38    7.59   0
   8  -2  31    0.30    8.08   0
   9  -3  21    8.57    7.64   0
   4  -2  27    5.96    6.65   0
   4  -1  35   15.87    7.23   0
   5  -2  31    0.51    7.17   0
   6   1  44  131.80    8.87   0
   7  -4  11    1.78    6.35   0
   7  -2  33    7.59    6.80   0
   7  -1  38   59.61    8.49   0
   3  -1  31    7.76    6.48   0
   6  -4   4  849.67   15.36   0
   8  -4  12  272.53   10.40   0
   3  -2  20 1444.98   17.29   0
   8  -3  26  182.61    9.84   0
   2  -1  24 1864.56   19.64   0
   4  -3  13    8.23    4.86   0
   5  -1  39   -4.79    7.53   0
   6  -4   7    5.27    5.72   0
   7  -4  14  371.08   10.92   0
   9  -3  24  217.43   10.35   0
   1   1  33    1.84    5.79   0
   4   1  45    3.25    7.86   0
   4   2  47   -3.98    7.78   0
   5   1  46   76.03    8.41   0
   6  -2  35   -4.86    6.66   0
   8  -4  15    5.83    7.27   0
   8  -2  34  132.90    9.20   0
   5  -3  23    5.48    5.77   0
   6  -4  10  363.36   10.74   0
   6  -3  27   -2.43    6.25   0
   7  -2  36  280.43   10.72   0
   0   2  31   -0.43    5.19   0
   3   2  46   41.67    8.00   0
   4  -2  30  212.96    8.79   0
   5  -2  34  442.46   11.01   0
   7  -4  17    1.37    7.04   0
   7  -1  41    1.53    7.93   0
   8  -3  29   -2.18    7.93   0
   2   1  40  473.70   11.78   0
   3  -2  23    3.27    5.96   0
   3   1  44  272.63   10.06   0
   4  -1  38  180.90    8.68   0
   6   0  45   -2.26    7.81   0
   8  -4  18  227.96    9.86   0
   3  -1  34  612.65   12.25   0
   6  -4  13    6.02    6.02   0
   9  -3  27    3.51    7.67   0
   5  -3  26  667.25   13.04   0
   6  -3  30  204.08    9.69   0
   8  -2  37   -8.40    8.25   0
   2  -1  27    3.46    4.95   0
   5  -1  42  192.40    8.95   0
   6  -2  38  116.13    8.02   0
   6  -1  43   -2.66    7.54   0
   7  -4  20  453.48   12.00   0
   8  -4  21   -3.89    7.50   0
   4  -3  19   15.98    5.31   0
   6  -4  16  780.77   13.45   0
   7  -2  39   -5.60    8.07   0
   9  -4  19    4.22    6.83   0
   2   2  45   -2.90    6.83   0
   3   0  42  332.11   10.68   0
   4  -2  33    3.25    7.00   0
   4   1  48  207.83   10.43   0
   5  -2  37   -0.76    6.61   0
   5   1  49   -5.60    7.81   0
   1   1  36  892.25   14.83   0
   3  -2  26  532.93   11.11   0
   4  -1  41   10.76    7.35   0
   4   2  50  100.51    8.22   0
   7  -1  44  124.21    8.56   0
   0   1  26 1126.74   17.33   0
   1   2  41    2.46    6.72   0
   4   0  46  153.00    9.44   0
   5  -3  29    2.37    6.73   0
   6  -4  19    9.35    6.43   0
   6  -3  33    8.75    7.66   0
   7  -4  23    3.43    6.19   0
   7  -3  34  198.96    9.11   0
   8  -4  24  331.40   11.25   0
   9  -4  22   83.50    8.03   0
   2   1  43    1.09    6.68   0
   3  -1  37   -2.07    5.84   0
   3   1  47    9.19    7.44   0
   3   2  49   -4.63    7.46   0
   4  -3  22  364.04    9.79   0
   5  -4   3   -2.95    5.40   0
   6  -2  41   -1.83    8.36   0
   0   2  34  272.76    9.97   0
   2  -1  30  641.39   12.50   0
   2   0  38  243.48    8.77   0
   5  -4   6  370.78   10.63   0
   5  -1  45    5.59    7.72   0
   6  -1  46   74.76    8.43   0
   2  -2  13   -2.51    5.23   0
   5  -4   9   21.96    5.78   0
   6  -4  22  365.29   10.87   0
   7  -4  26  176.53    9.83   0
   7  -2  42  141.20    8.99   0
   3  -2  29    6.24    5.59   0
   4  -2  36  393.48   10.49   0
   5  -4  12 1161.25   16.54   0
   5  -2  40  461.88   11.49   0
   8  -4  27   -2.96    7.92   0
   9  -4  25    3.83    7.69   0
   1   0  31   -1.98    5.53   0
   4  -3  25   -1.30    6.03   0
   5  -3  32  735.26   13.76   0
   6  -3  36  334.00   11.27   0
   7  -3  37   -0.13    7.64   0
   3   0  45    1.67    6.12   0
   4  -1  44  307.27   10.86   0
   4   1  51   -1.50    7.94   0
   5   0  50   83.54    8.02   0
   1   1  39   -0.74    5.84   0
   2  -2  16 2899.59   25.28   0
   2   2  48  280.12   10.18   0
   3  -1  40  445.35   11.58   0
   4   0  49   -1.36    7.94   0
   5  -4  15    0.49    5.07   0
   6  -4  25   -0.47    6.96   0
   6  -2  44  249.16   10.82   0
   7  -4  29    2.08    7.97   0
   9  -4  28   89.76    8.78   0
   0   1  29    0.72    5.11   0
   2  -1  33   10.12    5.99   0
   4   2  53   -0.70    7.13   0
   7  -2  45   -2.96    8.12   0
   8  -4  30  106.43    9.22   0
   2   0  41   -4.05    6.45   0
   2   1  46  125.27    8.60   0
   3  -2  32 1246.49   16.20   0
   3   1  50  177.08    9.63   0
   3   2  52  134.91    9.63   0
   5  -4  18  746.12   13.49   0
   5  -1  48  226.64   10.13   0
   6  -1  49   -4.77    7.14   0
   1   2  44  318.95   10.45   0
   2  -2  19   -2.01    5.50   0
   3  -3   9   -1.39    4.94   0
   4  -3  28  717.19   12.61   0
   4  -2  39    7.86    6.33   0
   5  -3  35   -4.40    6.57   0
   5  -2  43    3.73    6.64   0
   7  -3  40  148.99    9.99   0
   1  -1  20 1472.65   18.49   0
   6  -3  39    3.67    6.74   0
   7  -4  32  308.28   11.01   0
   0   2  37    1.08    5.64   0
   1   0  34  914.19   14.76   0
   5  -4  21    8.04    6.34   0
   8  -4  33   -7.60    7.35   0
   3  -3  15   -1.39    5.37   0
   3   0  48  196.49    9.72   0
   5   0  53    3.27    7.40   0
   6  -2  47    6.97    8.18   0
   2  -2  22 1935.57   20.27   0
   2  -1  36  920.91   14.64   0
   4  -3  31    3.74    6.01   0
   4   1  54   50.98    8.43   0
   7  -5  12  378.25   11.02   0
   8  -5  19    1.26    6.66   0
   1   1  42  328.14   10.39   0
   3  -3  18  530.21   11.63   0
   3  -2  35   -1.09    5.86   0
   4  -2  42  404.02   11.42   0
   4   0  52  164.07    9.72   0
   5  -3  38  118.58    7.97   0
   5  -2  46   68.95    8.86   0
   7  -5  15   -2.94    6.07   0
   7  -3  43    3.68    7.61   0
   0   1  32 1671.95   20.36   0
   1  -1  23    0.16    4.64   0
   2   0  44  715.68   13.78   0
   6  -3  42  169.04   10.14   0
   8  -5  22  121.45    8.95   0
   8  -4  36  126.35    9.04   0
   3   1  53   -3.77    8.39   0
   7  -5  18  193.12    9.18   0
   2  -2  25    0.25    5.91   0
   2   1  49    1.68    6.93   0
   3  -3  21   -2.30    5.90   0
   1   0  37   -0.91    5.84   0
   6  -4  34  194.80    8.91   0
   7  -5  21    3.91    7.04   0
   3  -2  38  343.74    9.89   0
   3   0  51   -1.80    7.73   0
   5  -3  41    2.66    8.08   0
   6  -2  50  116.83    8.69   0
   3  -3  24 1637.95   18.50   0
   4  -2  45   10.30    7.62   0
   6  -3  45    7.15    7.92   0
   7  -5  24  452.22   12.18   0
   7  -3  46   55.85    7.83   0
   8  -4  39   11.62    8.04   0
   9  -5  26  129.01    8.40   0
   2  -2  28 1124.71   15.74   0
   4   0  55   -6.74    7.65   0
   4   1  57    3.04    6.61   0
   5  -4  30  194.26    8.46   0
   5  -2  49    0.42    7.29   0
   8  -5  28  203.90    9.53   0
   0   1  35   -1.56    5.32   0
   1   1  45    0.40    6.42   0
   2   0  47    1.59    6.45   0
   4  -4  11    1.60    5.49   0
   4  -3  37    3.49    7.32   0
   6  -5   8  775.23   15.02   0
   6  -5  11    8.78    6.24   0
   6  -5  14  399.92   10.95   0
   6  -4  37    0.47    7.72   0
   3  -3  27    1.65    6.30   0
   4  -4   8 1488.50   19.37   0
   6  -5  17    0.47    6.29   0
   7  -5  27    1.08    7.18   0
   9  -5  29    4.80    6.67   0
   1  -1  29   -1.26    4.86   0
   1   0  40  761.72   13.87   0
   3  -2  41    1.24    6.83   0
   4  -4  17   -3.47    4.92   0
   5  -4  33    1.12    7.38   0
   5  -3  44  246.78   10.51   0
   7  -4  41    4.39    8.01   0
   8  -5  31    3.88    7.80   0
   2  -2  31   -4.72    6.27   0
   3   1  56  142.22    9.00   0
   4  -4   5   -0.40    4.75   0
   4  -1  53   -4.52    7.68   0
   6  -5  20  520.32   12.21   0
   6  -2  53    8.55    8.10   0
   3  -1  49    1.58    6.33   0
   4  -2  48  300.67   11.26   0
   6  -4  40  260.60   10.81   0
   6  -3  48  159.31    9.35   0
   7  -5  30  187.70    9.53   0
   3  -3  30  590.66   11.69   0
   3   0  54   64.68    8.77   0
   4  -3  40  495.24   11.35   0
   5  -2  52  149.28    9.13   0
   6  -5  23   -3.73    5.85   0
   1  -1  32 1759.08   19.38   0
   5  -4  36  506.29   12.30   0
   5  -1  57    9.89    8.10   0
   7  -4  44  146.85    9.86   0
   8  -5  34  136.57    8.95   0
   0   0  27    5.32    4.35   0
   0   1  38  244.79    9.36   0
   2   0  50  197.08    9.35   0
   4   0  58   64.85    8.03   0
   5  -3  47    8.71    7.92   0
   7  -5  33    7.91    7.93   0
   1   1  48  328.33   10.66   0
   2  -2  34  290.27    9.04   0
   3  -2  44  353.71   10.37   0
   4  -4  26  757.50   13.08   0
   1   0  43   -1.49    6.42   0
   2  -1  45    3.97    6.60   0
   3  -3  33   -5.49    5.80   0
   6  -5  29    4.16    7.28   0
   6  -4  43   -7.49    8.34   0
   6  -3  51    0.53    8.01   0
   4  -3  43   -4.40    6.68   0
   8  -5  37    1.12    6.99   0
   4   1  27    9.01    6.69   0
   5  -5   7   -0.34    6.22   0
   7  -3  25    1.19    7.30   0
   7  -2  27    1.39    7.28   0
   9  -6   9   13.56    8.54   0
   3  -1  22  457.83   11.18   0
   3  -3  12 2024.28   22.25   0
   4  -4  11   -2.27    5.16   0
   4  -1  26  623.80   12.64   0
   5   0  29   -0.29    7.41   0
   7   0  28  138.04    9.99   0
   8  -1  27    3.62    8.10   0
   4  -3  19   14.76    6.77   0
   4   0  28  581.51   13.10   0
   5  -3  23    7.52    7.37   0
   6  -5  14  421.01   11.94   0
   7  -1  29   -0.17    8.55   0
   8  -3  26  196.94   10.60   0
   8   0  26   79.41    8.50   0
   9  -3  24  222.76   10.71   0
   2   1  22  457.99   11.93   0
   4  -2  24 1932.15   20.54   0
   6  -6   3    1.76    6.34   0
   6   0  30  104.90    8.98   0
   7  -4  23   -1.38    7.13   0
   8  -6  11   -0.73    8.27   0
   9  -4  22   88.04    8.90   0
   5  -4  18  746.99   13.56   0
   6  -2  29   -0.03    7.59   0
   6   1  29    0.18    7.26   0
   8  -4  24  359.19   12.16   0
   8  -2  28  177.92    9.81   0
   9  -6  12  171.60   10.50   0
   5  -5  10  729.84   14.25   0
   6  -4  22  376.31   10.83   0
   3  -2  20 1496.63   18.66   0
   4  -5   0 1329.23   20.59   0
   5  -2  28  423.92   10.97   0
   6  -3  27    3.22    7.72   0
   6  -1  31    3.43    7.60   0
   7  -6  10  243.58   10.28   0
   7  -3  28  413.28   12.39   0
   7  -2  30   96.28    9.20   0
   2  -1  18 1205.47   17.34   0
   6  -5  17    7.14    7.26   0
   8  -6  14  134.74    9.23   0
   9  -3  27    3.20    8.80   0
   3   0  27   -3.88    6.20   0
   4  -4  14  324.93    9.74   0
   4   1  30  297.13   10.49   0
   5   1  31    3.37    7.48   0
   6  -6   6  417.40   11.85   0
   7   0  31    5.70    7.74   0
   8  -3  29    4.32    8.32   0
   8  -1  30   76.24    8.40   0
   9  -6  15    9.39    8.14   0
   9  -4  25    3.01    8.78   0
   2  -2  13   -0.72    4.89   0
   3  -4   4 1262.52   19.59   0
   3  -3  15    0.20    5.92   0
   3  -1  25    6.52    5.61   0
   4  -1  29   -0.17    6.89   0
   5  -3  26  651.45   12.90   0
   7  -4  26  174.75    9.10   0
   7  -1  32  254.01   10.59   0
   4  -3  22  371.03   10.21   0
   5  -4  21    4.07    7.25   0
   7  -6  13    2.66    7.18   0
   8  -4  27   -9.19    7.84   0
   4  -2  27    2.86    6.68   0
   4   0  31   -8.58    6.89   0
   5  -5  13    0.46    6.56   0
   6  -4  25   -5.99    6.65   0
   6   0  33    3.72    7.95   0
   4  -5   3   -1.60    5.64   0
   7  -3  31   -2.00    8.30   0
   8  -6  17    5.35    8.19   0
   3   1  29   -3.90    6.22   0
   3   2  28  399.46   11.79   0
   5  -2  31    0.97    7.18   0
   6  -6   9   -6.76    6.42   0
   6  -3  30  201.92    9.36   0
   6  -1  34  226.22   10.84   0
   7  -2  33    6.05    7.52   0
   9  -6  18  199.47   10.18   0
   2   1  25   11.33    5.62   0
   6  -5  20  505.35   12.63   0
   9  -4  28  101.52    9.40   0
   3  -2  23    0.29    5.51   0
   7  -4  29    5.60    8.27   0
   8  -3  32  196.69   10.47   0
   8  -1  33   -5.68    7.45   0
   7  -6  16  641.17   13.43   0
   7   0  34  156.12    9.46   0
   8  -4  30  104.11    9.56   0
   2  -1  21   21.43    5.48   0
   3  -4   7   22.08    5.58   0
   5  -5  16  743.04   14.13   0
   5  -4  24  690.03   13.47   0
   5  -3  29    0.66    6.26   0
   7  -1  35    4.24    7.74   0
   9  -5  26  155.02    9.88   0
   3  -3  18  542.74   11.70   0
   4  -5   6  371.14   11.06   0
   4  -3  25   -0.15    5.93   0
   4   1  33    4.47    6.92   0
   5   0  35   -9.60    7.15   0
   6  -6  12  374.16   11.29   0
   6  -4  28  454.96   11.58   0
   8  -6  20  206.97   10.51   0
   9  -6  21   -8.12    8.42   0
   2  -2  16 3003.53   26.44   0
   3  -1  28 1317.76   17.02   0
   3   0  30  310.70    9.63   0
   6  -2  35   -4.91    8.07   0
   7  -3  34  187.52   10.70   0
   4  -2  30  198.26    8.63   0
   6  -3  33    7.62    8.30   0
   9  -7  13   -6.55    7.90   0
   4   0  34  243.43    9.22   0
   5  -2  34  439.09   11.97   0
   7  -6  19    5.14    7.61   0
   8  -5  28  173.82   10.08   0
   6  -1  37    7.61    6.75   0
   7  -5  27   -8.66    8.46   0
   7  -4  32  301.33   11.48   0
   8  -7  12  210.26   10.23   0
   8  -3  35    8.85    8.33   0
   3  -2  26  569.10   12.14   0
   4  -5   9   17.86    6.02   0
   8  -6  23   10.64    8.15   0
   8  -4  33    1.83    8.33   0
   9  -5  29   -1.17    7.98   0
   2   2  27    0.24    5.38   0
   3  -4  10 1128.99   17.32   0
   3   1  32  866.54   15.27   0
   5  -5  19   -4.86    5.86   0
   5  -4  27    4.37    7.51   0
   5  -3  32  686.15   13.65   0
   6  -6  15   -4.99    7.01   0
   9  -6  24  172.86    9.64   0
   4  -3  28  734.52   13.76   0
   6  -4  31    2.90    6.78   0
   7  -1  38   43.29    9.10   0
   7   0  37    2.52    7.79   0
   8  -2  37   -1.25    7.47   0
   2  -1  24 1864.13   20.56   0
   2   1  28 1337.81   18.53   0
   3  -3  21    0.17    5.26   0
   2  -2  19   -0.03    5.77   0
   5   0  38  214.13    9.85   0
   5   1  37    6.40    7.13   0
   6  -3  36  329.53   11.46   0
   6  -2  38   97.83    8.45   0
   7  -6  22  170.04   10.02   0
   7  -3  37   15.64    7.87   0
   8  -7  15   -1.63    7.08   0
   8  -5  31   -6.89    8.05   0
   3  -1  31    5.03    5.64   0
   3   0  33   -5.23    6.36   0
   4  -2  33    0.66    6.27   0
   4   1  36  302.76   10.68   0
   6   0  39    3.25    7.99   0
   7  -5  30  201.05   10.19   0
   4  -5  12 1147.61   17.19   0
   4  -4  23    4.40    6.60   0
   5  -6   8  827.92   15.44   0
   5  -2  37    1.59    7.49   0
   6  -6  18  285.28   10.38   0
   7  -4  35    1.11    7.48   0
   8  -6  26  223.80   10.26   0
   8  -3  38   52.23    8.69   0
   9  -7  19   -0.77    8.41   0
   9  -6  27    5.23    8.21   0
   3  -4  13   12.11    5.91   0
   4   0  37   -7.27    7.21   0
   5  -5  22  257.12    9.18   0
   6  -1  40  195.44   10.35   0
   8  -4  36  135.31    9.12   0
   3  -2  29    4.73    6.61   0
   5  -4  30  176.51    8.63   0
   5  -1  39    0.11    6.45   0
   6  -4  34  194.40   10.10   0
   8  -7  18  218.83   11.02   0
   5  -3  35    1.60    6.67   0
   7  -6  25  -14.42    7.71   0
   2   0  29    0.71    4.91   0
   3  -3  24 1623.11   18.48   0
   4  -3  31    5.95    6.37   0
   7  -7  14  144.24    9.60   0
   7  -1  41   -6.98    7.97   0
   8  -5  34  138.07    9.66   0
   1   2  23    2.52    5.05   0
   3   1  35    7.58    6.30   0
   4  -5  15    0.85    6.09   0
   6  -6  21   -2.42    7.29   0
   7  -5  33   -6.63    8.22   0
   7  -3  40  141.11   10.01   0
   9  -7  22   49.99    8.55   0
   2  -2  22 1972.59   20.90   0
   2  -1  27   -1.93    6.07   0
   2   2  30  196.77    9.27   0
   6  -3  39   12.07    7.42   0
   7  -2  42  122.55    9.53   0
   8  -6  29    5.30    8.57   0
   2   1  31    1.22    5.80   0
   3  -4  16 2011.18   21.58   0
   4  -4  26  734.81   13.23   0
   5  -5  25   -3.17    6.18   0
   5   0  41   -4.05    7.69   0
   7  -4  38  154.37    9.32   0
   8  -7  21   -2.32    8.05   0
   8  -4  39   -4.72    8.02   0
   3   0  36  808.55   14.66   0
   5  -2  40  465.49   12.25   0
   6   0  42  132.20    8.96   0
   1   1  24 1739.62   21.59   0
   4   1  39    1.22    6.77   0
   5  -6  14  425.50   11.44   0
   6  -4  37   -9.21    8.06   0
   6  -1  43   -0.64    7.73   0
   7  -7  17    2.53    6.77   0
   7  -6  28  155.95    9.99   0
   3  -2  32 1260.69   16.92   0
   4   0  40  428.92   11.81   0
   5  -3  38  111.71    7.96   0
   5  -1  42  162.85    8.76   0
   6  -6  24  610.74   13.42   0
   6  -5  32  376.01   10.93   0
   3  -3  27   -4.54    5.62   0
   4  -5  18  737.78   13.99   0
   4  -3  34  537.29   11.86   0
   8  -6  32  195.69   10.07   0
   8  -5  37   -8.93    7.44   0
   7  -5  36  171.06    9.17   0
   7  -3  43    5.72    7.84   0
   8  -7  24  232.16   10.17   0
   2   0  32  623.01   12.74   0
   4  -4  29   -5.75    5.98   0
   5  -6  17    1.45    6.69   0
   6  -3  42  167.53    9.13   0
   7  -7  20  170.06    9.50   0
   7  -4  41  -13.69    8.08   0
   2  -2  25   -0.48    5.24   0
   2  -1  30  639.78   12.58   0
   4  -2  39    4.18    7.58   0
   4  -1  41    9.08    6.94   0
   7  -6  31    9.18    8.16   0
   7  -2  45   -1.48    7.64   0
   2  -3  17   13.61    5.67   0
   3   1  38  156.39    8.83   0
   5  -4  36  493.68   12.66   0
   4  -5  21    9.99    6.41   0
   5   0  44  188.65    9.83   0
   6  -6  27   -1.88    7.48   0
   6  -5  35   -1.49    8.26   0
   6  -4  40  263.54   10.11   0
   1  -1  20 1530.95   19.37   0
   1   2  26  499.81   12.92   0
   2   1  34  611.91   13.01   0
   2   2  33    3.95    6.04   0
   3  -2  35   -1.07    7.00   0
   3   0  39   -2.27    6.81   0
   5  -3  41   -0.65    6.89   0
   6  -1  46   78.25    8.32   0
   6   0  45    0.65    7.60   0
   8  -7  27   -2.39    7.24   0
   8  -6  35    7.20    7.74   0
   8  -5  40  172.84    9.47   0
   3  -3  30  552.66   11.73   0
   4  -3  37    6.14    6.39   0
   4   0  43    7.92    7.14   0
   4   1  42  162.37    9.22   0
   5  -6  20  505.72   12.08   0
   5  -1  45   -4.69    8.03   0
   7  -7  23    2.48    6.90   0
   7  -5  39    0.04    8.41   0
   1   1  27    1.74    5.05   0
   4  -4  32  502.57   12.26   0
   7  -3  46   50.26    8.52   0
   6  -3  45    2.91    8.52   0
   7  -6  34  180.92    9.75   0
   7  -4  44  133.36    9.44   0
   2  -3  20 1443.49   17.77   0
   2  -2  28 1087.35   15.41   0
   2   0  35   -0.35    6.03   0
   4  -5  24  678.43   13.47   0
   4  -2  42  400.44   11.74   0
   5  -4  39    1.30    8.55   0
   6  -6  30  142.18    9.42   0
   6  -2  47   11.61    8.02   0
   2  -1  33    6.22    5.60   0
   4  -1  44  285.74   10.49   0
   6  -5  38  137.89    9.87   0
   6  -4  43    4.43    8.25   0
   8  -7  30   49.24    7.97   0
   5  -6  23    7.37    7.02   0
   7  -7  26  209.82   10.34   0
   1  -1  23    1.22    5.66   0
   3  -3  33    2.04    5.90   0
   3   1  41   10.42    6.50   0
   4  -3  40  467.22   12.19   0
   5  -3  44  252.67    9.81   0
   5   0  47   -1.69    7.74   0
   6  -7  19    7.01    7.51   0
   7  -5  42   91.85    8.84   0
   3  -5   5    8.63    5.20   0
   3  -2  38  320.78   10.03   0
   3   0  42  326.15   10.68   0
   4  -4  35   -1.01    7.38   0
   6  -1  49    1.95    7.87   0
   2  -3  23    4.83    5.98   0
   2   1  37    0.72    6.28   0
   4  -5  27   -7.07    6.88   0
   5  -1  48  222.41   10.29   0
   6  -6  33    1.28    8.18   0
   7  -6  37   -6.07    7.10   0
   1  -2  15    4.42    4.66   0
   1   2  29    5.55    5.63   0
   2  -2  31    5.81    6.36   0
   4   0  46  142.08    9.19   0
   5  -6  26  251.83   10.01   0
   6  -3  48  153.03    9.52   0
   7  -7  29   -4.95    7.85   0
   7  -4  47   -0.42    7.99   0
   8  -7  33    2.28    7.67   0
   1   1  30  617.63   13.08   0
   6  -7  22  162.17    9.20   0
   6  -5  41    4.33    8.03   0
   6  -2  50  100.65    9.28   0
   2  -1  36  920.27   14.84   0
   2   0  38  255.10    9.63   0
   3  -5  11    6.14    5.63   0
   3  -4  28  698.62   13.27   0
   4  -2  45    1.87    6.66   0
   6  -4  46   94.91    9.62   0
   3  -3  36  543.28   12.40   0
   4  -1  47   -3.91    7.92   0
   5  -5  37    8.41    6.67   0
   7  -5  45   -3.62    7.94   0
   1  -1  26 1201.39   16.26   0
   3  -2  41   -1.93    7.40   0
   4  -4  38  139.17    9.21   0
   4  -3  43   -2.19    7.38   0
   5  -3  47   -3.17    7.06   0
   1  -2  18 1187.27   16.67   0
   2  -3  26  530.15   11.22   0
   3  -5  14  382.79   10.77   0
   4  -6  13   -0.54    5.76   0
   5  -6  29    9.32    7.13   0
   6  -7  25    1.22    7.36   0
   6  -6  36  153.70    9.03   0
   7  -7  32  290.28   10.93   0
   2  -2  34  284.59    9.95   0
   3   0  45    0.86    7.02   0
   3   1  44  283.11   10.29   0
   5   0  50   77.21    7.87   0
   2  -4   9   -0.14    5.00   0
   3  -4  31    3.35    6.44   0
   4  -6  16  731.11   14.07   0
   5  -4  45    3.29    8.10   0
   5  -1  51   -2.30    7.62   0
   6  -5  44  174.37    9.79   0
   6  -3  51    1.23    7.78   0
   2   1  40  460.12   11.91   0
   3  -5  17    4.17    5.75   0
   4   0  49    5.96    7.29   0
   5  -5  40  215.87   10.05   0
   1  -2  21   17.81    5.58   0
   1   1  33    1.71    5.67   0
   2  -4  12  771.59   14.46   0
   3  -3  39    6.59    6.81   0
   6  -4  49    0.75    7.55   0
   6  -2  53   -6.40    7.31   0
   1  -1  29    0.30    5.06   0
   1   2  32 1133.66   17.95   0
   2  -3  29    6.52    5.52   0
   2   0  41    1.21    6.68   0
   4  -6  19    0.44    6.20   0
   4  -4  41   -3.36    6.66   0
   5  -6  32  398.60   10.98   0
   6  -7  28  179.46    9.45   0
   6  -6  39   -0.87    7.82   0
   7  -7  35   -0.23    7.23   0
   2  -4  15    1.31    5.48   0
   3  -5  20  596.13   12.76   0
   3  -2  44  323.20   10.90   0
   3  -1  46  128.44    8.03   0
   4  -3  46   83.59    7.96   0
   4  -1  50  186.60    8.93   0
   5  -2  52  131.15    9.60   0
   2  -2  37    6.23    6.82   0
   3  -4  34  522.75   12.20   0
   1   0  34  947.67   15.05   0
   4  -6  22  362.98   10.90   0
   5  -4  48  153.13   10.04   0
   6  -5  47   -0.69    8.14   0
   1  -2  24 1812.83   19.46   0
   2  -4  18 1065.67   15.96   0
   3  -5  23    5.85    6.37   0
   3   0  48  202.37    9.85   0
   5  -6  35   -5.92    7.79   0
   5  -5  43    0.83    8.21   0
   6  -7  31    4.78    7.29   0
   2  -3  32 1212.10   16.03   0
   3  -3  42  243.89   10.10   0
   3   1  47    9.28    6.75   0
   6  -4  52  111.70    9.05   0
   7  -7  38   43.02    7.71   0
   1  -1  32 1772.52   19.05   0
   1   1  36  867.33   14.93   0
   2   1  43   -2.21    6.40   0
   4  -4  44  386.40   11.11   0
   2  -4  21    0.90    5.80   0
   2   0  44  714.63   14.05   0
   3  -4  37   -2.42    7.30   0
   4  -6  25    7.53    6.64   0
   4  -3  49   -4.26    8.02   0
   4   0  52  140.76    9.37   0
   5  -3  53   -3.29    8.10   0
   1  -2  27    1.30    6.10   0
   1   2  35   -2.39    5.84   0
   2  -2  40  838.99   14.42   0
   3  -5  26  658.63   13.03   0
   3  -2  47    7.21    6.55   0
   3  -1  49    8.21    7.74   0
   4  -1  53   -9.59    7.82   0
   5  -2  55   -2.68    8.29   0
   6  -7  34  170.27    9.65   0
   4  -5  39    2.68    7.26   0
   6  -5  50   89.08    8.82   0
   1   0  37    1.03    5.25   0
   2  -3  35    0.03    5.87   0
   4  -6  28  455.08   11.87   0
   5  -7  24  439.29   12.11   0
   5  -5  46   80.77    8.46   0
   5  -4  51    1.18    8.30   0
   0   0  21   -0.64    4.37   0
   1  -1  35    3.62    6.03   0
   3  -3  45  -11.78    7.74   0
   3  -5  29   -4.40    5.76   0
   3   0  51   -3.94    7.35   0
   4  -4  47   -2.12    6.96   0
   3  -4  40  464.12   11.33   0
   4  -2  54   29.36    8.30   0
   5  -7  27    1.53    7.08   0
   5  -1  57   -3.31    6.90   0
   6  -7  37    6.68    7.24   0
   0   1  26 1102.08   17.00   0
   1  -3  13   25.17    4.88   0
   1   1  39    3.35    5.86   0
   2   0  47   -0.66    6.91   0
   2   1  46  131.09    8.45   0
   3  -2  50  162.04    9.15   0
   4  -6  31    0.20    6.95   0
   4  -5  42  221.22   10.03   0
   4  -3  52  192.61    9.53   0
   5  -6  41   -1.19    7.61   0
   5  -3  56   86.63    9.12   0
   0   0  24 4597.79   32.05   0
   2  -3  38  336.27    9.92   0
   3  -5  32  674.21   13.52   0
   3  -1  52  288.01   10.63   0
   4   0  55    5.94    6.74   0
   5  -5  49  -11.76    8.18   0
   1  -3  19   -0.99    5.58   0
   1   0  40  763.74   13.72   0
   4  -1  56  135.44    8.91   0
   5  -4  54   61.08    8.39   0
   5  -2  58   88.31    8.30   0
   1  -2  33   -1.42    6.51   0
   1  -1  38  269.07    8.93   0
   2  -4  30  183.43    8.60   0
   3  -3  48  353.07   10.66   0
   4  -4  50  175.78   10.29   0
   5  -7  30  180.19    9.55   0
   6  -7  40  203.70   10.11   0
   3  -4  43   -6.28    6.65   0
   4  -6  34  185.63    9.80   0
   0   0  27   -0.86    4.67   0
   0   1  29   -1.57    5.23   0
   1  -3  22  461.66   10.69   0
   2  -1  48  333.85   10.29   0
   4  -5  45    5.14    7.80   0
   0  -1  19   -0.58    5.45   0
   2  -3  41    0.40    6.18   0
   2  -2  46  287.20   10.58   0
   3   0  54   91.91    8.16   0
   4  -3  55   -6.99    7.71   0
   4  -2  57   -5.12    7.63   0
   5  -7  33    3.30    7.39   0
   0   2  28 1058.55   18.05   0
   1  -3  25    3.51    6.15   0
   1   1  42  313.79   10.36   0
   2  -4  33   -2.36    5.85   0
   5  -5  52  162.50    9.76   0
   0  -1  22  492.18   11.50   0
   1  -2  36  927.36   14.19   0
   1  -1  41    7.09    6.64   0
   1   0  43    0.48    6.49   0
   2   0  50  201.14    8.91   0
   2   1  49    5.24    6.54   0
   3  -1  55   -0.78    7.51   0
   4  -6  37   -6.52    7.90   0
   6  -7  43   -5.20    7.82   0
   3  -4  46   93.52    7.91   0
   3  -3  51    4.21    6.92   0
   4  -4  53   -0.27    8.01   0
   5  -4  57    7.35    8.30   0
   0   1  32 1793.22   20.71   0
   1  -3  28 1329.18   16.51   0
   4  -5  48  136.94    9.70   0
   4  -1  59   -1.32    7.74   0
   5  -7  36  154.41    9.12   0
   0  -1  25   -3.45    4.85   0
   2  -4  36  386.25   10.40   0
   2  -3  44  342.38   10.22   0
   2  -1  51    1.61    7.09   0
   1  -2  39   -8.10    6.83   0
   2  -2  49   -2.63    6.61   0
   3  -6  15    1.40    5.76   0
   3  -6  18  410.67   11.27   0
   4  -6  40  256.59   10.42   0
   0   2  31    1.12    4.92   0
   1  -3  31   10.22    6.54   0
   1   1  45   -0.46    6.40   0
   3  -6  21    4.39    6.22   0
   4  -3  58  104.73    8.51   0
   4  -2  60  114.69    8.80   0
   5  -5  55   -4.02    7.59   0
   0  -1  28 1355.24   16.89   0
   1   0  46  111.30    8.29   0
   3  -6  24  607.83   13.04   0
   3  -4  49   -8.63    7.97   0
   3   0  57    0.39    7.34   0
   5  -7  39   -3.09    7.17   0
   0   1  35    4.19    5.53   0
   2  -5  16 1771.20   20.74   0
   2  -5  19    3.87    5.81   0
   2  -4  39   -0.24    6.30   0
   2   0  53   -2.20    7.49   0
   3  -3  54   88.86    8.60   0
   3  -1  58   95.21    8.87   0
   4  -4  56   94.24    9.07   0
   1  -3  34  597.20   12.54   0
   2  -5  13    1.44    5.35   0
   2  -5  22  311.16    9.97   0
   2  -3  47   -1.12    6.66   0
   3  -6  27    1.12    6.57   0
   4  -6  43   11.44    7.99   0
   4  -5  51   -9.60    7.58   0
   0  -1  31    3.83    5.24   0
   1  -2  42  332.06    9.98   0
   2  -2  52  196.68   10.21   0
   2  -1  54  128.54    9.17   0
   2  -5  25   -2.60    5.20   0
   3  -5  44  233.94   10.24   0
   4  -7  26  146.24    8.71   0
   5  -7  42   92.17    8.52   0
   0   2  34  255.03    9.47   0
   2  -4  42  406.06   10.92   0
   3  -6  30  199.63    9.45   0
   3  -4  52  204.70   10.25   0
   0   1  38  266.89    9.55   0
   1  -3  37    6.78    6.07   0
   1   0  49    6.33    7.14   0
   1   1  48  328.53   10.47   0
   2  -5  28  419.29   10.61   0
   3  -2  59    8.67    8.03   0
   4  -7  29    3.89    6.91   0
   0  -2  20 3499.87   27.33   0
   1  -2  45    0.41    7.11   0
   2  -3  50  183.45    9.03   0
   3  -6  33    2.20    6.99   0
   3  -3  57   -3.19    7.54   0
   4  -6  46  105.58    9.35   0
   4  -5  54   65.48    8.70   0
   4  -4  59   -3.87    8.41   0
   0  -2  17   -0.23    4.47   0
   0  -2  23   -1.42    4.96   0
   0   0  39    4.60    5.85   0
   2  -5  31    8.32    5.77   0
   2   0  56  112.26    9.00   0
   3  -5  47   -5.77    8.04   0
   3  -1  61   -1.70    7.79   0
   4  -7  32  288.96   10.80   0
   5  -7  45    7.53    7.67   0
   0  -2  14  333.14    9.86   0
   0  -2  26 1257.91   16.52   0
   1  -3  40  466.92   11.90   0
   2  -5   7    8.85    5.07   0
   2  -4  45    0.04    7.86   0
   0  -1  37    2.28    5.52   0
   0   2  37   -0.64    5.60   0
   1  -4  17   -3.29    5.28   0
   1  -4  20  883.43   14.75   0
   1  -4  23   12.42    6.07   0
   2  -5  34  451.51   11.93   0
   2  -1  57    4.52    8.02   0
   3  -6  36  331.71   10.89   0
   0  -2  29   -0.46    6.18   0
   0   1  41    0.10    6.05   0
   3  -4  55    0.45    7.65   0
   4  -7  35   -5.10    7.11   0
   4  -6  49   -6.40    7.84   0
   1  -4  14  663.72   13.40   0
   1  -2  48  351.57   11.28   0
   1   0  52  325.96   10.84   0
   2  -3  53    4.35    8.41   0
   3  -2  62   43.19    8.37   0
   0  -2  32  645.81   12.62   0
   0   0  42  802.87   13.61   0
   1  -3  43   -5.58    7.05   0
   1   1  51    1.35    6.65   0
   2  -5  37   -2.59    6.83   0
   3  -6  39   -9.24    7.45   0
   3  -5  50  169.60    9.84   0
   4  -5  57    2.70    7.02   0
   0  -1  40  735.69   13.12   0
   4  -7  38  133.75    9.19   0
   0   2  40  795.76   15.23   0
   1  -4  11   31.82    5.80   0
   2   0  59   -4.00    7.72   0
   0  -2  35    1.52    5.62   0
   0   1  44  438.05   11.52   0
   1  -1  53    3.49    6.58   0
   2  -1  60  173.66   10.10   0
   3  -4  58  105.02    9.21   0
   0   0  45    1.88    6.72   0
   1  -4  35    7.41    7.03   0
   1  -3  46  138.20    8.91   0
   1  -2  51    7.00    6.58   0
   2  -3  56  185.13   10.14   0
   3  -6  42  155.69    9.36   0
   4  -7  41   -0.41    7.29   0
   0  -1  43   -6.45    6.08   0
   1   0  55  -11.44    7.64   0
   2  -4  51   -9.68    6.89   0
   3  -5  53    9.12    7.50   0
   0  -2  38  259.61    9.15   0
   1   1  54  106.45    8.54   0
   3  -3  63   -4.29    7.54   0
   1  -4  38  176.27    8.59   0
   3  -6  45   -4.19    7.73   0
   1  -3  49   -0.25    7.99   0
   1  -1  56  229.52   10.17   0
   2  -2  61   -1.81    7.70   0
   4  -7  44  147.88    9.41   0
   0  -2  41    1.52    6.13   0
   0  -1  46  111.88    7.79   0
   0   0  48  466.38   12.19   0
   0   1  47    4.66    5.86   0
   1  -4  41    4.71    7.62   0
   1  -2  54  111.31    8.19   0
   2  -4  54   34.88    8.99   0
   3  -4  61   -9.21    8.30   0
  -1   1  22  433.79   11.61   0
  -1   1  25    0.19    4.94   0
   0  -3  24 1037.05   15.04   0
   0  -3  27    0.59    6.25   0
   2  -3  59    8.43    7.45   0
   2  -1  63   -0.90    7.48   0
   3  -5  56  112.52    8.65   0
  -1   0  23   -0.88    4.72   0
  -1   0  26 1126.35   15.91   0
  -1   1  28 1283.91   17.36   0
   0  -3  30  313.79   10.09   0
   4  -7  47    1.51    7.69   0
  -1   0  20 1512.45   19.36   0
  -1   0  29   -2.02    5.01   0
  -1   1  31    3.59    5.39   0
   0  -3  33    5.89    6.71   0
   0  -2  44  725.84   14.10   0
   1   0  58  150.26    9.69   0
  -1   0  32 1784.37   19.64   0
   1  -4  44  295.05   10.11   0
   1  -3  52  286.85   10.57   0
   2  -6  23   -1.22    6.28   0
   2  -6  26  370.58   11.04   0
  -1   1  34  974.88   15.59   0
   0  -3  36  858.79   14.29   0
   0   0  51   -6.54    7.14   0
   0   1  50  280.07   10.35   0
   1  -2  57   -0.59    8.29   0
   1  -1  59    4.68    7.95   0
   2  -6  20  606.67   13.29   0
   2  -5  49    0.37    7.57   0
   2  -4  57   -2.28    8.36   0
   2  -2  64  113.30    8.96   0
   3  -7  31   -0.55    7.44   0
   0  -3  15   -3.35    4.53   0
   2  -6  32  358.02   11.20   0
   2  -3  62   49.53    8.68   0
   3  -6  51   -3.34    7.65   0
   0  -3  39    0.74    7.43   0
   0  -2  47   -4.58    6.68   0
   1  -4  47    1.52    8.33   0
   2  -6  35   -2.46    7.07   0
   3  -7  34  176.38    9.20   0
  -1  -1  24 1867.35   19.77   0
  -1  -1  27    1.22    5.20   0
  -1  -1  30  613.39   12.33   0
  -1   1  37    1.11    4.96   0
  -1   2  27    2.23    5.01   0
   1  -5  27   10.22    6.63   0
   1  -3  55   -3.00    8.13   0
  -1  -1  21   21.49    5.91   0
  -1  -1  33   -1.25    6.59   0
  -1   2  30  586.73   13.33   0
   1  -5  24  898.58   14.65   0
   1  -5  30  317.97   10.63   0
   1   0  61   -1.53    7.26   0
   2  -6  38  102.45    8.65   0
   3  -7  37   -2.46    7.56   0
  -1   2  33    5.18    5.96   0
   0  -3  12 2439.67   24.70   0
   0  -3  42  318.50   10.16   0
   0  -2  50  217.71   10.24   0
   0   0  54   33.67    8.03   0
   0   1  53    1.37    6.97   0
   1  -5  21    6.80    6.06   0
   1  -5  33    2.62    6.14   0
   1  -4  50  181.03   10.29   0
   3  -6  54   50.96    8.07   0
  -1  -1  36  954.51   14.48   0
  -1   1  40  734.31   13.44   0
   1  -5  36  330.89   10.84   0
   1  -1  62   43.04    8.34   0
   2  -6  41    4.00    7.96   0
   3  -7  40  149.91    9.03   0
  -1  -1  18 1206.42   16.82   0
   1  -5  18  378.83   10.93   0
  -1  -1  39   -6.21    6.97   0
  -1   2  36  891.09   15.58   0
   0  -3  45   -4.34    6.76   0
   0  -1  55   -1.56    7.89   0
   1  -5  39    6.33    7.32   0
   1  -3  58   99.25    8.79   0
   2  -5  55   -2.49    8.22   0
  -1   0  44  451.33   11.64   0
  -1   1  43    5.74    6.46   0
   1  -4  53    9.46    8.20   0
   2  -6  44  217.83   10.11   0
   3  -7  43   -0.37    7.56   0
  -1  -1  42  345.67   10.90   0
  -1   2  39    0.51    6.43   0
   0   0  57   -0.79    7.78   0
   1  -5  15   13.26    5.90   0
   1  -5  42  164.82    9.54   0
   1   0  64   72.79    9.22   0
  -1  -1  15    0.05    4.76   0
   0  -4  28  630.91   12.87   0
   0  -3  48  204.84    9.39   0
   0   1  56  208.42    9.90   0
   3  -7  46   67.17    8.98   0
  -1  -2  25   11.92    6.04   0
  -1  -2  28 1359.40   16.76   0
  -1  -2  31    5.13    5.78   0
  -1   0  47   -4.13    7.15   0
  -1   1  46  114.89    8.24   0
   0  -4  25   -0.92    6.40   0
   1  -3  61   -1.49    8.45   0
   1  -1  65    4.10    8.06   0
   2  -6  47    1.48    7.97   0
   2  -5  58  112.85    9.09   0
  -1  -2  34  603.99   12.07   0
   0  -1  58  159.94    9.42   0
   2  -4  18 1072.69   16.32   0
   1  -2  15    8.12    5.93   0
   3  -6  15   -4.09    5.91   0
   3  -1  28 1351.97   18.71   0
   5  -6  29   10.29    8.56   0
   5  -3  35   -1.00    7.63   0
   6  -7  28  181.51    9.43   0
   6  -5  35    8.62    8.42   0
   6  -3  36  313.93   11.75   0
   7  -6  34  161.01   10.17   0
   6  -6  33    1.08    9.23   0
   8  -4  36  121.10    9.22   0
   1  -4   5    6.20    5.82   0
   3  -5  23    3.91    6.96   0
   4  -4  32  467.89   12.15   0
   4  -2  33   -2.58    6.87   0
   5  -8  16  424.42   12.76   0
   6  -8  23   -1.46    8.51   0
   6  -2  35    2.90    7.54   0
   7  -9  19   -2.69    7.82   0
   7  -8  27    3.14    9.00   0
   7  -7  32  271.16   11.74   0
   8  -7  33   11.69    8.30   0
   2  -5  13    0.99    5.31   0
   2  -3  23   -5.61    5.66   0
   4  -6  25   -2.83    6.60   0
   6  -4  37    0.95    6.91   0
   8  -5  37    5.37    7.90   0
   1  -3  13   26.21    5.48   0
   4  -5  30  190.47    9.11   0
   5  -5  34  290.02   10.35   0
   5  -4  36  478.50   12.84   0
   5  -1  33    4.61    6.51   0
   7  -4  38  131.30    9.82   0
   7  -3  37   -0.14    7.41   0
   2  -2  25   -2.16    5.41   0
   3  -4  28  697.82   13.31   0
   3  -3  30  564.14   12.10   0
   2  -4  21   -2.85    6.46   0
   3   0  27   -5.00    6.12   0
   6  -9  15   -6.48    7.99   0
   6  -7  31  -15.21    9.02   0
   2   0  23   -0.94    5.23   0
   4  -7  20  451.76   12.51   0
   5  -8  19   -2.22    8.04   0
   5  -6  32  393.87   11.50   0
   7  -9  22   55.07    8.44   0
   7  -6  37   -4.10    7.94   0
   1  -4   8 2691.05   26.97   0
   6  -8  26  214.11   10.91   0
   6  -6  36  158.94   10.44   0
   6  -5  38  130.52    8.85   0
   7  -8  30   51.01    8.81   0
   7  -5  39   -3.66    8.65   0
   1  -2  18 1235.67   17.77   0
   2  -5  16 1838.34   20.44   0
   3  -5  26  636.53   12.78   0
   4  -6  28  450.57   12.13   0
   5  -2  37    4.56    7.24   0
   6  -3  39    3.04    7.52   0
   7  -7  35    8.23    8.64   0
   3  -1  31   12.60    6.23   0
   4  -4  35   -4.89    7.83   0
   6  -9  18  186.66   10.39   0
   8  -4  39    2.24    7.80   0
   1  -3  16 2082.85   22.32   0
   2  -6   5    3.07    5.95   0
   2  -3  26  551.21   11.77   0
   3  -7  10  393.73   11.50   0
   3  -6  21    6.26    6.81   0
   4  -5  33   -1.93    6.91   0
   5  -5  37   11.14    8.37   0
   8  -5  40  131.65    9.20   0
   3  -4  31    9.09    7.45   0
   4  -7  23   -3.55    7.87   0
   5  -8  22  132.27    9.77   0
   6  -7  34  172.94   10.18   0
   2  -4  24 1866.14   20.36   0
   3  -3  33    0.14    6.05   0
   5  -7  30  168.56    9.20   0
   5  -6  35    2.79    8.38   0
   6  -8  29   -0.41    8.70   0
   7  -4  41    8.30    8.36   0
   7  -3  40  147.98    9.57   0
   1  -4  11   26.86    6.25   0
   1  -1  20 1505.50   19.81   0
   7  -8  33    9.61    8.12   0
   7  -6  40  216.43   10.78   0
   2  -6   8  847.08   15.62   0
   2  -5  19   12.88    5.51   0
   3  -7  13   13.49    6.81   0
   3  -5  29   -7.63    7.55   0
   4  -6  31   -4.71    8.18   0
   4  -1  35    0.09    6.35   0
   6  -9  21   -0.42    7.47   0
   6  -6  39   -2.13    8.49   0
   7  -7  38   31.38    8.93   0
   7  -5  42   98.78    9.70   0
   1  -2  21   18.56    6.06   0
   3  -6  24  627.21   12.85   0
   4  -8  15    5.28    7.26   0
   4  -4  38  135.48    9.55   0
   1  -3  19   -1.62    5.98   0
   2  -3  29    9.28    6.56   0
   2   0  26 1251.16   18.61   0
   3  -2  35   -5.50    6.75   0
   3   0  30  296.99   10.25   0
   4  -7  26  159.86   10.06   0
   5  -5  40  208.52   10.54   0
   5  -3  41    1.22    6.75   0
   6  -3  42  157.44    9.49   0
   2  -6  11   -1.17    5.94   0
   3  -4  34  516.16   12.33   0
   5  -7  33   -2.98    7.10   0
   5  -2  40  433.28   12.11   0
   6  -7  37    1.28    7.89   0
   6  -4  43   -0.88    8.27   0
   1  -4  14  689.79   13.29   0
   2  -5  22  296.91   10.09   0
   2  -4  27   -6.05    5.89   0
   3  -7  16  440.54   12.02   0
   3  -1  34  597.35   13.05   0
   5  -6  38  133.86   10.26   0
   2  -2  31   -5.36    6.34   0
   3  -3  36  539.03   11.96   0
   4  -8  18  206.42   10.80   0
   4  -2  39    1.57    5.87   0
   7  -6  43    3.12    7.92   0
   7  -4  44  137.77    9.24   0
   2  -1  30  563.37   12.03   0
   3  -5  32  685.05   13.18   0
   4  -6  34  174.08    9.24   0
   5  -8  28  186.41    9.87   0
   6  -6  42  136.56    9.86   0
   1  -1  23   -5.56    5.58   0
   2  -6  14  284.33   10.12   0
   4  -7  29    1.46    7.94   0
   7  -5  45    2.64    7.74   0
   1  -4  17    1.63    4.92   0
   1  -3  22  462.72   10.96   0
   1  -2  24 1855.68   20.01   0
   2  -3  32 1247.57   16.95   0
   4  -5  39    5.44    7.06   0
   4  -4  41    6.23    7.91   0
   4  -1  38  162.08    8.84   0
   5  -7  36  171.64    9.47   0
   5  -5  43   -2.06    8.71   0
   6  -9  27    4.63    8.12   0
   6  -7  40  213.49   10.80   0
   2  -4  30  206.03    9.21   0
   3  -4  37    4.21    7.23   0
   4  -8  21   -0.25    7.17   0
   5  -6  41    9.38    8.59   0
   2  -6  17   -1.61    6.43   0
   3  -2  38  330.69   10.00   0
   6  -4  46  104.61    9.00   0
   6  -3  45   -2.71    7.89   0
   3  -5  35    0.17    7.90   0
   3  -3  39   -1.12    6.95   0
   4  -6  37    1.56    7.05   0
   5  -8  31    5.13    7.58   0
   5  -4  45   -5.65    8.42   0
   5  -2  43   -2.52    7.21   0
   1   0  22  451.04   11.91   0
   2  -2  34  275.73    9.61   0
   2   0  29   -3.04    5.39   0
   3  -7  22  184.17    9.71   0
   3  -1  37    3.74    6.39   0
   3   0  33   -4.60    6.06   0
   4  -7  32  308.43   11.47   0
   4  -3  43    6.45    7.79   0
   6  -6  45    0.23    7.88   0
   7  -4  47    6.58    8.44   0
   1  -5   9    2.18    5.30   0
   2  -1  33    6.47    6.06   0
   4  -8  24  324.34   11.36   0
   6  -5  47   -2.46    7.77   0
   1  -3  25    3.66    5.46   0
   1  -1  26 1165.88   16.40   0
   2  -6  20  639.38   13.46   0
   4  -5  42  231.90   10.53   0
   5  -9  23    5.74    8.31   0
   5  -7  39    7.61    8.47   0
   6  -7  43   -0.93    8.53   0
   1  -2  27   -5.71    5.31   0
   2  -4  33    0.42    7.21   0
   2  -3  35   -5.34    6.76   0
   4  -4  44  386.34   11.70   0
   1  -5  12  908.14   15.72   0
   3  -7  25    1.48    7.64   0
   3  -4  40  495.79   12.57   0
   5  -8  34  140.11    9.31   0
   5  -6  44  165.10   10.03   0
   5  -5  46   91.55    8.75   0
   3  -5  38  105.58    8.91   0
   4  -6  40  257.87   11.33   0
   4  -1  41    2.27    6.56   0
   5  -3  47   -0.56    7.82   0
   3  -2  41   11.75    6.03   0
   4  -8  27    0.92    7.31   0
   6  -4  49   -5.46    7.58   0
   1  -5  15    9.11    6.07   0
   2  -6  23    1.33    6.90   0
   5  -4  48  131.96    8.92   0
   0  -2  14  335.66   10.48   0
   1  -3  28 1312.33   16.71   0
   1   0  25    0.48    5.03   0
   2  -5  31    2.70    6.29   0
   2  -2  37    0.70    5.65   0
   4  -3  46   87.28    8.91   0
   5  -7  42   99.08    9.30   0
   5  -2  46   48.44    7.61   0
   1  -2  30  605.95   12.09   0
   1  -1  29   -2.41    5.93   0
   2  -1  36  893.57   15.06   0
   2   0  32  618.72   13.16   0
   3  -7  28  375.43   11.88   0
   3  -1  40  453.47   11.95   0
   4  -5  45   -1.35    8.30   0
   4  -2  45    3.08    7.35   0
   5  -8  37   -9.33    8.23   0
   6  -5  50   69.55    8.91   0
   2  -4  36  381.41   10.66   0
   2  -3  38  339.18   10.21   0
   3  -6  36  305.61   11.21   0
   3   0  36  806.33   15.19   0
   4  -4  47   -7.89    8.26   0
   1  -5  18  385.64   11.06   0
   1  -4  26  639.61   12.36   0
   2  -6  26  380.46   11.30   0
   3  -5  41    6.82    8.12   0
   3  -4  43    5.46    6.76   0
   4  -8  30  103.50    9.34   0
   4  -6  43    1.07    8.32   0
   5  -9  29    5.57    7.67   0
   5  -6  47    0.28    8.81   0
   5  -5  49    8.67    7.43   0
   0  -2  17    0.71    5.52   0
   0  -3  12 2505.72   25.23   0
   1  -3  31   -0.94    6.69   0
   2  -5  34  449.89   11.99   0
   3  -7  31    0.29    8.05   0
   3  -2  44  343.54   11.10   0
   5  -3  50  179.77   10.18   0
   4  -1  44  276.45   10.86   0
   5  -7  45   -4.20    8.11   0
   5  -4  51   -2.30    7.90   0
   6  -4  52  112.14    8.73   0
   1  -5  21    6.88    5.44   0
   1  -2  33    4.58    6.35   0
   2  -4  39   -5.27    7.75   0
   3  -6  39    3.53    8.51   0
   4  -8  33    6.92    7.95   0
   4  -3  49    4.36    8.07   0
   0  -3  15    3.92    5.36   0
   0  -1  19   -2.56    4.85   0
   1  -4  29    6.62    5.80   0
   1  -1  32 1765.53   19.44   0
   1   0  28 1292.08   17.99   0
   2  -6  29    3.64    6.19   0
   2  -3  41   -1.88    7.52   0
   0  -2  20 3468.94   27.38   0
   2  -1  39   11.42    6.35   0
   2   0  35    0.68    5.73   0
   3  -5  44  255.35   11.17   0
   3  -4  46   70.49    8.98   0
   3  -1  43   -2.33    6.68   0
   4  -6  46  102.78    9.31   0
   4  -2  48  295.61   10.71   0
   5  -6  50   70.63    9.15   0
   1  -5  24  926.27   15.35   0
   2  -5  37   -4.99    7.34   0
   3  -7  34  178.07    9.77   0
   1  -3  34  602.47   12.21   0
   3   0  39   -1.07    5.81   0
   1  -4  32  888.54   15.03   0
   2  -6  32  346.24   11.31   0
   4  -8  36  114.76    8.95   0
   0  -2  23    1.65    5.06   0
   0  -1  22  482.38   11.29   0
   1  -2  36  925.35   14.79   0
   2  -7  21   -8.07    7.01   0
   2  -4  42  412.53   11.88   0
   3  -6  42  155.80    9.74   0
   3  -2  47   -9.04    7.50   0
   1  -5  27    3.22    6.57   0
   4  -7  44  154.69    9.76   0
   4  -5  51  -10.05    8.16   0
   5  -4  54   44.60    8.31   0
   5  -3  53   -4.11    7.98   0
   1   0  31   -4.40    5.44   0
   2  -3  44  334.05   10.47   0
   3  -7  37    5.16    7.88   0
   4  -6  49    3.08    8.29   0
   4  -3  52  208.11    9.94   0
   1  -3  37    8.59    7.33   0
   2  -7  24  325.27   11.12   0
   2  -5  40  463.07   11.70   0
   2  -1  42  330.79   10.60   0
   3  -5  47   -2.20    7.48   0
   0  -4  10  407.52   11.27   0
   0  -2  26 1274.62   16.55   0
   0  -1  25   -5.53    5.78   0
   1  -4  35   10.30    6.96   0
   2  -6  35    3.39    6.50   0
   2   0  38  249.25    9.56   0
   3  -1  46  131.84    8.75   0
   4  -8  39   -1.07    7.49   0
   4  -2  51   -3.45    7.21   0
   0  -4   7   -0.82    5.15   0
   0  -4  13    1.46    5.65   0
   0  -3  24 1030.55   15.10   0
   1  -6  16  623.42   13.91   0
   1  -5  30  313.59   10.36   0
   0  -4  16 1500.66   19.16   0
   1  -2  39   -6.10    6.96   0
   2  -4  45   -9.84    7.67   0
   3  -8  29   -1.94    7.63   0
   3  -6  45    6.36    7.76   0
   0   0  21   -5.26    5.50   0
   1  -6  19    0.28    6.35   0
   2  -7  27    3.19    7.41   0
   3  -7  40  148.13    9.72   0
   3  -3  51    0.56    6.75   0
   3  -2  50  179.70    9.94   0
   4  -7  47   -1.52    8.41   0
   0  -4  19   -5.04    5.86   0
   0  -2  29    3.46    6.00   0
   1  -3  40  493.96   12.19   0
   1   0  34  948.10   15.52   0
   2  -6  38   94.24    9.12   0
   2  -5  43    1.49    8.49   0
   2  -3  47   -4.01    7.79   0
   0  -3  27   -1.47    5.49   0
   0  -1  28 1393.04   17.35   0
   1  -5  33   13.73    6.97   0
   1  -4  38  176.09    9.58   0
   3  -8  32  217.13   10.79   0
   3  -5  50  180.55    9.82   0
   3  -4  52  187.42   10.64   0
   4  -6  52  119.15    9.83   0
   5  -4  57   -3.64    8.08   0
   5  -3  56   82.76    8.21   0
   1  -6  22  225.54    9.62   0
   2  -7  30   82.13    8.38   0
   2  -1  45    4.93    6.77   0
   4  -3  55   -0.81    8.34   0
   0  -4  22  716.03   13.15   0
   0   0  24 4808.52   33.57   0
   3  -6  48  138.56    9.72   0
   4  -4  56   78.67    8.96   0
   0  -3  30  301.88    9.98   0
   1  -6  25    6.60    6.75   0
   1  -2  42  332.07   10.13   0
   2  -4  48  289.59   11.28   0
   2   0  41    5.66    6.01   0
   3  -7  43    7.65    7.76   0
   3  -1  49    1.30    6.96   0
   4  -2  54   42.74    8.33   0
   0  -4  25    0.24    6.40   0
   0  -2  32  648.60   12.47   0
   0  -1  31   -0.18    5.84   0
   1   1  27    0.15    4.71   0
   2  -5  46   41.99    8.61   0
   3  -8  35   -4.07    8.50   0
   1  -4  41    4.97    7.75   0
   1  -3  43    0.68    6.72   0
   1  -1  41   -0.78    5.75   0
   2  -7  33    9.55    7.66   0
   2  -2  49   -1.53    7.57   0
   3  -3  54   86.56    8.58   0
   1  -6  28  418.83   11.66   0
   1   0  37    3.15    5.93   0
   3  -5  53   -1.46    8.35   0
   3  -2  53    9.08    7.90   0
   4  -5  57    9.17    7.73   0
   0  -4  28  629.60   13.06   0
   0  -3  33    1.70    6.87   0
   3  -4  55   -6.51    8.05   0
   0  -2  35    4.86    5.88   0
   2  -1  48  346.78   11.06   0
   3  -7  46   70.73    8.66   0
   3  -6  51    0.54    8.11   0
   4  -3  58  111.34    9.08   0
   0  -1  34  989.02   14.77   0
   1  -6  31    0.53    7.61   0
   1  -2  45   -2.07    6.51   0
   2  -7  36  257.77   11.06   0
   2  -4  51    5.67    8.63   0
   3  -8  38   48.32    7.78   0
   4  -4  59    1.87    7.53   0
   1  -4  44  290.38   10.30   0
   1  -3  46  130.61    9.00   0
   1   1  30  575.92   13.29   0
   2  -5  49   11.69    7.86   0
   2   0  44  689.66   14.01   0
   1  -1  44  437.80   11.09   0
   2  -2  52  189.06   10.17   0
   3  -1  52  276.03   10.85   0
   0  -5  17   -0.92    5.70   0
   0  -2  38  247.18    9.80   0
   1   0  40  753.73   14.11   0
   2  -3  53    7.29    7.12   0
   3  -5  56  103.28    9.44   0
   3  -3  57    1.88    8.51   0
   0  -5  11    0.10    5.54   0
   0  -5  20  679.73   13.88   0
   0  -1  37    5.51    6.74   0
   1  -6  34  222.23    9.59   0
   1  -5  42  178.40   10.03   0
   2  -7  39    3.15    7.85   0
   3  -2  56  181.67    9.76   0
   0  -5  23   -0.54    6.04   0
   1  -2  48  335.11   10.96   0
   0  -3  39    2.72    6.96   0
   1  -4  47   -5.17    7.09   0
   2  -5  52  154.02    9.77   0
   2  -4  54   32.12    8.06   0
   2  -1  51   -1.14    6.77   0
   0  -5  26  224.88    9.69   0
   1  -6  37    7.39    7.65   0
   1  -3  49    7.56    6.84   0
   1  -1  47   10.06    6.99   0
   1   1  33    5.14    5.46   0
   4  -3  61    4.90    6.92   0
   0  -4  37    9.99    7.51   0
   0  -2  41   -4.28    6.27   0
   2  -7  42  143.11    9.33   0
   2   0  47   -3.14    6.43   0
  -1  -2  19   -2.58    4.86   0
   0  -5  29    1.34    6.62   0
   0  -1  40  773.85   14.13   0
   1  -5  45   -0.27    6.98   0
   1   0  43    1.22    6.38   0
   2  -2  55    2.40    7.65   0
  -1  -2  22  457.93   10.79   0
  -1  -1  18 1173.28   17.00   0
   0  -3  42  326.47   11.15   0
   2  -6  50  100.44    9.33   0
   3  -3  60   96.44    9.42   0
  -1  -2  25    7.17    5.88   0
  -1  -1  15    1.84    4.76   0
  -1  -1  21   23.12    5.37   0
   0   0  36  572.26   11.87   0
   1  -6  40  219.68   10.44   0
   1  -4  50  202.60   10.64   0
   3  -2  59   -5.92    8.71   0
  -1  -1  24 1827.87   19.68   0
   0  -4  40  470.61   12.06   0
   1  -3  52  281.02   11.33   0
   1   1  36  904.15   16.19   0
   2  -7  45    7.84    8.18   0
   2  -5  55    6.31    8.63   0
   2  -4  57    9.80    8.73   0
  -1  -3  17    3.84    5.51   0
  -1  -2  28 1369.71   17.41   0
   1  -5  48  226.12   10.37   0
   1  -1  50  275.50   10.72   0
   2  -1  54  113.31    8.66   0
  -1  -3  23   18.14    6.41   0
  -1  -1  27    4.66    5.19   0
   0  -5  35   -6.20    7.48   0
   0  -1  43    4.62    6.07   0
  -1  -2  31    6.28    6.58   0
   0  -3  45    5.30    6.77   0
   0   0  39   -2.46    6.20   0
   0   1  26 1110.12   17.13   0
   1  -6  43   15.88    8.06   0
   1   0  46  106.90    8.28   0
   2  -6  53    1.66    7.81   0
   2   0  50  196.58   10.06   0
  -1  -1  30  636.13   12.23   0
   0  -4  43    8.18    7.89   0
   1  -7  32  250.93   10.38   0
   1  -4  53    9.85    8.32   0
   2  -2  58   82.52    8.44   0
  -1  -3  11   30.22    6.00   0
   0  -2  47   -8.53    7.83   0
   0   1  29   -0.98    5.03   0
   1  -3  55    1.33    8.56   0
   2  -5  58  119.72    9.72   0
   3  -3  63   -5.37    7.29   0
  -1  -2  34  597.21   12.63   0
   0  -5  38  215.21    9.14   0
   1  -5  51    0.32    8.04   0
   1   1  39   -7.85    6.05   0
   2  -4  60  103.55    9.26   0
  -1  -3  32  913.96   14.88   0
  -1  -1  33    2.98    5.75   0
  -1   0  20 1519.19   19.08   0
  -1   0  23    0.29    5.76   0
   0  -3  48  224.87   10.45   0
   1  -7  35   -3.18    7.20   0
   1  -6  46   69.13    8.55   0
   1  -1  53    2.64    7.85   0
   3  -2  62   41.52    7.65   0
   0  -4  46  154.86    9.69   0
   0   0  42  784.72   13.59   0
   2  -1  57    6.00    6.89   0
  -1  -3  35   -1.20    7.17   0
  -1  -2  37    7.66    6.15   0
  -1  -1  36  938.91   14.95   0
   0  -6  27    7.71    7.42   0
   0  -5  41   -4.11    8.04   0
   0   1  32 1657.85   19.87   0
   1  -4  56  138.36    9.72   0
   1   0  49    5.22    6.89   0
  -1  -4  18  393.45   10.93   0
  -1  -4  21    5.00    6.29   0
  -1  -4  24  904.82   15.33   0
  -1   0  29   -0.40    5.25   0
   0  -2  50  219.30    9.50   0
   1  -7  38   51.26    7.75   0
   1  -2  57    2.10    8.27   0
   2  -3  62   54.88    8.96   0
   2  -2  61   -0.98    8.05   0
  -1  -4  27    0.73    6.81   0
   0  -6  30  114.98    8.71   0
   1  -6  49   -4.03    7.82   0
   1  -5  54   41.29    8.80   0
   1  -3  58   98.79    9.18   0
   1   1  42  321.94   10.97   0
  -1  -4  15   12.50    6.12   0
  -1  -4  30  317.59   10.70   0
  -1  -3  38  182.90    9.16   0
  -1  -2  40  431.32   11.82   0
  -1   0  32 1793.95   19.68   0
   0  -5  44  175.32   10.40   0
   0  -4  49   -4.62    8.11   0
   0  -3  51   -6.34    7.18   0
   0   0  45    3.43    7.05   0
   0   1  35   -2.86    5.92   0
  -1  -1  39   -3.52    6.04   0
   0  -6  33   -0.93    7.17   0
   1  -7  41    1.37    7.01   0
   1  -1  56  219.05   10.35   0
  -1  -4  33    0.11    7.26   0
  -1  -4  12  898.62   16.02   0
  -1  -3  41   -0.92    7.33   0
  -1  -2  43    1.11    7.81   0
  -1   0  35   -0.41    5.50   0
   0  -6  36  225.20    9.83   0
   0  -2  53    2.79    6.83   0
   1  -4  59    4.63    8.17   0
   1   0  52  315.41   10.96   0
  -1  -4  36  307.56   10.76   0
  -1  -1  42  332.52   10.12   0
   0  -3  54   75.78    9.60   0
   0   1  38  265.87    9.63   0
   1  -5  57    5.74    7.87   0
   1  -2  60  141.49    9.93   0
  -1   0  38  263.59    9.68   0
   0  -4  52  136.70    9.10   0
   0   0  48  459.61   12.14   0
   1  -3  61   -5.39    7.95   0
   1   1  45    1.03    5.97   0
   2  -2  64  118.21    9.20   0
  -1  -3  44  298.37   11.04   0
   0  -6  39    1.42    7.90   0
  -1  -4  39   -7.09    6.60   0
  -1  -2  46  151.31    9.47   0
   1  -1  59   -0.66    7.86   0
  -1  -4   9    1.67    5.72   0
  -1  -1  45    6.69    6.45   0
   0  -2  56   93.34    8.10   0
   0   1  41    0.62    6.11   0
   0  -6  42  124.27    9.61   0
   0  -4  55   -2.92    8.33   0
   0  -3  57    5.67    8.05   0
   0  -1  55   -1.98    8.20   0
   1   0  55    4.72    7.05   0
  -1  -5  22  206.99    9.31   0
  -1  -5  25    6.82    6.61   0
  -1  -5  28  434.45   11.52   0
  -1  -3  47    5.01    6.90   0
   0   0  51   -0.40    7.12   0
  -1  -5  31    0.55    7.27   0
  -1  -2  49   -1.79    6.98   0
  -1  -1  48  344.72   11.01   0
   1  -2  63    7.16    7.35   0
  -1  -5  34  225.52    9.98   0
  -1   1  31    0.15    5.50   0
   0  -6  45   -1.02    8.07   0
   0   1  44  442.75   11.62   0
  -2  -2  27   -0.54    6.51   0
  -1  -3  50  205.24   10.42   0
  -2  -2  30  199.08    8.40   0
  -2  -1  23    5.62    5.17   0
  -2  -1  26  511.54   11.13   0
  -2  -1  29    7.08    5.65   0
  -1  -5  37    0.61    7.61   0
  -1   1  34  915.51   14.83   0
   0  -4  58   64.65    8.77   0
   0  -3  60  154.25    9.66   0
   1  -1  62   40.62    8.27   0
  -2  -2  33   -0.77    6.04   0
  -2  -1  20 1412.67   17.81   0
  -2  -1  32 1262.19   16.14   0
  -1  -2  52  280.15   10.14   0
  -1  -1  51    1.13    7.81   0
   0  -6  48  112.31    8.75   0
   0  -1  58  161.23    9.38   0
   0   0  54   41.00    7.70   0
   1   0  58  150.76    9.05   0
  -2  -2  18 1040.29   15.71   0
  -2  -2  36  406.67   11.36   0
  -2  -1  35   -3.04    6.09   0
  -1  -5  40  208.12    9.87   0
  -1   1  37   -4.10    6.00   0
   0   1  47    2.54    6.52   0
  -2  -3  25   -5.71    6.48   0
  -2  -3  28  411.88   11.15   0
  -2  -3  31   -1.80    6.87   0
  -1  -3  53   -2.10    8.11   0
  -2  -3  22  289.98    9.93   0
  -2  -2  39   -6.11    6.47   0
  -2  -1  17   12.91    5.84   0
  -2  -1  38  334.58    9.97   0
  -1  -5  43    4.18    8.19   0
  -2   0  25   -4.05    6.02   0
  -2   0  28 1074.04   15.16   0
  -2   0  31   -2.41    5.44   0
  -1  -4  51    7.58    7.98   0
  -1  -2  55    0.49    8.49   0
  -1  -1  54  101.69    9.35   0
  -1   1  40  732.82   13.17   0
  -2  -3  19    6.29    6.05   0
  -2  -2  15   -2.47    4.54   0
  -2  -1  41    0.38    6.40   0
  -2   0  22 1967.79   20.50   0
  -2   0  34  286.76    9.13   0
  -1   0  50  273.71    9.66   0
   0  -3  63   -0.31    7.00   0
   0  -1  61   -0.16    7.52   0
   0   0  57    4.64    7.62   0
   1  -1  65   -8.23    7.78   0
   2  -6  47    1.00    8.11   0
   2  -4  45   -3.81    7.62   0
  -2  -6  10  177.54    9.68   0
  -1  -7  24  276.31   10.92   0
  -1  -4  33   -4.83    7.99   0
   1  -2  36  897.06   15.20   0
   2  -2  37   -1.07    5.91   0
  -2  -6  13   -5.31    7.44   0
  -2  -3  22  312.48    9.72   0
  -2  -2  18 1059.36   15.80   0
  -1  -3  32  922.51   14.49   0
  -1  -2  28 1354.55   16.94   0
   0  -6  39   -1.28    8.41   0
   0  -4  40  445.09   12.42   0
  -2  -5  21    8.85    6.86   0
  -1  -5  34  224.72   10.94   0
  -1  -1  21   20.21    5.44   0
   1  -4  44  285.69   11.09   0
   1  -1  29    1.31    5.29   0
  -2  -6  16  385.93   12.84   0
  -1  -6  32  259.65   10.85   0
   0  -7  37   -0.31    8.33   0
   0  -5  41    5.56    7.09   0
  -1  -7  27   -3.12    8.47   0
   0  -3  39    3.35    6.22   0
   1  -7  44  114.23    9.23   0
  -2  -5  24  331.08   11.67   0
  -2  -3  25    1.59    6.10   0
  -2  -2  21   -7.59    6.51   0
  -1  -4  36  334.04   11.15   0
   1  -6  46   65.49    8.37   0
   2  -5  49   -4.51    7.66   0
   2  -3  44  311.82   10.82   0
   3  -6  51    3.52    7.88   0
  -2  -6  19    4.05    7.35   0
  -1  -3  35    1.20    7.32   0
  -1  -2  31   -5.02    6.90   0
   1  -3  43    2.38    6.80   0
   2  -6  50   93.58    9.79   0
   2  -1  30  536.73   14.00   0
  -1  -7  30   75.92    9.30   0
  -1  -5  37    2.00    8.65   0
  -1  -1  24 1851.83   20.40   0
   0  -6  42  138.68    9.52   0
   2  -4  48  284.70   10.78   0
  -2  -1  11   15.66    5.81   0
  -1  -6  35    7.49    8.63   0
   0  -7  40  171.76    9.92   0
   0  -4  43   -2.62    7.00   0
   1  -2  39   -1.07    6.46   0
  -2  -6  22  113.21    9.57   0
  -2  -5  27    1.34    6.77   0
  -2  -4  29   -2.53    7.80   0
  -2  -3  28  416.92   10.87   0
  -2  -2  24 1918.12   20.22   0
   0  -5  44  191.12    9.89   0
   1  -4  47    7.75    7.95   0
  -2  -1  14 1594.11   19.46   0
   1  -1  32 1721.04   21.01   0
   2  -2  40  781.47   14.97   0
  -1  -4  39    9.02    7.02   0
  -3  -3   6  452.35   12.32   0
  -2  -6  25   -7.46    8.02   0
  -1  -7  33    0.42    8.45   0
  -1  -3  38  176.61    8.66   0
  -1  -2  34  600.78   12.30   0
  -1  -1  27    7.23    6.10   0
   0  -6  45    8.58    8.82   0
   0  -1  31   -2.78    4.95   0
  -3  -4   7    5.69    6.29   0
  -3  -4  10  386.32   11.41   0
  -3  -3   3    5.62    6.30   0
  -3  -3   9    4.40    6.25   0
  -3  -3  12  775.83   14.34   0
  -2  -4  32  378.90   11.83   0
  -2  -3  31    5.35    7.32   0
  -2  -2  27   -6.74    7.00   0
  -2  -1  17    9.23    5.28   0
  -1  -6  38   45.69    8.34   0
  -1  -5  40  217.76   10.19   0
   2  -5  52  130.87    9.19   0
  -3  -4  13    6.77    6.56   0
   1  -3  46  123.08    9.05   0
   2  -6  53    0.04    7.55   0
   2  -3  47   -1.67    6.77   0
  -3  -4  16  429.67   11.90   0
  -3  -3  15   -0.43    6.72   0
   0  -5  47    3.54    7.56   0
   2  -4  51    1.27    7.72   0
  -2  -1  20 1456.83   17.81   0
  -1  -4  42  186.36   10.14   0
   1  -5  51   -2.71    7.85   0
   1  -4  50  187.44   10.28   0
   1  -2  42  334.67   10.73   0
   2  -1  33    6.43    5.85   0
  -3  -4  19   -6.80    7.19   0
  -3  -3  18  429.23   10.87   0
  -2  -4  35   -5.85    8.23   0
  -2  -2  30  214.02    9.34   0
  -1  -3  41   -2.65    8.01   0
  -1  -2  37   -1.14    6.94   0
  -3  -2   8 2225.94   23.37   0
  -3  -2  11    7.08    5.94   0
  -2  -3  34  457.16   11.36   0
  -1  -6  41   -5.90    7.68   0
  -1  -5  43    3.20    8.66   0
  -1  -1  30  617.39   12.27   0
   0  -6  48  123.23    9.95   0
   0  -2  41    2.95    5.90   0
   0  -1  34  943.24   15.30   0
   1  -1  35    0.41    5.56   0
  -3  -5  14  142.59    9.36   0
  -3  -3  21   11.14    7.15   0
  -3  -2   5    7.18    5.61   0
  -3  -2  14  391.49   10.85   0
  -2  -6  31   -1.51    8.51   0
  -2  -1  23    2.10    6.27   0
   2  -2  43   -0.30    6.00   0
  -3  -5  17    9.11    7.61   0
  -3  -4  22  184.94    9.03   0
  -2  -5  36  256.81   11.21   0
  -3  -2   2  785.86   15.35   0
  -3  -2  17    7.26    5.55   0
   0  -5  50   70.71    8.70   0
   1  -3  49    6.84    7.57   0
   2  -5  55    3.75    7.40   0
  -3  -5  20  227.64   10.27   0
  -3  -4  25   11.07    7.90   0
  -2  -6  34  132.58    9.73   0
  -2  -4  38  106.17    8.89   0
  -2  -3  37   -8.29    7.84   0
  -2  -2  33    4.93    6.28   0
  -1  -4  45   12.38    7.13   0
  -2  -1  26  550.38   11.68   0
  -1  -6  44  131.70    8.91   0
  -1  -5  46   74.72    8.89   0
  -1  -3  44  298.18   11.13   0
  -1  -2  40  453.30   11.21   0
  -1  -1  33   -0.44    5.70   0
   1  -5  54   60.29    8.84   0
  -3  -5  23    8.76    7.49   0
   0  -3  48  199.86    9.32   0
   0  -2  44  724.87   14.10   0
   1  -4  53   -2.40    7.92   0
   1  -2  45   -5.47    6.60   0
   2  -4  54   32.24    7.57   0
  -3  -2  -1    0.69    5.05   0
  -3  -2  23    1.15    5.97   0
  -2  -5  39    5.78    7.77   0
   0  -1  37   -2.28    5.16   0
  -3  -5  26  203.79   10.58   0
  -2  -6  37    2.08    8.33   0
  -2  -4  41    8.25    8.73   0
  -2  -2  36  396.14   11.55   0
   1  -1  38  256.73    9.62   0
  -3  -2  26  676.23   13.48   0
  -2  -3  40  459.07   11.56   0
  -2  -1  29    1.41    5.79   0
  -1  -4  48  216.38   10.65   0
  -1   0  20 1473.16   19.13   0
   0  -4  52  138.62    9.75   0
   0   0  24 4470.60   34.33   0
  -3  -4  31    7.76    7.87   0
  -3  -5  29   -6.40    7.68   0
  -2  -5  42  147.66    9.74   0
  -1  -5  49    2.88    8.27   0
  -1  -3  47    1.49    8.51   0
   1  -3  52  271.09   10.64   0
   2  -5  58   93.82    8.69   0
  -3  -2  29    7.45    7.42   0
  -3  -1  10 1075.72   16.41   0
  -1   0  23   -1.45    4.73   0
   0  -3  51   -1.84    8.06   0
   1  -5  57   -5.38    7.52   0
  -3  -3  33   10.17    6.78   0
  -2  -4  44  251.08   10.86   0
  -2  -2  39   -2.30    6.67   0
  -2  -1  32 1226.11   16.22   0
   0  -2  47    2.76    7.28   0
   0  -1  40  747.77   14.22   0
   1  -4  56  129.09    9.63   0
  -3  -5  32  209.89   10.07   0
  -3  -1   7   17.29    5.60   0
  -3  -1  19   15.04    5.69   0
  -2  -3  43    5.40    7.11   0
   0   0  27   -0.06    5.13   0
  -1  -4  51   -7.57    8.10   0
  -3  -6  27    0.56    6.95   0
  -3  -3  36  324.90   11.46   0
  -3  -2  32  687.91   13.26   0
  -2  -5  45    3.46    8.11   0
  -1   0  26 1129.72   16.28   0
   0  -4  55   -2.81    7.94   0
   1  -1  41    1.21    5.75   0
  -3  -5  35    0.77    8.54   0
  -3  -1   4 1301.08   19.04   0
  -3  -1  25    1.07    6.77   0
  -2  -2  42  421.06   12.11   0
  -2  -1  35   -7.72    6.06   0
  -2   0  13   -2.89    4.81   0
  -2   0  16 3017.44   26.22   0
  -2  -4  47   -1.64    8.40   0
  -2  -3  46   55.59    9.27   0
  -2   0  19   -0.88    5.07   0
  -3  -2  35    1.03    7.91   0
  -2   0  22 1983.15   20.92   0
   0  -3  54   89.00    8.88   0
   0   0  30  158.44    8.04   0
   1  -3  55    2.49    7.30   0
  -4  -3  11   -0.72    7.18   0
  -4  -3  14  377.66   11.30   0
  -3  -3  39   -8.33    8.17   0
  -3  -1  28  737.27   13.12   0
   0  -2  50  181.80    9.74   0
   0  -1  43   -0.10    5.54   0
  -4  -4  18  193.81   10.53   0
  -4  -3  20  441.01   11.55   0
  -3  -5  38   58.46    8.38   0
  -3  -4  40  140.08   10.00   0
  -2  -1  38  330.89   10.00   0
  -1  -1  42  324.87    9.97   0
   1  -4  59    6.56    7.95   0
   1  -2  51    3.22    6.88   0
  -4  -4  21    3.07    7.39   0
  -4  -3  23    3.27    7.56   0
  -2  -2  45    1.12    7.70   0
  -2   0  25   -0.93    5.30   0
  -1  -2  49    1.22    7.77   0
  -4  -4  24  344.64   12.34   0
  -4  -3  26  181.34    9.85   0
  -4  -2  13    2.75    6.32   0
  -4  -2  16  762.40   14.36   0
  -4  -2  19    5.94    6.56   0
  -3  -2  38   96.77    8.20   0
  -3  -1  31   11.56    6.16   0
  -2  -4  50   99.05    9.51   0
   0  -4  58   68.05    8.46   0
   1  -1  44  434.99   12.28   0
  -4  -2  10  352.18   10.79   0
  -4  -2  22  373.11   11.27   0
  -3  -3  42  152.25    9.94   0
  -2  -3  49    1.93    7.88   0
   0   0  33   -0.26    5.40   0
  -4  -4  27   -3.33    7.77   0
  -4  -3  29    4.29    8.37   0
  -4  -2  25   -9.21    7.22   0
  -3  -4  43    4.33    8.20   0
  -2  -1  41    1.49    7.05   0
  -4  -2   7    1.24    6.37   0
  -3  -1  34  526.51   11.65   0
  -1  -1  45   12.67    6.76   0
   0  -3  57   -2.92    7.53   0
   0  -1  46  119.79    8.40   0
  -4  -4  30   90.75    9.00   0
  -3  -2  41   -3.76    6.96   0
  -2  -2  48  315.22   11.35   0
  -2   0  31    2.59    6.16   0
   0  -2  53   -5.21    7.77   0
   1  -3  58  109.82    8.44   0
  -4  -3  32  306.96   11.43   0
  -3  -3  45    8.57    8.33   0
  -1  -2  52  298.38   11.00   0
  -1   0  35    0.16    5.15   0
   1   0  31    1.76    5.16   0
  -3  -4  46   59.44    8.85   0
  -3  -1  37    4.54    7.63   0
  -3   0  18  538.86   11.95   0
  -2  -4  53    1.08    7.27   0
  -2  -3  52  146.07    9.68   0
  -1  -3  56  131.76    9.36   0
  -4  -4  33    1.15    7.92   0
  -4  -1  18  774.96   14.02   0
  -3   0  15   -0.65    4.89   0
  -3   0  21   -3.88    5.33   0
   0   0  36  576.34   12.29   0
  -4  -5  28   79.57    8.54   0
  -4  -1  15    3.16    5.31   0
  -3  -2  44  267.16   10.04   0
  -3   0  12 1969.41   21.39   0
  -3   0  24 1637.35   18.35   0
  -2   0  34  275.51    9.14   0
   1  -1  47    1.35    6.38   0
  -4  -4  36  130.17    9.85   0
  -4  -2  34  169.71   10.16   0
  -4  -1  12 1146.54   16.71   0
  -3   0  27    6.67    6.69   0
  -2  -2  51   -0.12    8.30   0
  -1  -1  48  337.04   11.20   0
  -1   0  38  266.36    9.69   0
   0  -1  49    5.57    6.82   0
  -4  -1  27   -0.84    7.23   0
  -3  -3  48  162.79    9.61   0
  -3  -1  40  481.76   11.52   0
   0  -3  60  149.20   10.47   0
   1   0  34  928.48   17.02   0
  -4  -1   9   21.53    6.14   0
  -2  -3  55    3.71    8.10   0
  -2   0  37   -1.89    6.36   0
  -1  -2  55    8.08    7.72   0
   0  -2  56  107.82    8.95   0
  -4  -2  37   -1.44    6.85   0
  -4  -1  30  196.61    8.81   0
  -3  -2  47   12.54    8.65   0
  -3   0  30  605.04   12.05   0
  -1  -3  59   -7.28    8.15   0
   0   0  39    0.07    5.77   0
  -4  -4  39    4.84    7.24   0
  -3  -1  43   -6.47    8.17   0
  -4  -3  41   -0.94    7.64   0
  -4  -1  33   -5.26    6.62   0
  -3  -3  51   -5.09    8.24   0
  -3   0  33  -10.23    6.08   0
  -1   0  41    0.84    5.41   0
  -4  -2  40  250.00    9.96   0
  -4  -1   6  369.64   10.95   0
  -1  -1  51    4.24    6.34   0
  -4  -1  36  508.01   12.57   0
   0  -1  52  308.66   10.87   0
   1   0  37   -1.43    5.65   0
  -4  -3  44  150.95    9.51   0
  -3  -1  46   89.63    9.46   0
   0   0  42  760.85   14.38   0
  -4  -2  43   -8.55    8.12   0
  -1  -2  58  112.11    8.86   0
   0  -3  63   -8.37    6.75   0
   0  -2  59    1.89    7.15   0
  -5  -3  22  119.45    8.98   0
  -4  -1  39   -3.20    7.58   0
  -4   0  20 1280.95   16.94   0
  -4   0  23    4.08    6.60   0
  -3  -3  54   46.23    8.18   0
  -1   0  44  421.72   10.85   0
  -5  -3  25    7.94    7.32   0
  -5  -2  18  183.01    9.33   0
  -5  -2  21    0.91    6.95   0
  -5  -2  24  466.05   12.24   0
  -4   0  26  746.98   13.62   0
  -3   0  39   -4.06    6.37   0
  -2  -2  57    0.25    8.36   0
  -1  -1  54  113.40    9.16   0
  -5  -3  28  172.23    9.91   0
  -5  -2  27   -3.09    7.73   0
  -4  -3  47   -6.31    7.90   0
  -4  -1   3    2.90    5.42   0
  -4   0  29   -0.38    6.77   0
  -3  -2  53    5.16    8.02   0
  -5  -3  31   -7.05    7.53   0
  -5  -2  15   -2.11    6.64   0
  -5  -2  30  196.57    9.95   0
  -4  -2  46  119.15    9.11   0
  -4  -1  42  236.84   10.65   0
  -4   0  14  326.33    9.49   0
  -2  -1  53   -8.33    8.19   0
  -4   0  32  498.23   11.32   0
  -3   0  42  246.66    9.97   0
  -2   0  46  274.55   10.43   0
   0  -1  55    2.91    6.70   0
   0   0  45    1.85    6.31   0
  -5  -3  34  137.14    9.31   0
  -5  -2  12  388.10   11.41   0
  -5  -2  33    7.08    7.52   0
  -2   1  21   20.67    5.23   0
  -2   1  24 1806.67   19.70   0
  -2   1  27   -1.44    5.97   0
  -1  -2  61   -1.62    7.52   0
  -1   0  47    4.82    6.85   0
  -5  -1  20  502.26   12.31   0
  -5  -1  23    2.74    6.09   0
  -5  -1  26  235.22   10.22   0
  -4   0  11   -1.16    4.86   0
  -4   0  35    0.28    6.47   0
  -2   1  18 1180.15   16.66   0
  -5  -3  37    5.34    7.44   0
  -5  -2  36  160.52    9.41   0
  -5  -1  17    4.92    6.66   0
  -5  -1  29   10.53    6.37   0
  -4  -2  49    7.01    7.71   0
  -4  -1  45    5.92    7.12   0
  -3  -2  56  112.62    9.26   0
  -2  -2  60  109.44    9.57   0
  -2   1  30  602.44   11.97   0
  -1   1  28 1279.18   17.61   0
  -4   0  38  144.05    9.09   0
  -3   0  45   -7.71    6.62   0
  -2  -1  56  203.63   10.40   0
  -2   1  15    6.25    5.59   0
  -1  -1  57   -3.01    7.73   0
  -5  -1  14  411.39   10.82   0
  -3   1  23    3.55    5.28   0
  -3   1  26  541.09   11.43   0
  -2   0  49   -1.55    7.36   0
  -1   1  31    1.03    5.47   0
  -4  -1  48  161.40    9.85   0
  -4   0   8 1502.67   18.69   0
  -3   1  29    1.78    5.66   0
  -1   0  50  278.98   10.37   0
   0   0  48  450.57   12.02   0
  -5  -1  11    4.26    6.16   0
  -4  -2  52  118.59    9.68   0
  -4   0  41    6.58    6.78   0
  -3   1  17   10.00    5.16   0
  -1   1  34  959.78   15.35   0
  -5  -1  38  142.55    8.61   0
  -3   0  48  317.21   10.43   0
  -1  -2  64   57.39    7.74   0
  -3   1  35   -2.63    6.84   0
  -5  -1  41   -0.69    7.96   0
  -5   0  22  248.11    9.72   0
  -4  -1  51    0.31    8.01   0
  -4   0  44  444.34   11.56   0
  -3   1  14 1594.52   18.87   0
  -2  -1  59   -2.40    7.67   0
  -2   0  52  200.35   10.12   0
  -2   1  39   -3.88    6.53   0
  -1  -1  60  155.56    9.27   0
  -1   1  37   -9.55    6.00   0
  -5  -1   8  803.66   15.18   0
  -5   0  19   -2.03    6.51   0
  -5   0  31   -5.91    6.45   0
  -3   1  38  337.71   10.39   0
  -1   0  53    3.24    6.99   0
  -5   0  34  268.76   10.81   0
  -4   0   5   -0.40    4.38   0
  -4   1  25    4.63    5.70   0
  -4   1  28  707.71   13.40   0
  -5  -1  44  167.65   10.30   0
  -5   0  16  705.98   13.02   0
  -4   0  47    4.35    8.16   0
  -4   1  31    7.10    6.24   0
  -2   1  42  338.15   10.57   0
   0   1  29    1.98    4.78   0
  -5   0  37   -6.11    6.87   0
  -4  -1  54   48.83    8.49   0
  -4   1  19   15.43    5.44   0
  -3   1  11   19.20    5.04   0
  -3   1  41    8.92    7.20   0
  -1   1  40  724.69   13.40   0
  -5   0  13    6.39    6.15   0
  -2   0  55    2.90    7.34   0
   0   1  32 1685.16   21.28   0
  -5  -1  47    9.41    8.10   0
  -4   1  16 2039.03   20.42   0
  -4   1  37   -0.74    6.44   0
  -2  -1  62   50.86    7.88   0
  -6  -2  26  193.51    9.47   0
  -6  -2  29    2.86    7.21   0
  -4   0  50  176.39    9.75   0
  -2   1  45    3.52    6.90   0
  -1  -1  63   -0.15    6.82   0
  -1   0  56  208.28    9.92   0
  -1   1  43    0.16    6.17   0
   0   1  35   -0.40    5.85   0
  -6  -2  32  183.17    9.49   0
  -5   0  43    5.97    8.18   0
  -3  -1  61   -5.04    8.18   0
  -6  -2  35    3.82    7.24   0
  -6  -1  22  162.58    9.47   0
  -6  -1  25   -6.00    7.56   0
  -6  -1  28  155.94    9.74   0
  -6  -1  31   -4.94    7.59   0
  -5  -1  50   75.26    8.87   0
  -5   0  10  692.37   13.54   0
  -4  -1  57   -5.45    7.73   0
  -6  -1  34  181.67    9.68   0
  -4   0   2 1318.87   19.19   0
  -4   1  43    3.53    7.89   0
  -2   0  58  102.32    9.31   0
  -6  -1  19    4.31    7.11   0
  -6  -1  37   -3.34    8.56   0
  -5   0  46   90.99    9.26   0
  -5   1  27    0.87    7.26   0
  -5   1  30  190.48    9.10   0
  -4   0  53   -0.35    7.62   0
  -3   0  57   -6.96    7.81   0
  -2   1  48  335.47   10.90   0
  -1   1  46  124.32    8.22   0
   0   1  38  250.32    9.47   0
  -5   1  24  667.53   12.57   0
  -5   1  33    8.68    7.56   0
  -6  -1  16  607.13   13.54   0
  -6  -1  40  214.42   10.04   0
  -5   1  36  512.95   12.38   0
  -4   1  46   91.49    8.81   0
  -6   0  24  642.34   13.57   0
  -6   0  30  165.90    9.96   0
  -5   0  49   -1.52    7.93   0
  -3   1  50  180.62    9.74   0
   0   1  41   -1.53    6.07   0
  -6  -1  43    3.89    8.27   0
  -6   0  21    3.35    7.20   0
  -6   0  33   -7.85    6.62   0
  -5   0   7    4.71    5.65   0
  -5   1  39    3.41    6.98   0
  -4   0  56   73.59    8.97   0
  -2   1  51   -5.07    6.98   0
  -4   1  49   -2.77    8.21   0
  -3   0  60  114.83    8.80   0
  -2   0  61    0.57    7.25   0
  -1   1  49    2.84    6.39   0
  -6   0  18  268.80   10.13   0
  -5   0  52  179.87   10.32   0
  -5   1  15   12.07    6.27   0
  -3   1  53   -6.25    7.69   0
  -3   2  28 1375.14   17.34   0
  -3   2  31    2.83    6.53   0
  -6   0  42  126.32    9.83   0
  -5   1  45   -5.45    8.25   0
  -3   2  25   12.69    5.55   0
  -6   0  15    0.37    6.53   0
  -4   1   7   16.66    4.98   0
  -4   2  27   -1.80    6.29   0
  -4   2  30  200.06    8.46   0
  -4   2  33   -0.85    6.91   0
  -3   2  22  482.72   11.38   0
  -2   1  54  109.98    9.00   0
  -6   0  45   12.45    8.06   0
  -5   0  55   -0.40    7.76   0
  -5   1  12 1134.80   16.33   0
  -4   2  24 1887.82   19.70   0
  -2   2  32  616.11   12.59   0
  -1   1  52  312.69   10.83   0
  -6   1  26  233.14   10.04   0
  -5   0   4 1129.86   17.44   0
  -5   1  48  128.88    9.17   0
  -4   0  -1    3.81    4.95   0
  -3   0  63    4.14    7.82   0
  -3   1  56  197.31   10.35   0
  -2   0  64  108.16    8.76   0
  -2   2  35    1.99    6.04   0
  -6   1  23   -3.53    7.16   0
  -6   1  35   -1.22    6.80   0
  -4   2  21    4.14    5.48   0
  -4   2  39   -2.22    6.41   0
  -3   2  19   -2.02    5.23   0
  -2   2  23   -1.30    4.80   0
  -2   2  38  260.66    9.75   0
  -6   0  12  364.77   10.84   0
  -6   0  48  163.01   10.22   0
  -6   1  38  153.04   10.00   0
  -3   2  43   -3.10    6.67   0
  -6   1  41    5.96    8.05   0
  -5   1  51    0.81    8.37   0
  -5   2  29   -1.61    6.88   0
  -5   2  32  704.05   13.45   0
  -4   2  18 1066.54   15.35   0
  -4   2  42  408.21   10.94   0
  -2   1  57   -0.55    7.43   0
  -2   2  41    4.67    6.61   0
  -5   1   9   21.88    6.21   0
  -5   2  26  629.83   12.32   0
  -5   2  35   11.03    6.70   0
  -3   2  16 2088.74   21.31   0
  -2   2  20 3457.53   27.50   0
  -7  -1  30   36.09    7.39   0
  -7  -1  33    0.43    7.45   0
  -5   2  23    5.73    6.99   0
  -5   2  38   96.55    8.07   0
  -3   1  59    4.16    7.84   0
  -3   2  46  145.22    9.05   0
  -6   1  17    1.45    5.99   0
  -5   1  54   54.35    8.40   0
  -5   2  41    7.13    7.89   0
  -4   1   4 1249.03   17.95   0
  -4   1  58  121.94    9.25   0
  -2   2  44  707.61   13.78   0
  -7   0  29    7.33    8.00   0
  -7   0  32  281.51   11.07   0
  -6   0   9   -2.21    6.00   0
  -6   1  47  -13.00    8.38   0
  -5   2  20  612.87   12.58   0
  -4   2  15    5.91    5.19   0
  -7   0  26  222.52    9.95   0
  -7   0  35   -0.15    8.07   0
  -5   2  44  242.87   10.84   0
  -3   2  49   -7.88    7.75   0
  -2   1  60  149.22    9.50   0
  -2   2  17    1.07    4.69   0
  -1   2  30  592.97   12.83   0
  -1   2  33    6.71    5.59   0
  -7   0  23    2.64    8.41   0
  -7   0  38   34.95    8.52   0
  -6   1  14  419.69   11.39   0
  -3   2  13   29.33    6.31   0
  -2   2  47   -4.77    6.75   0
  -1   2  27   -1.31    5.09   0
  -1   2  36  888.72   15.28   0
  -5   1  57   -0.66    7.74   0
  -5   2  17    0.86    5.53   0
  -5   2  47    4.51    8.47   0
  -7   0  20  162.16   10.22   0
  -6   2  28  468.10   11.94   0
  -6   2  31    9.01    6.71   0
  -6   2  34  180.22    9.89   0
  -5   1   6  365.85   10.64   0
  -4   1  61    4.92    8.00   0
  -4   2  51    5.13    6.62   0
  -1   2  39    1.62    5.73   0
  -6   2  37    8.48    7.05   0
  -4   2  12  782.35   13.46   0
  -7   1  28  172.95    9.58   0
  -7   1  31   -2.41    8.16   0
  -7   1  34  178.47   10.31   0
  -7   1  37    1.67    8.29   0
  -6   2  40  270.38   10.04   0
  -2   2  14  341.41   10.43   0
  -2   2  50  199.39    9.65   0
  -1   2  42  351.62   10.70   0
  -7   1  25   -3.53    7.49   0
  -6   1  11   11.66    6.44   0
  -6   2  43   10.17    8.26   0
  -4   2  54   44.10    8.27   0
  -3   2  55    0.77    7.79   0
  -1   2  21   15.22    5.32   0
  -7   1  22  167.46    9.69   0
  -6   2  19   -7.57    6.66   0
  -6   2  46  114.25    9.45   0
  -3   2  10 2025.66   21.49   0
  -1   2  45   -2.88    6.09   0
   3  -1  10 2034.62   22.03   0
   4  -3  -2  873.35   16.42   0
   5   4  13   -0.05    8.22   0
   6  -2   8  928.73   15.21   0
   6   3  12  156.58    9.81   0
   7  -2   6  177.69    9.09   0
   9  -1  -2  102.40    9.39   0
   4   0  16 1543.75   18.66   0
   7  -3   1    5.36    7.44   0
   9  -3  -9    3.54    7.91   0
   9  -2  -4  208.16   10.20   0
   3   0  15   -1.33    6.14   0
   3   2  19   12.71    6.52   0
   6  -4  -8  886.28   16.13   0
   6   0  15   -0.34    8.03   0
   7   1  12  199.07   10.39   0
   8  -1   6  195.92    9.89   0
   5   2  18  396.06   12.07   0
   6  -3   3    2.23    6.74   0
   6  -1  13   13.44    6.70   0
   7  -1  11    5.92    8.37   0
   7   2  11   -4.56    8.33   0
   8   1   7    2.88    8.36   0
   4   3  19   -3.19    7.31   0
   5   0  17    4.16    7.14   0
   5   3  17   -7.66    8.33   0
   7  -4  -7    3.39    7.03   0
   7   0  13    0.92    8.42   0
   8   0   8  254.02   11.07   0
   9  -1   1   -0.66    8.32   0
   4   2  20  616.78   13.34   0
   5  -2  10  742.64   13.85   0
   6   2  16  392.77   11.31   0
   8  -4  -9    3.93    7.26   0
   9  -3  -6   81.58    8.95   0
   9  -2  -1  -10.42    8.74   0
   4  -1  14  704.91   13.51   0
   6   1  17   -1.95    7.05   0
   7  -2   9   -1.68    7.52   0
   4   4  18  193.75   10.12   0
   6   3  15    1.50    7.87   0
   7  -3   4  694.79   13.90   0
   8  -1   9   -8.63    8.44   0
   4  -2   9    0.27    5.90   0
   5   4  16  333.20   11.78   0
   6  -4  -5   -6.17    6.72   0
   6  -2  11    3.04    6.31   0
   8  -3   2  255.56   11.14   0
   8  -2   7   -1.94    8.66   0
   3   3  21   -1.60    6.71   0
   7   1  15   -4.43    8.05   0
   7   2  14  128.94   10.06   0
   8  -4  -6  227.71   10.71   0
   8   0  11   -0.70    8.33   0
   8   1  10  109.61    9.81   0
   9  -3  -3   -3.73    8.04   0
   9  -2   2   79.86    9.09   0
   9  -1   4  188.06   10.30   0
   3   4  20  381.30   11.84   0
   6  -3   6  487.38   12.05   0
   6   0  18  410.52   11.95   0
   7  -1  14  154.30    9.59   0
   4  -3   1   25.19    5.82   0
   4   0  19    6.43    6.82   0
   6  -1  16  640.13   12.96   0
   7   0  16  553.27   13.65   0
   2   0  14  346.92   10.29   0
   3  -1  13   23.38    6.42   0
   5  -3   5    9.57    5.39   0
   5   2  21    6.00    6.54   0
   5   3  20  222.29   10.26   0
   6   2  19   -3.44    8.17   0
   1   2  17   14.03    5.09   0
   5   0  20  694.61   13.13   0
   7  -3   7    3.01    7.82   0
   7  -2  12  513.87   12.11   0
   8  -1  12  194.16   10.54   0
   9  -3   0  334.55   11.57   0
   3   0  18 1314.44   17.61   0
   5  -2  13    1.21    6.70   0
   6   3  18  106.40   10.22   0
   8  -4  -3   -7.32    7.00   0
   8  -3   5   -1.28    6.87   0
   8  -2  10  195.04   10.38   0
   8   1  13    0.73    8.73   0
   9  -1   7    1.33    8.55   0
   4   2  23   -2.49    6.84   0
   5  -4  -6  810.08   16.24   0
   5  -1  18  382.84   10.99   0
   6  -4  -2  633.98   13.58   0
   6  -2  14  288.76   10.48   0
   7  -4  -1   12.43    6.93   0
   8   0  14  128.97   10.11   0
   1   3  19   12.46    5.81   0
   4  -1  17    0.44    6.53   0
   7   2  17   -4.96    8.00   0
   2   2  21    0.99    5.75   0
   6  -3   9    6.22    6.92   0
   7  -1  17    4.00    7.39   0
   9  -3   3   13.40    8.66   0
   4  -2  12  795.98   14.14   0
   6  -1  19   -2.43    7.32   0
   6   0  21    6.40    6.91   0
   7   0  19   -2.79    8.92   0
   9  -4  -5    9.97    7.88   0
   7  -2  15    2.07    7.73   0
   8  -4   0  523.10   13.17   0
   8  -3   8  486.27   12.87   0
   8  -1  15   -7.94    8.88   0
   9  -1  10  108.72    9.81   0
   3  -2   8 3213.38   28.48   0
   3   3  24  596.90   13.41   0
   4  -3   4 1295.50   18.49   0
   5  -3   8 2208.96   21.99   0
   5   2  24  324.83   11.29   0
   6   2  22  113.14    9.50   0
   7  -3  10  391.58   10.95   0
   8  -2  13   -0.23    8.75   0
   4   0  22  691.13   12.95   0
   5   3  23    3.55    8.03   0
   6  -4   1   -1.57    5.97   0
   8   0  17   -3.44    8.18   0
   9  -4  -2  187.33   10.75   0
   2   3  23    0.77    5.78   0
   3   1  23    8.79    6.41   0
   5  -4  -3   20.13    6.29   0
   5  -2  16 1825.10   19.95   0
   5   0  23    7.23    6.47   0
   6  -2  17   -2.77    7.41   0
   6   3  21   -3.55    7.54   0
   9  -3   6  187.61   10.15   0
   4   3  25    7.77    7.30   0
   7   2  20  140.68    9.42   0
   3  -1  16 2072.70   21.36   0
   5  -1  21    9.60    6.36   0
   7  -1  20  265.13   10.12   0
   8  -4   3    6.75    6.50   0
   9  -2  11   -7.01    8.35   0
   9  -1  13   -5.58    8.09   0
   2   0  17   -2.44    5.59   0
   3   0  21   -6.88    6.21   0
   3   2  25    4.19    5.40   0
   6   0  24  479.73   12.64   0
   7   0  22  108.44    8.55   0
   8  -3  11    0.47    6.91   0
   8  -1  18  143.61    9.85   0
   9  -4   1   -3.18    8.93   0
   4  -1  20  908.57   14.28   0
   6  -1  22  219.14    9.26   0
   7  -4   5    3.06    7.06   0
   7  -2  18  405.55   12.17   0
   8  -2  16  393.60   12.42   0
   6  -4   4  900.51   15.35   0
   8   0  20  136.83   10.02   0
   9  -3   9    5.32    7.88   0
   4  -2  15    5.75    5.21   0
   6   2  25    2.79    8.43   0
   5  -4   0 1427.14   19.78   0
   5   2  27    0.84    7.92   0
   5   3  26  175.74   10.68   0
   8  -4   6  225.22    9.40   0
   9  -2  14  139.82    9.80   0
   1   2  20 1410.62   20.13   0
   2   1  22  437.29   11.37   0
   4  -3   7   15.47    4.90   0
   4   0  25    0.57    6.94   0
   4   1  27    6.80    7.18   0
   5   0  26  219.52   10.20   0
   6  -2  20  676.79   13.13   0
   6   3  24  218.13    9.94   0
   7  -1  23    9.14    8.72   0
   7   2  23   -8.00    7.63   0
   9  -4   4  153.33    9.54   0
   3  -2  11   15.73    5.88   0
   5  -2  19    4.98    6.04   0
   8  -1  21   10.51    8.42   0
   1   3  22  351.57   11.42   0
   3   3  27    0.40    6.57   0
   5  -1  24  944.15   15.36   0
   5   1  28  407.94   11.95   0
   7   0  25    5.10    7.42   0
   8  -2  19    4.46    8.65   0
   9  -3  12  160.12    9.74   0
   6  -1  25   10.69    7.64   0
   6   0  27    4.57    7.98   0
   7  -2  21   -3.82    7.03   0
   3  -1  19    0.91    5.93   0
   6  -4   7   -1.57    6.37   0
   8  -4   9   -7.05    7.73   0
   8   0  23    0.86    8.31   0
   9  -4   7   -3.83    8.01   0
   9  -2  17    2.51    8.42   0
   2   3  26  606.61   13.69   0
   4  -1  23   14.96    6.92   0
   4   2  29   -4.79    6.24   0
   3   0  24 1097.68   15.65   0
   4  -2  18 1112.02   16.01   0
   5  -4   3   -1.79    5.65   0
   6   2  28  166.36   10.17   0
   7   1  27    0.55    8.38   0
   6   1  29   -4.09    7.66   0
   7  -4  11    4.64    7.25   0
   7  -1  26  274.17   11.17   0
   8  -1  24  277.33   11.59   0
   2   0  20 3508.12   27.96   0
   4  -3  10 1086.78   16.36   0
   5  -2  22  306.84   10.35   0
   5   0  29    6.50    7.67   0
   5   2  30   82.93    7.84   0
   5   3  29   -3.17    8.46   0
   6  -3  18  435.72   11.60   0
   6   3  27    5.38    7.62   0
   7  -3  19   12.36    7.77   0
   8  -2  22  114.38    9.42   0
   7   0  28  130.94    9.99   0
   8  -4  12  273.23   11.06   0
   9  -4  10  154.86    9.38   0
   4   0  28  625.47   12.44   0
   5  -1  27   -1.70    7.04   0
   5   1  31    8.85    7.83   0
   6  -4  10  366.85   11.00   0
   8   0  26   89.15    8.81   0
   9  -2  20  142.97    9.74   0
   3  -2  14 1686.78   19.87   0
   6  -1  28  427.24   11.30   0
   6   0  30  128.62    9.69   0
   2  -1  15    2.55    5.64   0
   2   1  25    4.23    5.84   0
   2   2  27   -2.02    5.84   0
   3   3  30  188.15    9.76   0
   5  -4   6  384.56   10.83   0
   3   1  29    4.97    6.43   0
   4   3  31   -1.98    7.42   0
   5  -3  17    4.42    5.56   0
   7  -4  14  371.18   11.17   0
   4  -1  26  672.37   12.55   0
   4   2  32  338.65   11.05   0
   6  -2  26  401.85   11.39   0
   6   1  32  256.02   11.01   0
   6   2  31    1.45    8.11   0
   7  -1  29  -10.74    8.16   0
   7   1  30   79.38    8.98   0
   8  -5   4  274.74   10.30   0
   8  -4  15   -8.44    7.93   0
   8  -2  25   10.12    8.11   0
   8  -1  27   -9.55    8.33   0
   9  -4  13    0.47    7.92   0
   1   2  23    1.04    5.10   0
   4  -2  21    0.65    5.49   0
   6  -3  21    4.16    6.98   0
   7  -3  22  188.22    9.02   0
   3   0  27   -2.65    5.42   0
   3   2  31    1.80    6.49   0
   5  -2  25    3.14    6.78   0
   5   2  33   -0.48    7.79   0
   6  -4  13    2.60    6.62   0
   7  -5   3    0.30    6.21   0
   7  -2  27   13.82    8.59   0
   9  -2  23   -3.27    8.50   0
   1   3  25    0.43    5.73   0
   2   3  29    1.51    6.58   0
   5  -1  30  309.17   10.58   0
   6  -1  31   10.19    7.60   0
   8  -5   7   -1.09    7.08   0
   8  -3  23   10.89    8.36   0
   2   0  23   -2.33    4.96   0
   4   1  33    1.96    7.30   0
   5  -4   9   17.69    6.11   0
   5   1  34  213.75   10.20   0
   7  -4  17   12.27    7.57   0
   9  -4  16  359.14   11.92   0
   1   1  21   15.75    5.41   0
   3  -2  17   13.41    5.94   0
   5  -3  20  604.79   12.08   0
   8  -4  18  216.04    9.51   0
   8  -2  28  173.10   10.46   0
   8  -1  30   70.35    9.24   0
   6  -2  29    6.21    7.82   0
   7  -3  25   13.08    7.72   0
   7  -1  32  278.45   11.00   0
   7   1  33    4.01    7.30   0
   9  -5   8  376.77   11.83   0
   4  -1  29   -0.58    6.73   0
   6  -4  16  784.35   14.32   0
   6  -3  24  633.33   12.58   0
   6   2  34  114.30    8.65   0
   2  -1  18 1215.85   16.98   0
   2   2  30  183.84    8.78   0
   3  -1  25    2.89    6.07   0
   3   1  32  849.76   14.66   0
   3   3  33   -0.47    6.49   0
   4  -2  24 1873.92   19.42   0
   4   2  35   -0.61    7.17   0
   7  -2  30   85.23    8.12   0
   8  -5  10  233.96   10.06   0
   5  -2  28  390.27   10.56   0
   8  -3  26  193.55   10.40   0
   9  -4  19    0.65    7.87   0
   9  -3  24  218.86    9.88   0
   5  -4  12 1171.75   16.77   0
   5   2  36  239.47   10.28   0
   7  -5   9   -2.85    6.51   0
   7  -4  20  425.38   11.15   0
   8  -4  21   -8.31    7.84   0
   9  -5  11   -0.20    7.31   0
   3   2  34  420.50   11.65   0
   5  -1  33    8.73    7.66   0
   6  -1  34  209.15    9.45   0
   5  -3  23    1.66    6.04   0
   5   1  37   -1.46    8.03   0
   7  -3  28  399.89   12.05   0
   8  -5  13    3.03    7.57   0
   8  -2  31   -2.55    8.36   0
   8  -1  33  -11.66    7.80   0
   1   2  26  509.17   12.42   0
   4   1  36  299.91   10.73   0
   6  -5   5    1.53    6.45   0
   6  -4  19    4.64    6.90   0
   6  -3  27   -4.83    7.57   0
   6  -2  32  368.96   11.66   0
   7  -1  35    1.49    8.10   0
   2   0  26 1254.65   17.00   0
   3  -2  20 1430.32   17.50   0
   7  -2  33    1.02    8.55   0
   9  -5  14   87.36    8.50   0
   9  -4  22   82.12    8.64   0
   9  -3  27   -0.72    7.80   0
   4  -3  19   15.17    6.26   0
   4  -1  32  861.44   14.64   0
   6   1  38   37.83    8.81   0
   6   2  37   -1.75    7.42   0
   7  -5  12  415.59   11.62   0
   7  -4  23   -7.12    7.58   0
   8  -3  29    1.85    8.44   0
   3  -3   9    0.42    4.40   0
   4  -2  27    0.78    5.70   0
   5  -4  15    3.77    5.37   0
   5  -2  31    1.13    7.39   0
   7   0  37    1.60    8.12   0
   8  -4  24  324.35   11.08   0
   1   1  24 1728.76   20.80   0
   2  -1  21   16.68    6.08   0
   3  -1  28 1388.53   17.08   0
   4  -4   5    0.02    5.68   0
   8  -5  16  435.11   12.12   0
   3   1  35   -3.76    5.68   0
   4   2  38   93.37    8.42   0
   5  -3  26  657.99   13.26   0
   5   0  38  196.21    9.87   0
   6  -5   8  814.64   14.85   0
   6  -1  37   -3.40    8.07   0
   8  -2  34  130.27    9.49   0
   1   0  19   -0.34    5.21   0
   2   1  31    3.21    5.09   0
   2   2  33    1.66    5.98   0
   5  -1  36  326.45   10.36   0
   5   2  39    6.79    7.21   0
   6  -4  22  376.06   10.46   0
   6   0  39  -10.36    7.81   0
   7  -5  15    7.15    6.87   0
   7  -3  31    1.45    7.44   0
   9  -5  17   -0.85    7.89   0
   9  -4  25   -0.04    7.62   0
   6  -3  30  186.87    9.79   0
   7  -1  38   56.95    8.69   0
   3  -2  23    1.28    5.67   0
   3   2  37   -1.63    6.46   0
   5   1  40  191.36    9.61   0
   7  -2  36  276.36   11.01   0
   8  -3  32  219.54   10.42   0
   4  -3  22  361.37   10.41   0
   4   1  39   -1.66    7.27   0
   5  -4  18  759.76   13.35   0
   6  -5  11    7.16    6.13   0
   8  -5  19   -4.10    7.57   0
   4  -4   8 1508.10   19.27   0
   4  -2  30  216.25    9.41   0
   4  -1  35    9.26    7.20   0
   5  -2  34  450.03   11.81   0
   7   0  40  158.38    9.27   0
   9  -5  20  134.84    9.48   0
   2  -2  13   -0.57    4.61   0
   6   1  41   -2.53    7.78   0
   7  -5  18  180.03    9.04   0
   1   2  29    9.00    5.31   0
   3  -1  31   -1.48    6.54   0
   5  -3  29    1.84    7.30   0
   6  -1  40  195.38   10.37   0
   7  -3  34  197.47   10.09   0
   8  -2  37    9.11    8.36   0
   9  -4  28   97.90    9.27   0
   2  -1  24 1828.08   19.70   0
   5  -1  39   -3.57    7.23   0
   5   0  41    2.47    7.59   0
   6  -3  33   -1.15    7.95   0
   3   1  38  159.89    8.86   0
   4  -4  11   -4.19    5.31   0
   4   2  41    2.70    7.32   0
   5  -4  21   11.89    6.36   0
   6  -5  14  427.21   11.37   0
   6  -2  38  114.20    9.62   0
   6   0  42  131.58    9.31   0
   8  -5  22  133.06    9.35   0
   8  -3  35   -6.28    7.96   0
   1   1  27   -0.95    5.49   0
   2   1  34  606.00   12.71   0
   5   2  42  129.83    8.71   0
   7  -2  39   -7.14    8.31   0
   7  -1  41    6.10    7.16   0
   9  -5  23   -4.04    7.31   0
   1   0  22  453.60   11.47   0
   2   2  36  378.59   11.45   0
   3  -2  26  530.82   11.45   0
   4  -3  25    5.49    5.57   0
   4   0  40  452.36   11.88   0
   5   1  43    0.78    8.20   0
   7  -5  21    0.85    7.25   0
   3   2  40  425.36   12.26   0
   4  -2  33   -7.80    6.81   0
   4   1  42  156.40    9.47   0
   5  -2  37    0.81    7.37   0
   2  -2  16 2962.28   25.89   0
   4  -1  38  184.83    9.46   0
   5  -3  32  722.56   13.93   0
   6  -5  17    3.24    6.52   0
   7  -3  37    3.40    8.40   0
   4  -4  14  326.71   10.09   0
   6   1  44  105.93    8.42   0
   8  -5  25   -4.06    7.26   0
   3  -1  34  627.43   12.15   0
   6  -3  36  324.90   10.45   0
   6  -1  43   -1.91    7.06   0
   7  -4  32  271.89    9.98   0
   8  -3  38   61.19    8.68   0
   9  -5  26  143.56    8.86   0
   2  -1  27   -1.72    5.12   0
   3  -3  18  519.56   11.78   0
   5  -5   7   -0.85    5.94   0
   5  -1  42  174.02    9.08   0
   5   0  44  187.12    9.85   0
   6  -2  41   10.08    7.85   0
   7  -5  24  476.22   12.41   0
   4  -3  28  715.72   12.74   0
   6   0  45    3.43    7.15   0
   7  -2  42  144.71    9.09   0
   1   2  32 1154.16   17.40   0
   3  -2  29    6.51    5.60   0
   3   0  39    2.27    6.85   0
   3   1  41    5.01    6.83   0
   4   2  44  198.12   10.31   0
   6  -5  20  512.95   12.31   0
   6  -4  31   -3.11    7.22   0
   2  -2  19    3.82    5.60   0
   2   1  37    2.50    6.37   0
   4  -4  17    2.79    5.73   0
   4  -2  36  385.56   10.95   0
   4   0  43   -1.09    7.78   0
   5  -5  10  709.70   14.24   0
   5  -2  40  457.22   12.10   0
   8  -5  28  201.87   10.24   0
   1   1  30  596.86   12.24   0
   5  -3  35    8.12    6.53   0
   5   1  46   76.37    8.25   0
   7  -4  35    6.39    8.30   0
   7  -3  40  162.04   10.09   0
   8  -4  36  124.66    9.41   0
   9  -5  29   -7.61    7.26   0
   2   2  39   -0.89    6.18   0
   4  -1  41    4.93    6.46   0
   4   1  45    7.07    7.13   0
   6  -3  39   -1.79    8.03   0
   7  -5  27   -9.92    7.90   0
   8  -6  17    4.38    7.01   0
   3  -3  21    1.18    5.11   0
   3  -1  37    4.23    6.89   0
   3   2  43   -3.02    6.85   0
   6  -5  23    5.47    7.08   0
   2  -1  30  656.75   12.76   0
   4  -3  31   12.03    7.02   0
   5  -5  13   -1.96    5.84   0
   6  -2  44  240.02   10.60   0
   3  -2  32 1212.46   16.33   0
   4  -4  20 1251.61   16.34   0
   5   0  47   -1.95    7.52   0
   6  -4  34  167.19    8.75   0
   6   0  48  134.12    9.27   0
   7  -2  45    2.60    7.14   0
   8  -6  20  194.30   10.30   0
   8  -5  31   -0.91    7.84   0
   2  -2  22 1929.99   20.35   0
   3   0  42  310.73   10.42   0
   3   1  44  277.24   10.45   0
   4  -2  39   -2.42    6.49   0
   5  -5  16  713.17   13.63   0
   5  -4  30  180.36    8.52   0
   5  -3  38  104.68    8.63   0
   5  -2  43   -1.38    7.88   0
   7  -6  16  606.53   13.78   0
   7  -5  30  202.40   10.13   0
   7  -4  38  139.83    9.46   0
   7  -3  43   -3.17    8.19   0
   8  -4  39    0.22    7.77   0
   0   2  25    0.70    4.83   0
   1   2  35   -4.06    6.23   0
   3  -3  24 1640.44   18.69   0
   4   0  46  131.56    9.40   0
   6  -5  26  250.62    9.72   0
   9  -6  24  174.92   10.08   0
   2   1  40  449.15   11.71   0
   5   1  49    2.21    7.32   0
   6  -3  42  159.54    9.02   0
   8  -6  23   -2.05    8.37   0
   1   1  33    6.87    4.94   0
   4  -3  34  515.60   12.30   0
   6  -4  37    0.83    8.16   0
   8  -5  34  148.79    9.21   0
   1  -1  20 1525.08   18.90   0
   2  -1  33    2.79    6.05   0
   2   0  38  245.91    9.57   0
   3  -1  40  434.94   10.86   0
   5  -5  19   -1.14    6.21   0
   6  -2  47    1.20    7.86   0
   6  -1  49    3.92    6.96   0
   7  -6  19    4.05    6.68   0
   2  -2  25    1.52    6.06   0
   2   2  42  379.09   11.17   0
   3  -2  35    3.95    5.93   0
   5  -4  33    1.21    7.45   0
   7  -5  33    7.39    7.95   0
   5  -3  41   13.93    7.92   0
   5   0  50   77.20    8.50   0
   6  -5  29    5.80    7.48   0
   7  -4  41    8.84    7.87   0
   9  -6  27    6.00    6.78   0
   3  -3  27    1.78    5.48   0
   4  -2  42  407.43   11.01   0
   5  -2  46   49.13    9.25   0
   7  -3  46   70.75    9.04   0
   8  -6  26  210.00   10.00   0
   3   0  45   -2.48    7.26   0
   5  -5  22  240.11    9.64   0
   6  -3  45   -2.06    8.08   0
   7  -6  22  165.60    9.42   0
   8  -5  37    4.24    7.58   0
   3   1  47    7.40    7.15   0
   4  -3  37   -1.16    6.43   0
   4   0  49    7.73    7.88   0
   6  -4  40  266.88   10.65   0
   0   2  28 1085.54   18.01   0
   1  -1  23    0.58    4.81   0
   5  -4  36  487.54   12.42   0
   7  -5  36  164.52    9.65   0
   1   1  36  898.03   15.13   0
   1   2  38  337.69   10.71   0
   2  -2  28 1117.74   15.34   0
   2  -1  36  923.14   14.22   0
   2   1  43   -2.61    5.99   0
   3  -2  38  343.59   10.89   0
   6  -5  32  398.60   10.99   0
   6  -2  50   94.05    9.05   0
   7  -6  25    0.60    7.24   0
   8  -6  29    0.23    7.24   0
   2   0  41   -0.58    6.62   0
   3  -4   7   17.54    5.33   0
   3  -3  30  592.59   11.75   0
   4  -4  29   -0.83    6.77   0
   4   1  51   -0.55    7.52   0
   5  -5  25    7.54    6.82   0
   5  -3  44  273.47   10.97   0
   5  -1  51   -1.31    7.76   0
   6  -6  15    1.66    6.06   0
   7  -4  44  147.65    9.41   0
   3  -4  10 1114.30   17.15   0
   4  -2  45   16.22    7.39   0
   2   2  45   -0.17    6.69   0
   5  -2  49   -0.38    7.32   0
   5   0  53    7.90    7.26   0
   6  -3  48  157.18    9.76   0
   8  -5  40  149.92    8.94   0
   2  -3  11   15.67    4.67   0
   3  -4  13    9.98    5.34   0
   3   0  48  198.83    9.78   0
   4  -3  40  473.21   11.43   0
   6  -6  18  245.71    9.82   0
   6  -5  35    8.12    7.93   0
   6  -4  43   -0.15    7.93   0
   7  -6  28  161.17    9.40   0
   8  -6  32  203.83   10.19   0
   1   0  34  949.25   15.08   0
   2  -2  31   -1.26    6.37   0
   4  -1  50  190.15   10.20   0
   5  -5  28  642.83   13.37   0
   5  -4  39   -3.99    6.67   0
   0   1  26 1103.16   16.92   0
   2  -1  39   -4.85    6.76   0
   3  -4  16 2057.36   21.74   0
   3  -3  33   -4.21    5.86   0
   3  -2  41   -2.11    6.95   0
   3   1  50  172.45    9.69   0
   4  -4  32  473.57   11.25   0
   4   0  52  150.73    9.80   0
   6  -6  21    3.56    6.79   0
   6  -2  53   -2.80    7.62   0
   7  -4  47    0.06    7.84   0
   0   2  31    2.32    5.10   0
   1   1  39    3.27    5.96   0
   2  -3  17   15.83    5.74   0
   2   0  44  714.71   13.65   0
   2   1  46  135.94    8.64   0
   4  -5   9   22.21    5.90   0
   5  -3  47   -1.22    7.05   0
   5  -1  54   59.91    9.11   0
   7  -6  31    6.04    7.82   0
   1   2  41    5.45    6.03   0
   3  -4  19   13.61    5.28   0
   4  -5  12 1121.63   17.14   0
   4  -3  43    3.03    7.74   0
   4  -2  48  300.76   10.25   0
   5  -5  31    2.22    6.71   0
   6  -6  24  623.68   13.45   0
   8  -6  35   -6.71    7.25   0
   1  -1  29    0.70    5.16   0
   2  -2  34  282.24    9.83   0
   4  -5  15    7.31    5.94   0
   4  -4  35    5.65    7.35   0
   4   1  54   51.53    7.58   0
   6  -4  46  112.22    8.59   0
   6  -3  51   -2.99    8.09   0
   2  -3  20 1401.11   17.43   0
   3  -3  36  543.08   12.46   0
   0   1  29   -2.89    5.05   0
   1   0  37   -0.26    5.22   0
   3  -2  44  347.88   10.81   0
   3   0  51    1.04    7.39   0
   4  -5  18  746.87   13.92   0
   4  -1  53    3.14    7.22   0
   7  -6  34  172.95    9.25   0
   2   6   5    6.60    8.23   0
   3   3   6  452.29   11.21   0
   3   4   5   15.53    6.97   0
   4   0  -5   -0.50    5.86   0
   4   5  -7    2.04    8.13   0
   5   0 -13    1.32    6.38   0
   5   3 -10  224.02   10.73   0
  -1   5  15    1.30    5.93   0
   1   6  10  228.92   10.25   0
   1   7   6  110.33    9.41   0
   2   2   9    1.23    5.27   0
   5   4 -14   85.84    9.57   0
   6   2 -29    8.32    7.66   0
   2   5   9   -4.69    7.29   0
   4   3   1    3.08    6.95   0
   5   1  -8  870.57   15.07   0
   6   1 -25   -2.34    7.63   0
   6   2 -26  226.35   10.29   0
   1   2  11   17.05    5.19   0
   1   3  13   12.31    6.07   0
   2   3  11   -4.35    6.67   0
   2   7   1   -3.56    8.25   0
   3   0   0 2643.84   25.43   0
   3   5   4  299.94   11.27   0
   4   1   0 1421.05   17.60   0
   5   2  -6  460.96   12.43   0
   6   2 -23    2.02    8.24   0
   0   7  11   -0.30    7.62   0
   2   1   7    3.00    5.91   0
   3   2   7    9.04    6.00   0
   3   6   0  338.81   11.68   0
   4   2   2  610.21   12.52   0
   4   4   0  550.17   12.64   0
   4   5  -4  147.72    9.76   0
   5   3  -7    2.78    8.59   0
   5   4 -11    2.70    8.81   0
   6   1 -22  174.81    9.77   0
   1   8   2   94.23    8.76   0
   3   1   5    5.65    5.56   0
   5   0 -10  736.58   14.20   0
   6   2 -20  201.93   10.63   0
   6   3 -27   -8.38    8.77   0
   4  -1 -10 1145.81   18.30   0
   5  -1 -18  719.15   14.96   0
   6   1 -19    9.00    7.54   0
   1   5  14  400.12   11.51   0
   2   6   8  489.99   13.19   0
   3   3   9   15.32    7.42   0
   3   4   8  575.92   12.66   0
   5   4  -8  366.97   12.24   0
   6   3 -24  196.12   10.41   0
   0   5  16  685.91   14.14   0
   1   4  15   -0.27    6.27   0
   1   7   9   -0.26    7.50   0
   2   7   4  189.42   10.43   0
   4   3   4  687.16   13.34   0
   4   5  -1   -1.80    8.38   0
   6   2 -17   -2.60    8.45   0
   6   3 -21   -2.26    7.78   0
   0   6  15   -3.45    6.79   0
   3   5   7    5.29    8.08   0
   4   4   3   -0.88    8.52   0
   6   0 -21    3.38    6.61   0
   6   1 -16  688.69   14.48   0
   1   6  13    5.37    6.54   0
   2   5  12  414.92   12.12   0
   4   1   3   23.88    7.09   0
   4   2   5   -5.47    7.40   0
   5  -1 -15    3.51    6.30   0
   5   0  -7    0.24    6.42   0
   6   2 -14  125.81    9.84   0
   6   3 -18  216.31   10.26   0
   0   3  15   -0.85    5.28   0
   1   8   5    3.80    7.30   0
   5   4  -5    6.79    8.45   0
   2   2  12  791.23   13.71   0
   6   0 -18  302.00   10.70   0
   6   1 -13    3.28    7.23   0
   6   3 -15    7.60    8.28   0
   0   4  17   -4.11    5.63   0
   3   2  10  749.10   13.26   0
   4   5   2  192.38   10.36   0
   5   3  -1    4.24    7.12   0
   6   2 -11   11.55    8.44   0
   2   7   7   -1.04    8.62   0
   3   0   3   -2.14    4.88   0
   3   4  11    1.46    6.78   0
   4  -1  -7   17.39    5.76   0
   4   3   7    9.22    7.63   0
   5   2   0  662.87   13.25   0
   3   1   8 2794.74   24.16   0
   3   3  12  771.85   14.30   0
   5   4  -2  190.47   10.46   0
   6   0 -15    5.26    6.83   0
   6   3 -12  187.42   10.13   0
   1   7  12  203.47   10.50   0
   4   0   1    3.64    5.23   0
   5  -1 -12 1181.70   17.94   0
   5   0  -4 1227.76   17.07   0
   6   1 -10  251.41    9.65   0
   1   5  17    3.65    6.94   0
   2   1  10 2054.18   22.19   0
   5   5  -6  110.82    9.18   0
   6   2  -8  476.00   13.04   0
   1   6  16  618.24   13.80   0
   2   4  16  751.01   14.08   0
   2   5  15   -5.06    7.26   0
   4   1   6  921.88   14.79   0
   4   2   8  883.26   14.37   0
   4   5   5   -0.33    8.38   0
   5   1   1    1.00    7.29   0
   5   3   2  237.82    9.89   0
   6   0 -12  373.29   11.39   0
   5   2   3   -3.65    7.86   0
   6   1  -7   11.43    7.91   0
   0   6  18  239.39    9.90   0
   5   4   1   -1.18    7.75   0
   0   5  19   -3.13    6.07   0
   2   6  14  117.33    9.30   0
   2   7  10  176.98    9.67   0
   3   6   9   -6.31    8.40   0
   4   3  10  413.21   11.11   0
   4   4   9    0.78    7.14   0
   5  -1  -9   18.67    6.07   0
   5   5  -3    1.24    7.45   0
   3   2  13    0.00    5.78   0
   5   0  -1    1.85    6.52   0
   6   0  -9    3.19    6.87   0
   2   2  15   -2.23    6.04   0
   4  -1  -4 1314.26   18.34   0
   1   7  15    3.72    7.15   0
   3   3  15    7.32    6.06   0
   4   0   4 1593.30   18.88   0
   4   5   8  361.22   12.12   0
   5   1   4  813.89   14.43   0
   6   1  -4  285.14    9.89   0
   7   2 -22   54.89    8.27   0
   3   0   6  558.01   12.09   0
   3   1  11   29.29    6.02   0
   4   2  11   -1.47    6.26   0
   5   2   6  153.44    8.79   0
   5   4   4  141.89    9.27   0
   5   5   0  238.42    9.88   0
   6   3  -3   -1.93    8.12   0
   7   2 -19   -1.80    8.31   0
   4   1   9   -4.51    5.88   0
   7   1 -18  207.03    9.91   0
   2   5  18  170.39    8.59   0
   3   6  12  180.83    9.68   0
   4   4  12  267.01   10.83   0
   6   0  -6  400.52   10.81   0
   7   2 -16  178.58   10.13   0
   0   3  18  520.73   12.53   0
   1   6  19    1.23    7.36   0
   2   4  19   11.44    5.98   0
   2   7  13   -7.36    7.56   0
   4   3  13   14.09    6.82   0
   6  -1 -14  420.10   11.89   0
   7   1 -15   -2.81    7.27   0
   1   3  19   10.73    5.91   0
   2   6  17   -2.78    7.38   0
   5   5   3    4.90    7.91   0
   6   2   1    2.08    8.00   0
   6   3   0  327.24   11.48   0
   7   2 -13   -0.63    7.99   0
   2   1  13   26.51    5.47   0
   4   5  11   -1.58    7.59   0
   5   4   7   12.01    8.06   0
   7   1 -12  230.79   10.57   0
  -1   4  19   14.03    5.91   0
   1   4  21   10.11    6.31   0
   3   2  16 1788.79   19.15   0
   4  -1  -1   24.91    6.01   0
   5   1   7    2.44    6.33   0
   5   2   9   -2.81    6.64   0
   6   0  -3    3.21    6.80   0
   3   3  18  404.79   11.09   0
   4   0   7    1.56    6.13   0
   4   2  14  294.30   10.15   0
   6  -1 -11   10.11    6.26   0
   6   4  -1   -4.67    7.82   0
   7   2 -10  167.09    9.52   0
   5  -1  -3    1.07    5.80   0
   6   3   3   16.59    8.50   0
   7   0 -14  145.40    9.11   0
   7   1  -9   -5.83    7.75   0
   3   6  15    4.83    7.96   0
   4   1  12  946.54   14.36   0
   4   4  15    8.21    7.23   0
   5   3  11   -3.35    7.87   0
   5   5   6   83.91    9.43   0
   6   2   4  233.46   10.78   0
   2   2  18 1054.22   15.26   0
   2   5  21    1.69    7.65   0
   3   0   9    2.38    5.74   0
   3   1  14  700.73   12.70   0
   4   3  16  445.54   11.26   0
   5   4  10  148.46   10.06   0
   7   2  -7   -1.31    8.51   0
   6  -1  -8  863.69   15.14   0
   6   4   2   83.45    8.76   0
   7   0 -11    7.05    7.22   0
   7   1  -6  116.15    9.32   0
   2   4  22  351.48   10.99   0
   2   6  20  191.10   10.08   0
   3   4  20  420.57   11.80   0
   3   5  19    8.10    7.77   0
   1   5  23    0.44    6.68   0
   6   1   5    9.16    7.72   0
   6   3   6  176.49   10.06   0
   7   2  -4  203.61    9.95   0
   6   2   7    0.38    8.45   0
   7   0  -8  617.24   13.61   0
   3   2  19   10.77    6.00   0
   4  -1   2  851.99   14.43   0
   4   2  17   -6.64    6.24   0
   5   3  14  169.53    9.86   0
   5   4  13   -7.05    8.60   0
   6  -1  -5   -1.48    6.21   0
   1   3  22  346.50   10.38   0
   3   6  18  194.96   10.17   0
   4   0  10  426.42   10.30   0
   6   0   3    0.23    7.04   0
   7   2  -1   -1.53    8.04   0
   0   4  23    1.35    6.07   0
   2   1  16 2117.52   21.71   0
   4   1  15   10.28    6.11   0
   4   3  19   -3.59    7.72   0
   4   5  17   -6.60    7.93   0
   5   0   8  989.21   14.68   0
   2   7  19    1.50    6.69   0
   5   1  13   12.81    7.51   0
   5   2  15   10.21    7.51   0
   6   1   8  692.87   13.65   0
   6   3   9    8.95    8.38   0
   2   3  23    2.45    6.50   0
   2   5  24  446.39   12.09   0
   3   1  17    2.23    6.37   0
   6   2  10  209.34   10.20   0
   7   1   0  423.83   11.80   0
   0   3  21   -1.22    5.01   0
   3   4  23   -1.65    7.25   0
   3   5  22  115.38    9.28   0
   6  -1  -2  346.96    9.96   0
   2   6  23    3.81    7.54   0
   3   0  12 2567.94   23.14   0
   5  -1   3   27.13    6.34   0
   5   3  17   -6.87    8.03   0
   5   4  16  310.82   11.15   0
   7   0  -2  272.54   10.59   0
   1   2  20 1351.34   17.76   0
   2   4  25    4.68    6.98   0
   4   2  20  679.77   13.47   0
   5  -2 -11    4.42    5.57   0
   7  -1 -10  235.26    9.83   0
   1   5  26  218.64    9.45   0
   2   0  11   -0.78    4.68   0
   3   6  21    7.68    7.28   0
   5   0  11    1.28    6.41   0
   6   3  12  164.48    9.75   0
   7   1   3    0.98    7.27   0
   3   2  22  290.10   10.03   0
   4   0  13    0.34    5.39   0
   4   1  18  386.87   10.85   0
   4   3  22  172.52    9.31   0
   4   5  20  117.18    9.67   0
   6   2  13    5.40    8.56   0
   8   1 -11    4.97    7.34   0
   5   1  16  649.70   13.04   0
   5   2  18  393.96   10.86   0
   6  -1   1    9.28    5.70   0
   7   0   1   -2.82    7.56   0
   8   1  -8  155.21    9.32   0
   5  -2  -8 2078.56   24.23   0
   5   4  19   -0.36    8.14   0
   2   5  27   -1.45    7.63   0
   3   4  26  165.02    9.51   0
   3   5  25   -0.87    7.96   0
   5   3  20  248.14    9.80   0
   6   3  15    1.76    7.95   0
   7   2   8  243.09   10.68   0
   1   3  25    2.36    5.82   0
   1   4  27    5.15    6.13   0
   2   1  19   -0.08    5.03   0
   2   3  26  589.41   12.74   0
   3   1  20  896.78   14.05   0
   4   4  24  332.53   11.55   0
   7   0   4  194.65   10.23   0
   8   1  -5    7.92    7.77   0
   3   0  15    0.71    6.10   0
   4   2  23   -1.49    7.03   0
   5   0  14  661.20   12.47   0
   6  -1   4  751.83   13.44   0
   6   2  16  410.16   12.40   0
   4  -1   8 2727.70   24.00   0
   4   5  23   -2.40    7.35   0
   3   1  41    8.33    7.13   0
   7  -1  32  262.78   10.49   0
   1   1  33    3.66    4.63   0
   4  -1  32  915.29   14.39   0
   5   2  45   -5.71    7.85   0
   6  -3   9    2.66    6.01   0
   6  -2  26  372.95   10.25   0
   6  -1  34  230.92   10.18   0
   6   0  39   -1.37    7.88   0
   7  -3  10  394.79   10.91   0
   9  -2  14  115.80    9.29   0
   3  -2  11   20.80    4.86   0
   3  -1  28 1352.43   16.38   0
   4  -2  21   -5.35    5.23   0
   5  -2  25    1.60    5.82   0
   7   0  37   -0.63    7.13   0
   6  -3  12  792.39   13.88   0
   7  -3  13    9.47    6.96   0
   2  -1  21   20.95    5.11   0
   3   2  46   52.19    7.80   0
   4   0  40  446.87   11.67   0
   5  -3  -1    0.15    4.85   0
   5  -3   2  820.40   14.92   0
   5   0  41   -2.10    7.69   0
   8  -3   8  468.03   12.26   0
   9  -2  17    7.04    7.56   0
   0   2  34  253.82    9.56   0
   4   2  47    3.29    7.07   0
   5  -3   5   10.93    5.39   0
   5  -1  36  325.48   10.58   0
   7  -1  35   -2.57    8.28   0
   8  -3  11   -8.06    7.02   0
   8  -2  25    2.58    7.86   0
   0   1  26 1133.55   17.55   0
   2   1  40  446.52   10.87   0
   3  -2  14 1604.34   18.71   0
   4   1  45   -9.31    7.66   0
   5  -3  -4  657.27   14.64   0
   5  -3   8 2225.70   22.32   0
   5  -2  28  421.76   11.22   0
   6  -3  15   -3.09    6.40   0
   6  -2  29  -11.16    6.47   0
   6   1  44  115.54    9.42   0
   7  -3  16  466.45   11.54   0
   4  -2  24 1864.32   19.06   0
   4  -1  35    4.90    7.23   0
   6  -1  37    9.77    7.19   0
   6   0  42  141.90    9.52   0
   7   0  40  177.22    9.46   0
   9  -2  20  147.64    9.31   0
   1   2  41    1.90    6.08   0
   2   2  45   -1.63    6.80   0
   3  -1  31   -1.94    5.47   0
   3   1  44  280.39    9.75   0
   5  -3  11    5.50    5.93   0
   5   1  46   69.40    8.73   0
   7  -2  30   77.88    8.70   0
   8  -3  14  147.25    9.04   0
   8  -1  33    6.98    8.29   0
   6  -3  18  426.33   11.31   0
   7  -3  19    3.75    6.84   0
   8  -2  28  166.98    9.90   0
   2  -1  24 1838.45   19.54   0
   2   0  35    2.31    5.25   0
   3  -2  17   13.55    5.10   0
   6  -2  32  383.50   11.47   0
   8  -3  17    3.39    7.12   0
   5  -3  14  379.79    9.93   0
   5  -2  31   -0.66    7.31   0
   5  -1  39    0.90    7.74   0
   5   0  44  175.36    9.37   0
   7  -1  38   55.02    8.87   0
   1   0  28 1310.94   17.61   0
   4  -2  27   -0.28    5.62   0
   6  -1  40  200.85   10.25   0
   7  -3  22  192.76    9.57   0
   3   2  49    3.80    7.27   0
   4   1  48  217.45   10.26   0
   4   2  50   90.98    8.81   0
   7  -2  33   -1.89    6.72   0
   8  -3  20  245.93   10.45   0
   2   1  43   -1.14    6.70   0
   3  -2  20 1482.27   17.52   0
   4  -1  38  163.42    8.49   0
   6   0  45    1.32    7.42   0
   0   1  29   -0.43    5.15   0
   0   2  37   -2.31    5.93   0
   2  -1  27    3.55    5.92   0
   3   0  42  308.71   10.32   0
   5   1  49   -2.18    7.58   0
   6  -2  35   -1.58    7.79   0
   9  -3  15    5.45    6.77   0
   3   1  47   -2.28    6.57   0
   5  -2  34  427.33   11.80   0
   7  -3  25    1.81    8.06   0
   8  -3  23   -4.18    7.50   0
   1   2  44  321.78   10.58   0
   2   0  38  248.66    9.53   0
   2   2  48  281.73   10.54   0
   4  -2  30  213.02    8.52   0
   5  -1  42  193.33    9.88   0
   7  -2  36  284.19   11.11   0
   9  -3  18   99.68    8.76   0
   1   1  39    0.49    6.19   0
   3  -2  23   -2.14    6.18   0
   4   0  46  156.41    9.67   0
   6  -1  43   -4.30    7.95   0
   1   0  31   -2.56    5.28   0
   8  -3  26  196.23    9.76   0
   3  -1  37    2.72    6.47   0
   4  -3   4 1305.33   18.53   0
   4  -3   7   21.07    5.67   0
   4  -1  41   -2.28    6.38   0
   5  -3  23    1.43    6.79   0
   6  -3  27   -1.62    6.35   0
   6  -2  38  118.59    9.03   0
   6   0  48  112.26    8.83   0
   9  -3  21   -0.46    6.97   0
   2  -1  30  640.80   12.62   0
   3   2  52  132.75    9.20   0
   4  -3  10 1073.00   15.66   0
   4   1  51   -6.76    7.16   0
   4   2  53   -2.11    6.70   0
   2   1  46  144.86    8.22   0
   3   0  45   -4.07    7.30   0
   4  -2  33    1.93    5.99   0
   5  -2  37   -1.20    6.57   0
   7  -2  39  -12.64    8.16   0
   7  -1  44  122.61    8.94   0
   3  -2  26  532.75   11.13   0
   3   1  50  162.20    9.77   0
   5  -1  45    8.45    7.96   0
   6  -3  30  202.02    9.65   0
   8  -3  29    7.59    7.97   0
   8  -2  37   -8.75    6.92   0
   9  -3  24  231.58   10.19   0
   0   1  32 1674.59   20.78   0
   2   0  41   -3.80    6.50   0
   5  -3  26  642.44   12.34   0
   5   0  50   75.28    8.39   0
   6  -1  46   73.76    8.72   0
   4   0  49    4.56    7.95   0
   6  -2  41   -3.38    8.20   0
   7  -4   8  572.93   12.78   0
   7  -4  11    1.65    6.40   0
   1   0  34  921.40   14.85   0
   1   1  42  326.26   10.34   0
   2   2  51    3.49    6.52   0
   4  -1  44  300.36    9.94   0
   7  -4  14  366.15   10.94   0
   8  -4  12  273.65   10.08   0
   9  -3  27    2.33    7.06   0
   2  -1  33   10.29    5.24   0
   3  -2  29    8.02    5.46   0
   4  -3  19   17.79    5.33   0
   4  -2  36  385.00   10.42   0
   5  -3  29   -1.34    6.75   0
   5  -2  40  479.03   11.41   0
   6  -3  33   -3.12    7.62   0
   7  -3  34  185.55    9.97   0
   7  -2  42  129.66    9.72   0
   8  -4  15   -8.04    7.06   0
   8  -3  32  220.27    9.56   0
   7  -4  17    2.04    6.85   0
   3   0  48  212.70    9.97   0
   4  -3  22  376.56   10.26   0
   4   1  54   51.06    7.78   0
   5  -1  48  230.84   10.54   0
   8  -4  18  208.67    9.74   0
   2   1  49    0.86    6.86   0
   6  -4   7    1.22    5.45   0
   6  -4  10  349.73   10.37   0
   6  -4  13    0.58    6.07   0
   6  -1  49   -6.39    7.66   0
   7  -4  20  458.67   11.76   0
   1  -1  20 1509.15   18.71   0
   2  -2  13   -0.58    5.28   0
   2   0  44  724.18   13.66   0
   3   1  53    3.71    7.58   0
   5  -3  32  712.85   13.29   0
   5   0  53   -1.86    7.19   0
   6  -4   4  842.74   14.96   0
   6  -4  16  796.84   13.98   0
   6  -2  44  249.37   10.71   0
   8  -4  21    0.53    7.49   0
   0   1  35    1.25    5.28   0
   3  -2  32 1257.40   15.82   0
   4  -3  25    2.17    6.25   0
   4  -2  39    0.69    6.26   0
   4   0  52  155.12    9.14   0
   5  -2  43    0.14    7.66   0
   6  -3  36  323.96   10.06   0
   7  -4  23   -8.13    6.83   0
   7  -3  37    4.78    7.42   0
   1   0  37    5.59    5.74   0
   2  -2  16 2903.42   25.00   0
   6  -4  19    4.37    6.51   0
   7  -2  45   -0.79    7.99   0
   8  -4  24  318.99   10.78   0
   1  -1  23   -0.38    4.44   0
   1   1  45    3.76    6.04   0
   2  -2  19   -0.74    4.62   0
   5  -3  35   -2.72    7.00   0
   6  -4  22  368.55   10.61   0
   7  -4  26  171.18    8.42   0
   9  -4  22   81.34    8.21   0
   4  -3  28  711.80   12.40   0
   8  -4  27   -4.32    7.03   0
  -8   2  35   -6.88    8.06   0
  -7   3   5   11.76    7.15   0
  -7   3  26  163.60   10.58   0
  -6   3  27    6.71    8.23   0
  -5   3  22  295.84    9.89   0
  -2   1  39    1.67    6.79   0
  -8   3  16  440.00   13.42   0
  -6   1  50   72.25    9.94   0
  -6   3   3    2.36    5.77   0
  -5   3  25    0.58    7.96   0
  -4   1  49    3.69    8.01   0
  -4   2  39   -3.94    7.88   0
  -8   3  13    8.09    7.60   0
  -8   3  19    5.78    7.38   0
  -7   3  29    1.31    9.05   0
  -6   2  43   -6.41    8.48   0
  -6   3  30  206.18   10.41   0
  -5   1  51   -0.15    9.11   0
  -1   1  28 1289.26   19.46   0
  -7   2  42   87.60    9.57   0
  -7   3   2  244.78   10.37   0
  -5   3  28  412.26   12.06   0
  -3   2  34  608.69   13.41   0
  -8   3   7   -0.43    7.91   0
  -6   3   0 1037.74   16.83   0
  -5   3   4  731.58   13.85   0
  -3   1  47   -2.05    7.19   0
  -8   3  28  164.77   10.67   0
  -7   3  32  301.09   10.96   0
   0   0  33   -1.34    5.78   0
  -8   3   4  287.68   11.19   0
  -5   3  31   -3.61    6.71   0
  -4   2  42  413.84   11.39   0
  -4   3  17   -1.91    6.42   0
  -2   1  42  347.58   11.15   0
  -8   3  31    2.03    8.84   0
  -7   2  45    3.66    9.61   0
  -7   3  -1   14.57    6.88   0
  -5   3   1    5.14    6.12   0
  -4   3  14  652.83   12.76   0
  -4   3  20  905.27   14.60   0
  -3   2  37   -4.77    7.14   0
  -2   2  17   -1.38    5.12   0
  -1   1  31   -3.07    5.58   0
  -6   3  36  333.46   11.17   0
  -4   3  11   24.73    6.05   0
  -4   3  23   13.70    6.39   0
  -2   2  14  325.82   10.40   0
  -2   2  20 3450.39   28.77   0
;
_shelx_hkl_checksum              18370
loop_
_space_group_symop_operation_xyz
'x, y, z'
'-y, x-y, z'
'-x+y, -x, z'
'y, x, -z+1/2'
'x-y, -y, -z+1/2'
'-x, -x+y, -z+1/2'
'x+2/3, y+1/3, z+1/3'
'-y+2/3, x-y+1/3, z+1/3'
'-x+y+2/3, -x+1/3, z+1/3'
'y+2/3, x+1/3, -z+5/6'
'x-y+2/3, -y+1/3, -z+5/6'
'-x+2/3, -x+y+1/3, -z+5/6'
'x+1/3, y+2/3, z+2/3'
'-y+1/3, x-y+2/3, z+2/3'
'-x+y+1/3, -x+2/3, z+2/3'
'y+1/3, x+2/3, -z+7/6'
'x-y+1/3, -y+2/3, -z+7/6'
'-x+1/3, -x+y+2/3, -z+7/6'
'-x, -y, -z'
'y, -x+y, -z'
'x-y, x, -z'
'-y, -x, z-1/2'
'-x+y, y, z-1/2'
'x, x-y, z-1/2'
'-x+2/3, -y+1/3, -z+1/3'
'y+2/3, -x+y+1/3, -z+1/3'
'x-y+2/3, x+1/3, -z+1/3'
'-y+2/3, -x+1/3, z-1/6'
'-x+y+2/3, y+1/3, z-1/6'
'x+2/3, x-y+1/3, z-1/6'
'-x+1/3, -y+2/3, -z+2/3'
'y+1/3, -x+y+2/3, -z+2/3'
'x-y+1/3, x+2/3, -z+2/3'
'-y+1/3, -x+2/3, z+1/6'
'-x+y+1/3, y+2/3, z+1/6'
'x+1/3, x-y+2/3, z+1/6'
loop_
_atom_site_label
_atom_site_type_symbol
_atom_site_fract_x
_atom_site_fract_y
_atom_site_fract_z
_atom_site_U_iso_or_equiv
_atom_site_adp_type
_atom_site_occupancy
_atom_site_site_symmetry_order
_atom_site_calc_flag
_atom_site_refinement_flags_posn
_atom_site_refinement_flags_adp
_atom_site_refinement_flags_occupancy
Ba1 Ba 0.0000 0.0000 0.2500 0.01061(2) Uani 1 6 d S T P
Mg2 Mg 0.0000 0.0000 0.0000 0.00849(7) Uani 1 6 d S T P
O3 O 0.11931(18) 0.82676(17) 0.12918(2) 0.01925(13) Uani 1 1 d . . .
C4 C 0.0000 0.0000 0.13035(3) 0.00915(11) Uani 1 3 d S T P
loop_
_atom_site_aniso_label
_atom_site_aniso_U_11
_atom_site_aniso_U_22
_atom_site_aniso_U_33
_atom_site_aniso_U_23
_atom_site_aniso_U_13
_atom_site_aniso_U_12
Ba1 0.00913(2) 0.00913(2) 0.01358(3) 0.000 0.000 0.00456(1)
Mg2 0.00708(11) 0.00708(11) 0.01131(17) 0.000 0.000 0.00354(5)
O3 0.0253(4) 0.0211(3) 0.0214(2) -0.0044(2) -0.0077(3) 0.0192(3)
C4 0.00867(17) 0.00867(17) 0.0101(3) 0.000 0.000 0.00434(9)
loop_
_atom_type_symbol
_atom_type_description
_atom_type_scat_dispersion_real
_atom_type_scat_dispersion_imag
_atom_type_scat_source
C C 0.0033 0.0016 'International Tables Vol C Tables 4.2.6.8 and 6.1.1.4'
O O 0.0106 0.0060 'International Tables Vol C Tables 4.2.6.8 and 6.1.1.4'
Mg Mg 0.0486 0.0363 'International Tables Vol C Tables 4.2.6.8 and 6.1.1.4'
Ba Ba -0.3244 2.2819 'International Tables Vol C Tables 4.2.6.8 and 6.1.1.4'
loop_
_geom_angle_atom_site_label_1
_geom_angle_atom_site_label_2
_geom_angle_atom_site_label_3
_geom_angle
_geom_angle_site_symmetry_1
_geom_angle_site_symmetry_3
O3 Ba1 O3 123.54(3) 35_445 26_445
O3 Ba1 O3 137.22(3) 35_445 25_455
O3 Ba1 O3 93.36(2) 26_445 25_455
O3 Ba1 O3 93.36(2) 35_445 34_545
O3 Ba1 O3 137.22(3) 26_445 34_545
O3 Ba1 O3 66.20(3) 25_455 34_545
O3 Ba1 O3 93.36(2) 35_445 36
O3 Ba1 O3 66.20(3) 26_445 36
O3 Ba1 O3 123.54(3) 25_455 36
O3 Ba1 O3 93.36(2) 34_545 36
O3 Ba1 O3 66.20(3) 35_445 27
O3 Ba1 O3 93.36(2) 26_445 27
O3 Ba1 O3 93.36(2) 25_455 27
O3 Ba1 O3 123.54(3) 34_545 27
O3 Ba1 O3 137.22(3) 36 27
O3 Ba1 O3 177.235(16) 35_445 27_545
O3 Ba1 O3 57.10(2) 26_445 27_545
O3 Ba1 O3 43.89(2) 25_455 27_545
O3 Ba1 O3 85.046(15) 34_545 27_545
O3 Ba1 O3 84.496(15) 36 27_545
O3 Ba1 O3 116.57(2) 27 27_545
O3 Ba1 O3 57.10(2) 35_445 36_455
O3 Ba1 O3 177.235(16) 26_445 36_455
O3 Ba1 O3 85.046(15) 25_455 36_455
O3 Ba1 O3 43.89(2) 34_545 36_455
O3 Ba1 O3 116.57(2) 36 36_455
O3 Ba1 O3 84.496(15) 27 36_455
O3 Ba1 O3 122.41(2) 27_545 36_455
O3 Ba1 O3 43.89(2) 35_445 34_655
O3 Ba1 O3 84.495(15) 26_445 34_655
O3 Ba1 O3 177.235(17) 25_455 34_655
O3 Ba1 O3 116.57(2) 34_545 34_655
O3 Ba1 O3 57.10(2) 36 34_655
O3 Ba1 O3 85.047(16) 27 34_655
O3 Ba1 O3 135.15(2) 27_545 34_655
O3 Ba1 O3 97.031(17) 36_455 34_655
O3 Ba1 O3 84.495(15) 35_445 25_565
O3 Ba1 O3 43.89(2) 26_445 25_565
O3 Ba1 O3 116.57(2) 25_455 25_565
O3 Ba1 O3 177.235(17) 34_545 25_565
O3 Ba1 O3 85.047(16) 36 25_565
O3 Ba1 O3 57.10(2) 27 25_565
O3 Ba1 O3 97.031(17) 27_545 25_565
O3 Ba1 O3 135.15(2) 36_455 25_565
O3 Ba1 O3 60.67(3) 34_655 25_565
O3 Ba1 O3 85.046(15) 35_445 26_345
O3 Ba1 O3 116.57(2) 26_445 26_345
O3 Ba1 O3 57.10(2) 25_455 26_345
O3 Ba1 O3 84.496(15) 34_545 26_345
O3 Ba1 O3 177.235(16) 36 26_345
O3 Ba1 O3 43.89(2) 27 26_345
O3 Ba1 O3 97.031(17) 27_545 26_345
O3 Ba1 O3 60.67(3) 36_455 26_345
O3 Ba1 O3 122.41(2) 34_655 26_345
O3 Ba1 O3 97.031(17) 25_565 26_345
O3 Ba1 O3 116.57(2) 35_445 35_435
O3 Ba1 O3 85.046(15) 26_445 35_435
O3 Ba1 O3 84.496(15) 25_455 35_435
O3 Ba1 O3 57.10(2) 34_545 35_435
O3 Ba1 O3 43.89(2) 36 35_435
O3 Ba1 O3 177.235(16) 27 35_435
O3 Ba1 O3 60.67(3) 27_545 35_435
O3 Ba1 O3 97.031(17) 36_455 35_435
O3 Ba1 O3 97.031(17) 34_655 35_435
O3 Ba1 O3 122.41(2) 25_565 35_435
O3 Ba1 O3 135.15(2) 26_345 35_435
O3 Mg2 O3 180.00(6) 29_445 17_554
O3 Mg2 O3 86.64(3) 29_445 30_455
O3 Mg2 O3 93.36(3) 17_554 30_455
O3 Mg2 O3 93.36(3) 29_445 18_544
O3 Mg2 O3 86.64(3) 17_554 18_544
O3 Mg2 O3 180.00(6) 30_455 18_544
O3 Mg2 O3 86.64(3) 29_445 28
O3 Mg2 O3 93.36(3) 17_554 28
O3 Mg2 O3 86.64(3) 30_455 28
O3 Mg2 O3 93.36(3) 18_544 28
O3 Mg2 O3 93.36(3) 29_445 16_444
O3 Mg2 O3 86.64(3) 17_554 16_444
O3 Mg2 O3 93.36(3) 30_455 16_444
O3 Mg2 O3 86.64(3) 18_544 16_444
O3 Mg2 O3 180.00(4) 28 16_444
O3 Mg2 Ba1 98.311(19) 29_445 13_444
O3 Mg2 Ba1 81.689(19) 17_554 13_444
O3 Mg2 Ba1 41.52(2) 30_455 13_444
O3 Mg2 Ba1 138.48(2) 18_544 13_444
O3 Mg2 Ba1 48.18(2) 28 13_444
O3 Mg2 Ba1 131.82(2) 16_444 13_444
O3 Mg2 Ba1 81.689(19) 29_445 25
O3 Mg2 Ba1 98.311(19) 17_554 25
O3 Mg2 Ba1 138.48(2) 30_455 25
O3 Mg2 Ba1 41.52(2) 18_544 25
O3 Mg2 Ba1 131.82(2) 28 25
O3 Mg2 Ba1 48.18(2) 16_444 25
Ba1 Mg2 Ba1 180.0 13_444 25
O3 Mg2 Ba1 48.18(2) 29_445 13_554
O3 Mg2 Ba1 131.82(2) 17_554 13_554
O3 Mg2 Ba1 98.311(19) 30_455 13_554
O3 Mg2 Ba1 81.689(19) 18_544 13_554
O3 Mg2 Ba1 41.52(2) 28 13_554
O3 Mg2 Ba1 138.48(2) 16_444 13_554
Ba1 Mg2 Ba1 77.121(2) 13_444 13_554
Ba1 Mg2 Ba1 102.879(2) 25 13_554
O3 Mg2 Ba1 131.82(2) 29_445 25_445
O3 Mg2 Ba1 48.18(2) 17_554 25_445
O3 Mg2 Ba1 81.689(19) 30_455 25_445
O3 Mg2 Ba1 98.311(19) 18_544 25_445
O3 Mg2 Ba1 138.48(2) 28 25_445
O3 Mg2 Ba1 41.52(2) 16_444 25_445
Ba1 Mg2 Ba1 102.879(2) 13_444 25_445
Ba1 Mg2 Ba1 77.121(2) 25 25_445
Ba1 Mg2 Ba1 180.0 13_554 25_445
O3 Mg2 Ba1 41.52(2) 29_445 13_544
O3 Mg2 Ba1 138.48(2) 17_554 13_544
O3 Mg2 Ba1 48.18(2) 30_455 13_544
O3 Mg2 Ba1 131.82(2) 18_544 13_544
O3 Mg2 Ba1 98.312(19) 28 13_544
O3 Mg2 Ba1 81.688(19) 16_444 13_544
Ba1 Mg2 Ba1 77.121(2) 13_444 13_544
Ba1 Mg2 Ba1 102.879(2) 25 13_544
Ba1 Mg2 Ba1 77.121(2) 13_554 13_544
Ba1 Mg2 Ba1 102.879(2) 25_445 13_544
O3 Mg2 Ba1 138.48(2) 29_445 25_455
O3 Mg2 Ba1 41.52(2) 17_554 25_455
O3 Mg2 Ba1 131.82(2) 30_455 25_455
O3 Mg2 Ba1 48.18(2) 18_544 25_455
O3 Mg2 Ba1 81.688(19) 28 25_455
O3 Mg2 Ba1 98.312(19) 16_444 25_455
Ba1 Mg2 Ba1 102.879(2) 13_444 25_455
Ba1 Mg2 Ba1 77.121(2) 25 25_455
Ba1 Mg2 Ba1 102.879(2) 13_554 25_455
Ba1 Mg2 Ba1 77.121(2) 25_445 25_455
Ba1 Mg2 Ba1 180.0 13_544 25_455
C4 O3 Mg2 139.37(6) 1_565 16_554
C4 O3 Ba1 99.64(4) 1_565 25_455
Mg2 O3 Ba1 109.68(3) 16_554 25_455
C4 O3 Ba1 88.94(4) 1_565 25_565
Mg2 O3 Ba1 101.76(3) 16_554 25_565
Ba1 O3 Ba1 116.57(2) 25_455 25_565
O3 C4 O3 119.907(6) 2_665 3_455
O3 C4 O3 119.907(6) 2_665 1_545
O3 C4 O3 119.907(6) 3_455 1_545
O3 C4 Ba1 149.14(6) 2_665 25_445
O3 C4 Ba1 68.24(4) 3_455 25_445
O3 C4 Ba1 57.88(4) 1_545 25_445
O3 C4 Ba1 57.88(4) 2_665 25
O3 C4 Ba1 149.14(6) 3_455 25
O3 C4 Ba1 68.24(4) 1_545 25
Ba1 C4 Ba1 99.053(18) 25_445 25
O3 C4 Ba1 68.24(4) 2_665 25_455
O3 C4 Ba1 57.88(4) 3_455 25_455
O3 C4 Ba1 149.14(6) 1_545 25_455
Ba1 C4 Ba1 99.052(18) 25_445 25_455
Ba1 C4 Ba1 99.052(18) 25 25_455
loop_
_geom_bond_atom_site_label_1
_geom_bond_atom_site_label_2
_geom_bond_distance
_geom_bond_site_symmetry_2
Ba1 O3 2.8324(7) 35_445
Ba1 O3 2.8324(7) 26_445
Ba1 O3 2.8324(8) 25_455
Ba1 O3 2.8324(8) 34_545
Ba1 O3 2.8324(7) 36
Ba1 O3 2.8324(7) 27
Ba1 O3 3.0625(8) 27_545
Ba1 O3 3.0625(8) 36_455
Ba1 O3 3.0626(8) 34_655
Ba1 O3 3.0626(8) 25_565
Ba1 O3 3.0626(8) 26_345
Ba1 O3 3.0626(8) 35_435
Mg2 O3 2.0586(6) 29_445
Mg2 O3 2.0586(6) 17_554
Mg2 O3 2.0586(6) 30_455
Mg2 O3 2.0586(6) 18_544
Mg2 O3 2.0586(6) 28
Mg2 O3 2.0586(6) 16_444
Mg2 Ba1 4.02349(9) 13_444
Mg2 Ba1 4.02349(9) 25
Mg2 Ba1 4.02349(9) 13_554
Mg2 Ba1 4.02349(9) 25_445
Mg2 Ba1 4.02351(9) 13_544
Mg2 Ba1 4.02351(9) 25_455
O3 C4 1.2786(6) 1_565
O3 Mg2 2.0586(6) 16_554
O3 Ba1 2.8323(7) 25_455
O3 Ba1 3.0625(8) 25_565
C4 O3 1.2786(6) 2_665
C4 O3 1.2786(6) 3_455
C4 O3 1.2786(6) 1_545
C4 Ba1 3.2969(4) 25_445
C4 Ba1 3.2969(4) 25
C4 Ba1 3.2970(4) 25_455
