#------------------------------------------------------------------------------
#$Date: 2019-12-26 22:13:08 +0200 (Thu, 26 Dec 2019) $
#$Revision: 246156 $
#$URL: file:///home/coder/svn-repositories/cod/cif/2/31/18/2311896.cif $
#------------------------------------------------------------------------------
#
# This file is available in the Crystallography Open Database (COD),
# http://www.crystallography.net/. The original data for this entry
# were provided by IUCr Journals, http://journals.iucr.org/.
#
# The file may be used within the scientific community so long as
# proper attribution is given to the journal article from which the
# data were obtained.
#
data_2311896
loop_
_publ_author_name
'Celania, Chris'
'Smetana, Volodymyr'
'Mudring, Anja Verena'
_publ_section_title
;
 Crystal structures and new perspectives on Y<sub>3</sub>Au<sub>4</sub>
 and Y<sub>14</sub>Au<sub>51</sub>.
;
_journal_coeditor_code           WQ3137
_journal_issue                   'Pt 9'
_journal_name_full
'Acta crystallographica. Section C, Structural chemistry'
_journal_page_first              692
_journal_page_last               696
_journal_paper_doi               10.1107/S2053229617011068
_journal_volume                  73
_journal_year                    2017
_chemical_formula_iupac          'Y14 Au51'
_chemical_formula_sum            'Au51 Y14'
_chemical_formula_weight         11290.03
_chemical_name_systematic
;
Tetradecayttrium henpentacontagold
;
_space_group_crystal_system      hexagonal
_space_group_IT_number           175
_space_group_name_Hall           '-P 6'
_space_group_name_H-M_alt        'P 6/m'
_audit_creation_method           SHELXL-2014/7
_cell_angle_alpha                90
_cell_angle_beta                 90
_cell_angle_gamma                120
_cell_formula_units_Z            1
_cell_length_a                   12.5433(17)
_cell_length_b                   12.5433(17)
_cell_length_c                   9.1389(14)
_cell_measurement_reflns_used    12877
_cell_measurement_temperature    293(2)
_cell_measurement_theta_max      27.983
_cell_measurement_theta_min      2.229
_cell_volume                     1245.2(3)
_computing_cell_refinement
;
SAINT (Bruker, 2015)
;
_computing_data_collection
;
APEX3 (Bruker, 2015)
;
_computing_data_reduction
;
SAINT (Bruker, 2015)
;
_computing_molecular_graphics
;
'DIAMOND (Brandenburg, 2006)
;
_computing_publication_material
;
SHELXL2014 (Sheldrick, 2015b)
;
_computing_structure_refinement
;
SHELXL2014 (Sheldrick, 2015b)
;
_computing_structure_solution
;
SHELXT (Sheldrick, 2015a)
;
_diffrn_ambient_temperature      293(2)
_diffrn_measured_fraction_theta_full 0.999
_diffrn_measured_fraction_theta_max 0.999
_diffrn_measurement_device_type  'Bruker Venture'
_diffrn_measurement_method       'w scan'
_diffrn_radiation_type           MoK\a
_diffrn_radiation_wavelength     0.71073
_diffrn_reflns_av_R_equivalents  0.0536
_diffrn_reflns_limit_h_max       16
_diffrn_reflns_limit_h_min       -13
_diffrn_reflns_limit_k_max       13
_diffrn_reflns_limit_k_min       -16
_diffrn_reflns_limit_l_max       12
_diffrn_reflns_limit_l_min       -12
_diffrn_reflns_number            12877
_diffrn_reflns_theta_full        25.242
_diffrn_reflns_theta_max         27.983
_diffrn_reflns_theta_min         2.229
_exptl_absorpt_coefficient_mu    165.568
_exptl_absorpt_correction_T_max  0.06
_exptl_absorpt_correction_T_min  0.01
_exptl_absorpt_correction_type   empirical
_exptl_absorpt_process_details
;
[Blessing (1995) OR SADABS (Krause <i>et al.</i>,  2015)]
;
_exptl_crystal_colour            grey
_exptl_crystal_density_diffrn    15.056
_exptl_crystal_description       'irregular fragment'
_exptl_crystal_F_000             4575
_exptl_crystal_size_max          0.06
_exptl_crystal_size_mid          0.05
_exptl_crystal_size_min          0.05
_refine_diff_density_max         2.261
_refine_diff_density_min         -2.500
_refine_ls_extinction_coef       0.000329(14)
_refine_ls_extinction_expression Fc^*^=kFc[1+0.001xFc^2^\l^3^/sin(2\q)]^-1/4^
_refine_ls_extinction_method
;
SHELXL2014 (Sheldrick, 2015b)
;
_refine_ls_goodness_of_fit_ref   1.128
_refine_ls_hydrogen_treatment    undef
_refine_ls_matrix_type           full
_refine_ls_number_parameters     62
_refine_ls_number_reflns         1075
_refine_ls_number_restraints     0
_refine_ls_restrained_S_all      1.128
_refine_ls_R_factor_all          0.0270
_refine_ls_R_factor_gt           0.0223
_refine_ls_shift/su_max          0.000
_refine_ls_shift/su_mean         0.000
_refine_ls_structure_factor_coef Fsqd
_refine_ls_weighting_details
'w=1/[\s^2^(Fo^2^)+(0.0098P)^2^+45.9960P] where P=(Fo^2^+2Fc^2^)/3'
_refine_ls_weighting_scheme      calc
_refine_ls_wR_factor_gt          0.0418
_refine_ls_wR_factor_ref         0.0437
_reflns_number_gt                994
_reflns_number_total             1075
_reflns_threshold_expression     'I > 2\s(I)'
_cod_data_source_file            wq3137sup1.cif
_cod_data_source_block           vsYAu_0m
_cod_original_cell_volume        1245.2(4)
_cod_database_code               2311896
_shelx_space_group_comment
;
The symmetry employed for this shelxl refinement is uniquely defined
by the following loop, which should always be used as a source of
symmetry information in preference to the above space-group names.
They are only intended as comments.
;
_shelx_hkl_file
;
  -2   1   0    2.40    1.10
   1  -2   0    1.90    1.30
   1   1   0    1.60    1.10
   1   1   0    1.00    1.10
  -1  -1   0    0.60    1.10
  -1  -1   0    3.50    1.20
  -1   2   0    0.10    1.20
   2  -1   0    0.00    0.90
   0  -2   0   21.10    1.90
   0  -2   0   23.80    2.50
   2   0   0   21.80    2.40
   2   0   0   18.90    2.40
  -2   2   0   15.10    2.90
   2  -2   0   15.90    2.60
   0   2   0   21.80    1.80
   0   2   0   22.80    2.50
  -2   0   0   19.00    2.40
  -2   0   0   16.40    2.30
  -3   1   0  299.67   16.50
   1   2   0  343.17   16.10
   1   2   0  342.87   15.30
   1   2   0  325.57   16.70
  -1  -2   0  313.77   16.20
  -1  -2   0  309.97   16.60
   3  -1   0  298.97   16.60
   3  -1   0  320.87   16.70
   1  -3   0  416.26   19.70
   2   1   0  435.26   20.20
   1  -3   0  346.57   20.30
  -3   2   0  374.36   20.40
   2   1   0  413.66   20.30
   1  -3   0  386.86   20.30
  -1   3   0  371.56   20.50
  -2  -1   0  411.26   20.30
  -2  -1   0  413.46   20.50
   0  -3   0    3.80    2.00
  -3   3   0    0.90    2.90
   0  -3   0    0.50    1.00
   3   0   0    3.20    1.80
   3   0   0    2.50    1.90
   0  -3   0    3.90    1.30
  -3   0   0   -2.50    1.60
   3  -3   0   -0.10    2.00
   0   3   0    4.60    2.00
   0   3   0    2.40    1.30
  -3   0   0    5.10    2.10
   1   3   0   84.19    6.40
  -4   1   0   76.39    6.30
   1   3   0   88.49    4.60
   1   3   0   88.59    5.40
   4  -1   0   73.09    6.30
   4  -1   0   82.69    6.30
  -1  -3   0   73.99    6.40
  -1  -3   0   81.39    5.80
  -3   4   0   73.49    7.80
   2   2   0   19.10    2.10
   2   2   0   20.90    3.30
   2   2   0   19.00    3.50
   2  -4   0   15.90    3.70
  -4   2   0   20.20    3.40
  -2   4   0   19.00    4.50
  -2  -2   0   16.90    3.40
  -2  -2   0   34.70    3.90
   4  -2   0   13.90    3.00
   3   1   0    9.60    2.80
   1  -4   0    7.80    2.00
   3   1   0    8.30    2.90
   1  -4   0    9.80    2.90
   1  -4   0   20.70    3.40
  -4   3   0   11.10    3.70
  -3  -1   0    9.30    3.00
  -1   4   0    9.90    2.70
  -3  -1   0   18.10    3.80
   4  -3   0   11.90    3.40
   4   0   0 1258.47   65.59
   0  -4   0 1392.36   64.79
  -4   4   0 1452.95   67.79
   0  -4   0 1457.15   64.09
   0  -4   0 1342.97   65.59
   0  -4   0 1426.96   65.99
   4  -4   0 1176.68   66.39
  -4   0   0 1316.67   65.99
   0   4   0 1382.46   64.49
  -4   0   0 1418.96   66.09
   1   4   0 2363.46  106.39
   4  -5   0 2260.87  108.89
  -1  -4   0 2202.18  106.89
   5  -1   0 2207.58  107.89
  -1  -4   0 2190.18  107.79
   5  -1   0 2167.68  107.69
  -4   5   0 2447.26  110.39
   2   3   0  230.48   14.10
  -5   2   0  228.48   14.40
   2   3   0  251.47   11.80
   2   3   0  252.97   13.30
   3  -5   0  221.48   14.80
  -2  -3   0  233.68   14.20
  -2  -3   0  227.38   13.60
   5  -2   0  241.98   14.40
   5  -2   0  235.38   14.50
  -3   5   0  227.78   16.20
   2  -5   0 1360.26   75.19
   3   2   0 1688.43   74.29
  -5   3   0 1466.95   74.89
   2  -5   0 1621.24   73.89
   3   2   0 1593.34   74.69
   2  -5   0 1517.05   74.99
   5  -3   0 1510.85   75.19
  -3  -2   0 1455.85   74.39
  -2   5   0 1612.64   75.89
  -3  -2   0 1612.64   74.89
   1  -5   0 7927.21  420.46
   4   1   0 9062.19  416.76
  -5   4   0 8730.33  418.26
   1  -5   0 9999.00  416.06
  -4  -1   0 8448.16  417.26
  -1   5   0 9889.01  417.56
   5  -4   0 9133.89  418.26
  -4  -1   0 8243.08  417.06
   0  -5   0 2023.00   96.19
   0  -5   0 1925.91   95.59
   0  -5   0 2101.39   93.39
   5   0   0 1930.91   95.69
   5   0   0 1869.51   95.39
   0  -5   0 2092.59   94.59
  -5   5   0 2170.78   98.29
   5  -5   0 1875.11   96.59
   0   5   0 1977.10   95.69
  -5   0   0 1975.20   96.09
   0   5   0 2042.40   94.09
  -5   0   0 1942.91   96.29
   5  -6   0  503.55   28.90
   1   5   0  531.25   28.00
   1   5   0  526.35   26.10
  -6   1   0  536.05   28.50
   6  -1   0  527.35   28.30
  -1  -5   0  483.15   26.80
  -5   6   0  594.34   31.50
   6  -1   0  501.15   28.00
  -1  -5   0  511.55   28.10
  -6   2   0  195.28   13.40
   2   4   0  213.98   10.20
   4  -6   0  175.68   13.40
   2   4   0  194.48   11.60
   2   4   0  188.18   12.90
  -2  -4   0  193.48   12.40
   6  -2   0  196.88   13.60
  -4   6   0  212.48   16.10
   6  -2   0  203.28   13.40
   3  -6   0  117.69    9.90
   3  -6   0  107.69    9.90
   3   3   0  124.29    6.90
  -6   3   0  108.79   10.00
   3   3   0  124.09   10.10
   3   3   0  113.79    9.70
  -3  -3   0  135.49    9.90
  -3   6   0  113.89   11.60
   6  -3   0  129.29   10.40
  -3  -3   0  125.09   10.10
   2  -6   0  659.73   32.40
  -6   4   0  595.04   34.10
   2  -6   0  659.23   33.80
   2  -6   0  594.54   33.70
   4   2   0  670.03   33.70
   4   2   0  693.73   33.20
   6  -4   0  615.44   34.30
   5   1   0 2514.35  121.69
   1  -6   0 2619.54  120.59
  -6   5   0 2544.65  123.99
   5   1   0 2459.25  121.99
   1  -6   0 2474.85  122.29
   1  -6   0 2760.62  122.69
  -5  -1   0 2535.05  122.49
  -5  -1   0 2480.15  122.39
  -1   6   0 2596.84  122.29
   6   0   0   86.69    8.70
   0  -6   0   92.39    5.60
   0  -6   0   91.89    8.10
   6   0   0   88.89    9.50
   0  -6   0   86.99    8.70
   0  -6   0  112.49   10.10
  -6   6   0   89.49   11.40
   0   6   0  107.69    7.40
   0   6   0  108.89    9.10
  -6   0   0   89.89    9.70
   6  -6   0   97.59   10.30
   6  -7   0    4.20    4.60
  -7   1   0    2.10    5.00
   1   6   0    7.40    3.00
   1   6   0    8.80    4.30
   7  -1   0    8.00    5.80
  -1  -6   0   10.40    4.30
  -1  -6   0    8.70    4.80
  -1  -6   0   10.70    4.10
   7  -1   0   28.20    5.60
  -6   7   0    6.50    7.60
   2   5   0  104.59    9.50
   2   5   0   93.09    7.60
  -7   2   0   85.59   10.40
   5  -7   0   93.39   10.00
  -5   7   0  124.69   14.20
   7  -2   0   92.89    9.70
   7  -2   0  105.99   10.90
  -2  -5   0   91.89    9.10
  -2  -5   0  100.29   10.00
   4  -7   0  120.79   11.20
   3   4   0  131.59   10.70
   3   4   0  143.59    7.50
  -7   3   0  122.39   11.40
   4  -7   0  126.59   11.20
   3   4   0  130.79    9.60
  -4   7   0  124.49   14.30
  -3  -4   0  134.49   11.30
   7  -3   0  124.29   12.20
   7  -3   0  110.19   10.60
   4   3   0  771.22   38.00
   3  -7   0  740.63   37.60
  -7   4   0  698.13   39.50
   3  -7   0  787.32   39.20
   3  -7   0  699.33   39.20
   4   3   0  756.02   36.00
   4   3   0  736.53   38.70
  -4  -3   0  733.03   38.40
   7  -4   0  756.52   39.60
   7  -4   0  690.73   39.50
  -4  -3   0  780.02   39.00
   2  -7   0   22.50    5.20
  -7   5   0   38.70    7.60
   2  -7   0   22.20    5.70
   2  -7   0   19.60    5.60
   5   2   0   34.40    5.90
   5   2   0   27.00    5.60
   7  -5   0   16.20    5.40
  -5  -2   0   32.90    6.40
  -5  -2   0   17.00    6.00
   1  -7   0  115.79   11.10
   6   1   0  117.69   10.80
  -7   6   0  113.89   13.20
   1  -7   0  108.99   10.40
   6   1   0  113.29   10.30
   1  -7   0  115.89    7.80
  -6  -1   0   78.99   10.10
   7  -6   0   96.89   11.20
  -1   7   0  104.79   10.00
  -6  -1   0  106.59   11.50
   0  -7   0  999.30   51.09
   7   0   0  972.40   51.09
   0  -7   0  991.50   51.29
  -7   7   0 1137.09   54.79
   7   0   0  927.91   51.19
   0  -7   0 1027.70   47.50
   7  -7   0 1002.20   52.69
   0   7   0  935.81   51.09
   0   7   0 1045.10   49.10
   1   7   0  543.15   30.20
   1   7   0  540.05   27.60
  -8   1   0  549.25   31.20
   7  -8   0  513.75   31.10
  -7   8   0  624.64   35.10
  -1  -7   0  541.05   29.90
  -1  -7   0  524.65   30.60
   8  -1   0  518.85   30.90
  -1  -7   0  520.25   28.90
   8  -1   0  507.05   30.40
   6  -8   0 3622.14  166.48
   2   6   0 3340.47  165.38
   2   6   0 3621.64  163.18
  -8   2   0 3346.47  166.08
   8  -2   0 3443.16  166.08
  -2  -6   0 3431.46  164.18
  -2  -6   0 3349.66  165.18
   8  -2   0 3559.04  165.98
   5  -8   0  447.36   28.10
   3   5   0  509.25   24.10
  -8   3   0  480.25   29.00
   3   5   0  484.45   26.00
   3   5   0  524.25   28.10
   8  -3   0  457.55   28.60
  -3  -5   0  505.85   27.90
   8  -3   0  485.35   28.70
  -5   8   0  530.15   32.40
   4   4   0  154.98   12.60
   4  -8   0  113.69   12.40
   4   4   0  149.09   11.80
   4   4   0  159.28    8.90
   4  -8   0  141.39   13.00
  -8   4   0  143.99   14.30
   4  -8   0  162.58   11.80
  -4  -4   0  189.68   13.30
   8  -4   0  162.78   15.50
   8  -4   0  144.89   13.30
  -4  -4   0  147.49   12.30
   3  -8   0  488.05   29.70
  -8   5   0  491.65   31.00
   3  -8   0  504.05   27.70
   5   3   0  533.05   26.30
   5   3   0  544.45   29.40
   3  -8   0  536.25   29.70
   5   3   0  549.85   28.70
   8  -5   0  561.04   31.60
  -5  -3   0  532.65   29.40
  -5  -3   0  503.15   29.20
   8  -5   0  475.65   30.50
   2  -8   0  156.38   13.40
   2  -8   0  161.28   13.70
   6   2   0  146.89   12.40
   2  -8   0  147.09   11.50
  -8   6   0  146.49   16.40
   6   2   0  166.98   13.30
   8  -6   0  148.89   14.50
  -6  -2   0  152.58   13.80
  -6  -2   0  129.19   13.20
   1  -8   0    9.50    4.10
   1  -8   0   -1.20    6.00
   1  -8   0    2.40    5.40
   7   1   0   -4.00    4.60
   7   1   0    3.10    6.20
  -8   7   0    5.50    8.60
   1  -8   0    6.70    2.80
  -7  -1   0    7.80    6.20
  -1   8   0   12.80    5.70
   8  -7   0   15.20    6.60
   0  -8   0   42.50    8.00
   8   0   0   41.00    8.80
   0  -8   0   45.10    3.80
   0  -8   0   33.20    6.50
   0  -8   0   40.60    9.00
  -8   8   0   58.99   13.10
   8   0   0   43.70    8.60
   0   8   0   31.20    8.10
  -8   0   0   49.99    9.50
   8  -8   0   40.10    8.10
  -9   1   0  859.81   48.70
   1   8   0  892.21   47.30
   8  -9   0  960.80   48.70
   1   8   0  877.61   44.30
  -1  -8   0  871.21   47.70
  -1  -8   0  894.01   45.90
  -1  -8   0  911.61   47.10
   9  -1   0  852.61   48.10
   9  -1   0  876.61   47.90
  -9   2   0 1180.08   63.69
   7  -9   0 1285.77   63.49
   2   7   0 1228.18   59.59
   2   7   0 1190.48   62.39
   9  -2   0 1201.98   63.39
   9  -2   0 1216.78   63.29
  -2  -7   0 1199.18   60.99
  -2  -7   0 1148.39   62.19
  -7   9   0 1380.76   67.19
  -2  -7   0 1232.38   61.59
   3   6   0 3107.99  161.78
   6  -9   0 3367.96  162.58
   3   6   0 3366.76  159.58
  -6   9   0 3787.72  166.68
   9  -3   0 3283.77  163.08
  -3  -6   0 3454.35  161.68
   9  -3   0 3309.07  162.88
  -3  -6   0 3366.76  160.58
  -9   4   0 2043.00  107.99
   4   5   0 2163.88  104.79
   4   5   0 2075.89  106.59
   5  -9   0 2074.09  106.99
   5  -9   0 2223.98  106.89
   4   5   0 2236.88  102.79
   9  -4   0 2207.98  108.19
  -4  -5   0 2305.87  105.89
  -4  -5   0 2344.57  106.59
  -5   9   0 2245.98  110.29
   9  -4   0 2098.59  108.19
  -9   5   0   41.20   10.00
   5   4   0   36.50    4.90
   4  -9   0   48.20    8.40
   5   4   0   50.39    7.70
   4  -9   0   43.00    8.10
   5   4   0   52.59    8.20
   9  -5   0   49.60    9.70
  -5  -4   0   46.30    8.80
   9  -5   0   38.40   10.90
  -5  -4   0   51.19    8.60
   3  -9   0 2403.06  124.59
   3  -9   0 2606.54  122.29
   6   3   0 2628.64  121.09
  -9   6   0 2462.55  126.59
   6   3   0 2601.94  124.19
   6   3   0 2666.63  123.09
   9  -6   0 2523.45  126.29
   9  -6   0 2561.74  125.69
  -6  -3   0 2537.05  123.89
  -6  -3   0 2572.04  124.09
   2  -9   0  434.96   27.80
   7   2   0  468.55   27.40
   2  -9   0  479.25   28.70
   2  -9   0  435.86   25.20
  -9   7   0  479.05   32.10
   7   2   0  469.25   27.50
   9  -7   0  450.25   29.40
  -7  -2   0  457.05   28.20
  -7  -2   0  464.95   28.10
   8   1   0  340.77   23.10
   8   1   0  325.67   22.20
   1  -9   0  339.77   23.90
   1  -9   0  331.07   22.60
  -9   8   0  343.17   28.00
   1  -9   0  325.17   20.20
   1  -9   0  319.47   17.30
  -8  -1   0  335.77   23.40
  -1   9   0  342.67   22.40
   9  -8   0  358.76   24.30
   9   0   0  467.35   29.00
   0  -9   0  465.45   28.80
   0  -9   0  478.55   22.60
   0  -9   0  468.65   27.00
   0  -9   0  435.56   30.00
   9   0   0  474.55   29.90
   0   9   0  456.65   28.60
   9  -9   0  501.95   30.20
  -9   0   0  453.75   30.20
   1   9   0  634.14   34.50
   1   9   0  656.93   38.00
   9 -10   0  719.33   39.20
 -10   1   0  668.63   40.40
  10  -1   0  656.23   38.70
  -1  -9   0  625.64   38.80
  -1  -9   0  651.83   36.20
  -1  -9   0  681.13   38.00
   8 -10   0 1092.99   54.29
   2   8   0  993.30   49.80
   2   8   0  966.30   53.09
 -10   2   0 1000.30   55.19
  -2  -8   0  971.30   53.29
  10  -2   0  988.50   54.09
  -2  -8   0 1037.70   52.59
  -2  -8   0  973.20   51.29
   3   7   0  505.45   26.60
   3   7   0  490.95   29.30
 -10   3   0  471.35   31.70
   7 -10   0  479.75   29.50
  -3  -7   0  483.75   27.80
  -3  -7   0  491.15   29.40
  10  -3   0  462.85   30.40
  -3  -7   0  488.75   27.70
   6 -10   0  323.17   23.50
   6 -10   0  336.57   22.80
   4   6   0  340.97   20.60
   4   6   0  326.97   22.40
 -10   4   0  340.97   26.20
   4   6   0  334.87   17.60
  -4  -6   0  340.07   21.30
  -4  -6   0  355.46   22.90
  10  -4   0  343.37   24.60
   5   5   0  206.78   15.30
   5 -10   0  172.68   22.80
   5   5   0  208.68   16.60
   5 -10   0  199.18   14.70
   5   5   0  187.38   12.60
   5 -10   0  200.58   16.80
 -10   5   0  205.68   24.10
  10  -5   0  225.48   19.70
  -5  -5   0  198.88   15.80
  -5  -5   0  227.28   17.20
 -10   6   0  118.19   17.10
   6   4   0  128.09   13.00
   4 -10   0  130.09   11.70
   4 -10   0  135.69   14.70
   6   4   0  115.79   12.00
   4 -10   0  110.29   14.50
   6   4   0  130.89    9.10
  10  -6   0   97.89   14.50
  -6  -4   0  122.69   13.00
  -6  -4   0  127.29   14.20
   7   3   0 3928.71  190.08
   7   3   0 4039.90  188.98
 -10   7   0 4078.29  197.08
   7   3   0 3914.61  186.78
   3 -10   0 3919.11  190.18
   3 -10   0 4078.09  188.08
   3 -10   0 3823.82  190.58
  -7  -3   0 3913.11  190.08
  -7  -3   0 3966.60  189.98
  10  -7   0 4028.50  193.28
   2 -10   0 1166.68   61.79
   2 -10   0 1199.38   58.69
   8   2   0 1224.88   61.39
   2 -10   0 1173.38   61.59
   2 -10   0 1192.58   57.09
   8   2   0 1222.58   60.99
  10  -8   0 1162.48   63.49
  -8  -2   0 1046.60   60.59
   1 -10   0 1307.27   67.09
   1 -10   0 1322.77   64.39
   1 -10   0 1244.98   67.39
   9   1   0 1311.97   66.99
   1 -10   0 1257.27   60.89
  10  -9   0 1379.56   68.89
  -9  -1   0 1178.38   66.89
   0 -10   0   10.90   10.60
  10   0   0    1.00    7.60
   0 -10   0   -5.40    6.40
   0 -10   0    2.60    8.10
  10 -10   0    8.40    8.30
 -10   0   0    8.40   10.80
   0  10   0   -2.20    6.90
  10 -11   0  305.17   23.80
 -11   1   0  257.17   27.50
   1  10   0  305.87   23.20
  11  -1   0  304.57   23.90
  -1 -10   0  308.17   21.00
  -1 -10   0  283.17   25.20
  -1 -10   0  282.77   22.70
 -11   2   0  644.14   42.80
   2   9   0  609.54   38.40
   2   9   0  639.64   34.70
   9 -11   0  699.83   39.20
  -2  -9   0  701.43   39.50
  -2  -9   0  659.43   37.60
  11  -2   0  631.44   39.60
  -2  -9   0  676.53   36.40
   3   8   0   44.60    9.60
   8 -11   0   35.20    9.50
 -11   3   0   46.40   14.40
   3   8   0   37.30    7.30
  -3  -8   0   40.30   10.50
  -3  -8   0   49.00    8.50
  -3  -8   0   41.40    8.70
  11  -3   0   24.60    9.70
   7 -11   0  430.16   27.70
   4   7   0  396.36   24.80
 -11   4   0  425.46   32.40
   4   7   0  374.46   27.60
  11  -4   0  400.86   29.50
  -4  -7   0  490.05   28.20
  -4  -7   0  491.65   26.30
   5   6   0   -0.30    6.80
   5   6   0    4.30    6.70
   6 -11   0   -6.60    6.90
   5   6   0    5.80    3.30
 -11   5   0  -18.10   13.40
   6 -11   0    9.10    5.50
  11  -5   0   23.90   10.40
  -5  -6   0   -0.60    6.10
  -5  -6   0    0.70    8.10
   5 -11   0 2301.57  112.49
   6   5   0 2283.87  111.79
   6   5   0 2265.57  106.89
   5 -11   0 2340.47  109.59
   5 -11   0 2176.18  111.89
   6   5   0 2264.17  109.59
  -6  -5   0 2225.88  110.59
  -6  -5   0 2253.77  110.29
  11  -6   0 2212.88  115.09
   4 -11   0    6.60    5.80
   7   4   0    3.70    7.10
   7   4   0   14.40    8.20
   4 -11   0    3.00    7.90
   4 -11   0   12.40    9.70
   7   4   0   10.70    4.30
  -7  -4   0   14.90    7.60
  -7  -4   0   -4.40    8.70
  11  -7   0    9.20   10.50
   3 -11   0  763.12   39.40
   3 -11   0  723.23   43.00
   8   3   0  746.23   41.90
   3 -11   0  702.53   42.00
   8   3   0  768.72   38.40
   8   3   0  733.83   41.30
  -8  -3   0  717.53   41.70
  11  -8   0  766.92   45.90
   2 -11   0 1431.76   69.19
   2 -11   0 1335.67   66.39
   2 -11   0 1422.36   72.59
   9   2   0 1443.06   72.19
   2 -11   0 1342.17   72.69
  11  -9   0 1415.06   74.39
  -9  -2   0 1323.47   71.79
   1 -11   0   62.89   14.50
  10   1   0   52.59   11.50
   1 -11   0   45.50    8.90
   1 -11   0   41.30   10.80
  11 -10   0   41.80   11.50
 -10  -1   0   54.19   12.90
  11   0   0  307.07   25.30
   0 -11   0  322.87   25.20
   0 -11   0  331.27   22.80
   0 -11   0  302.37   28.70
   0  11   0  321.37   25.10
 -11   0   0  302.97   28.90
  11 -11   0  370.16   26.50
   1  11   0 1091.79   63.49
  11 -12   0 1246.88   65.49
  12  -1   0 1121.79   64.29
  -1 -11   0 1132.29   64.59
  -1 -11   0 1187.88   60.39
  -1 -11   0 1208.78   62.99
  10 -12   0  881.51   45.60
   2  10   0  733.03   44.60
   2  10   0  703.13   40.20
  12  -2   0  755.42   46.10
  -2 -10   0  795.72   45.60
  -2 -10   0  754.62   41.50
  -2 -10   0  726.23   43.50
   3   9   0   41.90    8.40
   9 -12   0   30.10   10.20
   3   9   0   48.40   11.30
  12  -3   0   29.20   12.20
  -3  -9   0   32.70   11.40
  -3  -9   0   47.60   10.10
  -3  -9   0   23.70    7.70
   8 -12   0  242.18   20.10
   4   8   0  213.58   20.60
   4   8   0  210.18   17.50
  -4  -8   0  229.68   18.60
  -4  -8   0  249.88   21.20
  12  -4   0  202.38   22.40
  -4  -8   0  263.27   18.10
   5   7   0   -3.10    7.50
   5   7   0   -4.50    7.60
   7 -12   0   10.80    6.10
   7 -12   0    4.50    7.90
  -5  -7   0    1.90    9.60
  12  -5   0    7.60   11.20
  -5  -7   0   -3.80    6.60
   6   6   0   36.90    9.20
   6 -12   0   50.59    8.30
   6   6   0   28.40    8.90
   6   6   0   30.60    5.20
   6 -12   0   39.70   10.10
  -6  -6   0   20.80    8.00
  -6  -6   0   51.79   10.70
  12  -6   0   26.80   12.20
   5 -12   0  312.47   24.60
   7   5   0  337.97   24.80
   7   5   0  345.77   24.00
   7   5   0  344.57   19.00
   5 -12   0  342.57   21.90
  -7  -5   0  324.17   23.30
  -7  -5   0  311.87   24.60
  12  -7   0  383.16   30.30
   4 -12   0 1679.13   79.39
   8   4   0 1587.14   77.39
   4 -12   0 1571.34   82.09
   8   4   0 1616.94   82.29
  -8  -4   0 1548.84   80.99
  12  -8   0 1593.54   86.59
   3 -12   0  618.84   32.40
   9   3   0  633.54   37.50
   9   3   0  618.54   33.50
   3 -12   0  612.54   37.90
   3 -12   0  621.04   34.00
  -9  -3   0  568.14   37.10
  12  -9   0  604.44   40.40
   2 -12   0   -0.50    7.00
   2 -12   0   -1.00    3.80
  10   2   0   -5.30    8.70
   2 -12   0   11.50   10.20
 -10  -2   0   -4.70   11.50
  12 -10   0   -2.90   11.30
   1 -12   0  329.87   25.90
  11   1   0  320.67   26.30
   1 -12   0  300.87   22.30
  12 -11   0  329.97   26.00
 -11  -1   0  265.17   29.30
   0 -12   0  361.36   26.70
   0 -12   0  375.96   30.20
  12 -12   0  463.05   31.60
  12 -13   0  564.14   35.30
   1  12   0  430.06   33.50
  -1 -12   0  471.75   33.50
  -1 -12   0  475.35   30.00
  13  -1   0  415.66   34.60
  11 -13   0   44.80   12.60
  -2 -11   0   58.29   10.70
  13  -2   0   88.09   16.20
  -2 -11   0   65.59   13.40
  10 -13   0  463.05   29.90
   3  10   0  356.96   29.90
   3  10   0  419.36   26.00
  -3 -10   0  417.26   26.00
  -3 -10   0  382.16   28.50
  -3 -10   0  394.76   30.50
  13  -3   0  340.77   35.50
   9 -13   0  -15.10    8.20
   4   9   0   -1.80    8.40
   4   9   0    6.70   10.20
  -4  -9   0    4.30    9.20
  13  -4   0   -0.10   15.30
  -4  -9   0    9.20    7.70
  -4  -9   0    4.00   11.60
   5   8   0 1458.05   82.09
   5   8   0 1514.85   78.89
   8 -13   0 1743.13   83.09
   8 -13   0 1586.14   79.29
  -5  -8   0 1578.24   80.69
  -5  -8   0 1657.73   79.69
  -5  -8   0 1574.04   79.99
  13  -5   0 1617.04   87.09
   6   7   0  594.14   37.90
   7 -13   0  633.74   37.60
   7 -13   0  610.84   34.70
   6   7   0  612.64   30.80
   6   7   0  556.54   35.50
  -6  -7   0  673.73   35.60
  -6  -7   0  601.64   36.80
  13  -6   0  649.93   43.30
   7   6   0   62.29   12.80
   6 -13   0   92.49   10.90
   6 -13   0   74.29   12.60
   7   6   0   62.19    7.20
   7   6   0   55.69   12.50
  -7  -6   0   67.59   12.70
  -7  -6   0   87.29   11.90
  13  -7   0   64.89   20.00
   5 -13   0   86.89   14.00
   8   5   0  100.09   10.40
   8   5   0   83.69   13.80
   5 -13   0   87.99   11.60
  -8  -5   0   89.09   13.30
  -8  -5   0   89.89   14.00
  13  -8   0   61.49   28.80
   9   4   0  411.76   29.70
   4 -13   0  399.56   23.70
   9   4   0  379.66   23.80
   4 -13   0  403.46   29.30
   4 -13   0  430.16   25.70
  13  -9   0  406.46   34.60
  -9  -4   0  405.66   29.30
   3 -13   0    2.10    7.40
  10   3   0    3.80   10.40
   3 -13   0   14.60   10.40
  10   3   0    6.80    8.80
  13 -10   0    4.60   12.70
 -10  -3   0   22.90   12.70
   2 -13   0   34.60    9.90
   2 -13   0    0.50   11.40
  13 -11   0   18.00   13.70
   1 -13   0  270.27   22.60
   1 -13   0  263.17   25.70
  12   1   0  264.47   26.20
  13 -12   0  289.37   28.20
   0 -13   0 1017.40   56.59
  13   0   0  960.00   61.49
   0 -13   0 1127.69   60.19
  13 -13   0 1173.48   62.89
   1  13   0  759.72   50.49
  13 -14   0  839.52   50.39
  -1 -13   0  772.72   47.80
  14  -1   0  771.72   51.49
   2  12   0 1152.88   70.79
  12 -14   0 1395.66   71.39
  -2 -12   0 1333.47   65.69
  -2 -12   0 1305.47   69.39
  14  -2   0 1190.68   72.29
   3  11   0   14.10   12.80
  11 -14   0   38.30   13.20
  -3 -11   0    9.40   12.90
  14  -3   0   25.10   15.80
  -3 -11   0   33.40   10.00
   4  10   0   -9.70   11.50
  10 -14   0   -2.90   10.50
  14  -4   0   14.70   14.80
  -4 -10   0    3.20   11.90
  -4 -10   0  -11.20    8.10
   9 -14   0 1270.57   66.79
   9 -14   0 1365.66   70.39
  -5  -9   0 1321.37   66.79
  14  -5   0 1266.87   75.29
  -5  -9   0 1294.67   68.19
   8 -14   0   37.60    9.60
   8 -14   0   40.00   12.50
   6   8   0   52.09   14.00
  14  -6   0   57.19   17.20
  -6  -8   0   52.09   10.30
  -6  -8   0   50.59   11.90
   7   7   0  434.26   32.30
   7 -14   0  471.95   29.10
   7 -14   0  460.55   31.90
  14  -7   0  470.55   40.00
  -7  -7   0  505.75   30.60
   6 -14   0  222.48   22.30
   6 -14   0  162.48   18.30
   8   6   0  224.38   22.20
  14  -8   0  204.88   28.30
   5 -14   0  831.22   50.29
   5 -14   0  853.11   47.20
  14  -9   0  967.50   58.79
   4 -14   0 1873.91   93.19
   4 -14   0 1939.71   96.69
   4 -14   0 1813.92   90.59
  10   4   0 1878.31   97.39
  14 -10   0 1923.31  102.59
  11   3   0    5.20   12.10
   3 -14   0   16.10   12.40
   3 -14   0    2.90    9.30
  14 -11   0  -14.70   13.60
   2 -14   0  127.99   15.30
   2 -14   0  118.89   17.90
  12   2   0  120.59   19.50
  14 -12   0  144.49   22.40
  13   1   0   16.50   14.90
   1 -14   0   -2.90   13.40
  14 -13   0   27.60   15.60
  14   0   0  183.68   24.50
   0 -14   0  142.79   20.40
  14 -14   0  197.48   25.20
  14 -15   0    7.10   17.00
  15  -1   0  -10.80   18.70
   2  13   0  179.88   25.10
  13 -15   0  212.98   26.80
  15  -2   0  177.38   27.30
  12 -15   0 1289.87   66.19
   3  12   0  996.30   65.59
  -3 -12   0 1264.47   74.19
  15  -3   0 1044.90   68.59
   4  11   0   38.90   16.20
  11 -15   0   69.49   15.40
  15  -4   0   64.39   20.30
  -4 -11   0   60.79   15.20
  -4 -11   0   61.79   11.60
   5  10   0  248.88   27.80
  10 -15   0  334.47   27.30
  15  -5   0  250.27   31.30
  -5 -10   0  289.07   26.20
  -5 -10   0  255.17   21.70
   6   9   0   -9.80   12.70
   9 -15   0    9.40    9.20
   9 -15   0  -11.90   11.00
  -6  -9   0   21.40   12.20
  15  -6   0   -2.70   17.10
  -6  -9   0   -5.50    9.50
   8 -15   0  624.54   40.40
   7   8   0  540.15   40.00
   8 -15   0  580.54   36.10
  15  -7   0  650.03   49.40
  -7  -8   0  634.24   37.00
  -7  -8   0  625.64   37.90
   8   7   0   67.99   15.50
   7 -15   0   80.69   12.60
   7 -15   0   76.79   15.10
  15  -8   0   91.29   24.00
   6 -15   0  180.38   19.10
   6 -15   0  184.08   22.50
   9   6   0  170.48   20.90
  15  -9   0  154.08   26.30
   5 -15   0  119.49   14.10
   5 -15   0   91.99   17.20
  10   5   0   79.79   17.20
  15 -10   0   93.39   22.90
  11   4   0  392.76   34.70
   4 -15   0  404.86   28.10
  15 -11   0  431.66   37.50
   3 -15   0   25.60   14.80
  12   3   0   24.20   15.60
  15 -12   0   38.70   19.20
   2 -15   0  179.98   21.70
  13   2   0  177.88   24.60
  15 -13   0  189.28   26.90
  14   1   0  140.89   25.00
  15 -14   0  136.69   24.60
  15   0   0  157.98   27.60
  15 -15   0  191.78   27.20
  15 -16   0  258.37   31.70
  16  -1   0  264.47   33.90
  14 -16   0   40.00   18.70
   2  14   0    0.80   20.50
  16  -2   0   49.10   23.60
  13 -16   0  144.79   22.90
   3  13   0  136.29   23.90
  16  -3   0  118.09   26.70
   4  12   0  919.11   64.89
  12 -16   0 1199.08   61.49
  12 -16   0 1228.48   65.19
  16  -4   0 1030.20   69.99
  11 -16   0  302.17   29.50
   5  11   0  250.87   30.70
  11 -16   0  279.37   24.80
  16  -5   0  262.57   33.30
   6  10   0  138.59   22.50
  10 -16   0  191.08   23.00
  10 -16   0  250.57   22.50
  16  -6   0  203.48   32.20
   7   9   0  715.43   49.70
   9 -16   0  841.02   49.30
  16  -7   0  805.52   60.29
  -7  -9   0  787.72   45.10
   8 -16   0 1237.48   67.39
   8 -16   0 1229.68   63.79
   8   8   0 1120.29   67.69
  16  -8   0 1206.28   78.59
   7 -16   0   54.79   12.50
   7 -16   0   49.50   15.80
   9   7   0   32.80   15.30
  16  -9   0  103.09   25.00
  10   6   0  500.45   40.30
   6 -16   0  589.34   40.60
   6 -16   0  623.24   36.30
  16 -10   0  576.74   49.90
   5 -16   0  -11.60   14.20
  11   5   0   24.10   15.70
  16 -11   0   24.10   21.20
  12   4   0  291.87   32.80
   4 -16   0  314.87   31.00
  16 -12   0  336.17   39.70
   3 -16   0  725.63   46.90
  13   3   0  667.93   50.79
  16 -13   0  740.43   53.99
  14   2   0  146.99   26.10
  16 -14   0  180.78   27.40
  15   1   0  721.33   57.79
  16 -15   0  844.52   58.09
  13 -17   0 1216.88   66.69
  13 -17   0 1225.08   63.69
   4  13   0  889.11   66.79
  17  -4   0  947.31   71.39
   5  12   0  382.16   41.80
  12 -17   0  518.65   36.80
  12 -17   0  486.15   41.50
  17  -5   0  503.55   51.19
  11 -17   0  794.42   48.10
   6  11   0  737.53   54.39
  11 -17   0  859.31   52.69
  17  -6   0  822.82   64.59
  10 -17   0   60.09   14.30
  10 -17   0   35.10   17.70
   7  10   0   59.89   19.50
  17  -7   0   44.60   29.90
   9 -17   0    5.50   13.30
   9 -17   0    6.60   15.70
   8   9   0    8.00   16.60
  17  -8   0   32.60   29.30
   9   8   0   78.09   19.70
   8 -17   0   79.59   16.10
   8 -17   0   78.19   18.60
  17  -9   0   17.40   26.40
  10   7   0   61.19   19.60
   7 -17   0   83.09   18.40
  17 -10   0   25.30   26.90
   6 -17   0  220.78   25.30
  11   6   0  222.88   27.50
  17 -11   0  237.78   35.40
   5 -17   0  171.28   22.60
  12   5   0  100.29   23.10
  17 -12   0  149.69   29.70
  13   4   0 1948.80  109.49
  17 -13   0 2130.49  115.09
   0   0   1   -0.50    0.80
   1  -1  -1   19.30    2.20
   1  -1  -1   13.20    1.80
  -1   0  -1   18.30    1.60
   0   1  -1   14.50    1.80
   0   1  -1   18.40    1.90
   0   1  -1   16.60    1.30
  -1   1   1   16.70    1.90
   0  -1   1    9.50    1.50
  -1   1   1   15.50    1.80
   0  -1   1   12.20    1.80
   1   0   1   13.60    1.60
   1   0  -1   17.50    2.40
   1   0  -1   17.00    2.30
   0  -1  -1   15.50    1.80
   0   1   1   15.70    1.80
  -1   0   1   14.40    2.00
  -1   0   1   11.10    2.00
   0   1   1   18.00    1.20
  -1  -1  -1  109.09    6.10
   2  -1  -1  113.09    7.00
   2  -1  -1  105.19    6.90
   1  -2   1  116.19    6.60
  -2   1   1  107.09    6.90
  -2   1   1  109.99    6.90
   1  -2   1  101.89    6.90
   1   1   1  133.89    6.20
   3  -2  -1  479.55   23.20
   3  -2  -1  454.75   23.40
  -2  -1  -1  384.46   21.60
  -1   3  -1  474.95   22.70
   2   1   1  454.65   22.00
   2   1   1  464.85   22.10
   1  -3   1  461.25   22.70
  -3   2   1  449.26   22.90
   2   1   1  499.95   22.30
   1  -3   1  434.66   23.30
  -3   2   1  455.75   23.20
   2  -2  -1   98.39    6.50
   0   2  -1  109.29    6.20
   2  -2  -1  109.59    6.40
  -2   0  -1   93.19    5.50
  -2   2   1  100.39    6.30
   0  -2   1  107.69    6.70
   0  -2   1  107.79    6.30
   2   0   1  102.69    6.00
   0  -2   1  118.19    5.30
   1   1  -1  113.29    6.60
   1   1  -1  118.39    7.00
   1  -2  -1  105.59    6.00
   1  -2  -1  113.29    5.80
  -2   1  -1   97.99    5.90
   2  -1   1  101.79    6.40
  -1  -1   1  110.39    6.70
  -1   2   1  100.49    6.00
  -1  -1   1  103.69    6.60
   0  -2  -1  104.69    5.70
   0  -2  -1  120.79    6.30
   2   0  -1   96.79    7.10
   0  -2  -1  101.79    5.60
   2   0  -1  121.79    7.60
   0   2   1  104.89    6.30
   0   2   1  110.79    5.80
  -2   0   1  114.79    7.40
  -2   0   1  100.09    7.10
   0   2   1  115.49    6.50
   2  -2   1   99.59    6.70
  -1  -2  -1  353.46   16.80
  -1  -2  -1  296.67   16.70
   3  -1  -1  356.16   18.40
  -1  -2  -1  357.26   17.10
  -1  -2  -1  350.76   16.80
   1   2   1  364.46   16.80
   1   2   1  367.26   17.10
  -3   1   1  355.26   18.60
   2  -3   1  322.97   18.20
   1   2   1  356.46   17.30
  -3   1   1  330.27   18.30
   4  -2  -1   27.80    4.30
  -2  -2  -1   29.90    3.00
  -2  -2  -1   29.10    3.40
   2  -4   1   30.20    4.80
   2   2   1   33.90    3.40
   2   2   1   32.50    3.10
   2  -4   1   26.10    3.80
  -4   2   1   35.00    4.60
   2   2   1   32.50    3.60
  -4   2   1   26.70    4.20
   2  -4   1   25.50    4.00
  -3  -2  -1  329.07   17.40
   5  -3  -1  324.57   18.90
   5  -3  -1  336.37   18.70
  -3  -2  -1  324.37   17.00
   3   2   1  314.77   17.10
   2  -5   1  307.17   17.80
  -5   3   1  321.47   18.60
   3   2   1  338.97   16.80
   3   2   1  348.57   17.60
   2  -5   1  309.67   18.60
   2  -5   1  332.17   19.00
  -1   4  -1    6.10    2.20
   4  -3  -1    3.60    2.50
  -3  -1  -1   13.60    2.10
  -1   4  -1   11.70    3.10
   3   1   1    8.50    2.20
   1  -4   1    8.50    2.30
   3   1   1    9.90    2.20
   1  -4   1    7.00    3.20
   3   1   1   12.60    2.40
   3  -3  -1    4.70    2.10
  -3   0  -1    3.60    1.70
   0   3  -1    4.40    1.80
   0   3  -1    6.50    2.60
   3  -3  -1    6.70    2.50
  -3   3   1    5.50    2.30
   0  -3   1    4.50    2.00
   3   0   1    6.80    1.70
   0  -3   1    5.10    2.50
   0  -3   1    6.40    0.70
  -3   1  -1  278.67   16.70
   1   2  -1  352.36   16.80
   2  -3  -1  314.27   16.80
   1   2  -1  317.27   17.30
  -1  -2   1  330.07   17.40
  -2   3   1  325.17   17.00
  -1  -2   1  345.17   17.00
   3  -1   1  321.67   17.00
  -3   2  -1  398.36   22.50
   1  -3  -1  463.65   21.90
   1  -3  -1  418.06   21.90
  -2  -1   1  456.25   23.10
   3  -2   1  415.46   23.00
  -1   3   1  448.26   22.80
  -2  -1   1  475.45   23.00
   0  -3  -1    2.10    1.50
   0  -3  -1    6.60    1.10
   0  -3  -1    6.40    1.70
   0  -3  -1    6.70    1.80
   3   0  -1    5.30    2.90
  -3   3  -1    2.70    2.50
   3   0  -1    4.10    2.40
   3  -3   1    2.90    2.30
   0   3   1    9.10    1.90
   0   3   1    3.40    2.30
  -3   0   1    1.50    2.50
  -3   0   1    8.00    3.00
  -1  -3  -1   75.99    5.40
  -1  -3  -1   74.59    4.70
   4  -1  -1   82.49    7.10
   4  -1  -1   71.89    6.80
  -1  -3  -1   75.79    5.00
  -1  -3  -1   63.39    5.10
   1   3   1   77.39    4.40
  -4   1   1   67.09    7.00
   1   3   1   81.09    5.60
   1   3   1   80.79    5.00
  -4   1   1   63.09    6.80
   3  -4   1   58.99    6.70
  -2  -3  -1  221.68   12.60
  -2  -3  -1  251.67   13.20
  -2  -3  -1  243.98   13.30
   5  -2  -1  229.58   14.70
  -5   2   1  227.78   14.60
   2   3   1  234.58   13.50
   2   3   1  260.27   12.60
   2   3   1  246.08   12.70
   3  -5   1  216.08   14.80
   6  -3  -1   59.29    7.50
   6  -3  -1   41.90    6.40
  -3  -3  -1   64.39    6.20
  -3  -3  -1   44.00    5.70
  -6   3   1   57.69    7.30
   3  -6   1   55.29    7.40
   3   3   1   53.39    5.80
   3   3   1   56.19    4.50
   3   3   1   53.79    6.10
   3  -6   1   52.19    6.40
   3  -6   1   42.00    6.40
  -4  -3  -1   33.30    5.90
  -4  -3  -1   43.40    5.80
   7  -4  -1   35.40    6.90
   7  -4  -1   35.70    7.60
   4   3   1   44.50    4.90
   4   3   1   41.30    5.60
  -7   4   1   29.20    6.30
   4   3   1   41.70    5.90
   3  -7   1   42.30    6.30
   3  -7   1   34.80    6.80
   3  -7   1   35.70    6.70
   6  -4  -1    8.90    4.40
  -4  -2  -1    2.60    2.60
   6  -4  -1    9.80    4.70
   4   2   1   -0.30    2.80
   2  -6   1    8.10    3.70
  -6   4   1    4.20    3.90
   2  -6   1    0.40    4.10
   2  -6   1    3.70    3.30
   4   2   1    3.20    2.80
   4   2   1    0.70    2.20
  -1   5  -1  480.95   26.00
  -1   5  -1  504.15   24.60
   5  -4  -1  469.65   26.10
   5  -4  -1  488.65   25.70
  -4  -1  -1  442.76   24.10
   1  -5   1  519.15   26.30
   1  -5   1  484.75   24.70
   4   1   1  467.05   24.50
   4   1   1  480.35   24.50
  -5   4   1  452.25   25.60
   4  -4  -1  107.39    8.70
   0   4  -1  131.09    9.20
   0   4  -1  127.09    7.90
  -4   0  -1  125.19    8.00
   0  -4   1  125.39    8.20
   4   0   1  128.99    8.40
   4   0   1  124.39    8.10
  -4   4   1  121.09    9.30
   0  -4   1  128.79    9.50
   3  -4  -1   60.49    6.10
  -4   1  -1   68.99    6.30
   1   3  -1   81.69    5.80
   1   3  -1   70.89    6.20
   4  -1   1   70.49    6.00
  -1  -3   1   70.99    6.80
  -1  -3   1   82.69    6.10
  -3   4   1   61.49    6.50
   2  -4  -1   28.30    4.00
   2   2  -1   35.30    4.70
  -4   2  -1   25.60    4.60
   2   2  -1   33.20    4.80
  -2   4   1   33.60    5.20
  -2  -2   1   22.70    4.00
   4  -2   1   26.90    4.40
  -2  -2   1   33.80    4.50
   1  -4  -1   10.80    2.80
   1  -4  -1    3.00    2.30
  -4   3  -1   10.40    3.60
   3   1  -1    8.60    3.30
   1  -4  -1   12.10    1.80
   3   1  -1   10.30    3.60
  -1   4   1    8.20    3.80
  -1   4   1    6.60    2.50
  -3  -1   1    5.00    3.40
   4  -3   1    9.40    3.50
  -3  -1   1    6.80    3.30
   0  -4  -1  117.29    8.60
   0  -4  -1  132.89    8.50
   0  -4  -1  148.79    8.10
   4   0  -1  132.99    9.70
   4   0  -1  128.79    9.90
   0  -4  -1  143.79    7.40
  -4   4  -1  120.19   10.70
   0   4   1  136.59    8.60
   4  -4   1  125.19   10.40
  -4   0   1  137.09   10.50
  -1  -4  -1 2349.67  117.69
   5  -1  -1 2358.56  119.19
  -1  -4  -1 2392.66  117.79
  -1  -4  -1 2539.85  117.19
  -1  -4  -1 2566.94  116.89
   5  -1  -1 2433.56  118.99
  -4   5  -1 2553.04  120.39
  -5   1   1 2561.84  119.79
   4  -5   1 2438.66  119.89
   1   4   1 2730.73  117.49
   1   4   1 2575.54  116.59
  -5   1   1 2367.46  119.29
   1   4   1 2556.84  118.19
  -2  -4  -1  673.23   34.80
   6  -2  -1  694.43   36.80
  -2  -4  -1  732.23   35.00
  -2  -4  -1  774.72   35.60
   6  -2  -1  643.94   36.70
   4  -6   1  667.43   37.40
  -6   2   1  652.73   36.60
   2   4   1  689.33   35.70
   2   4   1  741.03   34.30
   2   4   1  754.92   34.30
   7  -3  -1  193.68   14.20
  -3  -4  -1  205.28   12.60
  -3  -4  -1  187.58   12.60
   7  -3  -1  190.58   14.90
   3   4   1  185.28   11.70
   3   4   1  192.58   13.20
   3   4   1  214.58   11.10
   4  -7   1  193.38   14.70
   4  -7   1  175.08   14.40
  -7   3   1  174.98   14.40
   4  -7   1  194.48   13.50
   8  -4  -1  176.58   15.10
   8  -4  -1  196.28   15.90
  -4  -4  -1  172.28   12.80
   4   4   1  181.38   13.40
   4  -8   1  181.58   14.60
   4   4   1  189.48   11.10
   4  -8   1  201.48   15.30
   4  -8   1  190.88   13.80
   4   4   1  190.58   12.40
  -8   4   1  164.58   15.40
  -5  -4  -1  774.72   41.70
   9  -5  -1  800.32   44.90
  -5  -4  -1  761.82   41.70
   9  -5  -1  817.12   45.00
   4  -9   1  828.72   43.80
   5   4   1  865.11   41.00
   4  -9   1  778.22   44.10
  -9   5   1  739.53   44.00
   5   4   1  823.42   42.20
   5   4   1  797.92   39.40
   4  -9   1  791.72   41.80
  -5  -3  -1  254.17   16.70
   8  -5  -1  268.47   19.60
   8  -5  -1  246.78   19.30
   3  -8   1  287.77   17.40
   3  -8   1  259.47   19.00
  -8   5   1  262.77   19.30
   5   3   1  277.47   17.40
   3  -8   1  285.27   19.30
   5   3   1  294.07   17.00
   5   3   1  301.07   15.60
   7  -5  -1  187.18   14.70
   7  -5  -1  187.08   14.20
  -5  -2  -1  168.48   11.70
   2  -7   1  166.98   13.90
   2  -7   1  175.18   12.00
  -7   5   1  155.98   13.30
   5   2   1  178.08   11.20
   5   2   1  191.38   12.30
   2  -7   1  177.78   13.50
   5   2   1  185.68   12.30
   6  -5  -1    9.30    4.90
  -5  -1  -1    5.70    3.10
  -1   6  -1    9.00    3.30
   6  -5  -1   24.40    5.30
  -1   6  -1    9.80    4.10
   1  -6   1    8.90    3.70
   1  -6   1    9.60    3.30
   5   1   1   22.40    4.30
   1  -6   1   16.20    5.10
  -6   5   1    4.70    4.20
   5   1   1   11.20    3.90
   5  -5  -1   91.29    9.00
  -5   0  -1   94.39    7.90
   0   5  -1  114.29    7.70
   0   5  -1  107.09    9.10
   5   0   1   93.39    8.40
  -5   5   1  110.19    9.80
   0  -5   1  123.09    9.70
   0  -5   1   95.99    9.00
   5   0   1  110.29    8.40
   4  -5  -1 2416.66  119.19
  -5   1  -1 2189.08  118.09
   1   4  -1 2549.44  119.19
   1   4  -1 2405.86  118.69
  -1  -4   1 2669.43  119.49
   5  -1   1 2528.35  118.49
  -4   5   1 2621.34  119.99
   5  -1   1 2414.26  118.39
  -1  -4   1 2650.53  118.49
   2   3  -1  211.08   14.40
  -5   2  -1  211.88   14.10
   2   3  -1  235.58   14.50
  -2  -3   1  239.18   14.50
   5  -2   1  192.88   14.00
  -2  -3   1  225.78   13.90
  -3   5   1  259.67   15.90
   3   2  -1  341.17   18.20
   2  -5  -1  326.67   17.50
   2  -5  -1  282.67   17.40
   3   2  -1  314.77   18.60
  -3  -2   1  339.27   18.80
   5  -3   1  298.47   18.60
  -2   5   1  321.07   19.90
  -3  -2   1  276.87   19.10
   1  -5  -1  428.46   24.90
   4   1  -1  537.75   26.20
  -5   4  -1  455.85   27.00
   4   1  -1  475.05   26.20
   1  -5  -1  480.65   23.40
   1  -5  -1  518.85   25.10
  -4  -1   1  462.95   26.10
   5  -4   1  458.15   26.60
  -4  -1   1  508.15   26.70
  -1   5   1  449.76   24.80
  -5   5  -1  116.59   11.30
   5   0  -1  108.19    9.50
   5   0  -1  111.39   10.00
   0  -5  -1  113.49    7.00
   0  -5  -1   94.69    8.20
   0  -5  -1  112.89    6.80
   0  -5  -1  112.99    8.30
   0   5   1   91.89    8.80
  -5   0   1  110.89   10.30
   5  -5   1  100.79    9.50
  -5   0   1  109.49   10.40
   6  -1  -1   12.00    5.10
  -1  -5  -1   10.40    3.60
  -1  -5  -1    6.10    1.80
  -1  -5  -1   -0.40    3.00
  -1  -5  -1    9.50    2.80
   6  -1  -1    3.90    3.50
  -5   6  -1    7.30    5.80
  -6   1   1    9.10    4.80
   5  -6   1    9.00    4.90
   1   5   1    2.30    3.10
  -6   1   1   -6.60    3.70
   1   5   1    7.20    2.00
   7  -2  -1  123.79   11.30
  -2  -5  -1  142.39   10.10
   7  -2  -1  111.49   11.90
  -2  -5  -1  145.19    9.30
  -2  -5  -1  105.59   10.20
   2   5   1  130.99   10.20
  -7   2   1  119.59   12.00
   2   5   1  127.89    8.30
   5  -7   1  114.19   11.70
   2   5   1  125.89    8.00
  -3  -5  -1   96.19    8.90
   8  -3  -1   70.59    9.70
   8  -3  -1  116.29   12.90
  -3  -5  -1   78.89    8.70
  -3  -5  -1   64.39    7.40
   5  -8   1   58.39    9.50
   3   5   1   73.49    7.70
   3   5   1   77.89    8.80
  -8   3   1   73.99   10.50
   3   5   1   78.19    6.40
   9  -4  -1   75.29   11.00
   9  -4  -1   72.79   12.10
  -4  -5  -1   83.29    9.00
  -4  -5  -1   73.19   10.30
   4   5   1   83.59    7.20
   5  -9   1   74.29   10.90
   4   5   1   72.39    9.70
   4   5   1   91.09    8.70
   5  -9   1   99.99   12.50
   5  -9   1   86.19   10.00
  -9   4   1   77.79   11.50
  -5  -5  -1  121.69   13.30
  10  -5  -1  158.38   16.80
  -5  -5  -1  119.79   12.80
   5   5   1  139.59    9.80
   5 -10   1  141.09   12.80
   5   5   1  155.98   13.20
   5   5   1  126.19   11.90
   5 -10   1  125.59   15.10
 -10   5   1  121.69   15.60
   5 -10   1  127.29   15.90
  -6  -5  -1   25.20    7.50
  11  -6  -1   27.30   10.80
   6   5   1   30.80    5.40
   5 -11   1   37.50   10.10
   6   5   1   39.10    7.90
   5 -11   1   28.10    7.60
   6   5   1   31.50    8.10
  -6  -4  -1   54.59    8.30
  10  -6  -1   46.40   10.70
   4 -10   1   62.79   11.20
   6   4   1   72.79    9.10
   6   4   1   71.69    7.70
   6   4   1   79.19    9.90
   4 -10   1   98.79   12.80
   4 -10   1   78.19    9.20
   9  -6  -1  739.63   43.60
   9  -6  -1  790.72   43.80
   6   3   1  815.32   40.90
   3  -9   1  712.13   40.00
   3  -9   1  811.62   42.90
   3  -9   1  747.23   42.60
  -9   6   1  702.63   43.20
   6   3   1  840.42   40.40
   6   3   1  778.62   38.70
   8  -6  -1   42.90    8.40
   8  -6  -1   42.10    8.80
  -6  -2  -1   25.30    8.40
   2  -8   1   38.70    6.10
   6   2   1   37.10    6.30
   6   2   1   41.10    6.80
   2  -8   1   37.70    7.50
   2  -8   1   31.80    7.50
  -8   6   1   18.80    7.80
   6   2   1   40.70    5.50
   7  -6  -1  196.28   15.60
   7  -6  -1  193.48   15.20
  -1   7  -1  209.48   14.80
  -6  -1  -1  182.88   13.00
  -7   6   1  178.18   14.90
   6   1   1  186.08   13.00
   6   1   1  195.18   13.70
   1  -7   1  190.78   12.90
   1  -7   1  203.38   14.40
   1  -7   1  214.48   15.60
   0   6  -1   18.40    3.90
   0   6  -1   13.10    4.60
   6  -6  -1   16.20    5.30
   0  -6   1   15.50    5.40
   0  -6   1   14.80    3.80
   6   0   1    4.60    4.30
  -6   6   1    6.90    5.70
   6   0   1   10.50    3.80
  -6   1  -1    1.10    4.10
   1   5  -1    2.70    3.60
   1   5  -1    5.70    3.00
   5  -6  -1    6.40    4.00
  -5   6   1    8.90    5.90
   6  -1   1    2.60    4.20
  -1  -5   1   11.20    4.80
  -1  -5   1   -1.30    3.40
   2   4  -1  724.63   34.10
   4  -6  -1  640.74   35.00
  -6   2  -1  638.84   35.10
   2   4  -1  673.43   35.40
  -2  -4   1  647.94   34.50
   6  -2   1  651.43   34.90
  -2  -4   1  708.13   35.60
   3   3  -1   66.09    7.10
  -6   3  -1   47.50    7.70
   3   3  -1   53.39    7.30
   3  -6  -1   48.80    6.30
   3  -6  -1   56.79    6.90
  -3   6   1   58.29    8.60
   6  -3   1   48.80    7.10
  -3  -3   1   50.19    7.20
  -3  -3   1   50.79    6.70
   4   2  -1    2.40    3.80
  -6   4  -1    1.00    4.90
   2  -6  -1    1.80    3.60
   2  -6  -1    1.70    3.50
   4   2  -1    9.60    4.50
   2  -6  -1    6.20    2.50
  -4  -2   1    3.90    4.70
   6  -4   1    4.10    4.50
  -2   6   1    7.60    5.40
  -4  -2   1    9.20    4.50
   1  -6  -1   15.70    2.80
   5   1  -1   19.20    5.60
  -6   5  -1   19.00    6.00
   5   1  -1   11.60    4.20
   1  -6  -1   14.60    6.80
   1  -6  -1   11.90    3.60
   6  -5   1    8.50    4.10
  -1   6   1    7.50    3.50
  -5  -1   1   18.70    5.40
  -5  -1   1   17.10    5.30
   0  -6  -1   12.50    2.80
  -6   6  -1   10.40    6.50
   6   0  -1   17.80    5.80
   0  -6  -1    4.50    2.80
   6   0  -1   14.30    5.10
   0   6   1    8.50    3.60
  -6   0   1    9.90    5.80
   6  -6   1    7.60    4.40
  -6   0   1   16.90    5.60
   7  -1  -1  310.47   19.70
  -6   7  -1  319.47   22.50
  -1  -6  -1  301.37   18.00
  -1  -6  -1  295.37   15.60
  -1  -6  -1  303.27   16.60
   7  -1  -1  324.47   20.30
  -7   1   1  293.37   20.40
   1   6   1  296.57   17.90
   1   6   1  306.57   15.70
   6  -7   1  294.87   19.80
  -7   1   1  289.37   20.00
  -2  -6  -1   18.50    4.50
   8  -2  -1   15.10    7.30
  -2  -6  -1   22.30    5.90
   8  -2  -1   17.40    5.90
  -6   8  -1   23.50    9.20
   2   6   1   21.60    3.70
   6  -8   1   27.20    7.00
  -8   2   1   16.60    7.60
   2   6   1   10.30    4.90
   9  -3  -1  869.01   49.20
  -3  -6  -1  907.51   47.70
   9  -3  -1  900.21   49.50
  -3  -6  -1  920.91   50.79
  -3  -6  -1  847.52   46.00
   3   6   1  988.10   45.00
   6  -9   1  936.31   49.50
   3   6   1  880.91   47.50
   3   6   1  964.20   45.00
  -9   3   1  920.91   49.90
  10  -4  -1  220.18   19.50
  -4  -6  -1  216.28   15.50
  -4  -6  -1  198.18   15.10
  -4  -6  -1  251.27   16.20
   4   6   1  239.08   14.80
   6 -10   1  226.08   16.30
   6 -10   1  214.48   18.50
   4   6   1  219.08   13.60
   4   6   1  237.78   16.80
   6 -10   1  232.58   22.20
 -10   4   1  208.08   21.60
  11  -5  -1   -1.00    8.40
  -5  -6  -1    0.70    6.10
  -5  -6  -1    0.70    4.90
  -5  -6  -1    6.10    6.50
   5   6   1   -1.40    4.10
   5   6   1   14.90    6.20
   5   6   1   12.30    7.00
   6 -11   1   16.00    8.30
   6 -11   1   11.30    6.20
  12  -6  -1   60.49   15.30
  -6  -6  -1   59.79    8.30
  -6  -6  -1   57.49    9.20
   6 -12   1   60.89    9.60
   6   6   1   59.09   10.60
   6 -12   1   51.49   11.60
   6   6   1   73.89   10.00
   6   6   1   73.99    9.00
  -7  -6  -1  400.56   25.70
  13  -7  -1  421.36   42.40
  -7  -6  -1  399.16   25.10
   6 -13   1  470.35   28.00
   7   6   1  471.65   24.70
   6 -13   1  439.36   31.00
   7   6   1  413.56   27.40
   7   6   1  468.45   29.50
  12  -7  -1   38.50   13.80
  -7  -5  -1   17.30    7.80
   7   5   1   33.50    8.90
   7   5   1   17.70    5.80
   5 -12   1   19.80    8.10
   7   5   1   24.50    8.80
   5 -12   1   24.10   10.00
  -7  -4  -1   -1.20    6.60
  11  -7  -1    0.30    9.50
   7   4   1   -2.70    4.60
   4 -11   1   16.20    6.50
   4 -11   1   -4.60    7.70
   7   4   1    1.80    6.60
   7   4   1   -1.20    7.40
  -7  -3  -1  561.54   33.20
  10  -7  -1  609.24   38.00
   3 -10   1  600.44   33.40
   7   3   1  621.74   31.80
   7   3   1  639.44   33.90
   7   3   1  648.24   34.50
   3 -10   1  638.74   43.40
   3 -10   1  567.74   36.00
   9  -7  -1  185.88   19.70
   9  -7  -1  207.38   18.90
  -7  -2  -1  187.98   15.30
   7   2   1  204.58   15.50
   7   2   1  217.38   14.10
   2  -9   1  217.08   18.40
   7   2   1  201.18   15.70
  -9   7   1  202.28   20.30
   2  -9   1  216.88   17.40
   2  -9   1  205.08   14.70
   8  -7  -1   10.50    7.30
  -1   8  -1    3.10    5.30
  -7  -1  -1    7.00    5.50
   8  -7  -1    8.00    6.60
   7   1   1   11.30    6.00
   1  -8   1    5.40    4.50
   7   1   1   12.50    5.10
  -8   7   1    0.20    8.00
   1  -8   1    8.30    7.10
   1  -8   1    8.30    5.80
   1  -8   1   10.10    2.20
   0   7  -1   16.50    5.40
   7  -7  -1    4.70    5.30
   0   7  -1   10.50    4.40
  -7   0  -1   15.20    5.60
   0  -7   1    9.30    4.40
  -7   7   1   12.90    8.30
   7   0   1   15.40    5.00
   7   0   1   10.70    5.90
   0  -7   1   14.30    6.60
   1   6  -1  313.97   17.30
  -7   1  -1  294.07   18.90
   6  -7  -1  277.47   19.40
   1   6  -1  304.27   19.40
   7  -1   1  294.37   19.10
  -1  -6   1  292.17   19.90
  -1  -6   1  303.47   18.60
   7  -1   1  306.07   18.60
  -6   7   1  340.27   22.30
   2   5  -1  131.59    9.60
  -7   2  -1  110.09   11.50
   2   5  -1  108.99   10.80
   5  -7  -1  119.99   10.70
  -5   7   1  125.09   12.90
  -2  -5   1  123.39   10.70
   7  -2   1  114.99   12.00
   7  -2   1  112.79   10.60
  -2  -5   1  126.69   11.70
   3   4  -1  207.48    9.80
   4  -7  -1  180.98   13.60
   3   4  -1  184.58   14.20
  -7   3  -1  177.28   14.90
   3   4  -1  199.68   13.30
  -3  -4   1  201.18   14.80
  -3  -4   1  182.28   13.80
  -4   7   1  240.38   17.70
   7  -3   1  175.18   14.20
   4   3  -1   44.60    6.80
   4   3  -1   49.50    7.50
   3  -7  -1   42.20    6.30
  -7   4  -1   40.20    8.10
   3  -7  -1   36.40    6.10
  -4  -3   1   49.20    7.90
  -4  -3   1   36.90    7.00
   7  -4   1   32.30    6.90
  -3   7   1   29.70    7.80
   2  -7  -1  182.18   11.30
   5   2  -1  189.58   14.10
   5   2  -1  200.08   14.40
   2  -7  -1  200.88   13.70
   2  -7  -1  163.78   12.80
  -7   5  -1  187.98   16.00
   7  -5   1  173.68   14.90
  -5  -2   1  197.08   14.60
  -2   7   1  185.78   15.80
  -5  -2   1  199.88   15.30
   1  -7  -1  198.78   11.70
   6   1  -1  209.38   15.00
   1  -7  -1  174.68   13.50
   6   1  -1  209.08   15.30
   1  -7  -1  203.48   12.40
  -7   6  -1  209.18   17.60
   7  -6   1  202.58   15.40
  -6  -1   1  177.68   15.10
  -1   7   1  198.08   13.60
  -6  -1   1  201.28   15.90
   7   0  -1   12.80    6.40
   0  -7  -1    4.70    2.60
   0  -7  -1   12.10    5.00
   0  -7  -1   15.10    3.70
   0  -7  -1   17.00    5.40
   7   0  -1    8.20    5.10
  -7   7  -1   10.40    8.30
  -7   0   1   16.40    6.50
   7  -7   1    6.10    4.70
   0   7   1   13.50    4.60
  -7   0   1   11.80    7.20
  -1  -7  -1  120.99    7.70
  -1  -7  -1  113.79    9.40
  -7   8  -1  127.09   15.40
   8  -1  -1  109.19   12.30
   8  -1  -1  132.79   13.90
  -1  -7  -1  106.39   10.90
  -1  -7  -1  109.49   11.10
  -8   1   1  114.09   13.80
   7  -8   1  115.39   12.20
   1   7   1  129.99    8.40
   1   7   1  107.09   10.40
  -7   9  -1   51.19   12.70
   9  -2  -1   36.80   10.80
  -2  -7  -1   46.20    7.40
  -2  -7  -1   53.09    8.00
  -2  -7  -1   49.90    6.70
   9  -2  -1   53.09    9.10
  -9   2   1   42.40   10.60
   2   7   1   45.90    7.80
   7  -9   1   49.70    9.50
   2   7   1   43.80    7.70
  10  -3  -1   25.70    9.30
  -3  -7  -1   30.80    6.20
  -3  -7  -1   27.60    6.60
  -3  -7  -1   30.70    7.60
   3   7   1   31.70    5.30
   3   7   1   31.80    7.50
 -10   3   1    7.40   13.50
   7 -10   1   40.00    9.50
  -4  -7  -1  167.98   14.10
  -4  -7  -1  144.99   12.80
  11  -4  -1  130.69   17.80
  -4  -7  -1  132.59   13.00
   4   7   1  158.58   15.10
   7 -11   1  157.98   16.70
   7 -11   1  143.29   13.80
   4   7   1  153.18   12.30
  -5  -7  -1   83.29   10.00
  -5  -7  -1   77.99   10.10
  12  -5  -1   87.49   15.80
  -5  -7  -1   62.79    9.00
   5   7   1   73.89    9.40
   5   7   1   78.69    8.20
   7 -12   1   66.59   10.10
   5   7   1   75.39   12.00
   7 -12   1   66.69   12.50
  -6  -7  -1   -3.10    7.10
  -6  -7  -1    3.00    6.80
   6   7   1   28.30    8.90
   7 -13   1   -8.00    9.20
   6   7   1    1.40    6.20
   7 -13   1    6.20    7.50
   6   7   1    0.00    8.70
  14  -7  -1    9.90   17.20
  -7  -7  -1   -6.10    7.80
   7 -14   1    2.20    8.30
   7   7   1   -9.50   10.50
   7 -14   1   -3.70   10.10
  15  -8  -1  978.70   63.79
   8   7   1  864.51   53.69
   7 -15   1  937.61   55.29
   7 -15   1  952.20   51.29
  -8  -6  -1   34.40    8.70
  14  -8  -1   19.60   18.30
   6 -14   1   56.99   14.10
   8   6   1   20.00   11.40
   6 -14   1   59.89   11.70
  13  -8  -1  155.88   22.80
  -8  -5  -1  171.38   16.80
   5 -13   1  218.18   22.60
   8   5   1  177.08   20.50
   5 -13   1  234.08   18.70
   8   5   1  206.18   15.50
   8   5   1  202.48   20.40
  -8  -4  -1   -3.10    7.40
  12  -8  -1   24.70   13.40
   8   4   1    0.00    5.40
   8   4   1   -0.10    7.40
   4 -12   1   17.40    7.40
   8   4   1    2.10    9.00
   4 -12   1   11.40    9.60
  -8  -3  -1    0.70    7.20
  11  -8  -1   14.40   10.50
   8   3   1    5.30    8.60
   8   3   1    0.20    6.90
   3 -11   1    6.80    8.60
   8   3   1   22.80    6.10
   3 -11   1    4.00    6.10
  -8  -2  -1  286.87   20.10
  10  -8  -1  297.97   24.20
   2 -10   1  275.87   24.40
   8   2   1  290.37   18.60
   8   2   1  269.57   20.90
   2 -10   1  282.47   18.80
   2 -10   1  295.37   22.30
   8   2   1  306.67   20.60
   2 -10   1  287.17   15.70
  -8  -1  -1  133.49   13.50
  -1   9  -1  143.69   14.30
   9  -8  -1  141.19   15.80
   9  -8  -1  114.89   14.90
   8   1   1  158.88   14.30
   1  -9   1  120.89   13.80
   8   1   1  135.39   13.10
   1  -9   1  120.49   14.50
   1  -9   1  136.79   12.20
   0   8  -1 1335.67   64.69
  -8   0  -1 1225.88   66.19
   0   8  -1 1325.17   67.49
   8  -8  -1 1335.27   68.39
   0  -8   1 1342.77   65.79
   0  -8   1 1469.05   72.79
   8   0   1 1259.77   66.19
  -8   8   1 1336.87   69.69
   0  -8   1 1355.16   67.09
   8   0   1 1237.48   66.19
   7  -8  -1  121.79   12.50
   1   7  -1  126.39   10.10
  -8   1  -1  122.89   12.60
   1   7  -1  117.09   12.10
   8  -1   1  120.29   11.50
  -7   8   1  166.58   17.30
  -1  -7   1  110.99   13.80
   8  -1   1  122.79   12.90
   2   6  -1   22.90    5.30
  -8   2  -1   25.80    7.10
   2   6  -1   10.90    5.20
   6  -8  -1   15.70    5.60
  -2  -6   1   29.80    7.90
  -6   8   1   19.60    8.70
  -2  -6   1   17.70    5.70
   8  -2   1   21.30    7.90
   8  -2   1   12.40    5.60
   3   5  -1   77.79    8.40
   5  -8  -1   97.79    9.90
   3   5  -1   64.39    9.30
  -3  -5   1   68.49    9.00
   8  -3   1   71.89   10.30
  -3  -5   1   82.39   10.50
   8  -3   1   63.39    9.10
  -5   8   1   96.59   13.60
   4   4  -1  188.48   13.70
   4  -8  -1  149.59   13.00
   4   4  -1  179.28    9.60
  -8   4  -1  170.08   16.10
   4  -8  -1  193.08   13.80
   4   4  -1  194.68   14.60
  -4  -4   1  163.78   13.80
  -4  -4   1  179.48   14.90
   8  -4   1  154.08   14.70
  -4   8   1  210.28   18.50
   3  -8  -1  297.87   23.20
   5   3  -1  286.27   18.80
   3  -8  -1  251.07   17.40
  -8   5  -1  301.77   21.50
   5   3  -1  319.57   18.80
   3  -8  -1  259.87   17.60
   8  -5   1  249.18   19.50
  -5  -3   1  287.87   19.50
  -3   8   1  251.07   21.20
  -5  -3   1  283.37   18.80
   2  -8  -1   39.90    7.00
  -8   6  -1   65.59   11.50
   6   2  -1   49.90    8.50
   2  -8  -1   45.40    7.60
   2  -8  -1   39.10    5.30
   6   2  -1   47.80    8.30
   8  -6   1   33.70    8.10
  -6  -2   1   41.10    7.70
  -6  -2   1   37.70    8.70
  -8   7  -1    5.10    8.80
   1  -8  -1    8.40    3.60
   1  -8  -1    8.40    5.70
   7   1  -1    2.80    5.10
   1  -8  -1   14.70    4.10
   1  -8  -1    2.30    5.00
   7   1  -1   30.30    8.10
  -1   8   1   12.20    5.40
  -7  -1   1    9.40    7.90
   8  -7   1   13.60    6.50
  -7  -1   1   12.30    6.20
   8   0  -1 1365.66   67.79
   0  -8  -1 1301.97   64.39
   0  -8  -1 1347.47   66.29
   0  -8  -1 1235.18   65.99
  -8   8  -1 1434.86   71.29
   0  -8  -1 1308.57   63.19
   8   0  -1 1313.27   67.79
   0   8   1 1353.26   66.59
  -8   0   1 1291.07   69.99
  -8   0   1 1278.77   68.39
   8  -8   1 1353.66   68.29
  -1  -8  -1   17.30    5.60
  -1  -8  -1   23.90    3.70
   9  -1  -1   21.10    7.60
  -8   9  -1   35.40   14.80
   9  -1  -1   13.50   10.80
  -1  -8  -1   12.80    6.50
  -1  -8  -1   21.90    6.60
  -9   1   1   12.60    9.50
   8  -9   1   25.40    7.20
   1   8   1   10.60    5.80
  10  -2  -1   18.90    8.60
  -2  -8  -1   33.60    7.60
  -2  -8  -1   31.50    6.50
  -2  -8  -1   17.50    6.70
   2   8   1   26.30    7.50
   8 -10   1   15.80    7.10
 -10   2   1   33.40   11.90
   2   8   1   27.30    5.10
  11  -3  -1  615.94   38.90
  -3  -8  -1  661.93   34.40
  -3  -8  -1  686.13   33.40
  -3  -8  -1  599.34   34.10
   3   8   1  591.64   31.90
   3   8   1  590.34   36.10
   8 -11   1  615.24   37.20
  -4  -8  -1   77.79   10.10
  -4  -8  -1  104.39   12.60
  12  -4  -1   84.49   14.50
  -4  -8  -1   94.39   10.20
   4   8   1   68.19   12.00
   8 -12   1   84.09   12.80
   8 -12   1   96.19   11.10
   4   8   1   75.79    9.10
  -5  -8  -1  175.68   16.00
  13  -5  -1  147.49   34.20
  -5  -8  -1  193.48   15.60
  -5  -8  -1  155.78   15.20
   8 -13   1  139.89   16.20
   5   8   1  170.98   18.90
   8 -13   1  210.98   19.90
   5   8   1  186.08   16.20
  -6  -8  -1   -6.10    8.00
  14  -6  -1  -10.50   16.10
   8 -14   1   -0.10    8.50
   8 -14   1   14.80   11.20
   6   8   1   13.80   11.50
  15  -7  -1    8.40   19.10
   8 -15   1   44.50   14.10
   7   8   1   32.10   13.00
   8 -15   1   43.80   11.40
  16  -8  -1  185.28   31.70
   8 -16   1  168.28   19.20
   8 -16   1  215.28   25.60
   8   8   1  196.18   25.80
  17  -9  -1   78.49   29.00
   8 -17   1  124.89   21.10
   8 -17   1  100.19   16.80
   9   8   1  119.39   21.30
  16  -9  -1   23.80   24.30
   9   7   1    8.60   14.40
   7 -16   1    9.10   14.30
   7 -16   1   16.80   19.80
  15  -9  -1    1.70   19.50
   9   6   1    6.50   11.80
   6 -15   1   18.80   10.40
   6 -15   1    9.00   13.30
  14  -9  -1  413.96   36.00
   9   5   1  415.76   31.20
   5 -14   1  433.06   28.40
  13  -9  -1   80.59   18.40
   9   4   1   59.09    9.10
   4 -13   1   76.59   11.60
   4 -13   1   42.00   13.20
   9   4   1   54.99   12.10
  -9  -3  -1  132.99   16.50
  12  -9  -1  129.19   19.50
   9   3   1  164.28   17.80
   3 -12   1  152.88   11.20
   9   3   1  127.59   12.90
   3 -12   1  166.18   15.50
   3 -12   1  146.49   19.00
  11  -9  -1   54.29   12.30
  -9  -2  -1   51.69   10.70
   9   2   1   38.20   11.30
   2 -11   1   58.59    5.20
   9   2   1   58.19    9.40
   9   2   1   40.70   10.40
   2 -11   1   63.69   12.40
   2 -11   1   56.39    9.10
  -1  10  -1    3.70    7.40
  10  -9  -1    7.80    8.30
  -9  -1  -1  -15.60    8.00
   9   1   1   -9.10    6.40
   9   1   1    8.00    9.30
   1 -10   1    0.40   10.60
   1 -10   1    2.70    6.00
   1 -10   1    3.10    7.90
   9  -9  -1  323.47   23.20
  -9   0  -1  262.07   22.00
   0   9  -1  311.27   22.20
   0   9  -1  317.37   19.60
   9   0   1  287.07   21.00
   9   0   1  291.07   22.10
   0  -9   1  316.87   21.70
   0  -9   1  326.37   24.70
   0  -9   1  323.37   20.80
   1   8  -1   22.80    5.90
   1   8  -1   24.80    7.50
   8  -9  -1   17.50    6.80
  -9   1  -1   23.20    9.20
  -1  -8   1   23.60    7.30
  -1  -8   1   12.30    8.90
   9  -1   1   25.80    9.10
   9  -1   1   21.80    7.10
  -1  -8   1   18.50    6.60
  -9   2  -1   45.80   10.00
   7  -9  -1   58.99    9.60
   2   7  -1   51.69    8.90
   2   7  -1   59.99    7.60
  -7   9   1   51.69   12.80
  -2  -7   1   60.49    8.80
   9  -2   1   43.60    8.30
   9  -2   1   45.80    9.90
  -2  -7   1   39.70   10.20
  -9   3  -1  927.51   51.19
   3   6  -1  896.61   49.90
   3   6  -1  952.40   47.80
   6  -9  -1  983.80   49.80
   9  -3   1  940.51   50.49
  -3  -6   1  916.61   49.60
  -6   9   1 1116.19   54.49
   9  -3   1  931.51   50.39
  -3  -6   1  834.92   49.60
   4   5  -1   87.29    5.30
   4   5  -1   84.19    9.80
  -9   4  -1   85.39   13.00
   4   5  -1   69.79   10.30
   5  -9  -1  100.29   11.20
  -4  -5   1   80.09   10.00
  -5   9   1   91.29   14.30
   9  -4   1   84.09   12.30
  -4  -5   1   97.19   12.60
   9  -4   1   72.19   11.20
   5   4  -1  791.32   44.00
   4  -9  -1  812.72   41.30
   5   4  -1  838.92   43.00
   5   4  -1  839.62   39.40
   4  -9  -1  802.72   43.10
   4  -9  -1  775.72   43.00
   9  -5   1  779.22   45.40
  -5  -4   1  830.02   44.40
  -5  -4   1  851.41   43.60
  -4   9   1  805.32   47.00
   3  -9  -1  758.32   42.60
   3  -9  -1  839.22   43.10
   3  -9  -1  807.42   40.80
  -9   6  -1  817.52   46.80
   6   3  -1  842.42   43.20
   6   3  -1  830.22   44.10
  -6  -3   1  835.22   43.80
  -6  -3   1  833.82   44.60
   9  -6   1  727.23   44.90
   2  -9  -1  250.97   17.90
   2  -9  -1  213.48   15.00
   7   2  -1  222.08   18.40
   7   2  -1  199.28   17.00
  -9   7  -1  243.38   22.40
   2  -9  -1  212.28   16.20
   2  -9  -1  220.58   14.00
  -7  -2   1  217.18   17.60
  -7  -2   1  222.18   19.30
   9  -7   1  226.68   18.80
  -9   8  -1  133.29   18.60
   8   1  -1  159.88   14.50
   1  -9  -1  143.09   15.00
   8   1  -1  137.79   16.70
   1  -9  -1  132.69    9.90
   1  -9  -1  128.09   13.00
  -8  -1   1  138.69   15.50
  -1   9   1  134.99   13.60
  -8  -1   1  145.79   17.90
   9  -8   1  140.59   15.20
   9   0  -1  321.77   22.40
   0  -9  -1  312.87   21.60
   0  -9  -1  303.37   16.40
   0  -9  -1  292.77   20.10
  -9   0   1  265.47   23.30
   9  -9   1  313.37   22.60
   0   9   1  310.67   20.80
  -1  -9  -1   12.30    5.50
  -1  -9  -1   13.50    8.00
  -1  -9  -1   16.70    7.10
  10  -1  -1   -5.90    6.30
 -10   1   1    8.20   11.60
   9 -10   1    1.60    7.20
   1   9   1   -1.40    6.60
  -2  -9  -1   65.09   10.00
  11  -2  -1   36.50   10.80
  -2  -9  -1   51.39    7.50
  -2  -9  -1   59.49    9.60
   9 -11   1   58.39   11.00
   2   9   1   43.60    9.80
  -3  -9  -1   25.60    7.10
  -3  -9  -1   25.60    8.70
  -3  -9  -1   23.90    8.20
  12  -3  -1   65.59   13.90
   3   9   1   26.10    6.70
   3   9   1   54.99   10.90
   9 -12   1   16.00    8.70
  -4  -9  -1  695.33   40.30
  -4  -9  -1  839.12   48.00
  13  -4  -1  751.32   48.60
  -4  -9  -1  773.32   39.70
   4   9   1  720.53   39.10
   4   9   1  701.53   44.00
   9 -13   1  789.82   46.30
   9 -13   1  761.72   41.50
  -5  -9  -1    4.70    7.00
  -5  -9  -1   -5.10    8.00
  14  -5  -1   -3.30   15.60
   9 -14   1    5.00    8.30
   5   9   1   -6.70   11.10
   9 -14   1   -5.70   10.60
  15  -6  -1  -24.20   18.60
   9 -15   1  -13.60   12.10
   9 -15   1   -7.50   18.00
   6   9   1  -12.00   11.80
  16  -7  -1   42.20   23.70
   7   9   1   20.90   15.40
   9 -16   1   -1.60   11.30
   9 -16   1   36.60   15.40
  17  -8  -1   37.10   29.00
   8   9   1   20.60   17.00
   9 -17   1    8.20   16.10
   9 -17   1   27.10   13.70
  17 -10  -1   -3.00   25.70
   7 -17   1   56.89   18.40
   7 -17   1   44.50   16.50
  10   7   1   12.70   16.90
  16 -10  -1  178.68   30.00
   6 -16   1  175.08   22.70
  10   6   1  174.48   22.00
   6 -16   1  151.28   19.00
  15 -10  -1    0.40   18.70
   5 -15   1   -4.80   10.40
   5 -15   1    6.70   14.30
  10   5   1   -5.30   11.90
  14 -10  -1   24.90   17.10
  10   4   1    7.90   11.80
   4 -14   1   24.10   10.10
  13 -10  -1   64.69   17.60
   3 -13   1   76.99   15.10
   3 -13   1   58.79    6.70
  10   3   1   61.89   13.10
   3 -13   1   58.19   10.80
 -10  -2  -1  391.26   29.10
  12 -10  -1  439.16   34.30
   2 -12   1  476.55   32.60
   2 -12   1  470.15   28.40
  10   2   1  446.96   30.50
 -10  -1  -1   82.89   13.30
  11 -10  -1   94.99   15.60
  10   1   1   56.39   11.60
   1 -11   1   68.69   13.20
   1 -11   1   81.09   11.00
   0  10  -1  580.24   36.50
  10 -10  -1  676.93   38.10
 -10   0  -1  566.94   36.90
   0 -10   1  640.14   36.50
  10   0   1  547.75   35.30
   0 -10   1  650.93   35.20
   0 -10   1  544.95   39.30
   9 -10  -1    4.00    7.50
 -10   1  -1   12.40   10.30
   1   9  -1   13.00    7.90
   1   9  -1   13.10    6.50
  10  -1   1   10.50    7.80
  -1  -9   1    9.30    7.40
  -1  -9   1    7.00   11.10
  -1  -9   1   20.80    7.90
   8 -10  -1   34.30    9.00
   2   8  -1   24.70    6.80
   2   8  -1   20.30    8.00
 -10   2  -1   27.30   11.20
  -2  -8   1   26.50   10.40
  10  -2   1   31.30    8.60
  -2  -8   1   28.80    8.00
   3   7  -1   25.60    7.40
 -10   3  -1   43.20   12.80
   7 -10  -1   23.60    7.60
   3   7  -1   29.10    8.80
  -3  -7   1   29.50    7.90
  -3  -7   1   40.40   10.10
  10  -3   1   24.30    8.50
   6 -10  -1  227.18   17.90
   4   6  -1  214.88   17.30
   6 -10  -1  241.88   18.30
 -10   4  -1  264.57   23.70
   4   6  -1  254.77   19.40
  10  -4   1  240.18   20.70
  -4  -6   1  220.38   20.10
  -4  -6   1  242.48   18.00
   5 -10  -1  126.89   13.70
   5   5  -1  125.39   13.70
 -10   5  -1  143.09   17.70
   5 -10  -1  120.89   10.90
   5   5  -1  138.09   14.40
   5 -10  -1  121.39   13.00
   5   5  -1  135.99    8.00
  10  -5   1  130.19   16.20
  -5  10   1  175.88   21.80
  -5  -5   1  134.79   14.80
  -5  -5   1  115.99   13.30
   4 -10  -1   63.19    9.70
   6   4  -1   77.29    6.90
   4 -10  -1   80.39   11.00
   4 -10  -1   62.89    8.00
 -10   6  -1   75.79   14.50
   6   4  -1   93.99   12.10
   6   4  -1   74.49   11.10
  -6  -4   1   43.40   12.60
  -6  -4   1   77.79   11.80
  10  -6   1   61.89   12.10
   3 -10  -1  600.64   35.00
   7   3  -1  642.94   35.20
   7   3  -1  632.64   35.70
   3 -10  -1  570.44   34.00
   3 -10  -1  621.34   32.10
  -7  -3   1  617.54   36.40
  -7  -3   1  599.24   35.20
  10  -7   1  587.94   36.90
   2 -10  -1  279.07   20.10
   8   2  -1  284.97   21.40
   2 -10  -1  270.57   17.70
   8   2  -1  272.47   22.90
   2 -10  -1  282.27   21.50
   2 -10  -1  294.37   17.70
  -8  -2   1  329.97   23.90
  -8  -2   1  308.07   21.90
  10  -8   1  289.67   22.30
   1 -10  -1    5.00    3.90
   1 -10  -1    1.60    6.60
   1 -10  -1    2.70    5.30
   9   1  -1   11.20    7.30
   1 -10  -1   19.20    9.20
  10  -9   1   11.80    8.00
  -9  -1   1   10.60    9.10
  -9  -1   1   24.60   10.60
   0 -10  -1  581.14   35.40
   0 -10  -1  607.44   30.20
   0 -10  -1  599.84   34.40
   0 -10  -1  626.94   32.40
  10   0  -1  620.04   36.70
   0  10   1  594.74   35.20
  10 -10   1  626.74   36.50
 -10   0   1  552.04   38.70
  -1 -10  -1    1.20    5.70
  -1 -10  -1    9.70    7.80
  11  -1  -1    4.40    9.10
  -1 -10  -1   -3.50    9.10
  10 -11   1    9.30    9.10
   1  10   1    8.80    8.40
  -2 -10  -1    6.90    8.00
  -2 -10  -1    3.90    9.20
  -2 -10  -1   11.20    6.60
  12  -2  -1   12.20   11.60
  10 -12   1    8.00   10.00
   2  10   1    9.30    8.80
  -3 -10  -1   39.40    8.00
  -3 -10  -1   23.40    8.90
  13  -3  -1   41.20   14.70
  10 -13   1   42.30   12.10
   3  10   1   48.10   12.30
  -4 -10  -1  101.59   10.90
  14  -4  -1  110.59   21.50
  -4 -10  -1  109.69   12.10
   4  10   1   91.89   17.20
  10 -14   1   95.79   15.70
  15  -5  -1   -4.80   17.40
  10 -15   1    5.40   12.10
   5  10   1    8.30   13.10
  10 -15   1   -9.60    9.80
  16  -6  -1    3.90   22.30
  10 -16   1    4.10   14.50
   6  10   1  -14.10   14.70
  10 -16   1   -8.20   10.60
  17  -7  -1   17.80   27.60
   7  10   1   33.30   16.90
  10 -17   1    8.50   16.00
  10 -17   1    7.90   13.40
  17 -11  -1   26.40   26.00
   6 -17   1    5.20   17.60
  11   6   1    5.00   17.00
  16 -11  -1   44.70   22.70
   5 -16   1   56.79   17.60
  11   5   1   37.40   16.60
   5 -16   1   65.99   14.60
  15 -11  -1  337.47   36.70
  11   4   1  351.86   30.10
   4 -15   1  289.67   30.40
   4 -15   1  341.57   27.20
  14 -11  -1   52.59   18.80
   3 -14   1   60.09   12.70
  11   3   1   54.39   14.60
  13 -11  -1   46.90   15.50
   2 -13   1   75.39   12.60
  11   2   1   67.19   13.30
   2 -13   1   60.89   15.30
  12 -11  -1  224.08   24.40
 -11  -1  -1  196.58   23.60
   1 -12   1  181.78   19.40
  11   1   1  205.98   21.70
   1 -12   1  212.08   22.00
 -11   0  -1   25.70   13.70
  11 -11  -1   52.39   12.70
   0  11  -1   52.39   12.30
   0 -11   1   29.80   10.50
   0 -11   1   47.30   12.00
  11   0   1   36.50   11.00
 -11   1  -1   -2.40   13.30
   1  10  -1   -1.20    8.10
  10 -11  -1  -15.60    7.70
   1  10  -1   18.80    8.20
  -1 -10   1    3.00    8.80
  -1 -10   1   11.80    8.80
  11  -1   1  -16.10    8.20
   2   9  -1   50.49    9.30
   2   9  -1   54.79   11.70
 -11   2  -1   61.59   15.60
   9 -11  -1   62.19   11.40
  -2  -9   1   53.19   10.60
  11  -2   1   63.29   12.20
  -2  -9   1   67.29   11.00
  -2  -9   1   56.09   14.20
   3   8  -1  601.14   34.30
   3   8  -1  620.74   37.50
 -11   3  -1  595.34   41.50
   8 -11  -1  679.73   37.40
  11  -3   1  638.34   38.30
  -3  -8   1  617.34   38.70
  -3  -8   1  612.44   36.10
 -11   4  -1  159.98   20.40
   4   7  -1  165.08   16.90
   4   7  -1  145.69   15.30
   7 -11  -1  166.98   15.70
  11  -4   1  147.49   18.30
  -4  -7   1  139.09   16.60
  -4  -7   1  141.19   15.30
   5   6  -1    9.40    2.20
 -11   5  -1   -2.60   13.10
   6 -11  -1   12.20    7.40
   5   6  -1   11.60    8.00
   6 -11  -1    2.50    8.20
   5   6  -1    5.80    7.50
  11  -5   1    4.90    9.50
  -5  -6   1   13.50   10.10
  -5  -6   1    1.80    6.80
   5 -11  -1   44.20    9.90
   6   5  -1   27.20    8.70
   5 -11  -1   37.20    8.40
   5 -11  -1   29.30    6.40
 -11   6  -1   22.40   14.70
   6   5  -1   32.20    4.20
   6   5  -1   36.50    9.70
  11  -6   1   20.90   10.80
  -6  -5   1   23.20    7.90
  -6  -5   1   40.20   10.90
   7   4  -1   -4.70    3.80
   4 -11  -1    5.80    8.70
   7   4  -1   10.90    7.40
   7   4  -1   11.90    9.00
   4 -11  -1   -1.20    6.60
   4 -11  -1    3.20    5.00
  11  -7   1    8.00   10.20
  -7  -4   1   -1.80    7.20
  -7  -4   1    4.80    9.60
   8   3  -1   12.60    7.90
   3 -11  -1    5.70    5.40
   3 -11  -1    9.10    5.40
   3 -11  -1    2.40    8.70
   3 -11  -1   -6.30    6.70
  -8  -3   1   -6.10   10.00
  -8  -3   1   -5.80    7.20
  11  -8   1    7.80    9.50
   2 -11  -1   46.40    9.60
   2 -11  -1   52.99    8.00
   2 -11  -1   49.80    7.00
   9   2  -1   52.99   11.50
   2 -11  -1   44.90   11.70
  11  -9   1   63.89   12.30
  -9  -2   1   69.39   14.10
  -9  -2   1   61.39   11.60
   1 -11  -1   65.89   10.80
   1 -11  -1   87.49   13.80
  10   1  -1   77.39   12.60
   1 -11  -1   67.39    9.20
   1 -11  -1   59.09    6.60
  11 -10   1   77.29   14.00
  11   0  -1   50.29   13.40
   0 -11  -1   50.29   11.90
   0 -11  -1   43.00    9.70
   0 -11  -1   48.00    8.40
  11 -11   1   67.09   12.80
   0  11   1   47.80   10.90
  -1 -11  -1   23.40    7.40
  -1 -11  -1   34.20   11.70
  -1 -11  -1   27.20    9.30
   1  11   1   17.70   10.10
  11 -12   1   19.60   11.00
  -2 -11  -1  156.88   14.60
  13  -2  -1  163.08   21.00
  -2 -11  -1  152.88   16.70
   2  11   1  127.79   17.10
  11 -13   1  162.28   20.10
  -3 -11  -1  631.34   36.50
  14  -3  -1  595.64   43.90
  -3 -11  -1  577.74   35.80
  11 -14   1  641.94   40.30
   3  11   1  583.04   39.60
  15  -4  -1   11.00   18.40
  11 -15   1   19.20   13.90
   4  11   1    4.50   13.80
  11 -15   1    4.40   10.50
  16  -5  -1    7.30   22.10
  11 -16   1   30.90   16.10
   5  11   1   17.00   16.00
  11 -16   1   30.60   12.60
  17  -6  -1    7.90   25.50
  11 -17   1   -8.10   16.30
   6  11   1   -3.90   17.90
  11 -17   1   16.70   13.70
  17 -12  -1   37.90   25.50
   5 -17   1   43.50   19.50
  12   5   1   54.99   20.50
  16 -12  -1    2.40   19.60
   4 -16   1    2.00   16.20
  12   4   1   27.40   17.50
   4 -16   1   22.90   16.90
  15 -12  -1  126.09   23.40
   3 -15   1  136.49   21.10
  12   3   1  139.79   21.10
   3 -15   1  132.69   17.80
  14 -12  -1  742.13   49.30
   2 -14   1  636.84   41.40
  12   2   1  678.73   44.60
  13 -12  -1   19.00   14.10
  12   1   1   -4.60   11.80
   1 -13   1   12.10   13.70
   1 -13   1   19.30   11.90
   0  12  -1  196.28   23.50
  12 -12  -1  260.27   25.00
   0 -12   1  189.88   21.30
  12   0   1  191.38   22.40
   0 -12   1  202.88   23.50
 -12   1  -1   23.90   17.60
   1  11  -1   30.20   12.70
  -1 -11   1   36.30   12.30
  -1 -11   1   26.50   11.10
  12  -1   1   24.10   11.60
   2  10  -1   27.90    9.00
  10 -12  -1   10.70    9.10
 -12   2  -1   25.80   17.50
   2  10  -1    5.30    9.60
  12  -2   1   12.30   10.00
  -2 -10   1    5.90    9.70
  -2 -10   1   13.60    9.90
   9 -12  -1   19.70    9.00
 -12   3  -1    7.50   16.90
   3   9  -1   26.50   10.60
   3   9  -1   42.60    9.30
  -3  -9   1   15.10    9.50
  -3  -9   1   27.10   14.90
  -3  -9   1   18.10    8.80
  12  -3   1   18.50   10.70
   8 -12  -1   97.09   13.40
   4   8  -1   87.19   12.20
   4   8  -1   74.69   13.50
 -12   4  -1   99.29   21.30
  -4  -8   1   95.89   16.20
  -4  -8   1  114.39   13.50
  12  -4   1  102.29   15.40
   7 -12  -1   78.09   11.70
   5   7  -1   83.99   13.60
   5   7  -1   57.79   11.50
 -12   5  -1   82.69   21.70
  -5  -7   1   84.69   12.00
  -5  -7   1   53.39   13.80
  12  -5   1   67.29   16.10
   6   6  -1   66.79    6.00
   6 -12  -1   71.79   11.30
   6 -12  -1   64.59    8.80
   6   6  -1   77.39   12.60
   6   6  -1   61.69   11.90
  -6  -6   1   64.79   13.80
  -6  -6   1   70.09   10.90
  12  -6   1   46.10   13.40
   7   5  -1   22.20    4.60
   5 -12  -1   20.20   11.80
   5 -12  -1   40.00    9.50
   7   5  -1   26.10    9.70
   5 -12  -1   35.10    7.00
  12  -7   1   15.70   13.30
  -7  -5   1   31.00    9.40
  -7  -5   1    8.50   11.30
   4 -12  -1    0.30    6.20
   4 -12  -1    8.10    7.70
   4 -12  -1   21.20   11.30
   4 -12  -1    5.00    5.70
   8   4  -1   -2.10    8.40
   8   4  -1    4.50    4.80
  12  -8   1  -10.90   10.30
  -8  -4   1   11.90   12.00
  -8  -4   1    7.50    8.40
   3 -12  -1  156.28   17.70
   3 -12  -1  154.58   13.30
   9   3  -1  162.48   18.00
   3 -12  -1  158.18   13.50
   3 -12  -1  160.98   17.10
  -9  -3   1  156.08   17.60
  12  -9   1  162.58   20.80
  -9  -3   1  104.49   18.00
  10   2  -1  461.55   31.90
   2 -12  -1  489.75   29.60
   2 -12  -1  476.05   32.60
   2 -12  -1  434.26   25.10
   2 -12  -1  466.35   27.00
  12 -10   1  419.06   40.10
   1 -12  -1  179.68   16.80
  11   1  -1  231.18   22.40
   1 -12  -1  195.88   12.70
   1 -12  -1  168.98   22.80
   1 -12  -1  197.58   18.90
  12 -11   1  182.88   21.60
  12   0  -1  179.08   22.60
   0 -12  -1  177.08   16.50
   0 -12  -1  202.28   18.80
  12 -12   1  199.88   22.20
  13  -1  -1    9.30   14.10
  -1 -12  -1   23.20    7.90
  -1 -12  -1   20.50    9.40
   1  12   1    9.80   11.30
  12 -13   1    1.70   11.20
  14  -2  -1    6.70   15.60
   2  12   1  -18.10   12.10
  12 -14   1   16.70   12.80
  15  -3  -1   47.80   20.20
   3  12   1   62.19   17.50
  12 -15   1   88.79   17.50
  16  -4  -1  117.69   26.60
  12 -16   1  148.49   19.00
   4  12   1  121.49   22.50
  12 -16   1  114.89   20.50
  17  -5  -1  131.29   31.90
   5  12   1  131.49   24.50
  12 -17   1  146.09   19.30
  12 -17   1   85.49   20.70
  17 -13  -1   13.10   24.30
   4 -17   1    7.40   20.20
  13   4   1   15.60   19.90
  16 -13  -1   56.59   21.10
   3 -16   1  -16.50   18.00
  13   3   1    6.00   18.00
  15 -13  -1   29.60   19.70
   2 -15   1   -6.40   16.20
  13   2   1   -3.40   16.10
   2 -15   1    1.60   15.00
  14 -13  -1  206.28   25.60
   1 -14   1  178.88   19.50
  13   1   1  158.58   22.40
   1 -14   1  140.29   27.30
  13 -13  -1  136.69   20.50
   0 -13   1  107.69   18.90
  13   0   1   72.99   17.20
   0 -13   1  102.59   16.10
   1  12  -1    7.00   12.40
  12 -13  -1   22.20   13.40
  13  -1   1   18.70   12.80
  -1 -12   1    0.30   12.60
  -1 -12   1    5.50   11.70
  11 -13  -1  214.28   22.00
   2  11  -1  149.39   19.40
  -2 -11   1  145.69   18.60
  -2 -11   1  163.28   17.70
   3  10  -1   15.90   12.20
 -13   3  -1   42.40   23.10
  -3 -10   1   36.40   11.90
  13  -3   1   48.10   14.60
  -3 -10   1   34.40   11.50
   9 -13  -1  939.51   47.40
   4   9  -1  763.72   45.80
   4   9  -1  715.53   47.20
  -4  -9   1  851.51   45.20
  13  -4   1  714.23   48.50
  -4  -9   1  785.92   45.20
   5   8  -1  167.28   20.60
   8 -13  -1  204.28   20.20
  -5  -8   1  199.18   19.40
  13  -5   1  179.68   23.80
  -5  -8   1  166.28   27.30
   7 -13  -1   19.30    9.50
   6   7  -1   19.80   10.90
   7 -13  -1   17.30    6.60
  13  -6   1   25.50   15.00
  -6  -7   1    8.00    8.90
  -6  -7   1   -1.00   13.30
   6 -13  -1  457.55   26.90
   7   6  -1  439.16   23.00
   6 -13  -1  460.75   30.10
   7   6  -1  407.96   30.60
  -7  -6   1  442.26   32.80
  13  -7   1  471.05   37.00
  -7  -6   1  479.75   30.20
   5 -13  -1  196.98   19.70
   8   5  -1  222.58   13.70
   8   5  -1  177.88   21.20
   5 -13  -1  211.18   16.50
  -8  -5   1  172.98   24.10
  -8  -5   1  226.98   20.30
   4 -13  -1   77.09   12.50
   9   4  -1   67.79    8.40
   4 -13  -1   54.29    9.00
   9   4  -1   61.49   13.20
   4 -13  -1   49.99    8.80
  -9  -4   1   70.09   13.60
  13  -9   1   45.10   16.00
   3 -13  -1   59.09    9.40
   3 -13  -1   81.29    9.00
   3 -13  -1   77.79   12.50
   3 -13  -1   88.99   19.00
  13 -10   1   58.19   15.50
   2 -13  -1   49.10   11.30
   2 -13  -1   54.89    9.60
  11   2  -1   73.19   14.40
  13 -11   1   44.70   13.70
   1 -13  -1    9.80   10.00
  12   1  -1    4.20   13.20
   1 -13  -1   16.30    8.70
  13 -12   1    9.50   11.90
  13   0  -1  116.49   19.40
   0 -13  -1   97.99   13.70
  13 -13   1  103.89   16.90
  14  -1  -1   15.80   16.70
   1  13   1    9.40   14.20
  13 -14   1   28.80   13.20
  15  -2  -1   20.80   20.00
  13 -15   1   37.40   15.70
   2  13   1    1.30   15.90
  16  -3  -1   67.29   25.10
   3  13   1   77.79   20.90
  13 -16   1   89.79   17.90
  13 -16   1   88.09   20.20
  17  -4  -1    8.40   26.70
  13 -17   1   37.50   18.70
   4  13   1    4.50   20.80
  13 -17   1    1.40   15.50
  16 -14  -1  167.18   27.80
   2 -16   1  162.68   25.70
  14   2   1  165.58   27.40
  15 -14  -1  249.88   33.00
  14   1   1  194.38   25.90
   1 -15   1  188.88   25.90
  14 -14  -1   44.90   19.00
   0 -14   1   38.80   18.00
  14   0   1   28.90   17.80
  13 -14  -1   30.40   15.90
   1  13  -1   13.00   16.40
  -1 -13   1    4.30   16.50
  -1 -13   1    2.60   13.20
  14  -1   1    5.10   15.50
   2  12  -1   16.10   14.00
  12 -14  -1  -15.90   12.70
  -2 -12   1   10.10   12.40
  14  -2   1    0.80   14.20
  -2 -12   1    7.30   14.00
   3  11  -1  549.05   42.30
  11 -14  -1  675.43   41.00
  -3 -11   1  623.54   38.50
  -3 -11   1  657.43   41.50
  14  -3   1  559.74   42.60
  10 -14  -1  123.59   17.10
   4  10  -1   83.09   18.00
  -4 -10   1  111.89   15.80
  -4 -10   1  131.69   17.60
  14  -4   1  124.59   20.80
   9 -14  -1    8.70   14.70
   9 -14  -1    3.70    7.70
   5   9  -1   17.10   12.70
  -5  -9   1   -9.30   10.80
  -5  -9   1    3.50    9.90
  14  -5   1   -6.70   14.10
   8 -14  -1    5.40    7.60
   8 -14  -1   -1.80   10.50
   6   8  -1  -19.10   10.90
  14  -6   1   -6.90   14.60
  -6  -8   1   -2.10    9.80
   7 -14  -1    6.70   10.50
   7   7  -1   -5.00   10.80
   7 -14  -1    3.50    7.80
  -7  -7   1    7.40    9.90
  14  -7   1   13.90   17.20
   8   6  -1   37.50   12.30
   6 -14  -1   37.90    9.00
   6 -14  -1   39.30   11.30
  14  -8   1   44.90   16.70
  -8  -6   1   42.90   12.00
   5 -14  -1  433.76   30.20
   9   5  -1  414.66   31.50
   5 -14  -1  421.46   27.20
   5 -14  -1  439.36   27.00
  -9  -5   1  444.26   31.80
  14  -9   1  502.65   40.00
   4 -14  -1   32.00    8.10
  10   4  -1   27.70   12.70
   4 -14  -1   20.40   11.50
   4 -14  -1   39.80    8.40
  14 -10   1   12.20   16.60
  11   3  -1   85.59   16.20
   3 -14  -1   70.39   11.20
   3 -14  -1   65.89   13.40
  14 -11   1   92.89   19.90
  12   2  -1  614.44   43.50
   2 -14  -1  686.43   39.70
  14 -12   1  636.14   44.90
  13   1  -1  150.28   22.20
   1 -14  -1  150.88   20.30
  14 -13   1  153.68   21.00
  14   0  -1   36.80   17.50
  14 -14   1   18.30   15.40
  15  -1  -1   58.89   22.00
  14 -15   1   39.10   18.00
  16  -2  -1   77.79   26.20
  14 -16   1   77.39   20.40
  15 -15  -1   15.00   19.30
  15   0   1   20.10   20.60
  14 -15  -1   45.10   19.50
  -1 -14   1   25.80   19.70
  15  -1   1   37.40   20.50
   2  13  -1   19.20   17.50
  13 -15  -1   -4.70   15.80
  -2 -13   1   21.40   17.90
  15  -2   1   10.90   18.40
   3  12  -1   73.39   19.20
  12 -15  -1   46.90   17.20
  -3 -12   1   59.79   14.80
  15  -3   1   63.89   19.00
  -3 -12   1   57.39   18.40
  11 -15  -1   47.70   15.80
   4  11  -1  -18.40   14.40
  -4 -11   1   12.90   15.30
  -4 -11   1   22.80   12.80
  15  -4   1   -2.40   17.10
   5  10  -1   -7.70   14.50
  10 -15  -1   33.20   10.60
  10 -15  -1   -7.00   12.40
  -5 -10   1    5.00   13.90
  -5 -10   1    4.50   11.90
  15  -5   1   20.30   17.90
   9 -15  -1   15.60    9.20
   9 -15  -1    5.50   12.00
   6   9  -1   11.60   13.60
  15  -6   1   -8.60   17.90
  -6  -9   1    2.30   11.30
  -6  -9   1   -3.90   13.20
   8 -15  -1   40.90   12.80
   8 -15  -1   20.30   10.10
   7   8  -1   35.20   14.50
  -7  -8   1   39.80   12.90
  15  -7   1   18.30   21.00
   8   7  -1  906.91   55.69
   7 -15  -1 1028.40   66.89
   7 -15  -1  957.80   50.59
  -8  -7   1  903.11   53.19
  15  -8   1  952.20   63.39
   6 -15  -1   17.60    9.40
   6 -15  -1   20.00    9.30
   6 -15  -1    8.90   12.10
   9   6  -1   19.00   12.70
  -9  -6   1    2.50   12.80
  15  -9   1   37.90   21.10
   5 -15  -1    9.10    8.80
  10   5  -1   20.60   14.20
   5 -15  -1    4.80   11.90
   5 -15  -1   -2.80    8.40
  15 -10   1   -6.60   18.40
   4 -15  -1  358.16   28.20
  11   4  -1  343.27   32.60
  15 -11   1  318.87   35.90
  12   3  -1  163.58   22.50
   3 -15  -1  133.59   18.00
  15 -12   1  164.78   26.00
  13   2  -1   -3.00   16.30
  15 -13   1  -14.40   15.50
  14   1  -1  180.18   26.60
  15 -14   1  196.78   26.30
  15   0  -1   12.80   21.60
  15 -15   1   57.79   19.60
   2  14  -1   59.89   23.00
  14 -16  -1  103.69   22.60
  16  -2   1   44.90   22.80
   3  13  -1  102.29   22.30
  13 -16  -1   95.39   21.70
  16  -3   1   55.09   24.10
  12 -16  -1  170.28   23.50
   4  12  -1  126.89   23.70
  16  -4   1  102.89   25.10
  11 -16  -1   40.20   14.00
  11 -16  -1   29.70   17.00
   5  11  -1   49.40   18.70
  -5 -11   1   44.20   18.80
  16  -5   1   47.00   22.30
  -5 -11   1   31.70   15.30
  10 -16  -1   18.60   14.80
   6  10  -1   -5.60   15.70
  10 -16  -1   14.20   14.40
  16  -6   1   -4.60   20.70
  -6 -10   1   33.70   17.10
  -6 -10   1   22.50   13.50
   9 -16  -1   28.00   14.40
   7   9  -1   20.40   15.60
   9 -16  -1   33.20   11.80
  -7  -9   1   20.70   16.20
  16  -7   1   35.40   22.10
  -7  -9   1   22.70   13.10
   8   8  -1  151.68   22.70
   8 -16  -1  185.98   21.00
   8 -16  -1  242.38   26.50
  -8  -8   1  180.48   21.00
  16  -8   1  180.18   32.20
   7 -16  -1   21.70   11.90
   9   7  -1   -7.10   14.40
   7 -16  -1    4.70   10.60
   7 -16  -1   34.80   14.80
  16  -9   1    5.90   22.80
  -9  -7   1   13.50   16.90
   6 -16  -1  172.58   21.00
  10   6  -1  138.89   21.30
  16 -10   1  151.48   29.00
  11   5  -1   49.40   17.20
   5 -16  -1   52.69   23.40
  16 -11   1   45.80   23.20
   4 -16  -1   14.00   18.30
  12   4  -1   29.30   17.50
  16 -12   1   15.70   20.10
  13   3  -1    1.80   18.70
  16 -13   1  -33.30   17.70
  14   2  -1  152.78   26.60
  16 -14   1  170.28   27.50
   4  13  -1   28.70   22.30
  13 -17  -1   17.20   20.80
  13 -17  -1   48.80   17.90
  17  -4   1   28.70   25.70
   5  12  -1   55.59   22.50
  12 -17  -1  152.78   23.90
  12 -17  -1   99.19   18.20
  17  -5   1   49.40   27.70
  11 -17  -1  -11.10   13.50
  11 -17  -1  -26.40   16.70
   6  11  -1    6.70   19.50
  17  -6   1  -13.70   25.00
   7  10  -1   15.50   18.40
  10 -17  -1   -0.70   13.90
  10 -17  -1   -0.40   17.30
  17  -7   1  -16.90   26.10
   9 -17  -1   -1.90   15.90
   8   9  -1    8.70   17.40
  17  -8   1   35.60   28.10
   8 -17  -1  135.59   21.00
   9   8  -1  100.59   21.40
  17  -9   1   86.69   32.30
   7 -17  -1   38.10   17.60
  10   7  -1   58.29   19.00
  17 -10   1   29.60   26.90
   6 -17  -1    2.10   17.40
  11   6  -1   38.50   18.70
  17 -11   1   43.50   25.50
  12   5  -1   48.20   20.60
  17 -12   1   57.29   25.00
  13   4  -1   13.80   20.50
  17 -13   1    2.90   24.10
   0   0  -2 1259.47   60.99
   0   0  -2 1322.17   60.89
   0   0   2 1272.17   60.59
   0   0   2 1321.97   60.99
   0   0   2 1264.27   60.79
  -1   0  -2   84.49    5.50
   1  -1  -2   97.99    6.10
   0   1  -2   94.79    6.10
   0   1  -2  103.89    6.20
   1  -1  -2   88.19    5.50
   1  -1  -2   85.29    6.60
   0   1  -2   88.89    5.40
   1   0   2   93.39    5.50
   0  -1   2   87.29    5.70
  -1   1   2   86.49    6.00
   1   0   2   98.79    5.80
  -1   1   2   89.09    5.70
   0  -1   2   94.99    5.90
   0  -1   2   94.69    5.50
   1   0  -2   96.79    6.10
  -1   1  -2   88.89    5.90
  -1   1  -2   88.49    5.60
   0  -1  -2  100.69    5.40
   1   0  -2   86.89    6.20
   1   0  -2   91.59    6.30
  -1   0   2   88.69    6.20
   0   1   2   90.99    5.30
  -1   0   2   96.09    6.10
   1  -1   2   95.49    5.60
   0   1   2   94.59    6.10
   2  -1  -2  100.69    7.40
  -1   2  -2   98.49    6.00
   2  -1  -2  104.29    7.80
  -1  -1  -2  101.29    6.30
  -1   2  -2  104.19    6.80
   1  -2   2  109.29    6.00
   1   1   2  101.09    6.30
  -2   1   2   98.39    7.20
  -2   1   2   95.59    7.10
   1  -2   2  100.69    6.60
   1  -2   2   94.59    6.80
   1   1   2  107.19    5.60
   3  -2  -2    6.40    3.10
  -2  -1  -2    4.20    1.80
   3  -2  -2    1.60    2.50
  -1   3  -2    9.20    2.40
   1  -3   2    6.80    2.40
   1  -3   2    6.70    1.50
   2   1   2    6.10    2.00
   1  -3   2    3.70    2.60
  -3   2   2   10.50    3.00
  -3   2   2    5.70    2.50
   0   2  -2    1.80    1.00
   2  -2  -2    1.00    2.50
   0   2  -2    4.20    2.20
  -2   0  -2    7.10    1.90
   2  -2  -2    2.20    2.20
   0   2  -2    2.70    2.20
   0  -2   2    5.20    1.30
  -2   2   2    4.90    2.00
   0  -2   2    4.80    2.20
   2   0   2    2.20    1.70
   0  -2   2    5.30    1.90
  -2   2   2    7.60    2.10
   1   1  -2  102.29    6.30
   1  -2  -2   97.69    5.70
   1   1  -2   98.79    6.90
   1  -2  -2  104.29    6.30
   1  -2  -2   98.09    7.30
   1   1  -2   91.99    7.00
  -1   2   2  104.09    6.10
  -1  -1   2  105.49    7.20
  -1   2   2  101.09    6.00
   2  -1   2  108.59    6.40
  -1  -1   2   98.09    6.90
   0  -2  -2    2.40    1.70
   0  -2  -2    3.00    0.90
   2   0  -2    7.40    2.90
   2   0  -2    4.40    2.60
  -2   0   2    4.60    2.80
   0   2   2    3.40    2.00
   2  -2   2    0.60    1.90
  -2   0   2    2.70    2.30
   0   2   2    3.80    1.10
   2  -2   2    1.80    1.60
   3  -1  -2   76.49    7.30
  -1  -2  -2   75.39    5.40
   3  -1  -2   89.39    7.90
   2  -3   2   81.79    6.50
  -3   1   2   93.09    7.40
   1   2   2   74.39    4.20
   1   2   2   77.29    5.50
  -3   1   2   81.09    7.30
   4  -2  -2  215.48   13.30
   4  -2  -2  183.48   12.60
  -2  -2  -2  207.88   11.00
   2  -4   2  183.58   12.70
   2  -4   2  171.58   11.90
   2   2   2  205.78   10.10
   2   2   2  191.98    9.80
  -4   2   2  202.18   12.90
   2   2   2  199.28   11.70
   5  -3  -2 2587.34  122.89
   5  -3  -2 2489.55  123.09
   3   2   2 2641.84  121.09
  -5   3   2 2610.64  122.39
   3   2   2 2407.96  120.39
  -5   3   2 2640.54  122.99
   2  -5   2 2628.54  123.19
   2  -5   2 2624.54  122.19
   3   2   2 2498.65  120.49
   4  -3  -2 2642.24  122.49
  -1   4  -2 2728.23  123.09
   4  -3  -2 2356.96  122.89
  -1   4  -2 2754.42  121.79
   3   1   2 2398.66  120.29
   1  -4   2 2245.18  122.39
   1  -4   2 2601.24  122.69
   3   1   2 2697.93  121.39
   1  -4   2 2710.23  120.29
  -4   3   2 2625.04  122.39
  -4   3   2 2546.55  121.89
   3  -3  -2   32.60    4.50
   3  -3  -2   30.30    4.20
   0   3  -2   28.00    4.40
   0   3  -2   22.20    4.20
   0   3  -2   21.70    2.10
   0  -3   2   22.90    3.70
   3   0   2   26.90    3.60
  -3   3   2   17.60    3.20
   0  -3   2   22.00    2.30
   3   0   2   23.90    3.30
  -3   3   2   18.10    2.90
   2  -3  -2   72.29    5.90
   1   2  -2   85.19    6.60
   2  -3  -2   80.59    6.20
   1   2  -2   82.29    4.80
   1   2  -2   81.99    6.40
   3  -1   2   67.99    5.30
  -1  -2   2   83.89    6.80
   3  -1   2   80.69    6.90
  -2   3   2   71.89    5.00
  -1  -2   2   80.09    6.60
  -2   3   2   72.09    5.50
   1  -3  -2    6.70    2.60
   2   1  -2    5.30    3.50
   1  -3  -2    7.90    2.00
   1  -3  -2    2.80    1.30
   2   1  -2   18.60    3.60
   1  -3  -2    9.80    1.90
  -2  -1   2    4.50    2.90
  -2  -1   2    4.00    2.90
  -1   3   2    6.80    1.70
   3  -2   2    4.30    2.00
   0  -3  -2   20.30    3.00
   3   0  -2   24.10    4.70
   3   0  -2   23.60    4.70
  -3   0   2   26.30    4.90
   3  -3   2   32.10    4.20
   0   3   2   25.10    3.60
   0   3   2   19.70    2.30
   0   3   2   21.20    2.60
   4  -1  -2  480.65   26.70
  -1  -3  -2  507.25   24.50
   4  -1  -2  520.85   27.00
   1   3   2  454.65   24.50
   1   3   2  482.05   23.90
  -4   1   2  521.65   26.90
   3  -4   2  489.05   25.80
   3  -4   2  461.05   25.90
   1   3   2  499.35   24.70
  -4   1   2  480.55   26.40
   5  -2  -2  183.68   13.80
   5  -2  -2  219.68   14.50
  -2  -3  -2  205.08   11.60
   3  -5   2  199.08   13.20
   2   3   2  226.68   10.90
   2   3   2  212.88   11.50
   3  -5   2  182.78   13.20
  -5   2   2  196.98   13.80
   2   3   2  222.78   11.90
   6  -3  -2    1.20    4.90
   6  -3  -2    3.40    3.70
  -6   3   2   -0.10    3.80
   3   3   2    3.30    2.70
   3  -6   2    1.70    3.70
   3  -6   2    5.20    3.90
  -6   3   2   -1.80    3.30
   3   3   2    2.60    2.30
   3  -6   2    0.90    4.40
   7  -4  -2   57.19    8.80
   7  -4  -2   47.60    7.80
   3  -7   2   36.60    6.40
   3  -7   2   39.30    6.90
   4   3   2   61.09    6.20
   4   3   2   50.99    6.00
  -7   4   2   54.79    7.90
   4   3   2   56.59    6.20
   3  -7   2   62.19    9.00
   6  -4  -2   63.79    8.40
   6  -4  -2   82.79    9.60
   2  -6   2   77.99    8.40
   4   2   2   70.19    6.30
   4   2   2   61.89    6.00
  -6   4   2   64.19    8.30
   2  -6   2   71.29    7.50
   4   2   2   60.59    5.70
   5  -4  -2 3452.65  162.08
  -1   5  -2 3516.45  162.88
   5  -4  -2 3364.36  162.38
  -1   5  -2 3539.55  161.28
   1  -5   2 3391.56  161.28
   1  -5   2 3573.14  162.58
   1  -5   2 3442.26  159.38
   4   1   2 3357.56  160.38
   4   1   2 3448.35  160.78
   4   1   2 3169.08  160.08
  -5   4   2 3350.86  161.88
   4  -4  -2    1.30    2.90
   0   4  -2    2.20    2.80
   4  -4  -2    4.10    3.60
   0   4  -2   13.50    3.90
   4   0   2    0.60    2.50
   4   0   2    1.10    2.20
   0  -4   2    4.00    1.20
  -4   4   2    0.70    2.80
   0  -4   2   15.40    3.50
   0  -4   2    3.10    3.40
   1   3  -2  464.65   25.50
   3  -4  -2  498.25   24.40
   1   3  -2  498.25   24.70
   1   3  -2  500.15   22.60
   3  -4  -2  471.95   24.70
  -1  -3   2  412.36   25.40
  -3   4   2  462.15   24.50
   4  -1   2  458.15   24.80
   2   2  -2  209.18   12.80
   2  -4  -2  207.98   11.60
   2  -4  -2  199.88   11.80
   2   2  -2  193.88   13.00
   2  -4  -2  207.28   11.30
  -2  -2   2  225.68   13.60
  -2   4   2  194.68   11.70
   4  -2   2  189.98   12.70
   3   1  -2 2468.45  122.19
   1  -4  -2 2593.94  121.59
   1  -4  -2 2610.34  120.09
   3   1  -2 2481.35  122.69
   1  -4  -2 2658.93  119.59
   1  -4  -2 2665.43  120.19
  -3  -1   2 2550.94  122.49
  -1   4   2 2616.54  121.09
   4  -3   2 2511.85  121.89
  -3  -1   2 2429.66  122.09
   4   0  -2    0.00    3.50
   4   0  -2    5.20    4.30
   0  -4  -2    8.20    2.50
   0   4   2    3.50    3.10
  -4   0   2   -4.40    3.30
  -4   0   2    6.40    4.30
   0   4   2    0.90    1.80
   4  -4   2   13.90    4.10
   5  -1  -2  556.64   30.70
   5  -1  -2  573.94   30.80
  -1  -4  -2  566.44   28.10
  -5   1   2  540.15   30.40
   1   4   2  582.74   28.70
   4  -5   2  539.55   30.20
  -5   1   2  592.94   31.00
   1   4   2  549.05   28.00
   6  -2  -2  872.81   46.70
  -2  -4  -2  892.21   43.90
   6  -2  -2  837.22   46.70
   4  -6   2  874.01   46.70
   2   4   2  920.31   44.50
   2   4   2  940.61   42.90
  -6   2   2  947.01   47.40
   4  -6   2  909.01   46.40
   2   4   2  937.11   44.30
  -6   2   2  911.41   46.60
   7  -3  -2   23.30    6.20
   7  -3  -2   21.70    7.30
   4  -7   2   21.10    6.00
   3   4   2   25.90    4.70
   4  -7   2   23.70    6.70
   3   4   2   27.80    4.10
  -7   3   2   26.50    6.50
   3   4   2   24.70    3.60
   4  -7   2   29.00    6.10
   8  -4  -2   42.40    8.60
   8  -4  -2   51.89    9.60
   4  -8   2   43.60    8.60
  -8   4   2   43.10    8.30
   4   4   2   52.99    5.90
   4  -8   2   52.89    8.30
   4   4   2   57.29    6.30
   4  -8   2   45.00    8.50
   4   4   2   50.79    6.70
   9  -5  -2   23.10    8.10
   9  -5  -2   37.00   10.70
   5   4   2   15.50    4.60
   5   4   2   22.40    5.90
   4  -9   2   21.60    6.10
   4  -9   2   27.30    7.70
   4  -9   2   19.40    8.40
  -9   5   2   19.00    9.30
   5   4   2   27.90    5.50
   8  -5  -2  330.27   22.40
   8  -5  -2  301.87   21.40
   5   3   2  330.17   18.40
  -8   5   2  311.27   21.60
   5   3   2  342.77   19.20
   3  -8   2  333.07   20.30
   3  -8   2  344.37   21.90
   3  -8   2  321.67   21.60
   5   3   2  329.17   18.60
   7  -5  -2   -0.90    6.00
   7  -5  -2   12.00    5.50
   5   2   2    7.70    3.70
  -7   5   2    1.40    4.50
   2  -7   2    2.90    4.10
   5   2   2    5.20    3.80
   2  -7   2    4.50    5.50
   5   2   2    5.70    4.00
   2  -7   2    5.30    4.50
  -1   6  -2   13.90    4.10
   6  -5  -2   30.40    6.50
  -1   6  -2   23.30    5.60
   6  -5  -2   13.60    4.90
   5   1   2   13.50    3.30
  -6   5   2   20.80    4.80
   1  -6   2   19.70    2.10
   5   1   2   24.60    4.20
   1  -6   2   24.60    6.00
   1  -6   2   11.70    4.10
   5   1   2   15.80    3.70
   5  -5  -2  158.58   11.70
   5  -5  -2  153.48   11.90
  -5   0  -2  139.19    8.90
   0   5  -2  157.38   11.80
   0   5  -2  176.78   11.00
   5   0   2  175.18   11.10
   0  -5   2  189.58   12.90
   5   0   2  157.48   10.20
  -5   5   2  170.88   11.50
   0  -5   2  164.78   11.10
   1   4  -2  556.24   28.20
   1   4  -2  533.65   29.30
   4  -5  -2  535.25   28.90
  -5   1  -2  473.25   26.90
   4  -5  -2  532.25   28.30
  -4   5   2  577.04   28.70
   5  -1   2  528.15   28.30
  -1  -4   2  598.14   29.80
  -1  -4   2  565.24   28.70
   3  -5  -2  222.48   12.00
   2   3  -2  212.28   10.50
   3  -5  -2  204.28   12.60
   2   3  -2  193.78   12.90
  -5   2  -2  173.28   11.80
   2   3  -2  191.28   13.60
  -3   5   2  199.98   12.90
  -2  -3   2  201.48   13.30
   5  -2   2  190.18   13.50
  -2  -3   2  206.68   13.90
   2  -5  -2 2487.75  118.39
   2  -5  -2 2619.34  117.59
   3   2  -2 2685.13  119.99
   3   2  -2 2500.35  120.69
   2  -5  -2 2601.34  118.39
  -2   5   2 2156.88  122.49
  -3  -2   2 2494.25  120.39
  -3  -2   2 2380.76  119.79
   5  -3   2 2573.24  120.49
   1  -5  -2 3471.95  160.68
   1  -5  -2 3152.28  159.18
   1  -5  -2 3480.65  159.38
   4   1  -2 3259.77  162.18
   4   1  -2 3530.25  161.98
   1  -5  -2 3380.26  158.28
  -4  -1   2 3642.14  162.58
  -4  -1   2 3410.86  161.88
   5  -4   2 3230.08  161.88
  -1   5   2 3435.66  161.68
   0  -5  -2  145.69    9.00
   5   0  -2  155.38   12.40
   5   0  -2  186.78   14.00
   0  -5  -2  176.58   10.40
   0  -5  -2  158.98    9.40
  -5   0   2  192.38   13.50
   0   5   2  158.88   10.10
   5  -5   2  156.18   12.70
   0   5   2  156.08   12.00
  -5   0   2  167.88   12.80
   6  -1  -2   85.99   10.30
  -1  -5  -2   99.89    7.00
   6  -1  -2   93.99   10.10
   1   5   2   89.59    7.20
  -6   1   2  103.19   10.90
   5  -6   2   83.19    9.80
  -6   1   2   95.69   11.20
   7  -2  -2   17.20    6.90
   7  -2  -2   15.80    6.20
  -2  -5  -2   12.00    3.50
   2   5   2   18.60    2.40
   2   5   2   15.70    3.90
  -7   2   2   16.90    5.70
  -7   2   2   38.10    7.50
   2   5   2   12.80    4.60
   5  -7   2    8.00    5.60
   8  -3  -2   92.39   11.40
   8  -3  -2   82.49   11.10
   3   5   2   89.59    7.70
   5  -8   2   62.29    9.40
   5  -8   2   97.09   11.30
   3   5   2   82.59    8.50
   5  -8   2   86.19   10.20
   3   5   2   80.99    6.30
  -8   3   2   78.29   10.80
   9  -4  -2   91.29   12.00
   9  -4  -2   68.99   12.30
   4   5   2   78.79    9.50
   5  -9   2   70.99   11.40
   4   5   2   78.39    7.80
  -9   4   2   67.39   12.20
   5  -9   2   73.69    9.40
   5  -9   2   82.39   11.20
   4   5   2   73.69    7.50
  10  -5  -2   14.70    9.00
   5 -10   2    5.80    7.00
   5 -10   2   12.30    6.60
   5   5   2    3.40    5.70
   5   5   2    9.40    4.30
   5   5   2   10.10    4.90
  11  -6  -2   65.29   12.80
   5 -11   2   43.70   11.80
   6   5   2   60.79    9.30
   6   5   2   60.69    8.40
   6   5   2   50.29    7.00
  10  -6  -2   57.79   12.30
   6   4   2   78.09    8.80
   4 -10   2   65.69   11.70
   6   4   2   59.29    7.40
   4 -10   2   66.29    9.40
   6   4   2   75.29   10.10
   9  -6  -2  171.58   19.00
   9  -6  -2  163.78   15.30
   6   3   2  160.78   12.70
   6   3   2  159.08   11.40
   3  -9   2  147.59   14.20
  -9   6   2  126.79   15.70
   3  -9   2  156.68   13.20
   3  -9   2  135.89   16.80
   6   3   2  158.18   12.30
   8  -6  -2   24.60    8.00
   8  -6  -2   33.30    9.40
   2  -8   2   37.10    6.70
   2  -8   2   34.10    8.50
   2  -8   2   31.00    7.40
  -8   6   2   38.10    7.60
   6   2   2   36.50    5.50
   6   2   2   17.30    5.40
   6   2   2   22.30    5.10
   7  -6  -2   99.49   11.30
  -1   7  -2  107.39   10.70
  -6  -1  -2   81.79    7.10
  -1   7  -2   97.79    9.90
   7  -6  -2  102.99   12.10
   6   1   2   97.09    9.50
  -7   6   2  123.29   11.80
   1  -7   2  111.49    5.80
   6   1   2  100.99    8.90
   1  -7   2  109.79   11.50
   6   1   2  109.69    9.30
   1  -7   2  102.69    9.60
   6  -6  -2   55.89    7.80
   6  -6  -2   64.99    8.30
  -6   0  -2   40.70    5.70
   0   6  -2   52.99    6.30
   0   6  -2   52.89    7.90
   6   0   2   49.90    6.60
   6   0   2   54.19    6.80
   0  -6   2   51.39    7.90
  -6   6   2   57.99    8.00
   0  -6   2   50.99    6.70
  -6   1  -2   87.89    7.90
   1   5  -2   96.99    8.50
   1   5  -2   93.39    9.70
   5  -6  -2  102.59    9.40
   5  -6  -2   75.39    9.50
   6  -1   2   81.49    8.40
  -1  -5   2  100.59    9.30
  -5   6   2  114.59    9.90
  -1  -5   2  105.09   10.60
  -6   2  -2  785.02   44.40
   2   4  -2  951.90   44.60
   4  -6  -2  862.51   44.80
   2   4  -2  871.51   45.80
   4  -6  -2  891.01   43.90
  -2  -4   2  880.11   45.80
   6  -2   2  830.72   45.10
  -4   6   2  963.30   45.60
  -2  -4   2  905.71   45.20
   3  -6  -2    5.00    3.50
   3   3  -2   -0.10    4.00
   3   3  -2   -3.30    4.40
   3  -6  -2    3.50    5.30
  -3  -3   2    6.50    4.50
  -3   6   2   11.60    5.10
   6  -3   2    3.10    4.40
  -3  -3   2    5.90    4.70
   2  -6  -2   51.39    6.20
   2  -6  -2   65.49    7.20
  -6   4  -2   52.69    7.80
   4   2  -2   77.29    9.20
   4   2  -2   65.99    8.20
  -4  -2   2   59.99    8.00
  -4  -2   2   65.69    8.70
   6  -4   2   67.99    8.60
  -2   6   2   80.69   10.40
   5   1  -2   24.20    6.80
   5   1  -2   24.40    6.10
   1  -6  -2   18.20    2.40
   1  -6  -2   18.60    3.80
   1  -6  -2   16.00    3.50
  -1   6   2   17.80    4.40
  -1   6   2   15.90    6.40
  -5  -1   2   15.40    5.40
   6  -5   2   23.00    5.90
  -5  -1   2   30.00    7.30
   6   0  -2   54.99    8.80
   0  -6  -2   45.20    5.20
   6   0  -2   56.39    8.80
   0  -6  -2   49.70    5.40
   0  -6  -2   55.29    4.00
   0  -6  -2   52.49    6.50
   0   6   2   46.30    6.00
   6  -6   2   52.79    8.40
  -6   0   2   52.19    8.10
  -6   0   2   70.69   10.00
  -1  -6  -2   76.69    6.40
   7  -1  -2   70.59    9.90
  -1  -6  -2   80.69    5.50
   7  -1  -2   80.19   10.20
  -1  -6  -2   65.09    5.70
  -7   1   2   63.79   10.00
   1   6   2   82.39    7.80
   6  -7   2   63.89    9.50
  -7   1   2   78.89   10.40
  -2  -6  -2 2657.13  126.69
  -2  -6  -2 2735.63  127.69
   8  -2  -2 2607.84  131.39
  -2  -6  -2 2659.93  126.29
   8  -2  -2 2680.03  131.19
   2   6   2 2742.33  126.19
  -8   2   2 2805.22  132.39
  -8   2   2 2695.43  131.59
   6  -8   2 2733.63  132.09
   2   6   2 2678.43  128.89
   9  -3  -2  346.77   24.80
   9  -3  -2  364.66   33.70
   3   6   2  392.66   20.80
   6  -9   2  374.66   23.10
   3   6   2  357.86   21.80
   3   6   2  368.66   18.80
   6  -9   2  370.86   25.10
  -9   3   2  345.07   26.20
  10  -4  -2   75.69   12.30
   6 -10   2   89.79   11.30
   4   6   2   93.89    9.40
   4   6   2   95.29   10.90
   6 -10   2   76.49   12.10
  11  -5  -2  131.59   17.40
   5   6   2  127.49   11.60
   5   6   2  135.19   11.30
   5   6   2  138.29   13.90
   6 -11   2  136.29   17.20
   6 -11   2  128.29   14.10
  12  -6  -2   -2.40   11.60
   6   6   2   -1.70    7.30
   6   6   2    3.70    6.00
   6 -12   2    4.60    7.60
   6   6   2    2.40    6.30
   6 -12   2    6.20    9.60
  13  -7  -2  290.37   29.50
   6 -13   2  273.87   21.70
   7   6   2  236.48   18.30
   6 -13   2  212.58   27.20
   7   6   2  273.87   19.70
   7   6   2  257.27   21.70
  12  -7  -2  134.39   20.00
   7   5   2  121.59   12.80
   5 -12   2  139.69   15.20
   5 -12   2  109.79   16.50
   7   5   2  118.19   14.40
   7   5   2  141.99   14.80
  11  -7  -2   16.60   10.00
   7   4   2    7.70    7.10
   4 -11   2    1.40    6.50
   4 -11   2   10.90    8.90
   7   4   2    4.10    5.70
   7   4   2    2.60    6.40
  10  -7  -2 1383.46   73.99
   7   3   2 1324.97   68.39
   7   3   2 1416.56   69.29
   7   3   2 1347.37   69.99
   3 -10   2 1529.95   73.79
   9  -7  -2  301.07   24.20
   9  -7  -2  314.97   23.60
   2  -9   2  329.07   22.50
   7   2   2  349.17   19.40
   2  -9   2  291.47   19.90
   7   2   2  296.07   19.60
   7   2   2  310.17   19.90
   2  -9   2  299.27   23.80
   2  -9   2  334.47   16.40
  -1   8  -2  137.19   11.70
  -1   8  -2  119.89   13.30
   8  -7  -2  147.39   14.10
  -7  -1  -2   99.69    9.30
   8  -7  -2  106.39   13.20
  -8   7   2  117.39   12.90
   1  -8   2  125.79   14.70
   7   1   2  108.69   10.40
   7   1   2  122.59   11.60
   7   1   2  137.29   11.30
   1  -8   2  128.39   11.30
   0   7  -2  220.08   14.60
   7  -7  -2  226.38   16.80
   7  -7  -2  199.08   16.40
  -7   0  -2  176.78   13.50
   0   7  -2  205.28   15.70
   0  -7   2  233.98   17.70
   7   0   2  218.88   14.40
   0  -7   2  206.38   14.90
   7   0   2  231.78   15.40
  -7   7   2  230.18   17.20
   1   6  -2   74.09    9.00
  -7   1  -2   63.39    8.60
   6  -7  -2   69.99    8.70
   6  -7  -2   57.39    8.60
   1   6  -2   77.99    8.90
  -6   7   2   91.49   11.20
   7  -1   2   92.49   10.70
   7  -1   2   67.39    8.40
  -1  -6   2   81.79    9.30
  -1  -6   2   67.49    9.80
   5  -7  -2   18.30    5.00
   2   5  -2   20.30    5.20
   2   5  -2   13.00    4.90
  -7   2  -2   16.10    6.00
   5  -7  -2   10.60    4.90
  -5   7   2   12.80    6.00
  -2  -5   2    9.40    5.40
   7  -2   2   13.00    5.00
  -2  -5   2   10.10    6.10
   4  -7  -2   23.20    5.20
   4  -7  -2   24.00    5.10
   3   4  -2   12.90    5.50
   3   4  -2   11.20    5.60
  -7   3  -2   27.90    6.20
   7  -3   2   14.80    6.30
  -3  -4   2   19.00    6.00
  -3  -4   2   10.00    5.60
  -4   7   2   20.80    6.80
   4   3  -2   66.19    8.90
   3  -7  -2   50.99    7.00
   4   3  -2   49.80    8.40
   3  -7  -2   53.19    6.60
  -7   4  -2   58.59    8.60
  -3   7   2   64.99    9.50
  -4  -3   2   61.79    8.50
   7  -4   2   36.50    7.60
  -4  -3   2   42.90    8.10
  -7   5  -2   11.20    6.20
   2  -7  -2    4.20    4.30
   2  -7  -2   13.30    5.00
   5   2  -2    1.90    4.60
   2  -7  -2    5.50    2.60
   2  -7  -2    9.10    4.70
   5   2  -2   10.80    6.70
  -5  -2   2    6.50    4.80
   7  -5   2    6.70    5.60
  -2   7   2    4.00    6.40
  -5  -2   2    7.40    6.60
   6   1  -2  130.89   13.50
   1  -7  -2  112.99    7.00
   1  -7  -2  112.29    9.30
  -7   6  -2  103.29   12.80
   6   1  -2  110.59   11.10
   1  -7  -2   94.39    8.40
   1  -7  -2  114.59    9.80
  -1   7   2  140.89   12.90
   7  -6   2   96.69   11.60
  -6  -1   2   94.99   11.70
  -6  -1   2  108.99   13.00
  -1   7   2  101.79    9.60
   0  -7  -2  212.58   13.50
   0  -7  -2  199.98   13.10
   7   0  -2  235.58   17.30
   7   0  -2  236.78   18.40
   0  -7  -2  224.88   11.80
   0  -7  -2  214.58   13.30
  -7   0   2  231.48   17.10
  -7   0   2  269.57   19.50
   7  -7   2  213.38   17.10
   0   7   2  203.88   14.30
   8  -1  -2  369.26   25.60
  -1  -7  -2  334.37   19.80
   8  -1  -2  384.86   24.70
  -1  -7  -2  401.86   20.30
  -1  -7  -2  405.76   19.30
  -1  -7  -2  378.16   20.20
   1   7   2  373.66   21.90
   7  -8   2  369.36   24.80
  -8   1   2  376.86   25.10
  -8   1   2  365.96   26.20
  -2  -7  -2   41.30    5.50
  -2  -7  -2   27.20    4.60
  -2  -7  -2   23.10    3.80
  -2  -7  -2   34.30    4.60
   2   7   2   25.80    3.50
   2   7   2   30.10    6.50
   7  -9   2   30.00    7.80
  -9   2   2    8.80    9.50
  10  -3  -2 1565.24   82.79
   3   7   2 1600.04   79.59
   7 -10   2 1596.14   80.09
   3   7   2 1593.94   76.09
   7 -10   2 1672.73   82.99
  11  -4  -2    5.80    8.30
   4   7   2    7.70    6.70
   7 -11   2    4.00    8.40
   4   7   2   -1.10    5.40
   4   7   2   -2.90    4.60
   7 -11   2    8.20    6.90
  12  -5  -2  694.83   44.60
   5   7   2  720.83   36.90
   5   7   2  664.33   35.60
   7 -12   2  708.93   42.90
   5   7   2  689.83   39.70
  13  -6  -2  835.12   52.69
   7 -13   2  845.92   45.50
   6   7   2  807.72   42.50
   6   7   2  838.12   43.00
   6   7   2  775.92   46.00
  14  -7  -2   31.80   17.90
   7 -14   2   44.20   11.70
   7   7   2   42.60   11.90
   7 -14   2   52.19   15.50
  15  -8  -2  273.37   35.30
   7 -15   2  273.57   29.50
   8   7   2  336.37   29.40
  14  -8  -2  633.94   46.30
   6 -14   2  615.14   37.20
   8   6   2  555.14   37.50
   6 -14   2  608.54   41.30
  13  -8  -2   26.00   14.50
   5 -13   2   -4.50    8.30
   5 -13   2    1.80   11.50
   8   5   2    3.20    8.50
   8   5   2    7.90    7.70
   8   5   2    5.00    9.70
  12  -8  -2   38.70   14.40
   8   4   2   11.90    7.10
   8   4   2   21.30    9.30
   8   4   2   43.90    9.90
   4 -12   2   31.20   11.60
   4 -12   2   31.70    9.10
  11  -8  -2  210.18   22.30
   8   3   2  196.08   15.50
   3 -11   2  185.78   19.80
   8   3   2  196.78   17.00
   8   3   2  194.58   18.00
   3 -11   2  207.38   16.70
  10  -8  -2  254.97   22.60
   2 -10   2  251.57   20.90
   2 -10   2  266.47   13.20
   8   2   2  242.98   18.50
   2 -10   2  272.77   18.50
   8   2   2  269.07   19.40
   8   2   2  248.28   17.60
  -8  -1  -2   99.89   10.70
   9  -8  -2  118.59   15.60
   9  -8  -2  136.89   16.20
  -1   9  -2  119.39   13.70
   1  -9   2  131.99   13.70
   8   1   2  133.79   12.80
   8   1   2  138.19   12.20
   1  -9   2  129.89   14.20
   1  -9   2  134.89   17.30
   8   1   2  112.89   13.50
   8  -8  -2   32.10    9.00
   0   8  -2   41.90    7.30
   0   8  -2   43.30    9.40
  -8   0  -2   43.70    7.40
   8  -8  -2   39.00    9.20
   0  -8   2   54.89    8.30
   8   0   2   38.10    7.10
   8   0   2   44.90    8.70
  -8   8   2   26.90    8.80
   0  -8   2   33.70   10.20
   1   7  -2  385.26   22.50
   1   7  -2  393.76   25.00
   7  -8  -2  377.66   24.30
   7  -8  -2  371.06   24.90
   8  -1   2  412.16   24.60
  -1  -7   2  394.16   24.10
   8  -1   2  367.16   23.00
  -7   8   2  423.96   26.20
  -1  -7   2  390.46   26.30
   2   6  -2 2666.83  136.99
   6  -8  -2 2798.62  136.59
   2   6  -2 2862.51  134.99
  -8   2  -2 2580.24  135.39
   6  -8  -2 2862.41  135.29
  -6   8   2 3248.38  139.09
   8  -2   2 2736.83  136.19
  -2  -6   2 2833.92  136.29
   8  -2   2 2953.50  136.69
  -2  -6   2 2726.73  137.29
   5  -8  -2   75.39    9.90
   3   5  -2   88.79   11.50
   3   5  -2   81.49    9.40
  -8   3  -2   81.69   10.60
  -5   8   2   98.19   12.70
  -3  -5   2   77.99   11.10
   8  -3   2   74.69   10.30
  -3  -5   2   61.39    9.30
   4  -8  -2   34.80    6.50
   4   4  -2   45.40    7.80
  -8   4  -2   46.40    8.80
   4   4  -2   41.40    7.90
   4  -8  -2   40.40    6.50
  -4  -4   2   46.40    9.20
  -4  -4   2   49.40    8.50
  -4   8   2   41.90    9.90
   8  -4   2   48.70    9.10
   3  -8  -2  337.67   20.20
   5   3  -2  346.17   22.10
   3  -8  -2  353.16   18.40
  -8   5  -2  298.47   22.80
   3  -8  -2  301.47   19.80
   5   3  -2  353.16   22.60
   8  -5   2  314.07   22.40
  -3   8   2  363.16   24.50
  -5  -3   2  363.86   23.50
  -5  -3   2  324.17   21.80
   2  -8  -2   26.00    3.90
   2  -8  -2   38.40    6.40
   6   2  -2   35.40    8.50
   6   2  -2   33.90    7.60
  -8   6  -2   40.50    9.40
   2  -8  -2   25.50    5.30
   2  -8  -2   30.90    6.60
  -6  -2   2   36.80    7.70
   8  -6   2   29.70    7.30
  -6  -2   2   42.20    8.90
  -2   8   2   26.40    9.20
  -8   7  -2  135.79   16.00
   1  -8  -2  125.59   10.70
   1  -8  -2  133.69    8.60
   1  -8  -2  102.89   10.30
   7   1  -2  163.48   15.70
   7   1  -2  125.39   13.50
  -7  -1   2  127.49   13.80
   8  -7   2  132.19   13.70
  -7  -1   2  132.59   15.20
   8   0  -2   39.90    9.50
   0  -8  -2   38.10    5.60
   8   0  -2   34.20   10.60
   0  -8  -2   48.30    5.20
   0  -8  -2   28.30    5.70
   0  -8  -2   29.00    5.50
  -8   0   2   34.70    9.40
  -8   0   2   33.50   10.50
   8  -8   2   37.80    8.90
   0   8   2   44.60    7.30
  -1  -8  -2  321.37   18.20
   9  -1  -2  304.37   23.00
  -1  -8  -2  364.86   18.70
  -1  -8  -2  304.67   18.20
  -1  -8  -2  374.36   17.40
  -9   1   2  336.37   24.50
  -9   1   2  290.77   26.30
   1   8   2  294.27   20.30
   8  -9   2  307.37   22.30
  10  -2  -2  558.74   34.10
  -2  -8  -2  561.14   27.90
  -2  -8  -2  591.24   28.00
  -2  -8  -2  504.45   27.70
   2   8   2  544.85   31.20
   8 -10   2  542.65   34.00
  11  -3  -2  264.07   24.00
   8 -11   2  316.97   20.90
   8 -11   2  283.67   23.30
   3   8   2  292.37   16.00
   3   8   2  278.07   20.70
  12  -4  -2   34.70   12.70
   4   8   2   33.50    9.50
   8 -12   2   25.00    8.60
   8 -12   2   24.60   10.20
   4   8   2   27.70    5.50
  13  -5  -2 2002.70  105.29
   5   8   2 1845.62   94.99
   8 -13   2 1971.00   98.79
   5   8   2 1998.10   99.99
   8 -13   2 2158.98  103.19
  14  -6  -2  188.18   27.00
   6   8   2  177.58   21.00
   8 -14   2  201.38   23.70
   8 -14   2  183.28   19.70
  15  -7  -2  392.96   40.70
   7   8   2  315.87   30.80
   8 -15   2  324.07   31.10
   8 -15   2  366.06   27.10
  16  -8  -2  207.68   34.00
   8 -16   2  209.28   24.10
   8   8   2  218.08   25.40
   8 -16   2  222.18   28.10
  17  -9  -2  216.48   39.10
   9   8   2  218.48   29.00
   8 -17   2  267.37   27.90
   8 -17   2  303.97   34.10
  16  -9  -2   87.99   26.90
   7 -16   2  125.39   18.00
   9   7   2  118.89   18.20
   7 -16   2  110.59   21.10
  15  -9  -2  139.79   27.00
   6 -15   2  132.69   21.50
   6 -15   2  216.28   22.70
  14  -9  -2   47.20   19.10
   5 -14   2   18.30   11.10
   5 -14   2   15.70   13.80
   9   5   2   15.90   11.50
  13  -9  -2    2.50   12.40
   4 -13   2   22.40   12.70
   9   4   2   -2.80    9.20
   4 -13   2   26.50   10.20
   9   4   2  -10.40   11.60
  12  -9  -2  236.38   25.80
   9   3   2  237.18   20.40
   9   3   2  256.67   23.40
   3 -12   2  271.47   14.30
   3 -12   2  253.27   23.80
   3 -12   2  243.68   14.00
   3 -12   2  292.87   21.20
  -9  -2  -2   41.50    6.00
  11  -9  -2   52.99   13.40
   2 -11   2   52.59    9.60
   9   2   2   56.49   10.10
   2 -11   2   37.90   11.00
   9   2   2   49.00   11.10
  -9  -1  -2   -3.30    6.00
  10  -9  -2   28.30   10.60
   9   1   2    6.10    8.60
   1 -10   2   -1.00    7.60
   9   1   2    7.30    6.30
   1 -10   2   -1.60    6.30
   9   1   2   -2.10    8.60
   0   9  -2   16.20    7.10
   9  -9  -2   48.00   17.90
   0   9  -2   15.60    8.80
  -9   0  -2   23.50   12.30
   9  -9  -2   13.10    8.70
   0  -9   2   26.90   13.60
   9   0   2   11.10    6.70
   0  -9   2   16.40    7.40
   0  -9   2   17.80    7.40
   9   0   2   12.30    8.60
   8  -9  -2  357.96   23.40
   1   8  -2  342.07   20.60
   8  -9  -2  326.47   23.40
  -9   1  -2  293.67   21.80
   1   8  -2  290.97   22.60
   9  -1   2  309.87   20.80
  -1  -8   2  325.67   21.80
   9  -1   2  323.87   23.30
   2   7  -2   33.90    8.70
  -9   2  -2   22.60    8.60
   2   7  -2   44.40    7.70
   7  -9  -2   48.90    9.40
   7  -9  -2   22.80    7.60
   9  -2   2   23.70    9.70
  -2  -7   2   38.10   10.20
  -7   9   2   42.20   12.60
  -2  -7   2   36.70    8.30
   9  -2   2   30.50    7.40
   3   6  -2  342.67   24.10
   3   6  -2  363.26   22.40
   6  -9  -2  357.76   22.90
  -9   3  -2  346.97   24.30
   9  -3   2  349.47   23.70
  -3  -6   2  355.56   23.50
   9  -3   2  367.36   26.00
  -3  -6   2  320.57   24.90
  -6   9   2  434.56   26.80
  -9   4  -2   85.99   12.30
   4   5  -2   88.09   10.70
   4   5  -2   73.79   11.30
   5  -9  -2   82.89   10.30
   5  -9  -2   83.49   10.90
   9  -4   2   82.19   11.70
  -5   9   2  134.39   16.60
  -4  -5   2   44.40    9.20
  -4  -5   2   87.19   12.60
   4  -9  -2   24.60    6.30
  -9   5  -2   11.20    8.80
   4  -9  -2   21.40    6.60
   5   4  -2   31.10    8.30
   5   4  -2   36.00    8.60
   9  -5   2   15.20    8.00
  -4   9   2   43.80   11.20
  -5  -4   2   16.10    8.80
  -5  -4   2   17.70    7.40
   6   3  -2  149.29   15.10
   3  -9  -2  172.38   14.00
   3  -9  -2  164.08   13.20
   6   3  -2  160.68   16.30
   3  -9  -2  162.28   11.20
  -9   6  -2  144.39   18.60
  -6  -3   2  173.78   15.70
  -6  -3   2  172.78   17.50
  -3   9   2  142.69   18.40
   9  -6   2  157.08   16.20
   7   2  -2  332.97   23.80
   2  -9  -2  303.87   17.20
   2  -9  -2  337.27   20.60
   7   2  -2  305.37   22.40
  -9   7  -2  335.67   24.90
   2  -9  -2  322.37   19.80
   2  -9  -2  290.87   19.20
   9  -7   2  323.27   23.00
  -7  -2   2  302.77   24.70
  -7  -2   2  340.27   22.90
   1  -9  -2  113.09   10.90
   1  -9  -2  134.19   12.60
   8   1  -2  132.49   14.90
   1  -9  -2  127.79   10.60
   1  -9  -2  119.69    9.10
  -8  -1   2  148.39   24.60
  -8  -1   2  133.39   15.30
   9  -8   2  115.99   14.50
   0  -9  -2   10.10    4.40
   9   0  -2   19.40    8.80
   0  -9  -2   18.40    4.20
   0  -9  -2   14.90    5.50
  -9   0   2   14.00   12.70
   9  -9   2   16.00    7.80
  -9   0   2   16.10    8.30
   0   9   2   15.50    6.40
  -1  -9  -2  193.78   13.50
  -1  -9  -2  222.38   14.50
  10  -1  -2  218.58   20.20
  -1  -9  -2  239.38   12.80
  -1  -9  -2  201.58   13.80
   1   9   2  206.38   16.50
   9 -10   2  210.28   19.30
  -2  -9  -2   -1.10    4.10
  11  -2  -2    2.60    9.00
  -2  -9  -2    4.20    4.40
  -2  -9  -2   -1.70    3.90
   2   9   2    4.80    7.10
   9 -11   2    0.50    8.20
  12  -3  -2   31.00   12.30
   9 -12   2   52.69   10.20
   3   9   2   58.29   11.00
   9 -12   2   46.00   11.60
  13  -4  -2   45.40   15.50
   9 -13   2   56.59   12.90
   4   9   2   52.49   12.20
   9 -13   2   75.99   15.30
  14  -5  -2    8.30   15.00
   9 -14   2   -0.60   10.80
   9 -14   2   -0.80   12.50
   5   9   2    1.80   10.80
  15  -6  -2   18.70   19.70
   9 -15   2   25.40   11.30
   9 -15   2   21.40   14.20
  16  -7  -2   -3.60   23.00
   7   9   2    0.20   14.20
   9 -16   2   11.20   11.70
   9 -16   2  -11.30   15.10
  17  -8  -2  247.08   38.00
   9 -17   2  229.78   31.20
   8   9   2  240.88   30.70
   9 -17   2  241.48   27.20
  17 -10  -2   -3.10   26.60
   7 -17   2    6.50   15.40
  10   7   2   -1.60   16.10
   7 -17   2    3.60   17.40
  16 -10  -2  150.98   30.10
   6 -16   2  145.29   23.10
   6 -16   2  172.68   20.60
  10   6   2  200.68   26.00
  15 -10  -2  236.28   31.70
   5 -15   2  199.98   25.40
  10   5   2  201.28   24.50
   5 -15   2  215.58   24.00
  14 -10  -2  842.32   57.89
   4 -14   2  907.51   54.99
  10   4   2  884.41   51.79
   4 -14   2  936.11   50.89
  13 -10  -2  103.49   19.90
   3 -13   2  105.69   14.50
  10   3   2  103.09   15.20
   3 -13   2  110.79   20.60
  12 -10  -2   29.10   14.50
  10   2   2   19.50    9.80
   2 -12   2   26.40    9.70
   2 -12   2   16.90   11.20
  11 -10  -2   20.40   11.50
 -10  -1  -2   25.50    7.50
   1 -11   2   24.10   10.70
   1 -11   2   24.00    9.10
  10   1   2   26.20    9.20
   0  10  -2  198.88   19.60
 -10   0  -2  158.38   20.10
   0  10  -2  165.18   17.70
  10 -10  -2  189.88   20.10
  10   0   2  165.28   17.30
   0 -10   2  207.48   18.40
   0 -10   2  209.98   18.30
   1   9  -2  190.68   17.20
 -10   1  -2  168.58   18.80
   1   9  -2  207.68   19.70
   9 -10  -2  232.28   19.90
  -1  -9   2  213.08   18.40
  10  -1   2  213.18   18.00
   2   8  -2  519.25   34.10
   2   8  -2  543.15   31.80
   8 -10  -2  635.04   34.50
   8 -10  -2  605.64   34.90
 -10   2  -2  517.25   33.80
  10  -2   2  555.24   33.70
  -2  -8   2  542.85   37.40
  -2  -8   2  611.44   34.00
 -10   3  -2 1744.23   83.69
   3   7  -2 1655.63   84.09
   3   7  -2 1601.84   80.99
   7 -10  -2 1742.63   82.99
  10  -3   2 1673.43   83.59
  -3  -7   2 1603.14   82.69
  -3  -7   2 1422.66   83.59
   4   6  -2   81.19   12.40
   6 -10  -2   99.99   12.10
   4   6  -2  109.79   11.90
 -10   4  -2  106.19   14.20
   6 -10  -2   94.29   11.60
  10  -4   2   82.79   12.70
  -4  -6   2   78.39   13.50
 -10   5  -2    8.30   10.30
   5 -10  -2    6.90    6.70
   5   5  -2    5.20    2.00
   5 -10  -2   13.00    6.50
   5   5  -2   11.70    8.00
   5   5  -2   -0.40    7.50
  10  -5   2    7.00    8.30
  -5  -5   2   17.60    9.70
  -5  10   2  -13.60   10.80
  -5  -5   2    1.10    6.90
   4 -10  -2   63.49    9.40
   4 -10  -2   64.69    7.10
   4 -10  -2   66.89    9.20
   6   4  -2   38.50   10.10
   6   4  -2   48.30   10.60
 -10   6  -2   55.49   12.70
  -4  10   2   45.40   13.60
  10  -6   2   50.89   11.70
  -6  -4   2   54.59   11.70
  -6  -4   2   70.89   11.30
   3 -10  -2 1368.86   69.69
   7   3  -2 1439.56   72.49
   3 -10  -2 1329.67   69.19
 -10   7  -2 1520.75   74.69
   3 -10  -2 1375.36   69.39
  10  -7   2 1400.96   73.09
  -7  -3   2 1337.77   72.49
  -7  -3   2 1351.36   71.49
   2 -10  -2  237.88   17.20
   2 -10  -2  251.17   15.30
   2 -10  -2  277.37   19.20
   2 -10  -2  244.38   17.30
   8   2  -2  254.27   20.80
 -10   8  -2  265.27   25.80
  -8  -2   2  232.18   23.30
  10  -8   2  285.77   22.00
  -8  -2   2  254.57   20.70
   1 -10  -2    7.30    7.20
   9   1  -2    0.50    8.10
   1 -10  -2    2.00    5.40
   1 -10  -2    3.70    4.50
   1 -10  -2    8.40    4.20
  -9  -1   2   21.00    8.80
  10  -9   2    8.70    8.40
   0 -10  -2  188.78   15.20
   0 -10  -2  184.58   12.80
  10   0  -2  179.88   19.00
   0 -10  -2  181.08   11.40
   0 -10  -2  173.18   13.70
  10 -10   2  183.78   18.50
 -10   0   2  184.98   20.50
   0  10   2  182.38   16.90
  -1 -10  -2  146.19   12.10
  -1 -10  -2  173.98   10.40
  -1 -10  -2  146.09   12.60
  11  -1  -2  146.19   18.90
   1  10   2  129.59   15.90
  10 -11   2  124.09   17.20
  -2 -10  -2   44.00    5.50
   2  10   2   42.10   10.50
  10 -12   2   40.10   11.90
  13  -3  -2    0.20   14.00
  10 -13   2   18.20   11.70
   3  10   2   29.90   10.60
  14  -4  -2    3.70   16.30
  10 -14   2   21.40   12.50
   4  10   2   37.90   12.80
  10 -14   2    8.50    9.30
  15  -5  -2   20.10   20.30
  10 -15   2   28.40   14.80
  10 -15   2   35.40   11.00
   5  10   2   23.60   13.30
  16  -6  -2  169.98   30.00
  10 -16   2  197.28   27.10
  10 -16   2  233.28   23.40
   6  10   2  210.48   24.30
  17  -7  -2  -49.90   24.80
   7  10   2  -12.20   16.80
  10 -17   2    8.80   13.70
  10 -17   2    9.90   17.60
  17 -11  -2   -6.90   25.20
   6 -17   2  -13.10   15.60
  11   6   2   33.50   17.40
   6 -17   2   28.00   20.00
  16 -11  -2  135.49   28.20
  11   5   2  111.29   20.30
   5 -16   2  120.39   22.80
   5 -16   2  135.89   19.80
  15 -11  -2  566.34   46.70
  11   4   2  498.55   38.30
   4 -15   2  575.24   37.80
   4 -15   2  552.34   41.60
  14 -11  -2   25.00   16.30
   3 -14   2   24.80   15.80
   3 -14   2   34.80   12.50
  11   3   2   38.60   14.00
  13 -11  -2  471.45   36.80
  11   2   2  444.16   31.60
   2 -13   2  412.06   30.50
  12 -11  -2  311.17   28.40
   1 -12   2  297.97   24.80
  11   1   2  261.57   24.30
   1 -12   2  317.77   26.80
   0  11  -2  963.40   54.99
 -11   0  -2  838.82   50.99
  11 -11  -2 1094.89   56.19
   0 -11   2  951.60   53.99
  11   0   2  895.81   52.29
   0 -11   2  979.90   52.69
   1  10  -2  163.08   19.50
  10 -11  -2  170.88   19.70
 -11   1  -2  145.49   19.10
  -1 -10   2  149.69   17.30
  11  -1   2  132.29   17.40
  -1 -10   2  166.28   18.60
   2   9  -2    7.30    8.70
   9 -11  -2    0.40    8.70
 -11   2  -2    5.80   11.00
   2   9  -2   13.90    8.90
  -2  -9   2    3.00    9.00
  11  -2   2   -3.10    7.60
   8 -11  -2  335.07   23.90
   8 -11  -2  346.17   24.40
 -11   3  -2  313.47   26.50
   3   8  -2  261.57   22.10
   3   8  -2  291.77   24.40
  -3  -8   2  300.17   23.80
  11  -3   2  314.37   24.50
   7 -11  -2    3.40    8.60
   4   7  -2    5.70    8.30
 -11   4  -2    6.70   11.50
   7 -11  -2   -3.00    7.10
   4   7  -2   -2.60    8.60
  -4  -7   2    3.40    8.10
  11  -4   2   12.90    9.20
 -11   5  -2  143.89   18.40
   6 -11  -2  103.89   14.00
   5   6  -2  114.59   13.90
   6 -11  -2  142.29   14.50
   5   6  -2  131.19   16.80
  -5  -6   2  128.29   17.60
  11  -5   2  148.89   19.40
  -5  -6   2  139.29   15.50
   5 -11  -2   47.10    9.50
 -11   6  -2   60.19   14.50
   5 -11  -2   51.69    9.70
   6   5  -2   33.90   10.00
   5 -11  -2   58.49    7.40
   6   5  -2   57.69    5.30
  -6  -5   2   37.90    9.50
  11  -6   2   41.50   12.20
  -6  -5   2   53.59   13.70
   4 -11  -2   14.40    7.20
   4 -11  -2    9.00    5.10
   4 -11  -2   15.60    8.40
 -11   7  -2   -6.30   13.60
   7   4  -2    5.00    8.50
  -7  -4   2    6.40    7.90
  11  -7   2   13.80    9.40
   3 -11  -2  198.58   13.20
   3 -11  -2  174.98   17.30
   3 -11  -2  182.18   15.80
   8   3  -2  195.48   19.30
   3 -11  -2  196.88   16.10
  -8  -3   2  198.18   19.00
  11  -8   2  198.68   20.30
   2 -11  -2   60.59    7.50
   9   2  -2   52.29   11.30
   2 -11  -2   55.59   10.60
   2 -11  -2   61.49    9.10
   2 -11  -2   52.79    8.10
  -9  -2   2   56.49   11.90
  11  -9   2   49.20   11.70
  10   1  -2   32.90   11.90
   1 -11  -2   11.40    8.60
   1 -11  -2   33.40    6.40
   1 -11  -2   15.80    6.80
   1 -11  -2   23.10    5.30
 -10  -1   2    2.50   10.40
  11 -10   2   26.00   10.70
   0 -11  -2  968.10   48.60
   0 -11  -2  896.01   47.60
   0 -11  -2 1008.30   45.80
  11   0  -2  942.41   54.19
   0 -11  -2  911.81   46.90
   0  11   2  911.31   51.79
  -1 -11  -2 2031.70   91.49
  12  -1  -2 1857.41  100.99
   1  11   2 1826.62   97.59
  11 -12   2 2032.60  100.19
  13  -2  -2  174.78   22.40
  11 -13   2  186.18   21.90
   2  11   2  166.98   20.90
  14  -3  -2   46.20   17.40
   3  11   2   17.70   13.20
  11 -14   2   22.30   10.30
  11 -14   2   11.80   12.50
  15  -4  -2   50.19   21.40
  11 -15   2    3.20   10.90
   4  11   2   18.50   14.20
  11 -15   2   42.70   15.60
  16  -5  -2   24.90   23.80
  11 -16   2   19.20   16.20
   5  11   2   23.30   16.50
  11 -16   2   22.20   12.90
  17  -6  -2   16.30   28.30
   6  11   2   68.09   20.10
  11 -17   2   63.59   20.30
  11 -17   2   70.79   15.70
  17 -12  -2  269.37   38.40
  12   5   2  373.26   37.60
   5 -17   2  348.67   37.30
  16 -12  -2  184.78   31.60
  12   4   2  224.48   26.10
   4 -16   2  188.68   26.40
   4 -16   2  227.88   23.90
  15 -12  -2   37.50   19.80
   3 -15   2   19.10   15.00
  12   3   2   41.40   15.60
   3 -15   2    2.90   17.40
  14 -12  -2  238.28   29.80
   2 -14   2  265.87   25.90
   2 -14   2  170.08   24.20
  12   2   2  212.78   25.50
  13 -12  -2  172.48   23.80
  12   1   2  143.89   20.00
   1 -13   2  160.28   19.00
   1 -13   2  137.89   20.40
  12 -12  -2  223.68   25.60
  12   0   2  210.78   22.40
   0 -12   2  204.98   23.30
   0 -12   2  192.58   20.70
  11 -12  -2 2185.28  104.39
   1  11  -2 1779.02   98.69
  12  -1   2 1703.13   96.99
  -1 -11   2 2015.10   98.39
  -1 -11   2 1892.81   97.19
 -12   2  -2   67.79   14.50
  10 -12  -2   44.20   12.80
   2  10  -2   28.50   12.50
  12  -2   2   43.60   11.90
  -2 -10   2   48.80   13.00
  -2 -10   2   48.00   11.80
   3   9  -2   50.09   13.10
   9 -12  -2   72.59   12.70
 -12   3  -2   38.90   15.20
  12  -3   2   61.29   13.10
  -3  -9   2   67.59   13.20
   8 -12  -2   26.20   11.50
   8 -12  -2   35.40   10.60
   4   8  -2   40.40   12.20
 -12   4  -2   49.00   15.30
  -4  -8   2   23.10   10.50
  12  -4   2   17.00   11.30
   5   7  -2  665.23   42.80
   7 -12  -2  798.82   42.10
 -12   5  -2  749.03   47.00
  12  -5   2  685.83   45.00
  -5  -7   2  657.63   41.60
 -12   6  -2   -1.00   16.00
   6   6  -2   -2.00    8.30
   6 -12  -2    2.30    7.90
   6 -12  -2    7.90    9.50
   6 -12  -2    9.60    5.50
  -6  -6   2    3.10    9.00
  12  -6   2   25.80   13.00
   5 -12  -2  127.89   16.90
   5 -12  -2  139.69   16.10
   7   5  -2  112.09   15.80
   5 -12  -2  141.29   12.20
  12  -7   2  112.59   17.70
  -7  -5   2  137.09   16.30
   4 -12  -2   43.90   10.80
   4 -12  -2   22.50    7.70
   4 -12  -2   41.00    6.80
   8   4  -2   27.60   10.90
   4 -12  -2   15.70    8.60
  -8  -4   2   24.40   10.10
  12  -8   2   11.80   12.10
   3 -12  -2  252.67   18.50
   9   3  -2  262.27   23.20
   3 -12  -2  230.18   22.00
   3 -12  -2  241.08   16.50
   3 -12  -2  268.97   19.70
  12  -9   2  248.38   24.40
  -9  -3   2  262.87   24.90
   2 -12  -2   14.50    6.60
   2 -12  -2   22.20   10.50
  10   2  -2   33.50   12.20
   2 -12  -2   33.90    8.50
   2 -12  -2   28.40    7.20
 -10  -2   2   47.90   13.00
  11   1  -2  325.97   26.60
   1 -12  -2  272.47   18.30
   1 -12  -2  305.47   20.20
   1 -12  -2  269.87   16.90
  12 -11   2  315.17   26.20
   0 -12  -2  220.38   15.80
  12   0  -2  201.78   24.20
   0 -12  -2  181.98   15.10
  12 -12   2  181.88   22.40
  13  -1  -2   37.70   15.80
  12 -13   2    0.70   10.40
   1  12   2   20.20   12.50
  14  -2  -2  209.38   26.50
  12 -14   2  228.18   25.20
   2  12   2  168.58   21.40
  15  -3  -2   28.00   20.20
  12 -15   2   55.39   15.50
  12 -15   2   14.80   12.30
   3  12   2  -25.60   13.10
  16  -4  -2   73.69   27.30
  12 -16   2   78.69   18.90
   4  12   2   80.99   19.80
  12 -16   2   94.39   16.70
  17  -5  -2   40.60   27.80
  12 -17   2   20.50   15.00
   5  12   2    0.50   19.10
  12 -17   2   36.20   19.00
  16 -13  -2   66.89   23.10
   3 -16   2   68.09   24.30
  13   3   2   38.20   19.20
   3 -16   2   35.80   20.70
  15 -13  -2   -2.70   18.10
   2 -15   2   23.00   18.60
  13   2   2  -19.80   15.40
   2 -15   2  -11.30   15.40
  14 -13  -2    4.60   17.00
   1 -14   2   19.30   16.80
   1 -14   2   -4.40   14.70
  13   1   2    7.20   16.20
  13 -13  -2  382.56   32.40
   0 -13   2  254.57   29.30
  13   0   2  287.97   29.50
   0 -13   2  285.97   30.90
  12 -13  -2   12.10   13.00
   1  12  -2   28.10   14.80
  -1 -12   2   10.00   13.60
  -1 -12   2   16.60   13.00
  13  -1   2   15.90   14.40
   2  11  -2  156.98   21.70
  11 -13  -2  245.08   24.10
  -2 -11   2  181.68   20.90
  13  -2   2  159.68   20.70
  -2 -11   2  170.78   21.70
   3  10  -2   18.10   13.00
  10 -13  -2   20.10   12.20
  -3 -10   2   23.70   11.00
  -3 -10   2   -5.70   12.10
  13  -3   2   14.90   12.50
   4   9  -2   46.60   13.40
 -13   4  -2   61.39   18.60
   9 -13  -2   53.19   13.10
  13  -4   2   71.89   15.50
  -4  -9   2   73.99   14.50
   8 -13  -2 2505.55  113.09
 -13   5  -2 2165.58  115.89
  13  -5   2 2041.40  115.49
  -5  -8   2 2224.58  112.29
   7 -13  -2  941.81   49.10
   6   7  -2  764.92   53.09
   7 -13  -2  852.51   44.70
  -6  -7   2  856.81   49.30
  13  -6   2  851.71   54.09
   6 -13  -2  288.97   22.30
   7   6  -2  237.88   25.90
   6 -13  -2  250.87   17.80
  13  -7   2  237.38   28.70
  -7  -6   2  237.28   23.30
   8   5  -2    0.40    4.70
   5 -13  -2    2.50    5.90
   5 -13  -2   -2.10   11.30
   5 -13  -2   -8.50    7.50
   5 -13  -2    6.50    8.80
  -8  -5   2    2.80   10.10
   4 -13  -2   13.70   11.70
   4 -13  -2   13.10    9.40
   4 -13  -2    4.70    6.30
   9   4  -2   -1.20   10.30
   4 -13  -2   12.60    7.90
  13  -9   2    9.50   12.20
  -9  -4   2   10.30   10.60
   3 -13  -2  107.59   11.40
   3 -13  -2  119.89   16.20
  10   3  -2  112.89   16.90
   3 -13  -2  103.19   12.30
  13 -10   2  123.29   18.90
 -10  -3   2  106.29   17.10
  11   2  -2  459.25   33.70
   2 -13  -2  380.66   25.10
   2 -13  -2  471.05   27.80
  13 -11   2  467.75   34.30
   1 -13  -2  155.48   15.70
  12   1  -2  148.19   21.60
  13 -12   2  172.78   23.00
  13   0  -2  258.67   29.50
  13 -13   2  288.27   28.00
  14  -1  -2   85.99   21.20
  13 -14   2   74.79   16.90
  15  -2  -2   41.70   20.90
   2  13   2   84.49   19.00
  13 -15   2   84.99   18.50
  13 -15   2   78.39   16.40
  16  -3  -2  -29.00   21.00
  13 -16   2    5.50   15.70
  13 -16   2   28.90   14.90
   3  13   2    6.00   18.00
  16 -14  -2  376.46   42.20
  14   2   2  369.16   39.00
   2 -16   2  349.87   40.90
  15 -14  -2  368.96   37.60
  14   1   2  289.07   34.50
   1 -15   2  332.77   39.30
   1 -15   2  325.67   37.90
  14 -14  -2   67.09   20.40
   0 -14   2   66.29   17.80
  14   0   2   22.10   18.30
   0 -14   2   54.99   20.00
  13 -14  -2  101.59   20.20
   1  13  -2   19.80   18.20
  -1 -13   2   76.89   18.60
  14  -1   2   59.09   18.20
  -1 -13   2   70.59   19.00
   2  12  -2  197.18   25.40
  12 -14  -2  254.67   28.90
  14  -2   2  198.68   24.60
  -2 -12   2  231.58   24.40
  -2 -12   2  236.98   27.60
  11 -14  -2   32.80   14.30
   3  11  -2   26.40   14.90
  -3 -11   2    9.50   14.40
  14  -3   2   30.30   15.20
  -3 -11   2   42.50   14.60
   4  10  -2    0.00   13.70
  10 -14  -2   13.50   13.30
  -4 -10   2   12.80   13.10
  14  -4   2   40.80   15.40
   9 -14  -2   17.70   12.90
   5   9  -2    6.00   13.80
  -5  -9   2   17.20   12.40
  14  -5   2   11.20   14.70
   8 -14  -2  246.88   22.90
   6   8  -2  190.98   24.60
   8 -14  -2  199.98   18.10
  14  -6   2  222.88   29.70
  -6  -8   2  253.67   25.20
   7   7  -2   48.50   15.30
   7 -14  -2   54.89    9.50
   7 -14  -2   79.29   14.00
  14  -7   2   46.40   18.40
  -7  -7   2   54.39   14.30
   6 -14  -2  644.44   38.80
   6 -14  -2  601.24   33.80
   8   6  -2  575.24   40.10
  -8  -6   2  633.24   40.00
  14  -8   2  608.54   46.70
   5 -14  -2   20.60   11.10
   5 -14  -2   16.90    9.20
   9   5  -2   37.40   13.90
   5 -14  -2   21.80    7.40
  14  -9   2   44.20   17.60
  -9  -5   2   15.50   11.80
   4 -14  -2  953.40   48.40
   4 -14  -2  815.52   44.20
   4 -14  -2  820.92   45.80
  10   4  -2  819.62   51.79
  14 -10   2  917.11   55.49
  11   3  -2   37.00   14.70
   3 -14  -2   44.70   11.00
   3 -14  -2   30.40    8.70
  14 -11   2   29.20   14.80
  12   2  -2  220.08   27.40
  14 -12   2  245.18   27.20
  13   1  -2   24.20   16.80
  14 -13   2   21.20   14.80
  14   0  -2   77.59   21.80
  14 -14   2   52.59   16.70
  15  -1  -2   67.99   23.80
  14 -15   2  104.19   19.70
  16  -2  -2  128.89   29.00
  14 -16   2  142.09   22.90
  14 -16   2  114.89   20.60
  15 -15  -2  137.89   25.90
   0 -15   2  119.99   26.90
  15   0   2  173.08   27.80
  14 -15  -2   81.89   22.00
  -1 -14   2   92.69   23.60
  15  -1   2   78.69   22.00
  13 -15  -2   72.99   21.00
   2  13  -2   85.59   21.20
  -2 -13   2   72.59   21.20
  15  -2   2   72.59   20.10
  -2 -13   2   96.49   19.70
  12 -15  -2   21.10   15.70
   3  12  -2   12.70   16.60
  15  -3   2   33.90   17.50
  -3 -12   2   17.30   16.70
  -3 -12   2   27.60   16.80
   4  11  -2   40.50   17.10
  11 -15  -2   24.20   16.10
  -4 -11   2   34.00   15.60
  -4 -11   2   36.10   16.70
  15  -4   2   34.50   18.60
  10 -15  -2   36.40   15.40
   5  10  -2   -5.20   15.30
  15  -5   2   16.50   17.80
  -5 -10   2   26.50   15.00
   9 -15  -2   35.00   14.90
   9 -15  -2   28.90   10.10
   6   9  -2   38.60   16.30
  15  -6   2   18.50   19.70
  -6  -9   2   64.99   16.20
   8 -15  -2  447.26   32.90
   7   8  -2  379.66   33.00
   8 -15  -2  376.06   26.40
  15  -7   2  401.86   41.50
  -7  -8   2  424.66   32.90
   8   7  -2  286.87   28.60
   7 -15  -2  334.57   27.90
   7 -15  -2  267.37   21.10
  -8  -7   2  243.58   27.50
  15  -8   2  273.57   36.30
   6 -15  -2  177.58   16.70
   6 -15  -2  200.08   23.50
   6 -15  -2  208.48   21.00
   9   6  -2  170.48   22.50
  15  -9   2  190.18   27.10
  -9  -6   2  208.28   25.10
  10   5  -2  180.18   23.10
   5 -15  -2  256.57   24.10
   5 -15  -2  224.28   20.40
  15 -10   2  199.18   28.10
 -10  -5   2  218.38   23.90
  11   4  -2  500.85   41.40
   4 -15  -2  634.34   37.60
  15 -11   2  650.13   46.60
  12   3  -2   27.80   17.20
  15 -12   2   23.40   17.90
  13   2  -2   22.70   17.70
  15 -13   2   30.80   16.80
  14   1  -2  260.57   31.10
  15 -14   2  356.96   33.90
  15   0  -2   96.69   25.50
  15 -15   2   91.39   21.40
   2  14  -2  128.99   27.50
  14 -16  -2  142.09   25.90
  -2 -14   2  158.18   28.00
  16  -2   2  104.49   25.50
  13 -16  -2   19.50   20.10
   3  13  -2   24.80   21.60
  -3 -13   2  -18.40   21.40
  16  -3   2  -13.90   20.00
   4  12  -2   94.19   23.30
  12 -16  -2  117.99   21.90
  16  -4   2   66.69   23.70
  -4 -12   2  112.99   24.50
  -4 -12   2   82.79   22.50
  11 -16  -2   24.00   14.00
  11 -16  -2    7.40   16.50
   5  11  -2   16.40   17.80
  -5 -11   2   17.40   18.10
  16  -5   2   32.70   20.80
  -5 -11   2   43.80   20.50
   6  10  -2  192.48   26.50
  10 -16  -2  283.17   30.70
  10 -16  -2  226.38   23.60
  16  -6   2  164.08   29.10
  -6 -10   2  269.67   27.60
   9 -16  -2   10.40   10.90
   7   9  -2   35.90   17.50
   9 -16  -2   12.70   15.60
  16  -7   2   10.80   22.70
  -7  -9   2   -7.60   18.50
   8   8  -2  222.98   29.30
   8 -16  -2  285.87   29.20
  -8  -8   2  209.28   24.20
  16  -8   2  229.08   33.60
   7 -16  -2   85.19   14.90
   9   7  -2   97.49   19.60
   7 -16  -2  129.29   19.40
  16  -9   2   81.29   27.10
  -9  -7   2   89.99   18.90
   6 -16  -2  170.98   20.30
  10   6  -2  132.19   22.00
 -10  -6   2  118.59   20.80
  16 -10   2  137.49   28.30
  11   5  -2   93.19   20.70
  16 -11   2  159.98   27.70
  12   4  -2  204.28   26.60
  16 -12   2  202.68   29.50
  13   3  -2   39.10   20.30
  16 -13   2   25.60   21.40
  14   2  -2  414.36   41.40
  16 -14   2  353.76   40.40
  12 -17  -2   20.40   20.20
   5  12  -2   37.00   22.20
  12 -17  -2   20.70   16.60
  17  -5   2    0.80   24.50
   6  11  -2   32.90   22.70
  11 -17  -2   80.29   22.20
  11 -17  -2   54.39   22.90
  17  -6   2   43.30   26.40
  10 -17  -2    0.80   18.40
   7  10  -2   15.00   19.50
  -7 -10   2  -20.10   17.70
  17  -7   2   18.80   27.80
   9 -17  -2  261.17   34.00
   8   9  -2  202.68   27.80
  17  -8   2  264.37   39.30
  -8  -9   2  250.37   30.50
   9   8  -2  201.48   28.50
   8 -17  -2  282.47   34.00
  17  -9   2  297.27   41.00
  -9  -8   2  287.27   28.00
  10   7  -2   20.90   18.80
  17 -10   2   56.39   28.90
 -10  -7   2   23.00   18.50
  11   6  -2   23.00   19.00
  17 -11   2    9.50   25.70
  12   5  -2  296.67   35.90
  17 -12   2  363.86   44.60
   0   0  -3    0.60    1.90
   0   0  -3   -0.70    1.70
   0   0   3    1.20    1.40
   0   0   3    3.50    1.70
   0   0   3    2.40    2.40
   0   1  -3   94.89    7.10
   1  -1  -3  106.59    7.70
   1  -1  -3  100.19    6.20
  -1   0  -3  105.39    7.00
  -1   0  -3  113.39    6.90
   0   1  -3  104.49    6.80
   1  -1  -3  107.69    7.20
   0   1  -3  114.49    7.50
  -1   1   3  101.29    6.60
   1   0   3  110.59    7.10
   0  -1   3  100.29    7.00
   0  -1   3  110.69    6.90
   1   0   3   99.69    6.50
   0  -1   3   95.89    7.10
  -1   1   3  105.39    7.10
   1   0  -3  104.39    7.60
   0  -1  -3  105.09    7.40
   0  -1  -3  107.59    6.60
  -1   1  -3  104.89    6.80
   1   0  -3   97.49    7.30
   1   0  -3   99.99    6.90
  -1   1  -3  110.99    7.20
   1  -1   3   95.79    6.80
   1  -1   3   91.49    6.60
   0   1   3  108.59    5.60
   0   1   3  100.79    6.40
  -1   0   3  106.49    7.20
   0   1   3  116.39    7.60
  -1   0   3  103.19    7.50
   2  -1  -3  635.24   33.60
  -1   2  -3  661.53   32.80
  -1   2  -3  652.23   33.40
  -1  -1  -3  687.83   33.30
   2  -1  -3  674.73   34.20
  -2   1   3  635.04   33.90
   1   1   3  740.63   33.50
   1   1   3  652.83   32.30
   1  -2   3  659.43   33.40
  -2   1   3  709.63   34.00
   1  -2   3  708.33   32.90
   1  -2   3  648.94   33.50
  -1   3  -3 2139.09   94.69
  -2  -1  -3 1908.21   94.09
   3  -2  -3 1878.91   95.39
   3  -2  -3 1847.02   95.09
  -1   3  -3 2048.00   93.39
   1  -3   3 2132.79   93.49
   1  -3   3 2044.30   94.99
   2   1   3 2162.48   94.19
  -3   2   3 1829.42   96.29
   1  -3   3 1969.40   94.39
  -3   2   3 1860.01   94.69
   2   1   3 1930.91   93.19
   0   2  -3    2.60    1.50
   0   2  -3    5.60    2.80
   2  -2  -3    6.70    2.50
   2  -2  -3    6.60    3.20
  -2   0  -3    0.70    2.00
   0   2  -3    8.80    2.90
   0  -2   3    7.10    2.70
  -2   2   3   11.00    2.80
   2   0   3    6.50    2.60
   0  -2   3    2.80    1.80
   2   0   3    6.00    2.00
   0  -2   3    5.90    2.80
   1   1  -3  693.23   33.80
   1   1  -3  654.23   33.00
  -2   1  -3  689.03   33.10
   1   1  -3  663.03   33.60
   1  -2  -3  632.04   33.80
   1  -2  -3  659.73   32.70
  -1   2   3  654.73   32.80
  -1  -1   3  717.23   33.80
   2  -1   3  718.83   33.10
   2  -1   3  672.33   33.00
  -1   2   3  654.23   32.50
  -1  -1   3  613.64   33.60
   2   0  -3    1.70    2.80
  -2   2  -3    6.50    2.10
   2   0  -3    1.70    2.70
   0  -2  -3    7.20    2.40
   0  -2  -3    3.00    1.60
   2   0  -3    9.30    3.70
   2  -2   3    4.20    2.40
  -2   0   3    0.40    2.90
   0   2   3    2.40    2.50
   2  -2   3    4.00    2.00
   0   2   3    3.80    1.60
  -2   0   3    8.20    4.00
   3  -1  -3 4130.39  209.68
  -3   1   3 4255.67  209.38
   2  -3   3 4584.64  208.18
   1   2   3 4367.56  206.88
   2  -3   3 4616.24  208.88
  -3   1   3 4525.35  209.78
   1   2   3 4633.34  208.48
   4  -2  -3  347.47   21.90
  -2  -2  -3  390.86   19.70
   4  -2  -3  377.06   22.50
  -4   2   3  359.46   21.10
  -4   2   3  402.06   21.50
   2  -4   3  351.66   21.00
   2   2   3  393.46   19.80
   2  -4   3  363.46   20.30
   2   2   3  347.57   18.20
  -3  -2  -3   54.79    5.80
   5  -3  -3   64.09    8.20
  -2   5  -3   49.60    6.40
   5  -3  -3   47.00    8.20
   2  -5   3   49.70    6.30
   3   2   3   56.79    3.70
   2  -5   3   61.89    5.30
   2  -5   3   68.19    8.20
   3   2   3   74.19    6.50
  -5   3   3   64.59    7.30
  -5   3   3   73.39    8.40
  -1   4  -3   12.00    3.80
   4  -3  -3    4.60    4.40
   4  -3  -3    7.80    5.00
   1  -4   3    5.10    3.80
  -4   3   3    4.30    3.30
   3   1   3    4.10    2.30
   1  -4   3   11.80    3.30
   1  -4   3    6.70    2.10
  -4   3   3    0.30    3.40
   0   3  -3 2152.78  104.99
   3  -3  -3 2091.59  104.89
  -3   0  -3 2085.59  103.69
   0   3  -3 2215.68  102.79
   0   3  -3 2314.07  104.39
   3  -3  -3 2019.70  104.49
   0  -3   3 2236.58  104.79
   3   0   3 2350.66  103.99
   0  -3   3 2226.28  104.29
  -3   3   3 2139.99  103.79
   0  -3   3 2229.78  102.89
   1   2  -3 4384.36  204.28
   2  -3  -3 3825.62  202.58
   2  -3  -3 4040.70  203.08
   1   2  -3 4229.78  202.48
   1   2  -3 4594.54  203.98
  -1  -2   3 4589.84  204.18
  -1  -2   3 4561.54  203.98
  -2   3   3 4329.47  202.88
  -2   3   3 4142.39  202.58
   3  -1   3 4654.23  203.38
   1  -3  -3 2036.00   92.69
   2   1  -3 1929.01   93.79
   2   1  -3 1922.11   94.79
   1  -3  -3 1861.51   94.69
   2   1  -3 2054.69   94.79
  -1   3   3 1984.20   92.69
   3  -2   3 2096.79   93.79
  -2  -1   3 1993.20   94.79
  -2  -1   3 1921.51   94.59
  -1   3   3 1902.71   92.59
   3   0  -3 2064.69  104.19
   0  -3  -3 2114.69  103.09
   3   0  -3 2116.19  104.09
   0  -3  -3 2178.68  100.79
   3  -3   3 2260.27  103.49
   0   3   3 2071.99  100.79
   0   3   3 2077.19  100.79
   3  -3   3 2301.17  102.49
  -3   0   3 2258.77  104.19
   0   3   3 1983.40  100.69
  -3   0   3 2152.08  103.89
   0   3   3 2352.86  103.19
   4  -1  -3 3182.38  154.98
   4  -1  -3 3026.30  154.78
  -1  -3  -3 3282.77  152.78
   3  -4   3 3470.75  152.78
   1   3   3 3337.57  152.88
  -4   1   3 3270.87  154.68
  -4   1   3 3110.69  154.28
   5  -2  -3 1791.62   88.59
  -2  -3  -3 1769.42   85.89
   5  -2  -3 1880.11   88.79
  -5   2   3 1799.52   88.09
   3  -5   3 1831.52   88.09
   2   3   3 1725.93   83.99
   2   3   3 1855.01   85.99
   3  -5   3 1874.21   87.39
   2   3   3 1740.73   84.09
   3  -5   3 1854.71   85.89
   2   3   3 1773.22   84.09
   2   3   3 1714.13   84.69
   6  -3  -3   36.50    7.90
   6  -3  -3   14.90    5.80
  -3  -3  -3   -0.20    2.60
   3  -6   3    8.00    5.20
  -6   3   3    3.20    3.80
   3  -6   3    6.00    3.90
   3   3   3    1.30    1.90
  -6   3   3   -1.40    4.90
   3   3   3   -0.40    2.80
   3  -6   3    3.30    5.00
   3   3   3    5.40    2.20
   7  -4  -3  327.07   21.00
   7  -4  -3  254.67   19.40
   3  -7   3  282.37   19.30
   3  -7   3  287.47   16.00
  -7   4   3  274.57   18.30
   4   3   3  293.47   15.50
   4   3   3  266.67   15.20
   4   3   3  280.67   16.60
  -7   4   3  272.07   18.70
   3  -7   3  279.97   18.30
   6  -4  -3   10.20    6.50
   6  -4  -3   10.50    5.40
   4   2   3    7.30    2.30
   2  -6   3   12.10    2.80
   4   2   3   11.70    3.70
   4   2   3    7.20    3.00
  -6   4   3   -0.20    4.50
   2  -6   3    4.00    4.00
  -6   4   3    4.70    3.90
   2  -6   3    4.00    5.30
   5  -4  -3    8.70    4.70
   5  -4  -3    0.90    5.40
  -1   5  -3    9.10    4.50
  -1   5  -3    6.30    4.00
   4   1   3    7.70    2.40
   4   1   3    3.70    3.20
  -5   4   3    6.60    3.60
   1  -5   3   10.20    4.90
   1  -5   3    8.80    4.20
   1  -5   3    7.10    2.10
  -5   4   3   12.00    4.60
   4  -4  -3  813.92   41.40
   0   4  -3  844.02   40.60
   0   4  -3  770.62   41.40
   4  -4  -3  837.92   41.60
  -4   4   3  739.13   39.80
   0  -4   3  782.02   40.50
   0  -4   3  824.52   38.70
   0  -4   3  822.72   41.40
   4   0   3  818.52   40.00
  -4   4   3  832.82   40.60
   4   0   3  737.43   39.40
   3  -4  -3 3201.08  152.18
   1   3  -3 3212.68  152.18
   1   3  -3 3177.38  152.98
   1   3  -3 3106.49  150.18
   3  -4  -3 3286.87  152.28
   4  -1   3 3120.49  151.08
  -1  -3   3 3287.07  152.88
  -3   4   3 3117.39  150.88
  -3   4   3 3241.98  151.68
   4  -1   3 3323.07  151.78
  -1  -3   3 3287.87  152.38
   2  -4  -3  351.66   21.00
   2   2  -3  361.16   19.10
   2   2  -3  373.76   20.70
   2  -4  -3  349.57   18.80
   2   2  -3  352.66   20.90
   2  -4  -3  370.46   19.30
   2  -4  -3  356.36   18.30
  -2   4   3  377.96   19.00
  -2  -2   3  356.16   20.70
  -2   4   3  356.16   18.20
   4  -2   3  396.06   20.00
  -2  -2   3  372.16   20.90
   4  -2   3  351.06   19.30
   3   1  -3    7.00    4.60
   1  -4  -3    0.50    3.50
   1  -4  -3    9.70    1.90
   3   1  -3    1.10    3.60
  -3  -1   3    8.70    4.00
  -1   4   3    4.70    1.90
   4  -3   3    3.80    3.10
   4  -3   3    2.90    2.60
  -3  -1   3   -3.90    3.30
   0  -4  -3  801.02   39.40
   4   0  -3  807.32   41.70
   4   0  -3  741.23   41.20
   0   4   3  833.22   37.80
  -4   0   3  822.82   41.30
   4  -4   3  753.72   39.70
  -4   0   3  760.12   40.70
   0   4   3  742.33   37.50
   5  -1  -3  783.82   42.60
  -1  -4  -3  831.72   39.90
   5  -1  -3  805.12   42.70
   1   4   3  743.03   39.50
   1   4   3  857.81   40.30
   4  -5   3  788.42   41.60
   1   4   3  775.92   38.40
  -5   1   3  776.22   42.00
   4  -5   3  830.32   41.40
  -5   1   3  805.52   42.60
  -2  -4  -3  395.56   21.60
   6  -2  -3  395.36   24.80
   6  -2  -3  414.26   25.60
  -6   2   3  399.96   24.40
  -6   2   3  414.46   24.80
   4  -6   3  412.96   23.90
   4  -6   3  417.16   23.80
   2   4   3  418.26   22.00
   2   4   3  392.56   20.80
   7  -3  -3 1306.97   66.09
   7  -3  -3 1226.98   65.69
  -3  -4  -3 1206.88   62.19
   3   4   3 1360.16   62.69
   4  -7   3 1281.87   65.49
  -7   3   3 1226.68   65.39
   4  -7   3 1286.17   64.59
  -7   3   3 1233.88   64.79
   3   4   3 1309.67   61.99
   4  -7   3 1291.37   65.19
   3   4   3 1368.06   60.79
   8  -4  -3 4250.77  203.38
   8  -4  -3 4014.80  203.48
   4   4   3 3860.51  200.48
   4  -8   3 4480.65  203.88
   4   4   3 4428.06  198.68
   4  -8   3 4353.66  202.38
   4   4   3 4411.96  200.08
  -8   4   3 3997.50  202.78
   4  -8   3 4408.36  203.58
   9  -5  -3 1678.13   89.79
   4  -9   3 1805.22   88.29
   4  -9   3 1785.52   89.69
   5   4   3 1740.23   85.69
   5   4   3 1836.02   85.89
   8  -5  -3   20.60    8.80
   8  -5  -3   11.80    6.00
   3  -8   3    6.80    5.90
   5   3   3   10.90    4.60
   5   3   3   11.30    4.10
   3  -8   3    7.40    7.70
   3  -8   3    7.90    3.60
   3  -8   3    9.20    5.70
  -8   5   3    4.60    6.60
   7  -5  -3    0.00    5.50
   7  -5  -3    3.60    7.10
   2  -7   3    4.10    4.10
   2  -7   3   -2.20    5.70
   5   2   3    2.30    3.80
   5   2   3   15.00    3.40
   5   2   3    7.50    3.80
  -7   5   3    6.00    5.50
  -1   6  -3  104.99    9.70
  -1   6  -3   98.09   10.30
   6  -5  -3  100.39   12.20
   6  -5  -3   92.99   10.20
   1  -6   3   97.99    6.20
   5   1   3   90.79    7.10
  -6   5   3  102.59   10.10
   1  -6   3   96.49    9.30
   1  -6   3   92.69   11.00
   5   1   3   87.89    8.50
   0   5  -3  142.49   12.50
   5  -5  -3  159.28   13.20
   5  -5  -3  143.09   12.30
   0   5  -3  152.18   11.60
   0  -5   3  157.18   11.50
   5   0   3  140.49   10.30
   5   0   3  167.88   11.30
   0  -5   3  173.18   13.10
   0  -5   3  166.58    9.00
  -5   5   3  161.78   11.50
   4  -5  -3  825.32   41.70
   1   4  -3  847.42   41.70
   1   4  -3  840.42   38.90
   4  -5  -3  834.72   42.10
   1   4  -3  787.72   42.60
  -4   5   3  829.32   41.20
   5  -1   3  765.42   41.40
   5  -1   3  830.72   41.30
  -1  -4   3  805.22   41.70
  -1  -4   3  791.32   42.40
   3  -5  -3 1851.11   86.29
   2   3  -3 1819.42   86.79
   2   3  -3 1714.53   87.59
   2   3  -3 1768.92   84.39
   3  -5  -3 1829.62   85.99
  -2  -3   3 1765.82   86.99
   5  -2   3 1743.03   86.69
  -3   5   3 1819.62   85.69
  -2  -3   3 1748.43   87.39
   5  -2   3 1819.22   86.39
   3   2  -3   52.79    7.90
   2  -5  -3   64.99    8.10
   2  -5  -3   56.09    6.10
   2  -5  -3   67.69    5.20
   2  -5  -3   69.89    6.20
   3   2  -3   82.89    9.20
  -3  -2   3   68.59    8.40
  -3  -2   3   64.79    8.80
   5  -3   3   72.39    7.90
  -2   5   3   53.79    6.70
   4   1  -3    8.90    6.40
   1  -5  -3    6.50    3.80
   4   1  -3    6.90    4.60
   5  -4   3    7.80    4.10
  -4  -1   3    6.90    4.70
  -1   5   3    2.50    2.90
  -4  -1   3   10.70    5.30
   0  -5  -3  157.38   10.90
   5   0  -3  151.28   14.00
   5   0  -3  150.08   13.50
   0   5   3  145.39    9.40
  -5   0   3  175.18   13.60
   0   5   3  151.38   11.60
   5  -5   3  149.88   12.00
  -5   0   3  167.88   13.30
   6  -1  -3  298.57   21.00
  -1  -5  -3  285.97   16.30
   6  -1  -3  296.97   20.00
   1   5   3  289.87   17.30
   1   5   3  275.67   15.40
  -6   1   3  307.57   20.40
   1   5   3  291.37   17.30
   5  -6   3  261.57   18.50
  -6   1   3  265.17   19.10
   5  -6   3  275.77   18.60
   7  -2  -3  699.83   38.70
  -2  -5  -3  658.03   34.10
   7  -2  -3  649.93   37.60
  -7   2   3  663.43   38.30
   2   5   3  726.63   35.00
   5  -7   3  663.23   37.20
   5  -7   3  658.73   36.80
  -7   2   3  668.63   37.40
   8  -3  -3   28.30    8.40
   8  -3  -3   40.10   10.60
  -3  -5  -3   21.30    4.80
   3   5   3   27.70    5.50
  -8   3   3   30.90    8.40
  -8   3   3   23.50    7.70
   5  -8   3   23.90    7.00
   5  -8   3   23.70    6.80
   3   5   3   31.30    8.60
   3   5   3   30.70    3.20
   5  -8   3   18.90    6.50
   9  -4  -3    7.40    7.30
   4   5   3    1.20    4.40
   4   5   3    5.70    4.60
   4   5   3    8.50    3.30
   5  -9   3    1.00    6.50
   5  -9   3   -5.20    5.90
  10  -5  -3  835.02   49.50
   5   5   3  884.71   45.00
   5 -10   3  899.81   47.30
   5 -10   3  851.21   48.90
   5   5   3  859.91   44.30
  11  -6  -3   -4.60    9.90
   5 -11   3    4.80    7.70
   6   5   3    1.20    5.50
   6   5   3   -2.60    6.20
   6   5   3    5.40    6.10
   5 -11   3   -1.80    9.00
  10  -6  -3  201.18   20.20
   4 -10   3  221.38   18.00
   6   4   3  205.68   14.70
   6   4   3  200.68   15.10
   6   4   3  210.28   15.10
   4 -10   3  218.38   19.60
   4 -10   3  219.48   14.80
   9  -6  -3  106.59   13.80
   3  -9   3   95.39    8.40
   6   3   3   94.99   10.10
   3  -9   3   93.29   10.80
   6   3   3   84.79    9.30
   6   3   3   96.69    9.90
   3  -9   3   97.79   13.20
   8  -6  -3 2583.54  128.99
   8  -6  -3 2731.53  128.89
   2  -8   3 2793.72  123.69
   2  -8   3 2761.62  127.39
   6   2   3 2652.63  125.79
   2  -8   3 2571.54  128.79
  -8   6   3 2548.45  127.79
   6   2   3 2546.15  125.19
   6   2   3 2504.15  124.99
   7  -6  -3 1105.59   54.49
   7  -6  -3 1052.89   54.59
  -1   7  -3 1061.19   54.99
  -1   7  -3 1058.79   52.59
   1  -7   3 1058.89   49.30
   1  -7   3 1063.39   52.79
  -7   6   3 1047.80   53.49
   1  -7   3 1024.40   54.49
   6   1   3 1029.70   51.99
   6   1   3  878.21   52.49
   6   1   3 1050.69   51.39
   6  -6  -3   98.79   11.70
   0   6  -3  101.09   10.30
   0   6  -3  103.79   11.40
   6  -6  -3   91.49   10.90
   6   0   3   77.69    8.60
   0  -6   3  103.79    9.80
   0  -6   3  100.09   11.00
  -6   6   3   95.89   10.00
   6   0   3  107.39    9.70
   5  -6  -3  301.47   18.70
   5  -6  -3  278.57   18.20
   1   5  -3  272.87   19.00
   1   5  -3  302.37   18.00
   6  -1   3  280.47   17.60
  -1  -5   3  265.77   17.80
  -5   6   3  287.47   17.70
  -1  -5   3  298.57   19.50
   2   4  -3  385.46   23.40
   2   4  -3  417.26   24.80
   4  -6  -3  421.96   23.30
   2   4  -3  414.66   20.20
   4  -6  -3  433.66   23.90
  -2  -4   3  404.66   23.90
  -4   6   3  414.66   23.10
  -2  -4   3  423.86   25.10
   6  -2   3  409.36   24.40
   3   3  -3    6.00    2.80
   3  -6  -3    3.60    3.80
   3  -6  -3   -0.40    2.80
   3   3  -3    5.40    5.30
   3  -6  -3   -0.10    3.60
   3   3  -3   -6.80    4.70
   6  -3   3   -1.30    4.50
  -3  -3   3    6.70    5.70
  -3   6   3    1.20    3.60
  -3  -3   3    2.30    4.40
   2  -6  -3    7.10    3.40
   2  -6  -3    5.40    3.00
   4   2  -3   17.50    5.40
   4   2  -3    0.60    6.00
   2  -6  -3    8.20    4.50
   2  -6  -3    7.20    2.70
  -4  -2   3    5.50    5.30
   6  -4   3   17.40    5.60
  -4  -2   3    5.40    4.70
  -2   6   3   12.60    4.90
   1  -6  -3  105.19    9.70
   5   1  -3  127.69   12.70
   5   1  -3   90.99   11.50
  -1   6   3  117.59   11.40
  -5  -1   3  103.49   11.50
  -5  -1   3  101.59   11.50
   6  -5   3   76.89   10.30
   0  -6  -3  102.99    8.90
   6   0  -3  108.49   12.40
   6   0  -3   94.79   11.60
   0   6   3   71.69    8.10
  -6   0   3  138.29   12.00
   6  -6   3   92.79   10.80
  -6   0   3  104.99   13.40
   0   6   3  100.09   11.40
  -1  -6  -3  403.26   22.30
   7  -1  -3  421.96   26.40
   7  -1  -3  441.76   27.40
  -7   1   3  429.66   27.30
   1   6   3  355.76   22.90
  -7   1   3  424.76   26.30
   6  -7   3  422.16   25.70
   8  -2  -3  412.06   26.40
  -2  -6  -3  401.06   22.40
   8  -2  -3  428.26   28.50
   2   6   3  442.76   23.90
   6  -8   3  398.06   25.20
   6  -8   3  420.06   26.70
  -8   2   3  444.76   26.90
  -8   2   3  380.86   27.70
   2   6   3  399.56   22.70
  -3  -6  -3   24.30    4.90
   9  -3  -3   20.80    8.30
   6  -9   3   23.00    8.80
   6  -9   3   20.50    7.30
  -9   3   3   13.30    6.90
   3   6   3   34.80    6.20
   3   6   3   17.10    5.20
  10  -4  -3  687.53   42.70
   6 -10   3  759.42   43.10
   4   6   3  719.53   38.50
   4   6   3  703.83   35.10
   6 -10   3  716.73   40.60
   4   6   3  770.92   38.40
  11  -5  -3  107.19   16.00
   5   6   3  102.49    9.00
   5   6   3  116.39   12.60
   6 -11   3  115.49   16.70
   5   6   3   96.99   11.50
   6 -11   3  109.19   13.50
  12  -6  -3  386.06   32.40
   6   6   3  387.96   22.80
   6   6   3  393.96   25.00
   6   6   3  431.36   26.30
   6 -12   3  429.96   27.90
   6 -12   3  397.46   31.50
  13  -7  -3   52.99   16.80
   7   6   3   63.89   11.70
   7   6   3   51.49   10.80
   6 -13   3   50.09   15.80
   6 -13   3   63.49   12.60
  12  -7  -3   17.10   12.90
   7   5   3   22.70    8.40
   5 -12   3   13.80   10.60
   5 -12   3   25.50    8.40
   7   5   3   24.90    7.80
   7   5   3   37.50    9.10
   5 -12   3   42.30   11.10
  11  -7  -3   -2.90    9.90
   4 -11   3   19.10    8.30
   4 -11   3    4.30    5.40
   7   4   3    8.70    6.50
   7   4   3   12.80    7.20
   4 -11   3    9.10   10.00
   7   4   3   11.70    6.90
  10  -7  -3  106.89   15.10
   3 -10   3   83.69   11.40
   7   3   3   86.09   10.60
   7   3   3   83.29    9.60
   7   3   3   81.79    9.70
   3 -10   3   94.99   13.30
   9  -7  -3  907.31   49.99
   9  -7  -3  918.01   52.59
   7   2   3  876.21   45.90
   2  -9   3  873.81   47.20
   2  -9   3  920.11   49.00
   2  -9   3  915.61   42.90
   7   2   3  857.81   45.60
   7   2   3  883.91   45.80
  -1   8  -3 1048.90   54.69
   8  -7  -3 1085.79   57.29
   8  -7  -3 1137.79   57.09
  -1   8  -3 1165.98   58.09
  -8   7   3 1046.40   56.09
   1  -8   3 1096.39   55.19
   7   1   3 1014.00   53.29
   7   1   3 1087.49   53.89
   7   1   3 1020.60   54.19
   1  -8   3 1051.09   57.39
   7  -7  -3  562.84   31.40
   0   7  -3  530.65   31.40
   7  -7  -3  539.65   31.60
   0   7  -3  542.85   29.70
   0  -7   3  488.55   31.10
   7   0   3  532.65   28.50
   7   0   3  514.25   29.40
  -7   7   3  539.45   30.60
   7   0   3  551.34   29.60
   0  -7   3  511.45   29.70
   6  -7  -3  423.56   26.00
   1   6  -3  477.35   25.50
   6  -7  -3  437.76   25.80
   1   6  -3  426.06   26.70
   7  -1   3  425.46   25.30
  -6   7   3  443.06   25.70
  -1  -6   3  408.76   26.90
   7  -1   3  404.36   24.20
  -1  -6   3  449.66   25.70
   5  -7  -3  668.63   35.50
   2   5  -3  687.83   36.00
   5  -7  -3  653.73   36.00
   2   5  -3  647.34   37.30
  -2  -5   3  655.63   37.50
   7  -2   3  621.64   36.00
  -5   7   3  768.12   36.50
  -2  -5   3  647.44   36.40
   3   4  -3 1268.47   63.59
   3   4  -3 1241.38   64.89
   4  -7  -3 1302.27   62.09
   4  -7  -3 1280.37   61.79
   3   4  -3 1248.38   59.79
   4  -7  -3 1239.58   62.69
  -3  -4   3 1139.49   64.19
  -4   7   3 1453.95   63.89
   7  -3   3 1234.68   64.19
  -3  -4   3 1199.38   63.79
   3  -7  -3  277.27   16.20
   3  -7  -3  281.57   16.30
   3  -7  -3  260.37   16.70
   4   3  -3  294.97   19.80
   4   3  -3  279.97   19.80
  -4  -3   3  251.77   19.70
  -4  -3   3  249.18   18.80
  -3   7   3  330.37   19.20
   7  -4   3  264.77   19.40
   2  -7  -3    8.20    2.30
   5   2  -3   -5.10    5.40
   2  -7  -3    6.30    3.00
   5   2  -3   10.20    8.00
   2  -7  -3   -3.60    4.50
   2  -7  -3    7.10    3.50
   2  -7  -3    3.80    3.10
  -5  -2   3    9.00    6.30
  -5  -2   3    6.20    6.60
   7  -5   3   -2.80    5.10
  -2   7   3    5.20    5.90
   6   1  -3 1037.10   57.39
   1  -7  -3 1122.79   55.09
   6   1  -3 1159.78   57.89
  -1   7   3 1069.59   56.99
   7  -6   3 1054.09   57.19
  -6  -1   3 1147.79   58.19
  -6  -1   3 1084.99   57.09
   7   0  -3  569.84   33.70
   7   0  -3  541.15   32.40
   0  -7  -3  531.35   29.10
  -7   0   3  536.25   32.50
   0   7   3  534.35   28.80
   7  -7   3  543.05   32.50
  -7   0   3  567.74   33.80
   8  -1  -3 1372.66   68.79
  -1  -7  -3 1276.57   64.09
  -8   1   3 1394.86   68.59
   7  -8   3 1299.77   68.39
   1   7   3 1256.57   64.39
  -8   1   3 1289.97   69.39
  -2  -7  -3   34.60    5.50
   9  -2  -3   39.60   10.10
   7  -9   3   35.80    9.80
   7  -9   3   11.50    7.00
  -9   2   3   24.40    8.00
   2   7   3   25.10    5.80
  10  -3  -3   32.70   10.30
   3   7   3   44.20    7.30
   7 -10   3   53.79   11.30
   7 -10   3   41.60    9.40
  11  -4  -3  151.18   19.50
   4   7   3  148.19   14.40
   4   7   3  165.18   15.20
   7 -11   3  138.59   18.30
   7 -11   3  148.39   15.70
   4   7   3  159.78    9.00
  12  -5  -3  233.58   24.90
   5   7   3  212.08   13.40
   7 -12   3  222.88   22.20
   7 -12   3  277.57   20.30
   5   7   3  211.58   18.60
   5   7   3  229.48   19.10
  13  -6  -3  404.86   32.30
   7 -13   3  392.86   27.20
   6   7   3  380.86   25.90
   7 -13   3  381.06   31.90
   6   7   3  350.76   26.10
  14  -7  -3  200.78   28.90
   7   7   3  250.87   21.90
   7 -14   3  172.18   23.20
   7 -14   3  225.58   28.30
  15  -8  -3  361.16   40.70
   7 -15   3  388.66   30.30
   7 -15   3  449.66   36.70
   8   7   3  319.27   28.90
  14  -8  -3  435.76   39.60
   8   6   3  438.46   29.80
   6 -14   3  381.16   35.20
   6 -14   3  419.76   38.00
  13  -8  -3 1445.26   83.99
   5 -13   3 1615.14   78.99
   5 -13   3 1466.35   82.39
   8   5   3 1523.65   77.59
  12  -8  -3   41.90   15.20
   4 -12   3   45.80   10.60
   8   4   3   41.20   10.10
   4 -12   3   31.60   13.00
   4 -12   3   43.00    7.10
   8   4   3   57.59   10.40
  11  -8  -3   36.30   11.60
   3 -11   3   62.59   10.80
   8   3   3   63.29    9.80
   3 -11   3   45.00    5.40
   3 -11   3   36.10   10.80
   8   3   3   56.79   10.20
  10  -8  -3  303.47   25.30
   8   2   3  308.87   20.70
   2 -10   3  282.77   22.00
   8   2   3  322.67   21.30
   2 -10   3  325.27   24.00
   8   2   3  359.56   23.60
   9  -8  -3   14.90    8.90
  -1   9  -3    8.30    8.10
   9  -8  -3   16.30   12.90
   8   1   3    7.70    5.30
   8   1   3    5.30    6.60
   8   1   3    8.20    6.60
   1  -9   3    1.30    6.00
   8  -8  -3  615.34   37.50
   8  -8  -3  632.34   37.90
   0   8  -3  657.83   35.50
   0   8  -3  631.84   37.60
   8   0   3  649.83   34.70
   8   0   3  671.93   35.60
   0  -8   3  675.03   36.10
   8   0   3  621.34   35.80
   1   7  -3 1337.67   69.09
   7  -8  -3 1354.76   67.79
   1   7  -3 1304.37   66.39
   7  -8  -3 1309.97   68.19
   8  -1   3 1347.37   66.39
  -1  -7   3 1317.47   67.39
   8  -1   3 1364.86   67.09
  -1  -7   3 1257.07   69.09
   8  -1   3 1274.67   66.99
  -7   8   3 1414.06   68.49
   6  -8  -3  413.46   25.50
   2   6  -3  409.06   25.70
   6  -8  -3  425.36   25.90
   2   6  -3  393.36   26.40
  -2  -6   3  436.76   27.90
  -6   8   3  476.15   26.90
  -2  -6   3  421.46   26.10
   8  -2   3  406.56   25.40
   5  -8  -3   27.20    6.60
   5  -8  -3   31.90    7.20
   3   5  -3   35.00    7.90
   3   5  -3   19.10    7.50
   8  -3   3   28.20    7.70
  -3  -5   3   35.50    8.70
  -5   8   3   48.40    8.90
  -3  -5   3   32.30    7.60
   4   4  -3 4010.60  195.08
   4  -8  -3 4374.36  196.88
   4   4  -3 4105.69  198.48
   4   4  -3 4195.58  200.58
   4  -8  -3 4242.48  196.58
   4  -8  -3 4253.17  197.88
  -4  -4   3 4041.40  199.98
   8  -4   3 4275.47  200.08
  -4  -4   3 4009.80  199.28
   3  -8  -3    6.20    4.10
   3  -8  -3    1.00    4.90
   5   3  -3   -4.00    7.30
   3  -8  -3    6.40    4.70
   3  -8  -3    4.80    5.60
   5   3  -3    2.10    6.40
  -5  -3   3    6.90    8.40
  -5  -3   3    6.40    6.00
  -3   8   3    5.90    7.60
   8  -5   3    4.90    6.40
   6   2  -3 2639.94  134.59
   6   2  -3 2803.22  133.89
   2  -8  -3 2652.93  128.59
   2  -8  -3 2784.12  128.39
   2  -8  -3 2706.63  132.09
   2  -8  -3 2574.34  130.09
   2  -8  -3 2711.63  129.69
  -6  -2   3 2863.31  134.99
  -6  -2   3 2860.51  134.29
   8  -6   3 2671.63  134.19
  -2   8   3 2965.00  134.89
   1  -8  -3 1061.89   52.29
   7   1  -3 1131.59   58.89
   1  -8  -3 1093.79   52.49
   7   1  -3 1179.28   59.49
   1  -8  -3 1054.39   55.39
  -1   8   3 1057.39   58.29
  -7  -1   3 1132.59   59.79
   8  -7   3 1124.99   58.69
  -7  -1   3 1128.19   58.59
   8   0  -3  711.73   39.90
   0  -8  -3  640.14   34.90
  -8   0   3  697.33   39.60
  -8   0   3  690.73   43.40
   8  -8   3  669.93   39.30
   0   8   3  642.64   35.40
  -1  -8  -3   29.90    5.90
   9  -1  -3   32.30    9.10
   1   8   3   24.90    6.40
   8  -9   3   49.99   10.90
  -9   1   3   40.90    9.90
  10  -2  -3   10.70    9.00
  -2  -8  -3    1.40    4.50
   8 -10   3    5.20    7.40
   2   8   3    0.80    5.50
   8 -10   3   14.60    7.40
 -10   2   3    1.20    9.00
  11  -3  -3  113.59   16.10
   8 -11   3  139.39   14.90
   3   8   3  110.99   13.50
   8 -11   3  114.59   16.00
  12  -4  -3  139.99   20.90
   8 -12   3  135.99   20.40
   4   8   3  146.99   15.90
   8 -12   3  171.48   17.30
  13  -5  -3 1758.42   95.69
   8 -13   3 1799.12   93.89
   8 -13   3 1814.72   90.39
   5   8   3 1709.03   89.09
  14  -6  -3  184.48   27.50
   6   8   3  210.98   22.00
   8 -14   3  225.48   26.40
   8 -14   3  207.58   21.70
  15  -7  -3   42.50   20.40
   8 -15   3   47.10   13.10
   8 -15   3   36.50   16.70
   7   8   3   37.00   13.30
  16  -8  -3   28.60   25.00
   8 -16   3   38.70   13.90
   8 -16   3   10.00   17.60
   8   8   3   11.70   14.50
  17  -9  -3   61.89   30.30
   9   8   3  125.99   21.60
   8 -17   3   89.49   23.10
   8 -17   3   82.19   19.00
  16  -9  -3    9.10   23.70
   7 -16   3   -8.80   13.30
   7 -16   3   11.10   18.00
   9   7   3    0.00   13.80
  15  -9  -3   25.60   21.30
   6 -15   3   41.00   15.00
   9   6   3   60.09   14.10
   6 -15   3   25.20   17.90
  14  -9  -3  558.84   45.80
   9   5   3  605.74   38.20
   5 -14   3  590.84   43.60
   5 -14   3  629.24   40.00
  13  -9  -3   96.09   19.10
   4 -13   3  114.79   15.90
   9   4   3  113.79   14.80
   4 -13   3   95.59   17.60
  12  -9  -3  393.36   32.10
   9   3   3  400.06   26.60
   9   3   3  343.67   26.90
   3 -12   3  388.96   30.40
   3 -12   3  383.96   27.50
  11  -9  -3  466.45   33.80
   2 -11   3  480.45   32.50
   9   2   3  513.15   30.20
   9   2   3  450.95   29.00
   2 -11   3  454.05   30.00
  10  -9  -3   53.39   12.70
   1 -10   3   30.40    8.90
   1 -10   3   35.90   10.40
   9   1   3   48.30   10.40
   9   1   3   36.10    8.30
   9  -9  -3 3903.51  180.18
   0   9  -3 3769.42  180.18
   9   0   3 3575.74  176.68
   9   0   3 3545.85  176.38
   8  -9  -3   38.00    9.50
   1   8  -3   31.30    9.00
   8  -9  -3   45.50   11.50
   1   8  -3   28.90    9.20
  -1  -8   3   33.50    8.80
   9  -1   3   35.50    7.40
   9  -1   3   24.00    9.30
   7  -9  -3   45.30    9.40
   7  -9  -3   17.80    8.70
   2   7  -3   19.30    8.40
   2   7  -3   19.00    8.10
  -2  -7   3   26.90    8.30
  -7   9   3   34.80   18.80
  -2  -7   3   16.80   12.70
   9  -2   3   39.60   11.00
   9  -2   3   24.40    7.60
   3   6  -3   34.50    9.10
   6  -9  -3   32.50    7.60
   6  -9  -3   14.30    7.10
   3   6  -3   23.70    8.80
  -3  -6   3   19.60    8.00
  -3  -6   3   20.30    9.50
  -6   9   3   30.80   10.00
   9  -3   3   14.80    7.40
   4   5  -3    4.20    8.00
   5  -9  -3    4.70    5.80
   5  -9  -3    6.10    5.30
   5  -9  -3    1.90    5.70
   4   5  -3   12.90    8.00
  -5   9   3    0.90    8.80
  -4  -5   3    6.40    7.00
  -4  -5   3   15.10    9.40
   9  -4   3   -2.70    6.90
   4  -9  -3 1833.82   82.89
   4  -9  -3 1588.04   83.19
   5   4  -3 1614.84   86.19
   5   4  -3 1708.93   85.09
   4  -9  -3 1697.83   81.89
  -5  -4   3 1681.83   86.79
  -5  -4   3 1729.53   85.89
   9  -5   3 1706.53   86.39
   3  -9  -3   98.49   11.20
   3  -9  -3  103.09   12.20
   3  -9  -3   93.19    7.60
   3  -9  -3   85.59    8.90
   6   3  -3  117.79   14.50
   6   3  -3  110.89   14.30
   3  -9  -3   99.39   10.90
  -6  -3   3   95.19   12.70
  -3   9   3  124.59   15.20
   9  -6   3  110.19   14.20
  -6  -3   3   85.29   14.50
   2  -9  -3  869.71   43.30
   2  -9  -3  848.72   44.80
   2  -9  -3  874.31   47.10
   2  -9  -3  844.52   45.20
   7   2  -3  951.30   50.69
   2  -9  -3  929.21   43.10
   9  -7   3  899.31   49.90
  -2   9   3  963.80   51.19
  -7  -2   3  957.20   55.19
  -7  -2   3  976.50   50.39
   8   1  -3   12.90    8.20
   1  -9  -3    4.30    3.20
   1  -9  -3    3.00    3.30
   1  -9  -3    0.60    5.10
  -8  -1   3   16.80    8.40
   9  -8   3    8.70    7.70
   0  -9  -3 3611.54  177.18
   9   0  -3 3934.41  182.68
   9  -9   3 3719.23  181.78
   0   9   3 3756.52  178.68
  -9   0   3 3704.43  181.78
  -1  -9  -3    7.00    4.80
  10  -1  -3    1.60    9.20
 -10   1   3   15.50    9.80
   1   9   3    9.40    6.50
   9 -10   3    3.60    8.50
  -2  -9  -3  216.78   15.60
  11  -2  -3  228.28   22.90
   2   9   3  198.48   17.40
   9 -11   3  221.18   21.80
   9 -11   3  236.08   19.20
  12  -3  -3  620.54   42.30
   9 -12   3  628.94   40.20
   9 -12   3  608.74   36.40
   3   9   3  590.44   36.00
  13  -4  -3  882.51   54.59
   9 -13   3  953.40   53.19
   4   9   3  828.22   48.20
   9 -13   3  816.32   51.59
  14  -5  -3    2.20   15.90
   5   9   3    8.20   10.60
   9 -14   3    6.30   13.20
   9 -14   3   -3.20    9.60
  15  -6  -3  124.09   24.00
   9 -15   3   59.09   18.30
   6   9   3   55.39   14.70
   9 -15   3   79.49   14.20
  16  -7  -3   15.10   23.40
   9 -16   3   22.20   17.60
   7   9   3   29.50   15.80
   9 -16   3   27.30   12.90
  17  -8  -3   70.39   29.80
   9 -17   3   39.90   16.10
   9 -17   3   24.80   19.20
   8   9   3   17.30   17.70
  17 -10  -3 1168.08   79.89
   7 -17   3 1198.98   66.29
  10   7   3 1081.49   65.89
   7 -17   3 1125.89   71.19
  16 -10  -3   41.60   25.30
   6 -16   3   16.70   19.00
  10   6   3    5.30   14.70
   6 -16   3  -20.00   14.00
  15 -10  -3  636.64   52.19
   5 -15   3  692.13   48.40
   5 -15   3  719.63   44.40
  10   5   3  628.04   46.10
  14 -10  -3 1087.09   71.09
  10   4   3 1217.98   64.69
   4 -14   3 1174.28   69.29
   4 -14   3 1236.08   65.49
  13 -10  -3  349.77   32.20
   3 -13   3  343.67   26.40
  10   3   3  301.97   25.70
   3 -13   3  240.88   29.20
  10   2   3  104.59   14.60
   2 -12   3  152.68   18.20
   2 -12   3  102.99   18.80
  11 -10  -3   90.29   16.20
   1 -11   3   78.59   13.40
   1 -11   3   61.09   13.80
  10   1   3   78.49   11.90
  10 -10  -3  308.67   24.40
   0  10  -3  251.87   22.70
  10   0   3  244.58   20.30
   0 -10   3  258.27   21.80
   1   9  -3   -1.80    9.10
   9 -10  -3   16.10    9.60
  10  -1   3    6.30    7.10
  -1  -9   3    6.20    8.50
   8 -10  -3   15.90    9.30
   8 -10  -3    1.50    9.60
   2   8  -3    6.70    7.40
  -2  -8   3    5.80   11.80
  10  -2   3    4.20    6.70
   3   7  -3   29.50   10.20
   7 -10  -3   28.90    9.80
   7 -10  -3   38.70    9.50
  -3  -7   3   49.60   10.70
  10  -3   3   49.10   10.30
   6 -10  -3  710.63   38.80
   6 -10  -3  740.23   40.20
   6 -10  -3  721.93   38.50
   4   6  -3  715.43   42.30
  -4  -6   3  701.03   41.40
  10  -4   3  679.63   41.70
   5   5  -3  815.42   48.80
   5 -10  -3  898.11   45.10
   5   5  -3  819.62   41.30
   5 -10  -3  815.82   44.40
   5 -10  -3  867.61   46.40
  -5  10   3 1019.80   51.69
  -5  -5   3  864.71   48.30
  10  -5   3  849.32   49.10
   4 -10  -3  204.68   15.30
   6   4  -3  195.28   18.90
   4 -10  -3  181.78   14.20
   4 -10  -3  193.88   15.90
   4 -10  -3  172.58   16.60
  -6  -4   3  199.28   18.80
  -4  10   3  218.68   23.80
  10  -6   3  189.78   19.50
   3 -10  -3   89.09    9.00
   3 -10  -3   83.19    7.50
   7   3  -3   95.19   13.40
   3 -10  -3   83.69   11.50
   3 -10  -3   84.49   11.10
   3 -10  -3   87.89   10.80
  10  -7   3   72.19   12.20
  -7  -3   3  110.39   14.50
  -3  10   3  103.19   16.00
   8   2  -3  344.87   25.10
   2 -10  -3  286.77   18.60
   2 -10  -3  313.57   20.90
  10  -8   3  323.57   24.20
  -8  -2   3  342.87   24.70
   1 -10  -3   32.10    7.20
   1 -10  -3   37.20    4.60
   9   1  -3   44.90   11.70
  10  -9   3   38.00   10.20
  -9  -1   3   45.10   11.60
   0 -10  -3  246.28   17.40
  10   0  -3  321.17   25.10
   0  10   3  249.38   20.10
 -10   0   3  278.47   24.40
  10 -10   3  260.67   22.60
  -1 -10  -3  208.88   15.70
  11  -1  -3  203.88   21.00
   1  10   3  218.68   18.40
  10 -11   3  239.98   21.70
 -11   1   3  195.38   23.50
  12  -2  -3  170.28   23.40
   2  10   3  186.48   19.00
  10 -12   3  259.77   23.10
  13  -3  -3  113.39   19.70
   3  10   3  102.49   15.10
  10 -13   3  171.48   21.30
  10 -13   3  136.39   16.80
  14  -4  -3  543.85   42.40
   4  10   3  512.25   35.50
  10 -14   3  553.14   38.70
  15  -5  -3   28.20   20.70
   5  10   3   12.40   15.50
  10 -15   3   23.20   11.30
  10 -15   3   37.80   15.90
  16  -6  -3  142.19   29.60
  10 -16   3  120.09   21.90
   6  10   3  135.89   20.40
  10 -16   3  150.68   19.00
  17  -7  -3  178.28   34.70
   7  10   3  172.68   24.30
  10 -17   3  205.08   22.20
  10 -17   3  193.68   26.90
  17 -11  -3    9.00   28.80
   6 -17   3    4.50   21.20
  11   6   3    2.80   17.20
   6 -17   3   26.80   17.30
  16 -11  -3   92.59   26.90
   5 -16   3  105.99   23.90
  11   5   3  116.69   19.90
   5 -16   3   58.79   18.70
  15 -11  -3   57.89   23.20
   4 -15   3   28.50   19.00
  11   4   3   27.40   13.80
   4 -15   3   48.90   16.10
  14 -11  -3  244.88   32.20
  11   3   3  217.08   24.90
   3 -14   3  233.88   28.60
   3 -14   3  222.58   26.30
  13 -11  -3   71.59   17.70
  11   2   3   81.79   14.50
   2 -13   3   51.79   14.40
   2 -13   3   79.99   17.10
  12 -11  -3  495.95   35.80
   1 -12   3  440.46   34.10
   1 -12   3  437.16   32.70
  11   1   3  454.45   31.50
   0  11  -3   73.19   15.50
  11 -11  -3   90.89   16.20
  11   0   3   64.49   12.40
   0 -11   3   64.69   13.40
   0 -11   3   86.39   14.30
  10 -11  -3  262.17   23.90
   1  10  -3  248.58   23.80
  -1 -10   3  200.88   22.10
  11  -1   3  212.88   20.20
   9 -11  -3  243.98   22.60
   2   9  -3  215.68   22.90
  11  -2   3  178.68   18.60
  -2  -9   3  256.47   22.40
   8 -11  -3  130.49   15.30
   3   8  -3  122.29   16.90
   8 -11  -3  159.08   17.70
  -3  -8   3  106.49   15.10
  11  -3   3  126.29   15.90
   4   7  -3  184.78   20.10
   7 -11  -3  178.88   18.20
   7 -11  -3  186.18   18.80
   7 -11  -3  146.89   16.20
  11  -4   3  148.29   19.80
  -4  -7   3  200.28   19.70
   5   6  -3   93.89   15.50
   6 -11  -3   95.59   11.80
   6 -11  -3  104.29   12.40
   6 -11  -3  104.39   13.20
  -5  -6   3  118.49   15.60
  11  -5   3   81.19   14.60
   5 -11  -3    7.90    7.50
   6   5  -3    6.00    9.50
   5 -11  -3   -5.40    4.40
   5 -11  -3   -0.80    7.20
   5 -11  -3   -5.20    7.00
  -6  -5   3   32.10   10.60
  11  -6   3    7.70   10.10
   4 -11  -3    8.40    7.70
   4 -11  -3    7.70    7.30
   7   4  -3    6.60    8.90
   4 -11  -3   13.80    7.60
   4 -11  -3    7.00    6.20
  -7  -4   3   12.60   10.00
  11  -7   3    2.60    9.70
   3 -11  -3   50.69    6.50
   8   3  -3   48.20   12.00
   3 -11  -3   49.99    9.00
   3 -11  -3   59.79    7.00
   3 -11  -3   50.79    8.50
   3 -11  -3   39.90    9.10
  -8  -3   3   54.69   12.00
  11  -8   3   69.99   13.70
   9   2  -3  566.34   34.60
   2 -11  -3  455.55   26.80
   2 -11  -3  483.05   28.80
  -9  -2   3  493.35   33.60
  11  -9   3  508.95   33.60
   1 -11  -3   61.59    9.00
  10   1  -3   73.09   14.50
  11 -10   3   62.39   12.60
 -10  -1   3   73.19   13.80
  11   0  -3   77.19   15.30
   0 -11  -3   72.69    9.10
 -11   0   3   69.29   17.10
  11 -11   3   52.89   12.80
  12  -1  -3   64.19   15.90
  -1 -11  -3   43.00    8.40
  11 -12   3   68.59   14.80
   1  11   3   49.90   12.00
  13  -2  -3   10.10   14.10
  11 -13   3   13.50   10.00
  11 -13   3   20.50   12.70
   2  11   3   21.20   10.70
  14  -3  -3   84.69   20.30
  11 -14   3  103.89   15.90
  11 -14   3  112.19   18.80
   3  11   3   90.69   15.90
  15  -4  -3  656.83   50.39
   4  11   3  571.14   41.50
  11 -15   3  658.73   44.40
  11 -15   3  659.43   39.70
  16  -5  -3   80.29   26.70
  11 -16   3  113.29   20.70
   5  11   3  114.09   20.20
  11 -16   3   65.89   15.40
  17  -6  -3  -16.10   27.80
  11 -17   3  -42.10   17.60
  11 -17   3   -2.40   13.90
   6  11   3   46.80   19.60
  12   5   3   31.00   20.10
  16 -12  -3  186.18   31.90
   4 -16   3  251.67   26.60
   4 -16   3  246.08   30.30
  12   4   3  230.58   31.50
  15 -12  -3    4.30   19.50
   3 -15   3   -4.80   17.90
  12   3   3   15.80   14.60
   3 -15   3   -6.40   16.20
  14 -12  -3  249.78   33.10
   2 -14   3  236.48   31.00
  12   2   3  262.07   37.20
  13 -12  -3 1374.66   73.79
   1 -13   3 1212.88   70.69
  12   1   3 1166.18   67.89
   1 -13   3 1270.47   69.39
  12 -12  -3  193.68   25.00
   0 -12   3  216.08   22.80
  12   0   3  188.58   22.20
   0 -12   3  175.98   23.40
   1  11  -3   44.80   14.20
  11 -12  -3   31.40   14.00
  -1 -11   3   54.19   18.50
  -1 -11   3   34.70   13.60
  12  -1   3   42.90   11.90
  10 -12  -3  246.08   23.30
   2  10  -3  195.28   23.60
  12  -2   3  185.58   21.00
  -2 -10   3  194.98   23.40
   9 -12  -3  775.92   43.50
  12  -3   3  607.94   41.00
  -3  -9   3  672.73   42.90
   4   8  -3  142.39   19.00
   8 -12  -3  202.18   20.80
   8 -12  -3  186.88   18.60
  -4  -8   3  153.78   19.00
  12  -4   3  150.58   20.40
   7 -12  -3  246.18   21.60
   5   7  -3  189.08   22.40
   7 -12  -3  212.58   20.30
   7 -12  -3  219.18   21.50
  -5  -7   3  211.98   22.80
  12  -5   3  247.08   24.90
   6 -12  -3  400.96   26.80
   6 -12  -3  423.16   23.60
   6 -12  -3  419.66   27.10
   6   6  -3  396.06   30.40
   6 -12  -3  416.06   27.80
  -6  -6   3  391.06   29.70
  12  -6   3  405.66   31.90
   5 -12  -3   19.60    8.90
   5 -12  -3   34.90    9.80
   7   5  -3   35.40   12.30
   5 -12  -3   42.80    7.10
   5 -12  -3   21.60    8.70
   5 -12  -3   24.70    9.40
  -7  -5   3   32.10   12.90
  12  -7   3   31.80   13.90
   4 -12  -3   40.20    7.90
   4 -12  -3   42.80    9.90
   8   4  -3   49.20   13.10
   4 -12  -3   51.39    9.90
   4 -12  -3   50.69    9.90
  12  -8   3   16.00   12.40
  -8  -4   3   46.10   12.10
   3 -12  -3  358.96   23.90
   3 -12  -3  373.96   23.60
   3 -12  -3  368.76   24.90
   3 -12  -3  375.06   20.30
   3 -12  -3  363.16   19.90
  -9  -3   3  411.16   30.00
  12  -9   3  435.86   30.30
  10   2  -3  139.49   18.70
   2 -12  -3  125.89   15.00
 -10  -2   3  198.58   21.90
  12 -10   3  122.39   18.10
  11   1  -3  461.75   34.80
   1 -12  -3  446.86   27.90
  12 -11   3  516.85   34.90
 -11  -1   3  496.25   36.00
  12   0  -3  212.38   25.40
   0 -12  -3  161.58   16.10
  12 -12   3  182.08   22.50
  13  -1  -3   80.09   19.20
  12 -13   3   84.59   16.50
  14  -2  -3   43.20   18.90
   2  12   3   28.90   17.00
  12 -14   3   91.99   17.30
  12 -14   3   29.00   13.70
  15  -3  -3  439.16   42.30
   3  12   3  456.65   36.10
  12 -15   3  500.75   37.80
  12 -15   3  487.25   35.10
  16  -4  -3   -9.60   23.10
  12 -16   3   33.40   14.50
  12 -16   3   -8.80   16.30
   4  12   3  -28.10   16.60
   5  12   3  538.55   45.90
  16 -13  -3  305.07   41.30
   3 -16   3  306.87   40.20
  13   3   3  283.87   31.40
   3 -16   3  301.67   30.60
  15 -13  -3   92.19   24.30
   2 -15   3  106.19   20.70
   2 -15   3  106.29   23.00
  13   2   3   75.69   20.00
  14 -13  -3  711.23   48.20
   1 -14   3  551.34   44.20
   1 -14   3  566.44   43.70
  13   1   3  561.74   42.50
  13 -13  -3  151.38   23.30
   0 -13   3  143.39   21.30
  13   0   3  123.59   19.40
   0 -13   3  121.19   20.90
   1  12  -3   73.69   18.90
  12 -13  -3   97.09   18.80
  -1 -12   3  107.49   18.60
  -1 -12   3   67.79   16.80
   2  11  -3   -4.80   14.20
  11 -13  -3    1.40   13.40
  -2 -11   3    2.70   12.00
  13  -2   3   15.50   12.40
  -2 -11   3   10.60   14.80
   3  10  -3  122.19   20.70
  10 -13  -3  143.79   18.90
  -3 -10   3  130.99   20.50
  13  -3   3  121.39   18.10
   4   9  -3  810.42   55.29
   9 -13  -3 1093.29   55.69
  -4  -9   3  942.11   55.69
  13  -4   3  904.21   55.39
   8 -13  -3 2191.18  104.19
   8 -13  -3 2096.19   97.19
   5   8  -3 1654.93   97.89
  -5  -8   3 1782.52   97.59
  13  -5   3 1736.73   99.19
   7 -13  -3  436.16   29.00
   7 -13  -3  375.46   27.40
   7 -13  -3  374.26   23.10
   6   7  -3  324.77   30.30
  13  -6   3  365.56   33.50
  -6  -7   3  403.26   30.80
   7   6  -3   81.29   16.00
   6 -13  -3   63.89    8.40
   6 -13  -3   57.79   12.50
   6 -13  -3   59.89   12.20
  -7  -6   3   58.19   14.50
  13  -7   3   50.19   15.70
   5 -13  -3 1505.45   71.09
   5 -13  -3 1471.55   74.79
   5 -13  -3 1587.64   75.29
   8   5  -3 1375.16   78.09
  13  -8   3 1345.97   85.29
  -8  -5   3 1439.96   78.09
   4 -13  -3   83.09   12.30
   4 -13  -3  117.59   15.70
   4 -13  -3  106.79   10.90
   9   4  -3   87.69   15.90
  13  -9   3   95.39   16.90
  -9  -4   3  116.69   16.90
  10   3  -3  341.27   29.40
   3 -13  -3  338.17   23.90
 -10  -3   3  366.66   35.30
  13 -10   3  321.37   29.80
   2 -13  -3  107.59   12.30
  11   2  -3  111.49   19.30
  13 -11   3  102.49   17.50
 -11  -2   3   71.49   16.80
   1 -13  -3 1165.28   61.49
  12   1  -3 1197.98   69.69
  13 -12   3 1309.17   69.19
  13   0  -3  110.49   21.10
  13 -13   3  111.69   19.00
  14  -1  -3  731.33   53.89
  13 -14   3  878.21   49.99
  13 -14   3  788.12   51.29
  15  -2  -3   57.09   22.60
  13 -15   3   48.00   16.90
  13 -15   3   66.59   18.30
  16  -3  -3   -8.90   24.10
  13 -16   3    8.50   14.70
   3  13   3   36.50   19.30
  13 -16   3  -20.20   16.30
  16 -14  -3   14.00   23.90
  14   2   3  -23.20   20.80
   2 -16   3   30.10   24.60
  15 -14  -3  329.97   40.10
   1 -15   3  364.26   39.00
  14   1   3  401.96   36.90
   1 -15   3  403.96   41.80
  14 -14  -3   29.70   18.50
   0 -14   3   40.30   19.80
  14   0   3   29.50   18.30
   0 -14   3   12.40   18.80
  13 -14  -3  933.61   54.59
  14  -1   3  731.23   50.49
  -1 -13   3  845.82   52.79
  -1 -13   3  641.04   54.69
  12 -14  -3   82.99   18.90
   2  12  -3   61.29   18.90
  -2 -12   3   51.59   19.10
  14  -2   3   16.60   15.60
  -2 -12   3   59.39   16.80
   3  11  -3   90.89   19.90
  11 -14  -3  116.59   20.10
  14  -3   3   76.39   17.40
  -3 -11   3  126.09   21.00
   4  10  -3  511.25   40.30
  10 -14  -3  559.44   45.70
  14  -4   3  545.85   39.70
  -4 -10   3  564.64   41.20
   9 -14  -3    1.30   12.90
   5   9  -3  -18.70   13.00
  -5  -9   3   13.20   15.00
  14  -5   3    8.30   16.10
   6   8  -3  207.08   26.30
   8 -14  -3  256.57   18.80
   8 -14  -3  272.17   26.70
  -6  -8   3  203.18   23.80
  14  -6   3  196.48   26.40
   7   7  -3  181.18   23.60
   7 -14  -3  228.68   24.00
   7 -14  -3  219.48   17.20
  -7  -7   3  261.27   26.90
  14  -7   3  271.47   31.80
   8   6  -3  377.86   33.00
   6 -14  -3  441.16   31.00
   6 -14  -3  409.36   24.50
   6 -14  -3  462.55   29.70
  14  -8   3  421.06   38.00
   5 -14  -3  643.84   36.80
   9   5  -3  604.14   41.20
   5 -14  -3  569.44   36.20
  14  -9   3  625.54   44.90
  -9  -5   3  583.84   41.90
   4 -14  -3 1313.97   64.99
   4 -14  -3 1143.59   62.09
  10   4  -3 1118.69   67.69
  14 -10   3 1236.58   70.19
 -10  -4   3 1189.68   67.39
   3 -14  -3  188.38   19.80
  11   3  -3  223.78   26.60
  14 -11   3  263.37   28.40
 -11  -3   3  209.38   24.50
  12   2  -3  305.27   32.10
  14 -12   3  319.57   31.30
  13   1  -3  539.35   43.60
  14 -13   3  611.24   42.30
  14   0  -3   32.30   19.00
  14 -14   3   46.70   17.30
  15  -1  -3  -14.80   21.00
  14 -15   3   14.20   15.10
  14 -15   3   21.20   15.50
  16  -2  -3  118.19   39.00
  14 -16   3  117.09   21.00
  14 -16   3  111.29   34.40
  15 -15  -3   78.59   24.60
   0 -15   3   72.19   25.10
  15   0   3   72.29   23.10
  14 -15  -3   12.40   20.30
  -1 -14   3   33.00   21.30
  15  -1   3    6.30   19.30
   2  13  -3   45.90   21.40
  13 -15  -3   76.69   21.20
  -2 -13   3   50.39   21.90
  -2 -13   3   59.79   20.00
  15  -2   3   56.99   18.70
   3  12  -3  464.65   42.60
  12 -15  -3  599.84   42.20
  -3 -12   3  462.25   42.70
  15  -3   3  424.86   40.50
  -3 -12   3  503.65   40.70
  11 -15  -3  800.92   48.60
   4  11  -3  574.54   48.40
  -4 -11   3  731.73   49.30
  15  -4   3  621.54   47.30
   5  10  -3   28.70   17.50
  10 -15  -3   28.40   16.40
  15  -5   3   -8.40   17.10
  -5 -10   3   12.20   18.10
   9 -15  -3   86.79   18.50
   6   9  -3   49.50   18.50
   9 -15  -3   62.29   11.70
  15  -6   3   85.39   22.40
  -6  -9   3   47.50   18.60
   7   8  -3   34.50   17.00
   8 -15  -3   61.39   16.70
   8 -15  -3   51.29   10.10
  -7  -8   3   61.39   18.50
  15  -7   3   71.99   21.90
   8   7  -3  367.16   35.10
   7 -15  -3  450.65   34.00
   7 -15  -3  446.26   31.50
  -8  -7   3  418.16   36.30
  15  -8   3  452.75   42.80
   6 -15  -3   60.89   12.50
   9   6  -3   38.80   16.90
  -9  -6   3   24.50   16.60
  15  -9   3   72.89   23.20
  10   5  -3  624.84   45.10
   5 -15  -3  636.94   39.40
 -10  -5   3  683.23   45.70
  15 -10   3  743.83   50.39
  11   4  -3   26.10   17.10
  15 -11   3   68.79   20.50
 -11  -4   3   22.10   16.70
  12   3  -3   12.10   15.90
 -12  -3   3   16.50   17.50
  15 -12   3   25.80   16.70
  13   2  -3   54.19   19.80
  15 -13   3   89.19   20.60
  14   1  -3  308.77   37.80
  15 -14   3  333.57   33.80
  15   0  -3  -13.50   22.70
  15 -15   3   49.00   20.00
  14 -16  -3  167.58   28.60
  -2 -14   3  163.68   29.60
  16  -2   3  144.59   26.50
   3  13  -3    0.20   21.50
  13 -16  -3    0.30   20.30
  -3 -13   3    0.60   20.80
  -3 -13   3   -5.60   20.90
  16  -3   3   -0.40   21.00
   4  12  -3  -17.30   20.30
  12 -16  -3   20.70   19.50
  -4 -12   3   20.90   20.20
  16  -4   3  -14.70   19.70
  -4 -12   3   19.50   19.90
   5  11  -3   96.29   23.00
  11 -16  -3  108.39   22.30
  16  -5   3   83.89   23.90
  -5 -11   3  102.49   22.50
  -5 -11   3   74.59   20.30
  10 -16  -3  143.29   22.40
  10 -16  -3  167.68   21.40
   6  10  -3  141.19   25.70
  -6 -10   3  139.19   24.30
  16  -6   3  122.39   26.90
   9 -16  -3   47.40   18.70
   7   9  -3   40.70   19.70
  16  -7   3   27.70   22.50
  -7  -9   3   42.90   19.80
   8   8  -3   34.80   18.00
   8 -16  -3   45.30   14.40
   8 -16  -3   26.90   17.20
  -8  -8   3   57.09   19.60
  16  -8   3   40.50   24.70
   9   7  -3   26.20   18.10
   7 -16  -3   18.90   12.70
  16  -9   3   27.80   23.40
  -9  -7   3    5.20   16.30
   6 -16  -3   29.30   19.70
  10   6  -3   -1.20   16.40
 -10  -6   3   37.40   17.80
  16 -10   3    1.60   22.60
  16 -11   3  112.29   26.60
 -11  -5   3  118.39   22.60
  12   4  -3  236.28   29.60
  16 -12   3  281.47   37.10
  13   3  -3  241.18   30.20
  16 -13   3  266.97   32.40
  14   2  -3  -11.60   22.80
  16 -14   3    4.90   27.90
   5  12  -3  526.65   51.09
  11 -17  -3   10.10   21.00
   6  11  -3  -11.40   21.30
  17  -6   3  -11.70   25.20
  -6 -11   3    0.70   21.90
  -6 -11   3   30.80   23.10
   7  10  -3  184.58   29.50
  17  -7   3  251.77   36.80
  -7 -10   3  245.88   29.30
   8   9  -3   23.10   20.10
   9 -17  -3   17.30   16.70
  -8  -9   3   72.39   22.70
  17  -8   3   44.70   27.70
   9   8  -3   88.19   22.90
  -9  -8   3   85.19   22.20
  17  -9   3   61.99   30.40
  10   7  -3 1019.10   68.19
  17 -10   3 1252.07   78.39
 -10  -7   3 1095.59   68.59
  11   6  -3   21.00   21.10
  17 -11   3   14.00   25.70
 -11  -6   3   11.90   21.50
  12   5  -3   22.50   22.10
   0   0  -4 1652.03   79.19
   0   0  -4 1610.34   79.39
   0   0   4 1577.04   79.09
   0   0   4 1717.33   79.49
   0   0   4 1710.83   78.49
  -1   0  -4 1927.31   92.69
   1  -1  -4 1967.70   91.39
   0   1  -4 1948.80   93.09
   1  -1  -4 1905.41   92.89
   0   1  -4 1870.51   92.69
   1  -1  -4 1868.91   93.29
   1   0   4 1932.11   91.59
   1   0   4 1925.01   92.19
   0  -1   4 2029.00   92.59
  -1   1   4 1964.20   92.29
   0  -1   4 2023.90   92.79
  -1   1   4 1881.91   92.59
   0  -1   4 1918.11   92.79
   1   0   4 2058.89   92.89
  -1   1  -4 1976.90   93.39
  -1   1  -4 1880.11   93.09
   0  -1  -4 1986.80   92.99
   1   0  -4 1976.10   92.99
   1   0  -4 1847.02   93.59
   0  -1  -4 1890.21   93.59
   1   0  -4 1899.71   93.59
   1  -1   4 1984.90   92.79
   0   1   4 2006.70   91.99
  -1   0   4 1997.20   93.29
   0   1   4 2087.99   93.79
   1  -1   4 2100.29   93.29
  -1   0   4 1985.50   93.59
   1  -1   4 1920.81   93.09
   0   1   4 1816.72   92.59
  -1   2  -4   16.90    4.00
   2  -1  -4   18.70    4.60
   2  -1  -4   32.10    5.30
  -1  -1  -4   26.30    4.10
   2  -1  -4   21.00    3.80
  -1  -1  -4   17.60    3.30
  -1   2  -4   15.40    3.10
   1  -2   4   20.90    4.10
   1  -2   4   23.70    3.70
   1   1   4   21.20    3.10
   1  -2   4   23.10    3.80
  -2   1   4   16.70    4.20
   1   1   4   25.40    4.30
  -2   1   4   25.10    4.50
   3  -2  -4  326.47   19.70
  -2  -1  -4  340.47   19.10
  -1   3  -4  357.96   20.00
   3  -2  -4  332.37   20.70
   1  -3   4  368.76   20.00
  -3   2   4  320.87   19.90
   2   1   4  383.66   19.50
   1  -3   4  367.36   18.70
   1  -3   4  345.67   19.60
   2   1   4  350.76   18.00
  -3   2   4  346.77   20.20
   0   2  -4 1650.23   76.19
  -2   0  -4 1590.24   75.49
   2  -2  -4 1454.35   76.39
   2  -2  -4 1571.64   75.69
   0   2  -4 1533.55   75.09
   2  -2  -4 1607.04   74.59
  -2   2   4 1453.85   75.59
   0  -2   4 1464.75   75.49
  -2   2   4 1608.54   75.59
   0  -2   4 1675.53   75.29
   2   0   4 1654.83   75.59
   0  -2   4 1593.04   75.79
   2   0   4 1529.55   74.69
   1   1  -4   24.00    4.50
  -2   1  -4   19.00    3.50
   1  -2  -4   20.60    4.60
   1  -2  -4   18.40    3.70
   1   1  -4   29.10    5.30
   2  -1   4   21.00    3.60
  -1  -1   4   23.40    4.50
  -1  -1   4   18.40    4.00
  -1   2   4   20.50    3.70
  -1   2   4   26.00    3.40
   2  -1   4   21.50    4.00
   0  -2  -4 1646.94   76.49
   2   0  -4 1597.84   78.29
   2   0  -4 1548.15   77.99
  -2   2  -4 1526.75   76.99
   0  -2  -4 1647.44   77.99
   0   2   4 1721.83   78.09
   2  -2   4 1559.14   77.39
   0   2   4 1580.44   76.39
  -2   0   4 1617.24   78.09
  -2   0   4 1597.84   78.19
   2  -2   4 1670.03   77.19
  -2   3  -4  618.54   30.40
  -1  -2  -4  572.54   30.80
  -2   3  -4  582.54   31.20
   3  -1  -4  601.74   32.50
   3  -1  -4  575.74   31.80
   2  -3   4  632.64   30.40
  -3   1   4  576.44   31.90
   2  -3   4  561.54   30.80
  -3   1   4  669.53   32.30
   1   2   4  601.14   29.20
   2  -3   4  580.54   31.40
   1   2   4  625.14   31.10
   4  -2  -4  509.25   31.30
   4  -2  -4  555.34   32.40
  -2  -2  -4  573.84   29.80
  -2   4  -4  581.44   30.60
   2   2   4  575.34   28.00
  -4   2   4  574.24   31.20
  -4   2   4  633.94   31.70
   2  -4   4  556.54   30.90
   2  -4   4  535.45   30.10
   2   2   4  613.54   30.00
   2  -4   4  605.24   29.20
   5  -3  -4   59.89    9.10
  -2   5  -4   66.89    8.10
   5  -3  -4   74.99   11.10
  -3  -2  -4   66.99    6.90
   3   2   4   58.39    5.30
   2  -5   4   57.89    8.30
  -5   3   4   65.59    8.80
   2  -5   4   56.09    6.30
   2  -5   4   45.30    6.70
   3   2   4   67.89    7.40
  -5   3   4   56.39    7.50
  -1   4  -4   94.79    9.40
   4  -3  -4  110.99   11.70
  -1   4  -4   92.29    6.80
  -3  -1  -4   98.79    8.10
   4  -3  -4   96.69   10.60
  -4   3   4   89.59    9.10
   3   1   4   89.29    7.00
   1  -4   4   93.69    9.40
  -4   3   4   89.99    9.10
   1  -4   4   97.09    7.20
   1  -4   4   81.99    8.30
   3   1   4  103.09    8.30
   0   3  -4   14.20    4.60
  -3   0  -4   15.70    3.70
   0   3  -4   15.90    4.60
   0   3  -4   12.80    2.70
   3  -3  -4   12.90    5.00
   3  -3  -4   11.20    4.00
   0  -3   4   17.70    3.40
   0  -3   4   11.90    3.70
  -3   3   4   16.50    4.20
  -3   3   4    8.60    3.60
   0  -3   4   15.50    4.30
   3   0   4   14.30    3.70
   3   0   4   21.10    3.90
   2  -3  -4  590.34   30.90
   2  -3  -4  645.94   29.30
   1   2  -4  617.24   30.70
   1   2  -4  604.04   32.10
  -3   1  -4  617.04   31.20
   1   2  -4  603.54   32.20
   2  -3  -4  526.85   32.00
  -1  -2   4  618.64   32.00
  -2   3   4  579.64   30.80
  -1  -2   4  607.94   31.90
  -2   3   4  624.14   30.90
   3  -1   4  681.53   31.50
   3  -1   4  589.54   31.00
   1  -3  -4  333.77   19.90
   2   1  -4  360.76   20.30
   2   1  -4  342.97   20.30
   1  -3  -4  359.66   18.20
  -2  -1   4  342.27   20.00
  -1   3   4  357.76   18.10
   3  -2   4  370.46   19.20
  -1   3   4  337.67   18.20
   3  -2   4  323.17   19.20
  -2  -1   4  334.57   20.00
   3   0  -4   10.80    4.70
   0  -3  -4   18.00    4.10
   3   0  -4   15.80    4.90
   0  -3  -4   12.30    2.50
   3   0  -4   25.30    6.10
   3  -3   4   15.00    4.20
  -3   0   4   14.60    5.40
   3  -3   4   18.80    3.60
   0   3   4   14.80    2.10
  -3   0   4   16.60    4.90
   0   3   4   14.10    2.70
   0   3   4   11.50    4.50
   4  -1  -4  423.46   26.10
   4  -1  -4  397.16   25.00
  -1  -3  -4  441.16   23.30
   3  -4   4  404.86   24.20
   1   3   4  467.75   23.60
  -4   1   4  461.35   25.10
   3  -4   4  386.06   23.40
   3  -4   4  428.36   22.60
  -4   1   4  408.96   24.60
   1   3   4  427.96   20.80
  -2  -3  -4    8.00    3.20
   5  -2  -4    9.30    7.40
   5  -2  -4    1.90    5.50
   3  -5   4   -1.30    2.90
  -5   2   4   17.60    6.00
   3  -5   4   -1.50    5.00
   2   3   4    5.00    1.60
   2   3   4    0.90    3.70
  -5   2   4    0.80    4.50
   3  -5   4   -1.90    3.70
   6  -3  -4   65.89   10.10
   6  -3  -4   70.09   11.90
  -3  -3  -4   44.20    6.00
   3   3   4   49.60    3.40
   3   3   4   57.59    4.60
   3  -6   4   51.79    7.40
  -6   3   4   70.39   10.00
  -6   3   4   40.60    7.50
   3  -6   4   57.09    6.40
   3   3   4   63.19    4.90
   3   3   4   53.59    6.90
   3  -6   4   60.79    9.30
   7  -4  -4 1761.32   83.69
   7  -4  -4 1613.14   82.49
  -7   4   4 1570.14   81.49
   4   3   4 1536.85   76.89
   3  -7   4 1560.44   81.99
  -7   4   4 1630.84   80.79
   4   3   4 1709.53   79.39
   3  -7   4 1646.24   78.09
   3  -7   4 1642.54   80.89
   4   3   4 1618.94   77.19
   6  -4  -4  283.37   19.10
  -2   6  -4  265.37   17.60
   6  -4  -4  286.87   21.40
   2  -6   4  234.98   16.40
  -6   4   4  255.77   18.00
  -6   4   4  242.68   16.60
   2  -6   4  249.28   14.60
   4   2   4  268.87   16.30
   4   2   4  252.87   13.10
   2  -6   4  260.77   18.70
  -1   5  -4   13.00    5.20
   5  -4  -4   -0.80    7.20
   5  -4  -4   17.10    6.30
  -5   4   4    6.70    4.10
  -5   4   4   12.00    4.90
   4   1   4   12.20    4.10
   1  -5   4   18.00    5.60
   1  -5   4   19.70    3.30
   4   1   4    7.90    2.40
   1  -5   4   10.60    4.40
   4  -4  -4  486.65   28.80
   0   4  -4  538.55   27.90
   4  -4  -4  475.95   28.00
   0   4  -4  480.75   28.40
   0   4  -4  514.15   25.30
   0  -4   4  499.05   27.40
   0  -4   4  518.45   28.20
   4   0   4  516.95   26.90
  -4   4   4  492.95   26.60
  -4   4   4  515.45   27.40
   1   3  -4  422.76   23.80
   3  -4  -4  399.66   23.00
   1   3  -4  410.76   21.20
   1   3  -4  418.26   24.00
   3  -4  -4  401.16   22.00
  -1  -3   4  396.16   23.50
  -3   4   4  405.46   21.80
   4  -1   4  414.16   22.60
  -1  -3   4  428.26   23.40
  -3   4   4  431.96   22.50
   2  -4  -4  565.34   29.10
   2   2  -4  592.04   29.60
   2  -4  -4  545.35   31.30
   2   2  -4  562.14   31.40
   2   2  -4  599.64   31.40
   4  -2   4  585.14   30.80
  -2  -2   4  577.14   31.20
  -2  -2   4  585.44   31.40
  -2   4   4  611.34   29.30
   4  -2   4  589.04   30.10
  -2   4   4  548.55   28.70
   3   1  -4  107.69   11.50
   3   1  -4   87.29    9.60
   1  -4  -4   85.29    8.80
   3   1  -4   81.59    8.90
   1  -4  -4   93.69    6.20
  -1   4   4   93.39    6.30
   4  -3   4  103.19    8.50
  -3  -1   4   84.89    9.60
  -3  -1   4   72.79    9.30
  -1   4   4   74.79    5.60
   4  -3   4   76.99    8.90
   4   0  -4  481.05   29.40
   0  -4  -4  502.25   27.20
   4   0  -4  480.95   29.10
   0   4   4  511.45   24.50
   4  -4   4  524.35   26.80
   0   4   4  474.75   23.90
   4  -4   4  519.35   28.00
  -4   0   4  536.55   29.00
  -4   0   4  481.25   28.40
   5  -1  -4    5.10    5.70
  -1  -4  -4    0.70    3.10
   5  -1  -4   14.70    7.80
   1   4   4   -0.90    3.90
   1   4   4    3.80    1.60
  -5   1   4    6.00    5.20
   4  -5   4    0.90    4.80
  -5   1   4    3.90    5.30
   4  -5   4    6.70    4.00
   1   4   4    3.90    1.60
   6  -2  -4   20.80    7.40
  -2  -4  -4   19.60    4.40
   6  -2  -4   17.00    8.70
   2   4   4   18.30    4.80
  -6   2   4   24.80    6.70
   4  -6   4   22.60    7.40
   4  -6   4    5.20    6.30
   2   4   4   18.50    2.70
   2   4   4   19.50    3.80
  -6   2   4   16.60    6.50
   4  -6   4   18.20    6.20
   7  -3  -4  916.81   49.10
  -3  -4  -4  835.72   44.80
   7  -3  -4  920.81   49.99
  -7   3   4  888.81   48.10
   4  -7   4  919.81   44.80
  -7   3   4  850.81   47.00
   4  -7   4  834.72   46.60
   4  -7   4  896.91   48.30
   3   4   4  927.01   42.20
   3   4   4  938.01   43.20
   3   4   4  888.81   45.20
   3   4   4  852.11   42.00
   8  -4  -4  285.07   23.60
   8  -4  -4  295.57   21.70
   4   4   4  269.87   17.70
  -8   4   4  256.07   21.80
   4  -8   4  283.97   17.10
  -8   4   4  267.97   19.90
   4  -8   4  254.77   19.70
   4  -8   4  262.67   19.70
   4   4   4  294.07   15.80
   4  -8   4  263.37   21.80
   4   4   4  270.67   14.70
   9  -5  -4  247.08   21.20
   4  -9   4  237.18   15.70
   5   4   4  230.08   16.90
   5   4   4  232.28   14.20
   5   4   4  242.38   15.40
   4  -9   4  253.27   19.80
   4  -9   4  255.07   19.20
   8  -5  -4  132.29   16.50
   8  -5  -4  112.49   15.30
   3  -8   4  117.19   12.60
   3  -8   4  120.79    9.20
   5   3   4  117.49   11.30
   3  -8   4  101.39   15.20
   5   3   4  104.89    8.30
  -8   5   4   83.39   11.70
   7  -5  -4  268.47   20.30
  -2   7  -4  258.07   18.80
   7  -5  -4  277.87   22.30
  -7   5   4  263.47   17.60
   2  -7   4  283.37   15.20
   2  -7   4  251.57   17.50
  -7   5   4  269.77   19.20
   5   2   4  254.77   14.50
   5   2   4  271.27   17.30
   2  -7   4  261.77   19.30
   5   2   4  287.67   15.70
  -1   6  -4   -0.60    5.80
   6  -5  -4    8.60    6.30
   6  -5  -4    4.20    8.30
   1  -6   4   -1.00    4.20
  -6   5   4    0.70    4.90
   1  -6   4    8.30    6.10
   1  -6   4   12.90    4.20
   5   1   4    7.10    4.60
  -6   5   4    7.60    4.30
   5   1   4    6.30    3.00
   5  -5  -4  129.79   13.20
   5  -5  -4   94.19   11.00
   0   5  -4  108.69   10.90
   0   5  -4   90.29   10.90
   0  -5   4  108.79    7.90
   0  -5   4  101.89   11.60
   5   0   4   95.49    9.10
  -5   5   4   89.49    8.80
   0  -5   4   97.49    9.70
  -5   5   4  103.09   10.00
   5   0   4  104.89    9.60
   1   4  -4    9.20    2.50
   4  -5  -4    8.20    8.10
   1   4  -4    3.00    5.30
   1   4  -4   -4.30    4.40
   4  -5  -4    5.90    5.70
   5  -1   4    2.80    3.60
  -1  -4   4   -0.10    3.90
  -4   5   4    4.50    3.60
   5  -1   4   -1.00    3.70
  -4   5   4    4.90    2.80
  -1  -4   4    1.40    4.90
   3  -5  -4    4.20    4.00
   2   3  -4    6.10    5.20
   3  -5  -4    2.00    3.30
   3  -5  -4   -4.00    4.50
   2   3  -4    6.60    4.90
   2   3  -4    2.00    2.40
   3  -5  -4    3.20    2.30
  -2  -3   4    7.00    4.70
  -2  -3   4    7.30    5.40
   5  -2   4    0.00    3.00
   5  -2   4    2.80    3.90
  -3   5   4    3.70    3.20
   3   2  -4   80.39    9.60
   2  -5  -4   50.99    5.60
   3   2  -4   60.99    6.90
   2  -5  -4   65.69    8.50
   3   2  -4   61.79    9.40
  -3  -2   4   58.59    8.20
   5  -3   4   66.99    8.30
  -3  -2   4   57.99    8.20
   5  -3   4   52.89    7.00
  -2   5   4   58.99    7.70
   4   1  -4   11.60    6.30
   1  -5  -4    2.70    4.20
   4   1  -4   14.80    7.20
  -4  -1   4   17.40    6.30
   5  -4   4    9.40    4.90
   5  -4   4   12.70    4.50
  -1   5   4   10.70    2.90
   5  -4   4    9.20    4.90
  -4  -1   4   13.20    5.30
   5   0  -4  118.29   13.70
   5   0  -4  113.29   12.80
   0  -5  -4  111.59   10.20
  -5   0   4  121.79   12.30
   5  -5   4  124.09   10.80
   5  -5   4   80.59    9.70
   5  -5   4  101.69   11.30
   0   5   4   99.99    7.30
  -5   0   4  109.49   12.00
   0   5   4  119.19    7.80
  -1  -5  -4  514.75   28.90
   6  -1  -4  538.75   32.50
   6  -1  -4  547.65   33.60
   1   5   4  586.84   30.10
  -6   1   4  523.55   32.30
  -6   1   4  574.94   31.80
   1   5   4  480.95   26.70
   5  -6   4  556.44   29.60
   5  -6   4  532.95   31.10
   5  -6   4  528.75   30.50
   1   5   4  592.14   28.70
   7  -2  -4 2028.00   99.39
  -2  -5  -4 1958.80   95.09
   7  -2  -4 2091.89   99.39
   5  -7   4 1964.70   95.69
   2   5   4 1930.41   93.39
   5  -7   4 1957.50   97.59
   5  -7   4 1962.60   97.49
  -7   2   4 1952.20   98.59
   2   5   4 2030.20   95.79
  -7   2   4 1920.81   97.99
   5  -7   4 1917.61   97.79
  -3  -5  -4  323.07   19.30
   8  -3  -4  319.37   23.70
  -8   3   4  302.17   26.40
   5  -8   4  322.57   21.80
  -8   3   4  321.47   22.50
   3   5   4  334.37   20.10
   5  -8   4  308.17   23.60
   5  -8   4  321.47   22.70
   5  -8   4  318.17   20.40
   3   5   4  333.37   18.10
   9  -4  -4   19.30    9.10
   5  -9   4   16.80    6.90
   5  -9   4   12.40    7.70
   4   5   4   20.80    2.80
  -9   4   4   26.90    8.40
   4   5   4   15.50    2.50
   5  -9   4   11.30    8.20
   4   5   4   17.60    6.30
   4   5   4   14.80    5.00
  10  -5  -4  202.18   21.20
   5   5   4  230.98   15.40
   5 -10   4  235.88   19.80
   5 -10   4  188.68   18.90
   5   5   4  236.78   13.10
   5 -10   4  225.08   17.10
   5   5   4  203.78   17.50
  11  -6  -4   88.49   15.60
   5 -11   4   86.59   10.40
   5 -11   4  108.29   14.50
   6   5   4   84.89   11.40
   5 -11   4  102.99   15.70
  10  -6  -4   79.89   14.30
   4 -10   4   68.29   12.40
   4 -10   4   84.49    8.90
   4 -10   4   89.19   12.70
   6   4   4   72.89   10.00
   6   4   4   88.09    9.70
   6   4   4   84.99   10.00
   9  -6  -4 2414.16  120.29
   6   3   4 2293.67  114.79
   6   3   4 2339.47  116.09
   3  -9   4 2526.65  118.49
   3  -9   4 2557.94  114.29
   6   3   4 2328.87  114.59
   8  -6  -4   75.69   11.90
   8  -6  -4   53.49   12.40
  -8   6   4   72.09   12.60
   2  -8   4   60.29    6.60
   6   2   4   61.89    8.90
   6   2   4   49.80    7.10
   6   2   4   72.59    7.60
   2  -8   4   72.19    9.90
   7  -6  -4 2394.26  112.09
   7  -6  -4 2351.66  111.99
  -1   7  -4 2200.18  109.59
   1  -7   4 2316.37  106.49
   6   1   4 2167.58  106.99
  -7   6   4 2294.57  110.19
   1  -7   4 2120.79  110.99
   1  -7   4 2240.08  109.89
   6   1   4 2240.78  108.89
   6  -6  -4  115.79   13.30
   0   6  -4  100.49   11.40
   0   6  -4  101.29   11.00
   6  -6  -4   94.99   11.90
  -6   6   4  100.79   10.60
   0  -6   4   82.99   11.10
   0  -6   4   89.39   10.20
   6   0   4   98.79   10.20
   6   0   4   87.49    8.60
   1   5  -4  522.05   30.00
   1   5  -4  510.55   30.90
   1   5  -4  542.65   26.20
   5  -6  -4  529.75   30.30
   5  -6  -4  546.35   31.00
  -5   6   4  538.85   29.00
   6  -1   4  511.55   29.20
   6  -1   4  525.05   29.10
  -1  -5   4  551.04   30.00
  -1  -5   4  525.35   30.80
   4  -6  -4   25.10    6.90
   2   4  -4   16.60    3.00
   2   4  -4   23.00    7.50
   2   4  -4   14.80    5.90
  -4   6   4   26.30    5.10
   6  -2   4   22.00    6.30
  -2  -4   4   23.70    6.20
  -2  -4   4   20.70    7.00
   6  -2   4   12.10    5.30
   3  -6  -4   43.00    7.60
   3  -6  -4   57.99    6.50
   3   3  -4   65.29   10.00
   3   3  -4   50.99    9.00
   3   3  -4   52.69    6.20
   3  -6  -4   54.69    6.70
   3  -6  -4   63.89    5.50
  -3   6   4   55.69    6.90
   6  -3   4   65.09    8.80
  -3  -3   4   41.00    7.70
  -3  -3   4   54.39    9.40
   6  -3   4   52.39    7.50
   2  -6  -4  251.37   13.30
   4   2  -4  230.88   16.40
   4   2  -4  217.18   18.10
   2  -6  -4  247.68   17.40
   4   2  -4  240.28   19.40
   6  -4   4  246.48   17.20
   6  -4   4  244.38   16.90
  -2   6   4  287.27   15.20
  -4  -2   4  277.17   18.90
  -4  -2   4  228.48   17.90
   5   1  -4    9.00    6.30
   5   1  -4   11.10    8.60
   1  -6  -4   16.90    5.40
  -1   6   4    6.20    4.20
   6  -5   4    6.50    6.00
  -5  -1   4   15.80    6.80
  -5  -1   4    6.00    6.10
   6  -5   4    3.80    4.60
   6   0  -4   87.29   12.30
   0  -6  -4   95.29   10.30
   6   0  -4  109.99   14.60
  -6   0   4   91.49   11.40
   0   6   4   96.49    7.80
   6  -6   4  108.69   12.00
   6  -6   4   91.29   11.20
   6  -6   4   90.69   11.60
  -6   0   4  117.39   13.60
   7  -1  -4  174.98   18.70
   7  -1  -4  151.48   16.00
  -1  -6  -4  143.79   11.70
  -7   1   4  146.29   14.10
   1   6   4  137.79    9.80
   6  -7   4  146.19   13.80
   6  -7   4  140.59   14.10
  -7   1   4  172.58   17.80
   8  -2  -4   44.60   10.40
  -2  -6  -4   45.00    6.80
   2   6   4   47.50    8.00
   6  -8   4   49.20    9.40
   6  -8   4   51.59    9.40
  -8   2   4   56.39   10.40
   9  -3  -4   84.89   13.50
  -3  -6  -4   71.69    8.70
   6  -9   4   85.79   13.10
   6  -9   4   79.29   10.80
   3   6   4   80.89    9.90
   3   6   4   64.89    8.70
   6  -9   4   97.39   12.80
  -9   3   4   71.59   11.70
  10  -4  -4  139.59   18.50
   4   6   4  152.08   14.80
   6 -10   4  141.99   16.40
   6 -10   4  124.89   16.40
   6 -10   4  181.78   16.70
   4   6   4  140.29   12.40
  11  -5  -4  783.02   47.90
   5   6   4  796.42   41.50
   6 -11   4  766.72   42.80
   6 -11   4  793.82   44.90
   6 -11   4  814.22   47.70
   5   6   4  741.83   42.40
   6   6   4  575.64   32.00
   6 -12   4  548.05   35.60
   6 -12   4  549.95   32.80
   6 -12   4  546.45   38.30
   6   6   4  518.25   27.70
  13  -7  -4  170.38   24.00
   6 -13   4  174.68   22.90
   7   6   4  163.08   17.90
  12  -7  -4 2320.07  129.29
   5 -12   4 2347.57  125.09
   7   5   4 2539.55  117.39
   7   5   4 2580.04  119.79
   5 -12   4 2394.46  117.99
   5 -12   4 2541.25  122.79
  11  -7  -4    5.40   10.50
   7   4   4   28.60    7.20
   4 -11   4   32.60    9.90
   4 -11   4   24.20    6.60
   7   4   4   31.10    7.50
   4 -11   4   11.20   10.40
  10  -7  -4   44.10   11.80
   7   3   4   40.40    7.60
   3 -10   4   28.40    9.40
   3 -10   4   43.00   11.00
   3 -10   4   52.49    6.50
   7   3   4   28.60    6.90
   9  -7  -4  740.23   43.60
   2  -9   4  764.22   41.20
   7   2   4  709.93   38.40
   7   2   4  740.33   38.20
   2  -9   4  739.73   36.30
   8  -7  -4  396.66   27.80
   8  -7  -4  393.76   26.30
   7   1   4  326.47   20.60
   7   1   4  390.76   22.30
   1  -8   4  371.76   19.20
   7   1   4  374.96   23.40
   1  -8   4  352.96   23.50
   7  -7  -4    5.30    7.10
   0   7  -4   -0.90    6.90
   7  -7  -4    1.60    9.00
   0   7  -4    5.90    7.20
  -7   7   4    2.20    6.70
   7   0   4    7.80    4.60
   0  -7   4   13.20    6.50
   0  -7   4   19.60    9.70
   7   0   4    3.60    5.90
   6  -7  -4  147.59   14.60
   6  -7  -4  156.98   16.40
   1   6  -4  140.69   14.30
   1   6  -4  151.98   15.20
   7  -1   4  143.89   12.70
  -6   7   4  165.38   13.30
  -1  -6   4  133.89   16.00
  -1  -6   4  145.39   13.70
   7  -1   4  147.19   14.00
   2   5  -4 1983.60   98.79
   5  -7  -4 2013.20   96.99
   2   5  -4 1992.40   92.89
   5  -7  -4 2100.69   97.39
   2   5  -4 1977.80   97.09
   7  -2   4 1904.11   96.79
  -2  -5   4 1903.51   97.29
  -2  -5   4 1864.41   98.19
  -5   7   4 2118.89   96.49
   7  -2   4 1905.11   96.99
   3   4  -4  857.21   43.20
   4  -7  -4  908.61   45.90
   3   4  -4  906.11   48.90
   3   4  -4  906.51   47.60
   4  -7  -4  870.71   44.00
   7  -3   4  849.02   46.70
  -3  -4   4  876.41   48.40
   7  -3   4  848.82   47.40
  -4   7   4  982.30   46.00
  -3  -4   4  922.81   47.90
   3  -7  -4 1543.65   75.39
   3  -7  -4 1549.34   78.59
   3  -7  -4 1545.15   75.09
   3  -7  -4 1688.63   74.69
   4   3  -4 1540.05   76.09
   4   3  -4 1631.84   79.49
   4   3  -4 1600.84   80.69
  -4  -3   4 1551.94   79.89
  -4  -3   4 1602.34   79.59
   7  -4   4 1418.56   78.09
   7  -4   4 1631.74   79.39
   5   2  -4  306.87   22.30
   2  -7  -4  275.97   19.40
   2  -7  -4  276.87   14.10
   5   2  -4  278.97   21.50
   7  -5   4  252.57   20.00
  -5  -2   4  277.87   20.40
  -2   7   4  335.37   19.00
  -5  -2   4  267.37   21.40
   6   1  -4 2364.76  116.79
   6   1  -4 2358.76  116.19
   1  -7  -4 2350.66  113.59
  -6  -1   4 2386.36  116.29
  -6  -1   4 2370.76  115.59
   7  -6   4 2228.78  114.99
   7   0  -4    6.00    7.40
   0  -7  -4    7.40    5.30
   0   7   4   13.10    7.10
   0   7   4   15.00    4.60
   7  -7   4    7.10    6.80
  -7   0   4    3.00    6.30
  -7   0   4   12.10   10.90
   7  -7   4   19.20    7.50
  -1  -7  -4  491.35   27.10
   8  -1  -4  484.25   31.00
   7  -8   4  486.15   30.70
  -8   1   4  487.55   31.00
   7  -8   4  493.05   29.70
   1   7   4  459.05   25.70
  -2  -7  -4  881.41   46.00
   9  -2  -4  946.51   51.49
  -9   2   4  920.21   50.09
   7  -9   4  891.71   50.59
   7  -9   4  907.11   49.40
   2   7   4  868.51   45.40
  -3  -7  -4  936.01   49.90
  10  -3  -4 1023.30   55.99
 -10   3   4  978.50   54.49
   3   7   4  913.61   49.50
   7 -10   4 1047.30   53.69
   7 -10   4 1017.20   55.49
  11  -4  -4   33.30   13.40
   7 -11   4   19.70   11.10
   7 -11   4   23.30    8.70
   4   7   4    9.80    9.50
   4   7   4   17.80    6.90
  12  -5  -4  110.99   22.20
   7 -12   4   90.49   13.80
   5   7   4  102.79   13.50
   7 -12   4   74.69   16.30
   7 -12   4   90.29   14.40
   5   7   4   98.79   15.30
  13  -6  -4   61.99   17.40
   6   7   4   51.29   10.90
   7 -13   4   47.40   16.70
   7 -13   4   35.20   13.30
  14  -7  -4   36.20   18.90
   7   7   4   66.99   13.00
   7 -14   4   53.09   13.60
   7 -14   4   55.19   17.80
  15  -8  -4   16.10   20.90
   7 -15   4   56.89   20.70
   8   7   4   66.59   14.30
   7 -15   4   37.60   14.60
  14  -8  -4   44.70   19.90
   8   6   4   56.79   12.80
   6 -14   4   52.99   14.70
   6 -14   4   59.99   19.10
  13  -8  -4   13.00   15.00
   5 -13   4   16.40   14.40
   8   5   4   -5.30    8.60
  12  -8  -4  177.68   25.10
   8   4   4  210.68   19.10
   4 -12   4  221.08   22.20
   4 -12   4  222.08   24.90
   8   4   4  241.08   18.80
  11  -8  -4  165.18   21.70
   3 -11   4  187.78   20.90
   3 -11   4  200.68   19.30
   3 -11   4  187.28   12.10
   8   3   4  183.98   17.20
   8   3   4  147.39   15.50
  10  -8  -4   17.50   10.90
   2 -10   4    3.50    8.30
   8   2   4    5.40    6.10
   8   2   4   11.20    7.80
   2 -10   4   12.00    3.60
   9  -8  -4   51.19   11.30
   1  -9   4   35.60    8.70
   8   1   4   11.30    7.90
   8   1   4   20.40    5.80
   0   8  -4  980.50   54.59
   8  -8  -4  966.10   54.09
   8  -8  -4 1057.69   54.79
   8   0   4 1046.00   51.39
   0  -8   4  991.10   52.49
   8   0   4  905.01   49.80
   7  -8  -4  494.65   30.70
   1   7  -4  462.65   30.70
   7  -8  -4  500.85   31.30
  -7   8   4  492.15   29.70
  -1  -7   4  505.85   30.00
   8  -1   4  484.35   27.80
   6  -8  -4   51.99    9.20
   2   6  -4   54.49   10.80
   6  -8  -4   34.80   10.00
   2   6  -4   54.59   10.80
  -2  -6   4   56.79    9.50
   8  -2   4   39.40    8.50
  -6   8   4   62.59    9.70
   3   5  -4  323.97   16.20
   5  -8  -4  337.27   21.40
   5  -8  -4  335.67   21.60
   3   5  -4  323.97   23.90
   3   5  -4  300.57   22.70
   5  -8  -4  308.47   18.80
  -5   8   4  351.26   21.50
  -3  -5   4  266.57   23.70
  -3  -5   4  324.47   22.40
   8  -3   4  297.67   22.20
   4   4  -4  267.27   15.30
   4   4  -4  271.37   21.50
   4  -8  -4  256.87   19.80
   4   4  -4  239.08   21.40
   4  -8  -4  284.67   16.40
  -4  -4   4  261.27   20.70
  -4   8   4  324.87   20.00
  -4  -4   4  240.78   22.10
   8  -4   4  288.77   20.50
   5   3  -4  101.29   15.70
   5   3  -4   97.39   13.80
   3  -8  -4  126.29   13.70
   3  -8  -4  118.39    9.10
   3  -8  -4  121.29    8.90
   3  -8  -4  117.29    7.90
  -3   8   4  147.99   14.30
   8  -5   4  123.49   14.20
  -5  -3   4  110.69   13.40
  -5  -3   4   83.59   13.50
   6   2  -4   69.49   11.70
   2  -8  -4   61.29    9.30
  -6  -2   4   61.49   10.40
   8  -6   4   52.89   10.50
  -2   8   4   74.59   10.70
   7   1  -4  422.46   28.40
   1  -8  -4  370.56   24.20
  -1   8   4  401.56   26.60
  -7  -1   4  424.56   27.50
   8  -7   4  372.76   26.90
   0  -8  -4  979.30   51.59
   8   0  -4 1079.79   56.49
   0   8   4 1008.30   50.99
  -8   0   4 1025.90   55.19
   8  -8   4  954.40   55.09
   9  -1  -4   41.00   10.80
  -1  -8  -4   30.80    6.70
   1   8   4   26.60    6.20
  -9   1   4   31.10   10.60
   8  -9   4   31.30    9.20
   8  -9   4   42.80   10.70
  10  -2  -4   54.89   12.80
  -2  -8  -4   56.59    8.30
   8 -10   4   79.89   13.60
   8 -10   4   44.10   10.20
   2   8   4   47.90    7.70
 -10   2   4   45.70   10.60
  11  -3  -4  123.49   17.60
   8 -11   4   98.79   13.90
   3   8   4   87.89   10.90
   8 -11   4  127.49   18.00
  12  -4  -4  381.86   31.30
   4   8   4  355.46   24.30
   8 -12   4  389.46   27.70
   8 -12   4  347.57   30.40
  13  -5  -4   67.59   18.50
   8 -13   4   57.99   16.00
   8 -13   4   61.09   13.20
   5   8   4   61.69   11.80
  14  -6  -4    5.00   15.90
   6   8   4   17.90   11.10
   8 -14   4    6.10   16.10
   8 -14   4   21.40   10.80
  15  -7  -4   37.60   20.60
   8 -15   4   35.30   19.10
   8 -15   4   52.29   14.60
   7   8   4   31.40   13.30
  16  -8  -4  131.49   30.50
   8   8   4  119.19   18.60
   8 -16   4  111.49   24.40
   8 -16   4   88.29   17.40
  17  -9  -4   90.29   33.80
   8 -17   4  169.68   28.70
   8 -17   4  182.68   23.00
  16  -9  -4  -15.40   23.90
   7 -16   4  -16.90   14.80
   9   7   4   30.20   15.00
   7 -16   4   17.80   21.60
  15  -9  -4  106.19   27.00
   9   6   4  132.09   18.30
   6 -15   4  127.09   23.30
   6 -15   4  150.28   19.70
  14  -9  -4   44.50   19.50
   5 -14   4   41.10   14.70
   5 -14   4   28.20   16.00
   9   5   4   28.20   12.30
  13  -9  -4  237.78   29.70
   9   4   4  244.38   22.30
   4 -13   4  283.67   29.70
   9   3   4  967.10   51.69
   3 -12   4  958.40   53.99
   3 -12   4  964.00   56.49
   9   3   4  924.31   51.29
  11  -9  -4  141.49   19.30
   9   2   4  153.08   15.80
   2 -11   4  170.88   18.80
   2 -11   4  147.49   18.20
   9   2   4  157.08   15.90
  10  -9  -4  232.08   22.50
   1 -10   4  203.58   19.70
   9   1   4  231.78   19.50
   9   1   4  202.18   17.00
   0   9  -4  316.47   26.90
   9  -9  -4  360.16   27.60
   9   0   4  372.66   24.80
   9   0   4  350.16   22.50
   0  -9   4  398.86   25.70
   8  -9  -4   39.20   10.60
   1   8  -4    6.90    9.10
   8  -9  -4   22.90   11.80
   9  -1   4   25.30    9.80
  -1  -8   4   21.40    8.50
   9  -1   4   24.70    7.20
   7  -9  -4  954.90   50.59
   7  -9  -4  903.21   50.19
   2   7  -4  936.31   51.99
  -2  -7   4  868.41   49.80
   9  -2   4  923.11   48.90
   6  -9  -4   76.99   10.30
   6  -9  -4   79.89   11.50
   6  -9  -4   72.69   11.60
   3   6  -4   73.69   12.50
   9  -3   4   82.29   11.30
  -3  -6   4   64.99   11.40
  -6   9   4   87.29   12.50
   5  -9  -4   24.70    8.10
   4   5  -4   30.10    9.80
   5  -9  -4   14.40    7.30
   4   5  -4   17.60    3.00
   5  -9  -4   15.00    5.50
   9  -4   4   20.60    8.60
  -5   9   4   14.30    9.10
  -4  -5   4   21.20    8.90
   4  -9  -4  211.38   18.30
   5   4  -4  220.78   20.80
   5   4  -4  245.58   14.30
   4  -9  -4  220.18   15.80
   4  -9  -4  239.38   14.90
   4  -9  -4  193.88   20.40
   9  -5   4  231.38   20.10
  -5  -4   4  220.98   19.90
   6   3  -4 2392.46  120.29
   3  -9  -4 2182.28  112.59
   3  -9  -4 2559.24  112.49
   3  -9  -4 2222.68  112.59
   3  -9  -4 2500.95  117.79
   9  -6   4 2535.45  119.69
  -6  -3   4 2446.46  119.19
   2  -9  -4  729.83   43.00
   7   2  -4  783.72   46.60
  -7  -2   4  787.32   45.70
  -2   9   4  938.01   46.60
   9  -7   4  762.12   45.60
   8   1  -4   23.40   10.10
   1  -9  -4   25.90    7.70
  -8  -1   4   19.60    9.00
   9  -8   4   23.00   10.10
  -1   9   4   32.60   11.20
   0  -9  -4  331.17   22.30
   9   0  -4  368.66   27.40
  -9   0   4  368.26   27.50
   9  -9   4  369.26   27.30
  10  -1  -4   45.50   13.10
  -1  -9  -4   38.60    7.80
   9 -10   4   45.80   11.10
   1   9   4   33.10    7.60
   9 -10   4   40.00   12.30
 -10   1   4   25.50   10.30
  11  -2  -4  370.16   40.40
  -2  -9  -4  458.95   27.30
 -11   2   4  543.15   34.90
   2   9   4  458.45   28.00
   9 -11   4  470.25   31.00
   9 -11   4  467.75   34.40
  12  -3  -4   27.50   13.30
   9 -12   4   33.10   10.50
   3   9   4   14.40    8.30
   9 -12   4   33.80   13.70
  13  -4  -4  558.74   41.00
   9 -13   4  552.84   35.00
   9 -13   4  530.65   37.80
   4   9   4  492.45   32.90
  14  -5  -4  -22.10   14.90
   5   9   4   11.60   11.30
   9 -14   4    6.70   14.90
   9 -14   4   24.60   11.50
  15  -6  -4   71.39   23.20
   6   9   4  104.39   16.90
   9 -15   4   47.60   18.40
   9 -15   4   66.89   14.30
  16  -7  -4   71.59   27.50
   7   9   4   16.80   15.30
   9 -16   4   25.20   14.50
   9 -16   4   39.00   20.70
  17  -8  -4  270.27   41.50
   9 -17   4  197.28   30.90
   9 -17   4  227.08   25.00
  17 -10  -4  108.79   32.90
  16 -10  -4    9.10   24.90
   6 -16   4   32.50   21.70
  10   6   4    4.10   15.80
   6 -16   4   16.00   16.30
  15 -10  -4   74.59   23.80
  10   5   4   76.89   16.50
   5 -15   4   47.70   20.80
   5 -15   4   95.19   18.80
  14 -10  -4  891.41   60.49
  10   4   4  919.91   53.09
   4 -14   4  892.01   59.09
   4 -14   4 1013.00   56.29
  13 -10  -4   14.80   15.90
  10   3   4    6.90   10.70
   3 -13   4    4.00   13.90
  12 -10  -4  291.27   38.60
   2 -12   4  311.57   26.90
   2 -12   4  338.07   29.20
  10   2   4  318.27   24.80
  11 -10  -4   22.40   13.40
  10   1   4   30.60    9.30
   1 -11   4   20.80   11.00
  10 -10  -4  183.98   21.90
   0  10  -4  156.18   21.40
   0 -10   4  194.68   19.40
  10   0   4  139.09   15.90
   1   9  -4   49.70   13.20
   9 -10  -4   47.80   13.00
  10  -1   4   41.90    9.00
  -1  -9   4   45.50   11.40
   8 -10  -4   68.89   13.00
   8 -10  -4   59.49   13.90
   2   8  -4   55.39   12.40
  10  -2   4   60.49   10.40
  -2  -8   4   51.79   11.40
   7 -10  -4 1046.40   54.19
   3   7  -4  946.91   56.19
   7 -10  -4 1008.80   54.29
   7 -10  -4 1010.70   51.79
  -3  -7   4  966.80   55.09
  10  -3   4  986.60   53.89
   6 -10  -4  151.08   13.10
   4   6  -4  130.19   17.50
   6 -10  -4  129.29   14.30
   6 -10  -4  138.39   15.90
  10  -4   4  129.69   16.50
  -4  -6   4  137.79   17.10
   5   5  -4  199.58   11.80
   5   5  -4  182.18   19.50
   5 -10  -4  224.28   15.70
   5 -10  -4  190.28   17.40
   5 -10  -4  219.48   17.40
  -5  10   4  322.27   36.40
  10  -5   4  224.18   20.70
  -5  -5   4  202.58   20.60
   4 -10  -4   76.69   11.30
   4 -10  -4   74.59    8.50
   4 -10  -4   75.19   12.40
   6   4  -4   89.09   14.80
   4 -10  -4   96.59    9.10
   4 -10  -4   78.99    7.60
  -6  -4   4   76.39   12.90
  10  -6   4   97.59   14.40
  -4  10   4  102.19   15.40
   7   3  -4   43.80   11.40
   3 -10  -4   31.60    8.80
  10  -7   4   26.10   10.50
  -7  -3   4   36.60   10.30
  -3  10   4   38.60   12.90
   2 -10  -4    1.00    6.80
   8   2  -4    5.70    9.10
  10  -8   4   22.10    9.30
  -2  10   4   11.80   11.50
  -8  -2   4    0.10    9.70
   9   1  -4  239.58   22.90
   1 -10  -4  206.98   18.00
  -9  -1   4  234.68   22.50
  10  -9   4  224.08   21.30
  10   0  -4  159.08   20.40
   0 -10  -4  159.48   15.00
 -10   0   4  154.58   18.50
  10 -10   4  162.98   19.50
  11  -1  -4 1630.24   83.79
  -1 -10  -4 1562.54   77.19
   1  10   4 1567.84   78.59
 -11   1   4 1563.24   87.79
  10 -11   4 1651.93   83.59
  10 -11   4 1322.77   84.69
  12  -2  -4   82.29   17.40
  -2 -10  -4   63.59   10.10
  10 -12   4   43.10   12.30
   2  10   4   46.10   11.10
  10 -12   4   64.49   15.80
  13  -3  -4  311.27   29.30
  10 -13   4  273.27   24.70
   3  10   4  290.27   24.30
  10 -13   4  318.27   29.50
  14  -4  -4    7.20   17.80
  10 -14   4   26.30   11.60
   4  10   4   21.30   11.50
  10 -14   4   19.40   15.80
  15  -5  -4  191.78   28.40
   5  10   4  149.69   20.00
  10 -15   4  154.08   23.40
  10 -15   4  192.58   22.80
  16  -6  -4 1443.56   88.99
  10 -16   4 1556.84   84.19
  10 -16   4 1477.05   77.89
   6  10   4 1322.07   78.29
  17  -7  -4   86.09   44.70
  16 -11  -4  122.59   29.00
  11   5   4   96.19   20.50
   5 -16   4  114.79   21.90
   5 -16   4   80.49   25.20
  15 -11  -4   50.79   23.10
   4 -15   4   53.79   17.40
   4 -15   4   66.19   21.10
  14 -11  -4  135.49   24.10
   3 -14   4  119.19   22.20
   3 -14   4  150.58   21.60
  11   3   4  133.99   18.70
  13 -11  -4  319.37   34.20
   2 -13   4  345.07   30.70
   2 -13   4  315.97   31.90
  11   2   4  337.47   28.30
  12 -11  -4  255.67   28.10
  11   1   4  234.78   23.50
   1 -12   4  276.37   26.40
   1 -12   4  228.18   26.70
  11 -11  -4   86.69   17.20
  11   0   4   76.19   12.70
   0 -11   4   88.49   16.00
   1  10  -4 1459.75   83.39
  10 -11  -4 1733.93   83.69
  11  -1   4 1429.76   78.89
  -1 -10   4 1613.84   82.09
   9 -11  -4  491.25   33.10
   2   9  -4  324.47   43.60
  -2  -9   4  489.25   32.90
  11  -2   4  452.65   29.70
   8 -11  -4  122.59   16.20
   8 -11  -4  107.79   16.50
   3   8  -4  113.49   17.80
  11  -3   4   88.79   13.90
   7 -11  -4   22.70    9.90
   4   7  -4   34.20   11.50
   7 -11  -4   25.90    8.20
   7 -11  -4   40.10   11.90
  -4  -7   4   17.40   12.00
  11  -4   4   15.40   10.30
   5   6  -4  766.62   47.50
   6 -11  -4  858.51   41.70
   6 -11  -4  753.12   43.40
   6 -11  -4  752.42   43.00
  11  -5   4  735.03   46.40
  -5  -6   4  788.62   46.60
   5 -11  -4   88.69   12.20
   5 -11  -4  110.69   11.60
   6   5  -4   84.19   14.60
   5 -11  -4   89.09   12.70
   5 -11  -4   99.89   12.00
   6   5  -4   92.79    7.80
  -6  -5   4   83.99   14.40
  11  -6   4  117.39   16.70
   4 -11  -4   30.90    9.00
   4 -11  -4   32.40    6.50
   4 -11  -4   26.20    6.20
   7   4  -4   41.80   12.30
   4 -11  -4   27.30    4.50
  11  -7   4   35.70   11.70
  -7  -4   4   32.20   12.20
   8   3  -4  181.08   21.10
   3 -11  -4  163.58   17.70
  -8  -3   4  192.78   21.70
  11  -8   4  194.28   21.00
   2 -11  -4  128.79   14.20
   9   2  -4  164.38   29.20
  -9  -2   4  169.98   19.00
  11  -9   4  167.68   20.50
   1 -11  -4   18.80    8.10
  10   1  -4    7.30   12.40
 -10  -1   4   30.80   18.90
   0 -11  -4   65.79   10.60
  11   0  -4   96.99   17.50
 -11   0   4   96.59   17.50
  11 -11   4   63.79   14.10
  12  -1  -4  103.59   18.70
  -1 -11  -4  108.99   12.70
  11 -12   4  112.09   17.30
  11 -12   4  110.29   15.50
 -12   1   4   87.79   18.60
  13  -2  -4  151.08   22.70
   2  11   4  132.89   17.20
  11 -13   4  175.58   23.40
  11 -13   4  157.88   18.90
  14  -3  -4  113.79   22.80
  11 -14   4   92.79   16.10
   3  11   4   76.69   15.70
  11 -14   4  130.99   20.80
  15  -4  -4  157.48   27.70
  11 -15   4  188.38   25.50
  16  -5  -4  919.11   62.19
  11 -16   4  847.22   54.29
  11 -16   4  753.92   49.10
   5  11   4  736.53   51.69
  16 -12  -4   -3.60   24.60
   4 -16   4   26.60   23.10
  12   4   4   -6.20   17.50
   4 -16   4   59.39   20.60
  15 -12  -4   -1.20   21.90
   3 -15   4   10.50   17.30
  12   3   4    1.90   16.70
   3 -15   4   20.40   19.20
  14 -12  -4  -12.40   18.70
  12   2   4    7.30   17.10
   2 -14   4   40.00   17.30
   2 -14   4   17.30   17.10
  13 -12  -4  425.36   37.70
   1 -13   4  435.86   37.00
   1 -13   4  447.86   36.10
  12   1   4  425.26   33.70
  12 -12  -4  164.98   21.80
   0 -12   4  125.29   19.40
  12   0   4  111.89   17.10
   1  11  -4  102.59   19.30
  11 -12  -4  111.39   19.70
  12  -1   4  114.39   15.70
  -1 -11   4  123.49   19.10
   2  10  -4   48.30   15.30
  10 -12  -4   55.89   15.20
  12  -2   4   53.89   12.80
  -2 -10   4   61.39   15.30
   3   9  -4    2.60   12.30
   9 -12  -4   23.60   12.80
  -3  -9   4   19.50   13.60
  12  -3   4   25.60   11.40
   8 -12  -4  413.56   31.40
   8 -12  -4  417.86   29.60
   8 -12  -4  382.36   26.50
   4   8  -4  391.96   32.00
  12  -4   4  347.47   29.40
  -4  -8   4  329.67   30.60
   7 -12  -4  111.99   15.50
   7 -12  -4  108.49   15.50
   7 -12  -4   97.39   12.90
   5   7  -4  100.59   18.00
  12  -5   4  105.89   17.10
  -5  -7   4  107.19   17.10
   6   6  -4  495.65   37.10
   6 -12  -4  578.44   34.60
   6 -12  -4  509.75   32.60
   6 -12  -4  585.04   31.40
   6 -12  -4  508.35   33.20
  12  -6   4  524.25   38.00
  -6  -6   4  553.44   37.80
   7   5  -4 2411.56  124.09
   5 -12  -4 2548.84  117.19
   5 -12  -4 2288.27  117.99
   5 -12  -4 2520.45  120.39
   7   5  -4 2384.76  115.19
   5 -12  -4 2313.27  118.19
  -7  -5   4 2502.75  123.69
  12  -7   4 2562.64  124.69
   8   4  -4  207.38   21.90
   4 -12  -4  219.68   20.60
  12  -8   4  224.68   24.60
  -8  -4   4  266.97   25.50
   9   3  -4  968.20   53.99
   3 -12  -4  922.91   49.00
  -9  -3   4  697.23   65.29
   2 -12  -4  325.17   23.60
  10   2  -4  308.37   28.90
 -10  -2   4  318.67   28.90
  12 -10   4  322.67   27.70
  11   1  -4  280.87   28.00
   1 -12  -4  217.08   20.20
 -11  -1   4  238.48   27.00
  12 -11   4  243.78   25.00
  12   0  -4  123.39   21.10
   0 -12  -4  160.48   17.40
  12 -12   4  148.29   20.40
 -12   0   4  114.19   20.00
  13  -1  -4   -6.30   16.60
  -1 -12  -4   10.40    9.90
  12 -13   4   -9.80   14.30
  12 -13   4   15.80   12.60
  14  -2  -4   15.20   18.00
  12 -14   4    3.40   14.60
  12 -14   4   18.30   13.00
   2  12   4    6.00   14.60
  15  -3  -4  144.39   28.00
   3  12   4  107.09   19.20
  12 -15   4   71.29   19.20
  12 -15   4  120.59   18.00
  16  -4  -4  924.91   66.29
  12 -16   4  893.61   54.19
  12 -16   4  940.01   58.49
   4  12   4  831.02   56.39
  16 -13  -4   65.19   28.00
   3 -16   4   51.59   25.90
   3 -16   4   92.49   24.20
  13   3   4  117.29   23.80
  15 -13  -4   43.30   22.70
   2 -15   4   23.80   19.70
   2 -15   4   21.90   22.00
  13   2   4   18.20   19.20
  14 -13  -4   22.90   20.20
   1 -14   4   12.50   18.80
  13   1   4   -7.60   15.60
   1 -14   4    9.50   18.80
  13 -13  -4   25.70   19.00
   0 -13   4    9.80   17.10
  13   0   4   11.20   16.50
   0 -13   4   27.70   16.50
  12 -13  -4   17.40   16.40
   1  12  -4  -11.60   16.90
  -1 -12   4  -13.70   13.80
  -1 -12   4   27.90   17.20
  13  -1   4    3.10   12.90
   2  11  -4  147.59   23.70
  13  -2   4  120.89   18.30
  -2 -11   4  122.89   36.60
  10 -13  -4  379.96   31.60
   3  10  -4  341.87   33.40
  -3 -10   4  367.86   34.20
  13  -3   4  297.07   28.90
   9 -13  -4  576.94   39.20
   4   9  -4  517.65   40.30
  13  -4   4  514.65   38.20
  -4  -9   4  577.34   40.80
   8 -13  -4   51.09   14.20
   5   8  -4   22.90   14.50
  -5  -8   4   76.39   17.40
  13  -5   4   60.09   16.50
   6   7  -4   24.40   14.80
   7 -13  -4   38.90   12.80
  -6  -7   4   53.79   16.30
  13  -6   4   55.39   16.10
   6 -13  -4  180.68   19.80
   7   6  -4  162.78   22.60
   6 -13  -4  170.08   13.70
   6 -13  -4  193.78   20.40
  13  -7   4  195.08   33.10
  -7  -6   4  162.18   33.40
   5 -13  -4   10.90    8.80
   5 -13  -4   -2.70    9.30
   8   5  -4    4.10   13.40
   5 -13  -4    5.50    9.00
   8   5  -4   -1.70    6.00
  -8  -5   4    8.70   15.50
  13  -8   4   -4.90   13.60
   4 -13  -4  217.58   22.30
   9   4  -4  266.97   26.70
  13  -9   4  254.57   27.10
  -9  -4   4  293.67   28.40
   3 -13  -4   20.20    9.80
  10   3  -4    1.00   13.50
  13 -10   4   -5.90   11.90
 -10  -3   4    8.20   12.90
  11   2  -4  386.16   33.10
   2 -13  -4  318.97   25.50
  13 -11   4  392.86   32.70
 -11  -2   4  347.77   31.90
  12   1  -4  456.35   36.20
   1 -13  -4  394.76   28.50
  13 -12   4  432.46   34.70
 -12  -1   4  428.26   36.60
  13   0  -4   30.20   17.90
  13 -13   4    4.60   14.90
  13 -13   4   -3.80   13.10
  14  -1  -4  807.32   55.09
  13 -14   4  822.02   50.49
  13 -14   4  758.12   51.49
  15  -2  -4  -13.00   20.60
  13 -15   4   16.70   16.40
  13 -15   4   38.50   16.20
  16  -3  -4  257.47   45.90
  13 -16   4  248.68   38.20
  13 -16   4  262.17   30.20
  15 -14  -4    6.40   22.70
  14   1   4   67.39   22.00
   1 -15   4    0.40   21.80
   1 -15   4   29.30   22.10
  14 -14  -4   59.39   22.60
   0 -14   4   45.20   21.40
  14   0   4   37.40   19.40
   0 -14   4   68.39   21.40
  13 -14  -4  916.71   57.09
  -1 -13   4  843.22   54.49
  -1 -13   4  812.52   55.89
  14  -1   4  741.13   52.09
  12 -14  -4   -1.20   18.50
   2  12  -4  -20.30   17.60
  -2 -12   4    7.20   18.10
  -2 -12   4  -10.30   15.30
  14  -2   4  -17.00   13.60
   3  11  -4   93.39   21.50
  11 -14  -4  148.59   22.10
  -3 -11   4   67.39   22.10
  14  -3   4   60.89   17.60
   4  10  -4   -3.90   14.90
  10 -14  -4    6.10   16.20
  14  -4   4   24.40   15.50
  -4 -10   4   31.70   18.90
   5   9  -4   12.90   15.80
   9 -14  -4    3.30   14.70
  -5  -9   4    2.40   17.10
  14  -5   4   16.70   16.10
   8 -14  -4   14.80   13.70
   6   8  -4   13.00   13.90
  -6  -8   4  -18.10   15.40
  14  -6   4   11.90   17.60
   7 -14  -4   65.69   13.30
   7 -14  -4   55.59   14.20
   7   7  -4   46.40   16.90
   7 -14  -4   38.70    8.70
  -7  -7   4   51.09   18.50
  14  -7   4   30.70   18.50
   6 -14  -4   53.59   14.70
   6 -14  -4   45.90   12.60
   8   6  -4   34.20   14.50
  -8  -6   4   74.49   18.00
  14  -8   4   38.70   17.60
   5 -14  -4   12.00   10.70
   9   5  -4   10.20   14.20
  -9  -5   4   19.10   15.30
  14  -9   4   29.10   15.80
   4 -14  -4  866.21   50.39
  10   4  -4  943.41   56.39
  14 -10   4  999.40   58.09
 -10  -4   4  851.01   56.09
   3 -14  -4  134.19   15.40
  11   3  -4  115.19   20.70
 -11  -3   4  142.59   21.50
  14 -11   4  136.59   21.60
  12   2  -4   15.10   17.20
 -12  -2   4   40.90   19.70
  14 -12   4   13.80   15.60
  13   1  -4    2.50   16.60
  14 -13   4   12.70   15.90
  14   0  -4   36.90   20.80
  14 -14   4   18.30   15.10
  14 -14   4   33.00   17.20
  15  -1  -4  311.77   41.20
  14 -15   4  316.97   36.40
  14 -15   4  357.86   34.50
  -1 -14   4  318.07   38.30
  -1 -14   4  369.76   42.60
  15  -1   4  348.97   38.70
  13 -15  -4  -13.70   20.50
   2  13  -4    1.20   22.20
  -2 -13   4    0.40   18.70
  -2 -13   4   13.80   22.20
  15  -2   4   -7.80   17.40
  12 -15  -4  164.48   25.60
   3  12  -4   88.29   24.20
  -3 -12   4  152.98   26.00
  -3 -12   4  103.69   21.40
  15  -3   4  106.79   21.80
   4  11  -4  169.98   26.60
  11 -15  -4  247.28   27.60
  -4 -11   4  153.98   26.90
  15  -4   4  169.28   25.30
   5  10  -4  145.99   25.10
  10 -15  -4  239.88   30.00
  -5 -10   4  174.68   25.70
  15  -5   4  132.99   24.40
   9 -15  -4   46.00   18.10
   6   9  -4  104.29   22.30
  15  -6   4   58.59   21.10
  -6  -9   4   77.19   21.30
   8 -15  -4   53.99   16.40
   7   8  -4   49.99   18.20
   8 -15  -4   48.90   14.60
  15  -7   4   52.49   21.30
  -7  -8   4   60.39   20.20
   8   7  -4   31.20   17.20
  15  -8   4   52.29   22.30
  -8  -7   4   21.50   19.00
   9   6  -4  128.59   21.80
   6 -15  -4  125.09   16.90
  -9  -6   4  157.68   22.70
  15  -9   4  132.39   24.80
   5 -15  -4   75.89   13.80
  10   5  -4   80.59   20.00
  15 -10   4   48.30   20.30
 -10  -5   4   70.19   20.80
  11   4  -4   61.69   19.70
   4 -15  -4   56.69   13.70
  15 -11   4   48.80   19.60
 -11  -4   4   72.49   18.80
  12   3  -4   17.80   18.00
  15 -12   4  -14.80   17.00
 -12  -3   4  -30.70   18.70
  13   2  -4   11.20   20.10
  15 -13   4   58.19   19.50
  14   1  -4   18.10   22.40
  15 -14   4   27.70   20.10
  15 -14   4   70.59   20.80
   3  13  -4  376.66   50.49
  13 -16  -4  418.76   44.50
  -3 -13   4  332.07   36.60
  16  -3   4  255.37   33.80
  -3 -13   4  384.36   41.30
   4  12  -4  829.42   62.79
  -4 -12   4 1015.70   61.19
  -4 -12   4 1001.00   64.19
  16  -4   4  787.92   60.69
   5  11  -4  655.93   51.39
  16  -5   4  632.34   50.19
   6  10  -4 1417.66   84.39
  -6 -10   4 1584.74   86.39
  16  -6   4 1358.86   86.39
   7   9  -4   34.30   20.20
   9 -16  -4    1.10   14.90
  16  -7   4  -33.80   21.40
  -7  -9   4   21.60   22.40
   8   8  -4  128.49   24.30
   8 -16  -4  109.49   18.30
  -8  -8   4  118.99   24.10
  16  -8   4   96.79   26.50
   9   7  -4   22.50   19.30
   7 -16  -4    7.40   13.40
  16  -9   4    2.50   23.40
  -9  -7   4   10.20   20.80
  10   6  -4   21.10   18.70
   6 -16  -4   19.20   16.90
 -10  -6   4  -10.00   19.10
  16 -10   4   35.20   24.00
  11   5  -4   88.49   22.40
  16 -11   4   92.19   25.10
 -11  -5   4   91.19   23.30
  12   4  -4   11.00   19.20
 -12  -4   4  -18.70   19.80
  16 -12   4   -9.20   20.00
  13   3  -4   53.29   27.70
  16 -13   4   90.29   25.00
   7  10  -4   64.59   34.60
  17  -7   4   32.40   27.70
   9 -17  -4  260.87   26.00
   8   9  -4  187.28   31.20
  -8  -9   4  219.68   33.20
  17  -8   4  173.58   35.30
   9   8  -4  179.28   30.20
   8 -17  -4  238.68   29.60
  -9  -8   4  212.68   31.10
  17  -9   4  163.18   35.00
  10   7  -4   -5.70   29.50
  17 -10   4   34.00   28.10
   0   0  -5  173.98   11.90
   0   0  -5  184.68   12.30
   0   0   5  171.08   12.00
   0   0   5  158.78   11.20
   0   0   5  169.58   10.70
   0   1  -5  130.09   11.10
   1  -1  -5  137.69   10.70
   1  -1  -5  134.19   10.70
   0   1  -5  120.39    9.60
  -1   0  -5  129.49   10.20
  -1   0  -5  144.39   10.20
   0  -1   5  130.79   10.00
   1   0   5  142.19    8.50
   1   0   5  122.79    9.10
   1   0   5  137.29   10.60
   0  -1   5  144.19   10.50
  -1   1   5  137.69   10.00
   0  -1   5  139.79    9.90
  -1   1  -5  153.08   10.20
   1   0  -5  139.09   11.30
   1   0  -5  139.09   10.80
   1   0  -5  146.59    9.70
  -1   1  -5  131.39   10.70
   0  -1  -5  137.09   10.20
   0  -1  -5  117.99   10.50
  -1   0   5  134.39   10.40
   0   1   5  140.69    8.60
   0   1   5  146.59   11.20
  -1   0   5  149.69   10.40
   1  -1   5  121.19    9.70
   0   1   5  146.89    9.70
   1  -1   5  151.68   10.60
  -1  -1  -5   22.90    4.30
  -1   2  -5   23.70    4.10
   2  -1  -5   35.80    4.70
   2  -1  -5   28.10    6.10
  -1   2  -5   21.10    5.10
   2  -1  -5   35.20    6.00
  -1  -1  -5   29.40    4.60
   1  -2   5   20.10    4.20
   1   1   5   24.10    2.80
   1  -2   5   30.40    5.00
  -2   1   5   25.30    5.20
  -2   1   5   24.90    5.00
   1  -2   5   28.90    4.90
   1   1   5   27.50    5.30
  -2  -1  -5   34.50    5.40
   3  -2  -5   40.30    7.30
  -1   3  -5   49.50    7.30
   3  -2  -5   32.00    6.00
   3  -2  -5   22.40    5.90
  -1   3  -5   30.10    4.40
  -3   2   5   30.50    5.90
   1  -3   5   41.20    5.40
  -3   2   5   42.50    6.60
   1  -3   5   34.50    5.70
   1  -3   5   32.40    5.80
   2   1   5   27.70    4.80
   2   1   5   49.70    6.60
   0   2  -5   12.80    3.60
   2  -2  -5   10.60    4.60
  -2   0  -5   15.70    4.00
   0   2  -5   14.30    5.00
   2  -2  -5   16.60    2.80
   2  -2  -5    9.60    4.50
   0  -2   5   13.70    4.40
   2   0   5   14.30    4.70
   0  -2   5   15.50    4.40
   2   0   5   18.90    4.00
  -2   2   5    7.40    4.20
  -2   2   5   34.70    5.40
   0  -2   5    7.00    3.60
   1   1  -5   34.40    5.60
   1   1  -5   23.30    4.60
  -2   1  -5   27.80    4.70
   1  -2  -5   30.70    5.20
   1   1  -5   28.40    6.60
   1  -2  -5   34.00    5.60
  -1  -1   5   22.90    5.10
  -1  -1   5   36.80    5.80
   2  -1   5   38.20    5.50
  -1   2   5   26.40    4.10
   2  -1   5   20.80    4.30
  -1   2   5   28.20    4.60
   0  -2  -5   17.40    4.60
  -2   2  -5    3.70    4.50
   2   0  -5   15.50    4.50
   2   0  -5   15.90    5.50
  -2   2  -5   13.40    3.80
   2   0  -5   13.10    4.40
  -2   0   5   18.40    5.00
   0   2   5   12.50    4.50
  -2   0   5   11.10    4.40
   2  -2   5   20.80    4.50
   2  -2   5   13.20    4.20
   0   2   5   15.50    2.50
   2  -2   5    8.10    4.10
   0   2   5   11.50    3.50
  -2   3  -5   67.99    6.80
   3  -1  -5   59.89    8.40
  -2   3  -5   60.89    8.10
   3  -1  -5   48.10    7.40
  -1  -2  -5   65.59    7.60
   3  -1  -5   73.09    8.10
  -3   1   5   59.39    8.20
   2  -3   5   64.99    7.20
   2  -3   5   56.49    6.90
   1   2   5   68.59    8.20
   2  -3   5   64.69    8.20
   1   2   5   70.09    6.00
  -3   1   5   77.89    9.10
   4  -2  -5    6.50    6.10
  -2   4  -5   14.20    5.60
  -2  -2  -5   13.80    4.10
   4  -2  -5   -3.40    4.40
   4  -2  -5   -4.90    6.90
  -4   2   5    8.70    5.10
   2   2   5    8.00    4.40
  -4   2   5   -1.30    5.20
   2  -4   5   11.30    4.20
   2   2   5    9.70    2.90
   2  -4   5    4.20    3.60
   2  -4   5    6.60    4.90
   5  -3  -5   12.30    8.40
  -3  -2  -5    9.30    4.10
   5  -3  -5   19.90    6.60
  -2   5  -5   10.80    6.10
   2  -5   5   16.60    5.60
   2  -5   5   16.10    6.30
   2  -5   5   13.10    4.10
  -5   3   5   15.40    5.70
  -5   3   5   14.30    6.40
   3   2   5   10.40    5.10
   3   2   5   19.50    3.50
  -3  -1  -5  239.68   15.30
   4  -3  -5  197.98   16.70
  -1   4  -5  243.78   14.20
   4  -3  -5  235.08   18.00
   4  -3  -5  226.08   16.10
  -1   4  -5  268.57   17.30
   1  -4   5  255.47   16.70
   3   1   5  254.07   15.90
   1  -4   5  237.38   15.60
  -4   3   5  248.88   16.50
  -4   3   5  215.88   16.00
   1  -4   5  274.07   14.90
  -3   0  -5   45.70    6.00
   0   3  -5   54.99    7.90
   3  -3  -5   57.49    6.10
   0   3  -5   50.19    7.70
   0   3  -5   53.99    6.00
   3  -3  -5   54.19    7.40
   3  -3  -5   55.29    8.10
   3   0   5   49.50    6.00
  -3   3   5   55.09    7.20
   0  -3   5   54.49    6.60
   3   0   5   44.90    6.20
   0  -3   5   59.19    7.70
   0  -3   5   39.80    6.10
  -3   3   5   50.09    6.90
   1   2  -5   62.59    7.90
   1   2  -5   59.29    6.80
   2  -3  -5   68.09    8.60
   2  -3  -5   59.59    6.70
   1   2  -5   69.79    9.00
  -3   1  -5   67.89    7.10
  -2   3   5   62.89    7.30
  -1  -2   5   60.59    7.60
  -1  -2   5   49.60    7.00
   3  -1   5   61.79    6.90
  -2   3   5   50.69    6.40
   3  -1   5   58.69    7.10
   1  -3  -5   43.20    6.10
   2   1  -5   34.20    6.20
  -3   2  -5   41.00    5.50
   1  -3  -5   36.20    6.40
   2   1  -5   36.80    5.80
   2   1  -5   34.50    7.30
   3  -2   5   34.20    5.50
  -1   3   5   40.00    5.20
   3  -2   5   36.40    5.40
  -2  -1   5   38.20    6.10
  -1   3   5   36.90    5.30
  -2  -1   5   34.80    5.90
   0  -3  -5   48.30    5.30
   3   0  -5   51.99    7.60
   3   0  -5   42.70    8.40
   0  -3  -5   58.99    7.60
   3   0  -5   49.99    7.50
   3  -3   5   56.19    6.70
  -3   0   5   63.79    8.30
  -3   0   5   40.80    7.00
   3  -3   5   41.50    6.40
   0   3   5   66.59    8.50
   0   3   5   58.89    4.70
   0   3   5   51.09    5.60
   4  -1  -5  146.49   15.00
  -1  -3  -5  154.58   12.00
   4  -1  -5  160.28   13.80
   4  -1  -5  150.08   13.80
   3  -4   5  146.09   11.20
   3  -4   5  154.48   11.80
   1   3   5  162.18    9.50
   3  -4   5  139.29   12.80
  -4   1   5  178.28   14.30
   1   3   5  194.98   13.00
  -4   1   5  155.48   12.70
   5  -2  -5  236.68   20.90
   5  -2  -5  247.78   19.40
  -2  -3  -5  242.58   16.40
   2   3   5  257.47   17.00
  -5   2   5  256.57   19.10
   3  -5   5  256.17   17.10
   3  -5   5  243.08   18.20
  -5   2   5  273.17   18.10
   3  -5   5  268.57   15.80
   2   3   5  256.77   13.50
   6  -3  -5   21.40    8.70
   6  -3  -5   52.89   11.90
  -3  -3  -5   29.10    5.70
   3  -6   5   27.70    6.50
   3  -6   5   42.50    5.90
   3   3   5   28.50    3.50
   3   3   5   29.10    6.80
  -6   3   5   36.70    7.70
   3  -6   5   26.10    8.50
  -6   3   5   28.10    8.80
  -4  -3  -5   83.39    9.40
   7  -4  -5  102.59   13.50
   7  -4  -5   90.39   15.80
  -7   4   5   73.19    9.80
   4   3   5   78.09    5.00
   3  -7   5   79.39    9.40
   4   3   5   73.19    6.30
   3  -7   5   69.09   12.00
  -7   4   5   49.10   10.90
   3  -7   5   80.59   10.90
   4   3   5   83.19   10.00
  -4  -2  -5  123.69   11.80
   6  -4  -5  201.18   16.80
  -2   6  -5  164.28   14.70
   6  -4  -5  153.78   18.80
   2  -6   5  140.59   12.50
  -6   4   5  148.49   14.70
   4   2   5  155.28   10.30
   2  -6   5  171.18   15.60
   2  -6   5  136.89   10.70
  -6   4   5  157.38   13.30
   4   2   5  162.28   13.00
   5  -4  -5   25.00    9.20
  -1   5  -5   16.30    6.90
   5  -4  -5   27.00    7.60
  -4  -1  -5   32.00    5.50
  -5   4   5   37.00    7.30
   4   1   5   42.00    6.80
  -5   4   5   27.40    6.40
   1  -5   5   32.40    7.40
   1  -5   5   20.50    4.40
   4   1   5   29.20    4.50
   1  -5   5   25.20    6.30
   0   4  -5    4.00    5.80
  -4   0  -5    3.60    3.50
   4  -4  -5    7.30    6.50
   0   4  -5    2.20    5.40
   4  -4  -5   -4.90    5.90
   0   4  -5    3.70    2.90
   4  -4  -5    8.50    5.70
   4   0   5   -2.30    4.30
  -4   4   5   11.90    5.00
   0  -4   5   -0.80    4.10
   0  -4   5   -3.00    4.80
  -4   4   5    2.40    4.10
   0  -4   5    2.90    3.60
   4   0   5   -0.60    3.50
   3  -4  -5  165.08    9.30
   1   3  -5  145.59   13.80
   3  -4  -5  163.48   12.00
   3  -4  -5  141.59   12.80
   1   3  -5  157.58   10.60
   1   3  -5  156.28   12.90
   4  -1   5  149.69   11.40
  -1  -3   5  145.89   12.20
  -3   4   5  160.18   11.50
  -3   4   5  163.78   11.30
  -1  -3   5  153.88   12.30
   4  -1   5  166.28   12.00
   2   2  -5    7.30    3.60
   2   2  -5   24.90    6.80
   2   2  -5   18.10    5.20
   2  -4  -5   12.10    4.90
  -2   4   5    4.60    3.50
  -2  -2   5   19.80    5.60
  -2   4   5    7.50    3.60
   4  -2   5   11.90    4.60
  -2  -2   5    9.80    5.20
   4  -2   5    8.50    4.90
   3   1  -5  265.87   17.20
   1  -4  -5  260.47   14.10
   3   1  -5  265.97   18.20
   3   1  -5  241.88   16.30
   1  -4  -5  196.78   16.00
  -1   4   5  230.98   13.70
   4  -3   5  263.77   15.90
  -3  -1   5  264.47   17.40
   4  -3   5  239.68   16.10
  -3  -1   5  231.48   17.20
  -1   4   5  250.87   13.80
   4   0  -5   -5.40    7.40
   4   0  -5    4.90    5.20
   4   0  -5   11.80    6.00
   0  -4  -5   -2.00    4.10
   0   4   5   10.60    2.50
   4  -4   5    3.00    4.60
   0   4   5    1.50    2.40
   4  -4   5    0.90    4.20
  -4   0   5    4.40    5.90
  -4   0   5   -2.00    4.70
  -1  -4  -5 2635.94  128.79
   5  -1  -5 2455.35  130.89
   5  -1  -5 2574.74  131.39
   4  -5   5 2507.95  129.89
  -5   1   5 2783.32  130.89
   1   4   5 2777.12  125.59
  -5   1   5 2700.03  130.39
   1   4   5 2812.92  129.19
   4  -5   5 2718.93  129.69
   4  -5   5 2867.01  128.39
  -2  -4  -5  311.57   20.10
   6  -2  -5  294.87   26.30
   6  -2  -5  347.17   24.00
   4  -6   5  321.97   21.60
  -6   2   5  347.57   22.90
  -6   2   5  320.07   22.20
   2   4   5  357.56   16.40
   2   4   5  321.27   20.80
   4  -6   5  346.77   20.00
   4  -6   5  317.97   22.70
  -3  -4  -5   24.20    5.90
   7  -3  -5    8.90    8.70
   7  -3  -5   11.30   12.90
   3   4   5   18.60    2.70
   4  -7   5    5.30    6.30
   4  -7   5   16.00    5.20
  -7   3   5    8.30    7.10
   3   4   5   15.20    6.80
   3   4   5   19.60    2.70
   3   4   5   16.80    2.40
   4  -7   5   21.60    9.10
  -7   3   5   14.40    9.60
  -4  -4  -5  277.97   18.40
   8  -4  -5  324.57   24.00
   4  -8   5  261.47   17.80
   4   4   5  306.87   15.40
   4   4   5  257.37   19.40
   4   4   5  262.77   14.40
  -8   4   5  259.47   20.30
   4  -8   5  286.17   21.30
   4   4   5  287.67   14.80
   9  -5  -5   88.69   14.30
   5   4   5   80.59    8.10
   5   4   5   85.79    7.20
   4  -9   5   71.09   11.80
   5   4   5   94.69    8.60
  -9   5   5   86.09   12.30
   4  -9   5   99.79   10.10
   8  -5  -5   95.89   13.80
  -8   5   5   98.19   11.60
   3  -8   5   92.89    9.50
   5   3   5   80.29    6.90
   3  -8   5   61.99   10.80
   5   3   5   80.69    8.20
   5   3   5   84.79    8.70
   7  -5  -5   81.59   15.40
   7  -5  -5   66.09   11.70
  -7   5   5   43.30    9.70
  -7   5   5   69.19    8.90
   5   2   5   49.90    6.50
   5   2   5   50.59    5.10
   2  -7   5   72.29    7.70
   5   2   5   61.99    8.80
   2  -7   5   48.30    8.10
  -1   6  -5  109.59   12.40
   6  -5  -5  104.59   13.10
   6  -5  -5  139.89   16.00
   5   1   5  105.99    9.70
   5   1   5  107.39    8.90
  -6   5   5  110.99   10.70
   1  -6   5  104.19   11.40
  -6   5   5  114.59   12.50
   1  -6   5  107.69    9.20
   5   1   5  108.39   11.10
   1  -6   5  102.89   14.00
   0   5  -5    7.70    3.10
   5  -5  -5    9.90    6.10
   0   5  -5   -4.30    6.00
   5  -5  -5    4.90    8.40
   0   5  -5    1.00    6.50
   5   0   5   12.00    5.50
  -5   5   5   13.00    5.80
   0  -5   5   10.30    4.30
   0  -5   5   18.30    5.70
   5   0   5    4.60    3.40
  -5   5   5    7.10    4.70
   5   0   5    2.70    4.50
   0  -5   5   12.90    7.00
   1   4  -5 2721.23  128.29
   4  -5  -5 2456.65  127.99
   1   4  -5 2748.53  124.69
   4  -5  -5 2471.55  125.09
   1   4  -5 2697.53  127.49
   4  -5  -5 2548.84  126.59
  -4   5   5 2549.04  125.09
   5  -1   5 2686.43  126.39
  -4   5   5 2688.13  126.09
  -1  -4   5 2672.43  127.69
  -1  -4   5 2637.14  127.19
   5  -1   5 2688.33  124.79
   5  -1   5 2682.13  126.49
   3  -5  -5  251.77   18.40
   2   3  -5  260.87   18.50
   3  -5  -5  254.27   15.80
   2   3  -5  270.47   18.60
   2   3  -5  264.57   15.50
   5  -2   5  254.67   17.00
  -2  -3   5  285.47   19.10
  -3   5   5  254.57   15.70
  -2  -3   5  239.58   17.50
   5  -2   5  245.78   16.90
   3   2  -5   30.70    7.30
   3   2  -5   20.00    8.20
   3   2  -5   20.40    5.00
   2  -5  -5   14.10    3.90
   2  -5  -5   15.00    6.00
  -3  -2   5   16.30    6.20
  -2   5   5   16.20    4.10
   5  -3   5    9.60    5.10
  -2   5   5   15.90    3.20
   5  -3   5   19.40    5.80
  -3  -2   5   28.00    6.80
   4   1  -5   32.00    6.90
   1  -5  -5   29.90    3.80
   1  -5  -5   33.50    7.10
   4   1  -5   33.80    8.10
   4   1  -5   35.50    9.70
  -4  -1   5   26.70    7.50
   5  -4   5   27.70    6.40
  -1   5   5   30.80    3.30
  -1   5   5   32.00    4.40
   5  -4   5   30.00    6.40
  -4  -1   5   32.30    7.50
   5   0  -5   20.00    8.00
   5   0  -5    9.00    8.50
   0  -5  -5   12.30    5.70
  -5   0   5    4.80    6.60
   5  -5   5   17.10    6.00
   0   5   5   12.80    3.00
   5  -5   5    3.60    5.90
  -5   0   5   11.50    6.50
   6  -1  -5  119.79   15.50
  -1  -5  -5  123.99   11.70
   6  -1  -5  109.89   15.00
   1   5   5  121.49   13.00
   1   5   5  136.79    8.10
  -6   1   5  103.09   13.70
   1   5   5  103.49    7.30
   5  -6   5  110.19   12.90
   5  -6   5  131.59   12.60
  -6   1   5  132.69   13.70
   7  -2  -5  169.68   17.90
  -2  -5  -5  142.99   12.30
   2   5   5  152.48   10.80
   2   5   5  145.79   13.90
   2   5   5  114.99    8.20
   5  -7   5  134.49   12.80
   5  -7   5  127.99   16.50
   5  -7   5  118.79   14.20
   5  -7   5  132.89   13.50
  -7   2   5  146.19   15.30
   8  -3  -5  329.87   25.40
  -3  -5  -5  310.47   19.90
   3   5   5  341.27   21.90
   5  -8   5  327.77   20.70
   5  -8   5  289.27   22.70
   3   5   5  318.17   17.20
  -8   3   5  300.17   23.00
   5  -8   5  323.97   22.90
  -4  -5  -5  109.29   11.70
   9  -4  -5   81.09   14.60
   4   5   5  112.19    9.50
   5  -9   5  114.79   13.00
   5  -9   5  124.09   14.40
   5  -9   5   97.99   13.40
  -9   4   5  150.88   16.10
  10  -5  -5  484.95   33.50
   5 -10   5  440.76   30.70
   5   5   5  476.95   25.60
   5 -10   5  420.76   30.40
   5 -10   5  449.36   27.30
  11  -6  -5   37.70   13.80
   5 -11   5   33.20    8.90
   6   5   5   18.90    4.50
   6   5   5   30.60    7.10
   6   5   5   35.30    5.40
   5 -11   5   16.00   10.60
  10  -6  -5    6.50   10.40
   4 -10   5    6.20    8.90
   6   4   5    5.10    5.30
   4 -10   5    3.70    6.70
   4 -10   5    4.60    9.30
   6   4   5    4.30    5.40
   9  -6  -5  182.18   21.40
   6   3   5  184.18   13.70
   6   3   5  221.08   14.20
   3  -9   5  229.48   14.80
   3  -9   5  212.78   18.80
   8  -6  -5  100.69   21.20
   8  -6  -5  131.09   16.20
   2  -8   5   87.69    9.20
   6   2   5  111.99   10.30
   6   2   5   89.39    8.00
   2  -8   5   87.19   12.00
   7  -6  -5  295.27   22.20
   7  -6  -5  254.27   25.40
   1  -7   5  270.77   18.90
   1  -7   5  282.77   16.40
   6   1   5  274.97   15.60
  -7   6   5  250.07   19.80
   6  -6  -5  218.48   18.50
   6  -6  -5  216.48   21.10
   0   6  -5  200.68   17.90
   0  -6   5  191.98   16.90
   0  -6   5  193.58   15.90
   6   0   5  222.58   14.60
  -6   6   5  221.18   16.50
   1   5  -5  119.99   13.60
   5  -6  -5  122.89   13.60
   1   5  -5  120.99    8.30
   1   5  -5   86.99   11.50
   5  -6  -5  108.99   12.60
  -1  -5   5  117.39   11.60
  -5   6   5  124.59   11.00
   6  -1   5  102.49   12.70
   6  -1   5  104.69   11.10
  -1  -5   5  103.79   12.90
   4  -6  -5  321.47   20.50
   2   4  -5  312.67   22.30
   4  -6  -5  335.27   22.50
   4  -6  -5  348.87   17.60
   4  -6  -5  304.77   18.30
   2   4  -5  308.07   19.00
   2   4  -5  344.17   22.90
  -2  -4   5  325.47   21.80
  -4   6   5  357.66   19.80
  -2  -4   5  341.57   23.20
   6  -2   5  330.97   21.50
   6  -2   5  337.77   20.70
   3  -6  -5   30.20    6.00
   3   3  -5   23.60    9.00
   3  -6  -5   26.50    6.90
   3   3  -5   25.60    8.20
   3   3  -5   26.20    5.10
  -3  -3   5   19.50    7.20
   6  -3   5   25.70    6.90
   6  -3   5   25.20    6.80
   6  -3   5   23.80    5.90
  -3  -3   5   26.40    7.80
  -3   6   5   31.10    5.30
   2  -6  -5  152.28   14.00
   4   2  -5  154.68   15.50
   4   2  -5  140.79   12.50
   4   2  -5  144.49   16.30
   2  -6  -5  168.98    9.80
  -4  -2   5  133.89   15.50
   6  -4   5  137.59   14.10
   6  -4   5  158.88   14.40
  -2   6   5  157.68   10.90
  -4  -2   5  137.39   14.50
   6  -4   5  172.08   13.30
   5   1  -5   97.49   15.10
   5   1  -5  105.29   13.20
   1  -6  -5  107.79   12.00
   5   1  -5  109.49   14.40
   6  -5   5   91.49   11.50
   6  -5   5  109.89   12.40
  -1   6   5  124.79    9.30
  -5  -1   5  115.99   15.30
   6  -5   5  121.09   11.80
  -5  -1   5  115.69   13.00
   0  -6  -5  218.78   16.70
   6   0  -5  218.38   20.00
  -6   0   5  223.18   19.40
   0   6   5  242.48   15.30
   6  -6   5  215.18   17.00
   6  -6   5  220.98   18.00
   6  -6   5  222.48   17.20
  -6   0   5  200.88   18.20
  -1  -6  -5  339.07   21.50
   7  -1  -5  329.37   25.70
   6  -7   5  309.17   23.20
  -7   1   5  337.97   23.80
   1   6   5  399.96   21.20
   6  -7   5  342.97   24.00
   1   6   5  328.27   18.40
   6  -7   5  343.87   22.90
   8  -2  -5  441.46   28.50
  -2  -6  -5  334.57   22.00
   2   6   5  364.46   24.70
   6  -8   5  348.67   25.10
   6  -8   5  375.36   25.30
   6  -8   5  388.76   24.10
  -8   2   5  336.87   25.80
   2   6   5  323.07   19.20
   9  -3  -5  177.78   20.60
  -3  -6  -5  154.38   14.20
   6  -9   5  182.38   17.40
   3   6   5  136.49   14.70
   6  -9   5  181.18   17.30
   6  -9   5  196.68   18.10
  -9   3   5  156.08   17.60
  10  -4  -5   74.69   14.30
   6 -10   5   68.69   12.20
   4   6   5   80.49    9.50
   6 -10   5   68.19   13.90
   6 -10   5   48.90   10.60
 -10   4   5   75.59   14.10
  11  -5  -5   25.10   12.50
   5   6   5    3.80    6.00
   6 -11   5   14.60    9.10
   6 -11   5   16.10   10.70
   6 -11   5    7.40   15.80
  12  -6  -5   62.39   15.80
   6 -12   5   56.69   14.20
   6   6   5   52.49   10.10
   6 -12   5   57.89   16.30
  13  -7  -5  179.48   24.40
   6 -13   5  162.88   20.50
   6 -13   5  199.98   25.40
   7   6   5  209.68   19.20
  12  -7  -5  112.69   18.80
   7   5   5  111.89   12.20
   5 -12   5   87.59   16.50
   5 -12   5   96.99   18.00
  11  -7  -5   91.49   17.20
   4 -11   5   56.59   18.40
   4 -11   5   85.49   10.00
   4 -11   5   82.19   14.30
   7   4   5   76.79    9.70
   7   4   5   90.19   11.60
  10  -7  -5  149.59   18.70
   7   3   5  125.49   12.00
   7   3   5  121.39   13.20
   3 -10   5  137.59   16.20
   3 -10   5  139.39   12.00
   9  -7  -5  -10.70    9.40
   7   2   5   12.30    6.50
   2  -9   5   -1.60    7.50
   7   2   5   13.00    5.10
   2  -9   5    6.30    5.10
   8  -7  -5   -1.20    8.80
   8  -7  -5  -15.90   14.00
   1  -8   5    4.60    6.40
   7   1   5    4.40    4.60
   1  -8   5    6.40    7.80
   7  -7  -5   53.89   11.00
   0   7  -5   53.69   11.80
   7  -7  -5   75.59   14.90
   0  -7   5   63.29    9.70
   7   0   5   47.70    7.20
  -7   7   5   74.69   11.60
   6  -7  -5  339.47   23.40
   6  -7  -5  320.57   25.50
   1   6  -5  325.47   24.10
  -6   7   5  332.17   21.30
   7  -1   5  325.27   21.30
  -1  -6   5  327.97   22.10
   2   5  -5  126.09   15.00
   5  -7  -5  186.98   16.30
   2   5  -5  135.79    9.20
   5  -7  -5  125.99   13.70
  -2  -5   5  139.69   14.20
   7  -2   5  147.59   14.20
  -5   7   5  130.89   12.60
   3   4  -5   16.40    5.20
   4  -7  -5   17.80    4.10
   4  -7  -5   25.10    7.50
   4  -7  -5   11.00    3.00
   3   4  -5   11.60    7.40
   4  -7  -5   13.10    6.00
  -3  -4   5    8.30    6.40
   7  -3   5   12.20    6.90
  -4   7   5   16.70    5.40
  -3  -4   5   24.20   16.10
   3  -7  -5  105.59   12.20
   4   3  -5   88.19   12.40
   4   3  -5   72.19    9.00
   3  -7  -5   73.49    7.70
  -4  -3   5   83.19   11.50
   7  -4   5   69.09   10.00
  -4  -3   5   82.49   18.70
  -3   7   5   90.69    9.70
   5   2  -5   43.50   10.30
   5   2  -5   55.59    8.30
   2  -7  -5   54.39    9.50
   7  -5   5   53.19   10.00
  -5  -2   5   71.69   10.90
  -2   7   5   66.09    7.80
   7  -5   5   67.29   10.20
   1  -7  -5  289.47   20.90
   6   1  -5  292.17   24.10
  -6  -1   5  306.57   22.10
   7  -6   5  254.07   21.50
  -1   7   5  370.76   19.90
   7  -6   5  306.37   21.90
   7   0  -5   52.19   12.10
   0  -7  -5   56.69    8.80
   0   7   5   65.59    9.20
   7  -7   5   56.29   11.00
  -7   0   5   68.59   12.10
   7  -7   5   45.20   10.20
   8  -1  -5  145.69   18.20
  -1  -7  -5  152.48   13.60
   7  -8   5  134.89   15.80
   1   7   5  139.19   11.40
   1   7   5  159.88   15.20
   7  -8   5  134.89   16.60
  -8   1   5  172.48   18.00
  -2  -7  -5    0.90    5.70
   9  -2  -5    1.00    9.70
   2   7   5    9.90    4.80
   7  -9   5   20.40    9.50
  -9   2   5   13.70    9.10
   7  -9   5   -6.60    8.70
  10  -3  -5    0.40   11.10
  -3  -7  -5   -3.30    5.90
   7 -10   5   13.50   10.60
   7 -10   5    5.90    9.30
 -10   3   5   -6.40    9.00
   3   7   5    4.70    5.30
  11  -4  -5   63.09   14.70
   4   7   5   58.89    8.50
   7 -11   5   49.50   12.20
 -11   4   5   50.99   13.20
  12  -5  -5  282.37   28.40
   5   7   5  245.48   19.30
   7 -12   5  257.17   27.30
   7 -12   5  251.77   24.90
  13  -6  -5  103.29   20.60
   7 -13   5   66.19   18.00
   7 -13   5   55.89   14.60
   6   7   5   73.69   11.80
  14  -7  -5  149.39   24.80
   7 -14   5  144.69   23.50
   7   7   5  141.89   16.60
   7 -14   5  140.89   22.70
  15  -8  -5  666.13   50.89
   7 -15   5  524.35   40.10
   7 -15   5  586.34   47.60
   8   7   5  528.15   38.00
  14  -8  -5   58.19   21.40
   6 -14   5   62.79   20.10
   6 -14   5   74.39   17.00
   8   6   5   82.59   14.10
  13  -8  -5  289.27   32.10
   5 -13   5  223.28   29.30
   8   5   5  285.77   22.40
  12  -8  -5    5.70   14.90
   8   4   5   -0.70    7.30
   4 -12   5    5.20   12.30
   4 -12   5    6.70   11.40
  11  -8  -5   20.40   13.50
   3 -11   5    8.60   11.90
   8   3   5   25.30    7.60
   8   3   5   29.90    9.40
   3 -11   5   22.50   10.70
  10  -8  -5   -3.40   11.30
   8   2   5    5.00    8.20
   2 -10   5   12.10    5.30
   2 -10   5   -3.50    8.10
   8   2   5    0.40    5.80
   9  -8  -5   26.30   11.50
   8   1   5   12.20    5.90
   8   1   5   30.50    8.80
   1  -9   5   27.20    9.50
   8  -8  -5  256.27   26.40
   8  -8  -5  187.58   20.50
   0   8  -5  210.98   20.80
   0  -8   5  170.08   17.60
   8   0   5  170.18   13.60
   7  -8  -5  170.08   17.70
   7  -8  -5  178.78   19.30
   1   7  -5  141.49   17.50
  -1  -7   5  142.69   16.00
   8  -1   5  139.29   13.50
   6  -8  -5  351.26   24.30
   2   6  -5  350.16   26.20
   6  -8  -5  367.76   26.40
  -6   8   5  378.16   24.10
   8  -2   5  362.16   23.60
  -2  -6   5  321.57   24.30
   5  -8  -5  336.57   18.20
   5  -8  -5  288.67   20.40
   3   5  -5  338.97   25.00
   5  -8  -5  303.47   22.10
   3   5  -5  326.77   17.20
   5  -8  -5  291.97   22.70
  -3  -5   5  304.87   23.20
   8  -3   5  303.17   22.50
  -5   8   5  364.86   21.60
   4  -8  -5  257.17   17.40
   4   4  -5  288.27   16.40
   4  -8  -5  263.07   20.70
   4   4  -5  290.07   23.30
  -4   8   5  291.57   19.30
   8  -4   5  269.87   21.60
  -4  -4   5  260.57   21.10
   3  -8  -5  109.49   12.90
   5   3  -5   94.99   10.30
   3  -8  -5   90.29    7.50
   5   3  -5   77.39   13.80
  -3   8   5  108.49   11.40
   8  -5   5   76.49   12.10
  -5  -3   5   78.19   13.00
   2  -8  -5  100.59   12.40
   6   2  -5   89.59   14.50
  -6  -2   5  113.89   14.90
   8  -6   5   99.09   13.60
  -2   8   5  114.29   13.70
   7   1  -5   -1.60    8.80
   1  -8  -5   18.50    7.60
  -7  -1   5    9.20    8.40
   8  -7   5    2.30    8.30
   8  -7   5    5.10    8.50
  -1   8   5    9.10    7.50
   8   0  -5  184.68   20.90
   0  -8  -5  210.88   16.70
   0   8   5  193.48   18.60
   8  -8   5  177.78   19.20
  -8   0   5  189.18   19.80
   8  -8   5  209.78   19.40
   9  -1  -5   29.60   11.40
  -1  -8  -5   17.00    7.10
   1   8   5   15.80    5.80
   8  -9   5   11.00   10.00
   8  -9   5   26.00   10.30
  -9   1   5   15.20   10.50
  10  -2  -5  378.66   29.90
  -2  -8  -5  353.56   23.30
   8 -10   5  373.86   28.80
   2   8   5  322.57   21.20
 -10   2   5  340.37   27.70
   8 -10   5  372.16   27.30
  -3  -8  -5  542.45   30.30
 -11   3   5  405.46   40.40
   8 -11   5  477.95   37.10
   3   8   5  485.05   28.20
  12  -4  -5   -3.60   13.70
   8 -12   5   14.30   11.40
   8 -12   5   13.30   14.40
   4   8   5   -2.50    7.10
  13  -5  -5   16.60   16.10
   8 -13   5   19.30   15.60
   8 -13   5   21.80   12.80
   5   8   5   11.10    9.40
  14  -6  -5   -1.00   18.30
   8 -14   5   14.60   12.60
   8 -14   5   20.10   17.50
   6   8   5    5.40   10.90
  15  -7  -5  -14.20   20.60
   8 -15   5   14.20   19.50
   8 -15   5    0.50   13.10
   7   8   5    8.60   13.30
  16  -8  -5   44.20   26.30
   8 -16   5   -5.50   21.40
   8 -16   5    7.00   16.20
  16  -9  -5   55.59   27.50
   7 -16   5   37.50   18.40
   7 -16   5   39.60   24.00
  15  -9  -5   27.80   21.40
   6 -15   5   36.00   17.10
   6 -15   5   31.70   20.30
   9   6   5   61.09   16.50
  14  -9  -5  161.78   26.70
   5 -14   5  193.58   27.20
   9   5   5  226.18   22.50
   5 -14   5  206.88   23.20
  13  -9  -5  121.49   22.50
   9   4   5  176.58   19.10
   4 -13   5  153.88   22.60
   4 -13   5  171.38   22.00
  12  -9  -5   33.20   17.40
   3 -12   5   14.40   21.70
   3 -12   5   26.20   14.50
   9   3   5   54.99   10.60
  11  -9  -5    8.20   13.30
   9   2   5   29.70   11.00
   9   2   5    7.00    7.80
   2 -11   5   22.70   12.10
  10  -9  -5    4.50   11.80
   9   1   5    0.00    9.50
   9   1   5   -0.90    6.40
   1 -10   5   -8.70    8.90
   0   9  -5  471.25   33.90
   9  -9  -5  485.85   33.10
   0  -9   5  465.85   30.80
   9   0   5  426.96   26.40
   9   0   5  443.06   30.10
   1   8  -5   21.50   11.20
   8  -9  -5   37.30   14.50
   8  -9  -5   17.50   11.00
  -1  -8   5   22.20    9.70
   9  -1   5   12.90    6.90
   7  -9  -5   18.80   12.90
   7  -9  -5   12.30    9.50
   2   7  -5    8.80   10.70
   9  -2   5    5.50    7.20
  -2  -7   5   17.70    8.80
   6  -9  -5  162.18   12.70
   3   6  -5  159.08   19.50
   6  -9  -5  159.48   16.80
   6  -9  -5  161.88   16.50
  -3  -6   5  131.79   16.80
   9  -3   5  165.18   16.80
   4   5  -5  116.89   16.30
   4   5  -5  100.09    7.90
   5  -9  -5  104.49   11.70
   5  -9  -5  113.59    9.70
   5  -9  -5   95.39   12.90
  -4  -5   5   79.99   13.10
   9  -4   5  120.49   14.70
  -5   9   5  111.69   13.70
   5   4  -5   99.99   15.60
   4  -9  -5   81.79    8.30
   4  -9  -5   85.89   12.20
   5   4  -5   87.89    9.70
   9  -5   5   84.09   13.00
  -5  -4   5   86.99   13.50
  -4   9   5   87.59   12.50
   3  -9  -5  234.08   19.60
   6   3  -5  203.88   16.50
   6   3  -5  209.88   22.30
   9  -6   5  201.08   20.90
  -3   9   5  284.27   20.90
  -6  -3   5  186.58   19.80
   7   2  -5    1.00    9.50
   2  -9  -5    8.00    7.70
  -2   9   5    9.20    9.10
  -7  -2   5   -5.60    8.00
   9  -7   5    4.10    8.90
   8   1  -5   33.00   12.00
   1  -9  -5   30.00    9.00
  -1   9   5   36.70   11.50
   9  -8   5   43.40   11.30
   9  -8   5   14.80    9.90
  -8  -1   5   16.10   10.20
   9   0  -5  462.95   32.80
   0  -9  -5  438.76   28.00
   9  -9   5  479.35   32.90
   9  -9   5  460.95   31.40
  -9   0   5  444.76   32.30
  -1  -9  -5   19.00    7.90
  10  -1  -5   28.70   13.20
 -10   1   5   17.40   11.70
   1   9   5   15.60    7.40
   9 -10   5    3.30   11.60
   9 -10   5   17.50   10.40
  -2  -9  -5  177.68   17.70
  11  -2  -5  177.48   22.40
   9 -11   5  194.68   21.50
   9 -11   5  172.58   21.30
 -11   2   5  177.08   20.70
   2   9   5  189.28   16.50
  12  -3  -5  132.49   19.90
   9 -12   5  135.19   17.10
   3   9   5   98.19   12.60
   9 -12   5   99.09   17.80
 -12   3   5  116.49   19.50
  13  -4  -5  168.38   24.00
   9 -13   5  130.89   18.20
   4   9   5  160.28   18.80
   9 -13   5  159.68   23.50
  14  -5  -5   39.20   20.40
   9 -14   5   23.60   13.00
   5   9   5   44.00   12.50
   9 -14   5  -10.10   17.20
  15  -6  -5   83.19   24.50
   9 -15   5   87.59   16.80
   6   9   5  107.69   18.00
   9 -15   5   88.59   22.90
  16  -7  -5   65.49   28.70
   9 -16   5   39.30   21.10
   9 -16   5   37.40   16.00
  16 -10  -5   36.80   27.60
   6 -16   5   59.49   20.70
   6 -16   5   94.99   27.10
  15 -10  -5  140.39   28.30
   5 -15   5  151.98   23.90
  10   5   5  176.28   23.50
   5 -15   5  182.68   28.10
  14 -10  -5   74.39   22.00
   4 -14   5   53.59   17.10
  10   4   5   80.19   15.30
   4 -14   5   73.29   21.30
  13 -10  -5   44.80   19.70
   3 -13   5   50.99   15.80
  10   3   5   76.69   14.20
   3 -13   5   41.40   16.80
  12 -10  -5  400.66   35.00
   2 -12   5  418.56   33.60
  10   2   5  404.76   28.70
   2 -12   5  449.16   34.70
  11 -10  -5   20.70   14.70
  10   1   5   40.60   10.40
   1 -11   5   42.30   17.00
  10 -10  -5  230.48   26.00
  10   0   5  244.38   19.40
   0 -10   5  249.18   24.00
   1   9  -5    3.40   13.30
   9 -10  -5   13.10   12.10
  10  -1   5   16.90    8.20
  -1  -9   5   22.30   10.60
   8 -10  -5  330.67   27.20
   2   8  -5  358.76   29.40
   8 -10  -5  321.47   30.90
  -2  -8   5  354.36   27.50
  10  -2   5  342.67   23.70
   7 -10  -5   15.70    9.90
   7 -10  -5   10.80    6.90
   7 -10  -5   15.00   13.50
   3   7  -5    7.90   10.90
  -3  -7   5   11.60   11.10
  10  -3   5    5.40    8.70
   6 -10  -5   67.99   10.60
   6 -10  -5   68.69    8.40
   6 -10  -5   56.59   12.20
   4   6  -5   63.49   14.30
   4   6  -5   68.49    5.20
  10  -4   5   55.19   12.30
  -4  -6   5   46.30   12.50
   5   5  -5  446.56   23.10
   5   5  -5  467.55   33.40
   5 -10  -5  443.46   26.10
   5 -10  -5  452.15   23.50
   5 -10  -5  441.66   29.50
   5 -10  -5  436.86   25.30
  10  -5   5  455.55   30.90
  -5  -5   5  409.96   31.20
   6   4  -5   -0.80    4.90
   6   4  -5   16.30   11.30
   4 -10  -5   -2.10    4.10
   4 -10  -5   -2.00    8.10
  -6  -4   5   22.90   11.00
  10  -6   5   -0.30    9.20
  -4  10   5   -2.20   11.40
   7   3  -5  128.79   14.50
   7   3  -5  118.39   17.40
   3 -10  -5  142.49   16.60
  -7  -3   5  139.99   18.30
  10  -7   5  135.99   18.50
  -3  10   5  177.08   21.50
   2 -10  -5    6.30    8.10
   8   2  -5  -11.10   11.10
  10  -8   5    1.10   10.10
  -2  10   5   -3.20   12.40
  -8  -2   5    9.50   11.00
   9   1  -5   10.50   15.60
   1 -10  -5   15.20    8.20
  10  -9   5   -0.50    9.50
  10  -9   5    1.00   10.40
  -9  -1   5    7.30   11.50
  10   0  -5  248.08   26.10
   0 -10  -5  239.98   20.90
  10 -10   5  281.27   24.50
  10 -10   5  238.98   34.00
 -10   0   5  259.87   26.20
  11  -1  -5   61.99   15.80
  -1 -10  -5   63.39   10.80
  10 -11   5   45.20   14.90
  10 -11   5   44.00   13.90
 -11   1   5   56.79   14.20
  12  -2  -5   46.50   17.80
  -2 -10  -5   53.99   11.60
  10 -12   5   66.69   14.20
 -12   2   5   62.99   15.40
   2  10   5   65.49   12.00
  10 -12   5   55.19   16.10
  13  -3  -5   26.00   16.40
  10 -13   5   28.00   12.70
  10 -13   5   12.70   15.70
   3  10   5   33.00   11.60
  14  -4  -5  339.17   35.40
  10 -14   5  233.28   28.60
   4  10   5  227.28   24.30
  10 -14   5  211.88   25.50
  15  -5  -5   16.20   22.70
  10 -15   5  -19.30   17.70
   5  10   5   12.70   15.40
  10 -15   5   22.10   14.60
  16  -6  -5   45.30   28.80
  10 -16   5   36.00   22.00
  10 -16   5   52.79   16.50
  16 -11  -5   55.89   28.20
   5 -16   5   -1.80   19.70
   5 -16   5   20.90   24.20
  15 -11  -5  231.48   32.20
   4 -15   5  238.68   28.20
   4 -15   5  250.57   32.10
  14 -11  -5   86.09   24.30
  11   3   5  120.59   18.60
   3 -14   5  183.98   24.10
   3 -14   5  121.59   23.30
  13 -11  -5  145.79   24.20
   2 -13   5  157.58   23.60
  11   2   5  151.68   19.20
   2 -13   5  139.39   21.40
  12 -11  -5   98.89   20.70
   1 -12   5   99.69   18.60
  11   1   5  113.39   15.50
   1 -12   5   89.79   18.40
  11 -11  -5   80.59   18.30
   0 -11   5   84.99   16.60
  11   0   5   62.69   12.80
   1  10  -5   62.49   16.50
  10 -11  -5   44.90   15.70
  -1 -10   5   30.70   13.50
  11  -1   5   54.49   11.30
   2   9  -5  198.18   25.00
   9 -11  -5  196.08   24.60
  -2  -9   5  182.98   21.80
  11  -2   5  200.88   20.00
   8 -11  -5  509.55   35.60
   8 -11  -5  560.54   38.70
   3   8  -5  512.25   36.90
   8 -11  -5  558.94   31.80
  11  -3   5  485.65   33.50
  -3  -8   5  548.25   37.50
   4   7  -5   67.29   29.10
   7 -11  -5   45.40   14.80
   7 -11  -5   58.19    9.20
   7 -11  -5   51.89   12.30
  -4  -7   5   49.10   14.70
  11  -4   5   51.99   12.80
   5   6  -5   11.60   21.60
   6 -11  -5   23.70    8.90
   6 -11  -5   18.50   10.70
   6 -11  -5   12.50    6.90
   6 -11  -5   16.80    9.40
  11  -5   5    9.50   10.90
  -5  -6   5   25.20   11.60
   5 -11  -5   22.00    4.50
   5 -11  -5   12.70    9.50
   6   5  -5   21.90    4.80
  -6  -5   5   53.79   14.20
  11  -6   5   18.40   11.60
   4 -11  -5   49.99   12.00
   7   4  -5   80.59    9.00
  -7  -4   5   80.09   14.60
  11  -7   5   89.99   15.90
   3 -11  -5    7.60    9.60
   8   3  -5   23.10   12.60
  -8  -3   5   31.80   15.20
  11  -8   5   21.60   11.50
   2 -11  -5  -12.40    8.70
   9   2  -5   12.20   12.80
  11  -9   5   11.90   11.50
  -9  -2   5  -11.90   11.10
  10   1  -5   48.80   14.40
   1 -11  -5   57.19   11.20
  11 -10   5   55.39   15.10
  11 -10   5   29.10   12.90
 -10  -1   5   15.90   14.10
   0 -11  -5   68.19   12.50
  11   0  -5   61.19   17.10
 -11   0   5   83.69   17.00
  11 -11   5   60.69   14.30
  11 -11   5   58.59   15.90
  -1 -11  -5   78.49   13.00
  12  -1  -5   46.50   17.80
  11 -12   5   91.89   17.10
  11 -12   5  113.99   19.50
 -12   1   5   76.19   18.10
  13  -2  -5    1.60   16.90
  11 -13   5   20.10   13.00
  11 -13   5   26.40   16.30
  14  -3  -5  390.86   40.40
   3  11   5  392.76   31.30
  11 -14   5  413.36   36.70
  11 -14   5  409.36   32.90
  15  -4  -5   31.60   23.10
  11 -15   5  -23.00   16.70
  11 -15   5  -11.00   14.70
   4  11   5  -51.09   18.50
  16  -5  -5   -3.50   27.40
  11 -16   5   44.20   16.50
  11 -16   5  -25.30   20.60
  15 -12  -5    3.50   23.70
   3 -15   5    3.30   21.40
   3 -15   5   75.19   21.30
  14 -12  -5  506.95   43.30
   2 -14   5  414.36   40.00
   2 -14   5  372.26   38.50
  12   2   5  344.77   34.70
  13 -12  -5  149.59   24.80
   1 -13   5  136.29   23.20
  12   1   5  131.89   19.80
   1 -13   5  195.78   25.10
  12 -12  -5  186.58   25.10
  12   0   5  139.49   18.10
   0 -12   5  133.99   21.50
   1  11  -5  109.99   20.70
  11 -12  -5   66.79   18.70
  12  -1   5   77.59   14.60
  -1 -11   5   92.79   19.50
   2  10  -5   77.99   17.40
  10 -12  -5   99.39   18.80
  12  -2   5   57.89   13.50
  -2 -10   5   89.49   18.60
   3   9  -5  108.89   19.90
   9 -12  -5  114.29   18.10
  12  -3   5  101.79   15.80
  -3  -9   5   97.39   21.70
   4   8  -5   -5.90   13.90
   8 -12  -5   -8.70   11.80
  12  -4   5  -14.50   10.90
   7 -12  -5  207.38   22.80
   5   7  -5  263.57   28.50
   7 -12  -5  224.48   21.90
  12  -5   5  242.98   25.50
   6 -12  -5   56.19   10.00
   6 -12  -5   35.00   11.30
   6   6  -5   49.00   16.30
  12  -6   5   39.50   13.70
   5 -12  -5   91.19    7.90
   5 -12  -5   76.39   13.70
   7   5  -5  103.09   19.50
  -7  -5   5   84.49   17.90
  12  -7   5   83.29   17.20
   8   4  -5    2.60   13.90
   8   4  -5   -1.80    6.80
   4 -12  -5   -2.20    9.30
  -8  -4   5    8.70   13.10
  12  -8   5   -7.00   11.30
   9   3  -5   47.00   15.70
   3 -12  -5   58.69   11.70
  12  -9   5   37.10   14.10
  -9  -3   5   42.50   14.90
  10   2  -5  461.95   34.00
   2 -12  -5  414.16   30.10
  12 -10   5  438.36   34.20
 -10  -2   5  444.66   35.10
   1 -12  -5   97.39   13.70
  11   1  -5  114.39   19.60
  12 -11   5   95.79   18.30
  12 -11   5   86.19   16.10
 -11  -1   5  125.49   19.30
  12   0  -5  147.19   23.20
   0 -12  -5  150.28   16.30
 -12   0   5  133.59   20.70
  12 -12   5  129.79   20.70
  12 -12   5  163.68   21.20
  13  -1  -5   22.20   18.30
  -1 -12  -5   17.30   12.70
  12 -13   5   22.20   15.80
  12 -13   5   16.50   14.30
 -13   1   5   16.60   17.20
  14  -2  -5   14.30   19.50
  12 -14   5   36.30   15.40
  12 -14   5   20.30   17.40
  15  -3  -5  -26.00   22.10
  12 -15   5   13.80   15.30
  12 -15   5   -5.10   17.20
  15 -13  -5   12.40   24.80
   2 -15   5   23.10   24.40
   2 -15   5   53.39   23.70
  14 -13  -5  247.68   32.20
  13   1   5  220.78   26.90
   1 -14   5  223.88   30.20
   1 -14   5  263.07   30.40
  13 -13  -5   64.29   22.50
   0 -13   5   74.19   20.10
   0 -13   5   98.29   21.90
  12 -13  -5    2.60   18.50
  -1 -12   5   24.40   18.30
  13  -1   5   19.00   13.80
  11 -13  -5   32.30   18.10
   2  11  -5   -1.40   18.60
  13  -2   5   14.40   12.70
  -2 -11   5   50.79   17.70
  10 -13  -5   23.20   16.50
   3  10  -5   23.00   18.00
  -3 -10   5   23.70   17.80
  13  -3   5   32.00   14.30
   4   9  -5  145.29   22.00
   9 -13  -5  157.78   21.00
  13  -4   5  151.78   20.30
  -4  -9   5  121.59   22.40
   8 -13  -5  -15.70   12.00
   5   8  -5   -5.30   15.70
  13  -5   5   19.30   14.40
  -5  -8   5   15.50   16.90
   6   7  -5   90.29   18.90
   7 -13  -5   79.79   12.90
  13  -6   5   52.19   17.20
  -6  -7   5   74.09   19.30
   7   6  -5  222.88   27.30
   6 -13  -5  198.38   21.40
  13  -7   5  162.28   23.60
  -7  -6   5  178.88   24.10
   5 -13  -5  293.97   25.30
   8   5  -5  254.97   29.80
  -8  -5   5  298.67   31.40
  13  -8   5  307.47   29.60
   9   4  -5  179.58   16.90
   9   4  -5  169.48   23.30
   4 -13  -5  140.79   17.60
  13  -9   5  212.38   25.90
  -9  -4   5  160.48   21.60
  10   3  -5   17.50   15.20
   3 -13  -5   42.90   12.60
  13 -10   5   82.79   17.70
 -10  -3   5   41.80   16.30
   2 -13  -5  116.69   16.00
  11   2  -5  140.59   23.20
  13 -11   5  147.49   21.90
 -11  -2   5  146.89   22.40
   1 -13  -5  153.68   18.10
  12   1  -5  180.88   25.00
  13 -12   5  152.88   23.00
 -12  -1   5  157.18   24.70
  13 -12   5  177.68   23.50
  13   0  -5   41.60   20.00
 -13   0   5   58.19   20.80
  13 -13   5   17.80   17.80
  13 -13   5   84.09   17.50
  14  -1  -5  100.49   24.80
  13 -14   5  115.69   22.30
  13 -14   5  104.79   20.30
  15  -2  -5  -29.50   22.80
  13 -15   5   14.70   17.90
  13 -15   5    9.30   16.20
  14 -14  -5   59.09   25.10
   0 -14   5   30.10   21.60
  14   0   5   49.10   21.00
   0 -14   5   30.30   23.60
  13 -14  -5  161.08   27.60
  -1 -13   5  116.19   23.70
  14  -1   5  110.39   21.90
  -1 -13   5  112.59   25.90
  12 -14  -5   -1.10   19.50
   2  12  -5    7.00   19.70
  14  -2   5    2.40   15.70
  -2 -12   5   36.70   21.80
  11 -14  -5  452.55   47.40
   3  11  -5  377.76   40.20
  14  -3   5  393.46   34.20
  -3 -11   5  422.96   40.50
  10 -14  -5  259.87   31.90
   4  10  -5  250.27   32.00
  -4 -10   5  243.48   29.80
  14  -4   5  244.38   28.30
   9 -14  -5    8.00   15.90
   5   9  -5   40.20   18.50
  14  -5   5   18.30   15.90
  -5  -9   5   44.50   20.20
   6   8  -5   16.20   17.10
   8 -14  -5   -8.70   12.20
  -6  -8   5   27.50   17.60
  14  -6   5    2.20   17.20
   7 -14  -5  156.28   18.60
   7   7  -5  160.98   24.00
  -7  -7   5  142.19   24.40
  14  -7   5  114.69   22.00
   8   6  -5   96.89   20.00
   6 -14  -5   67.49   17.80
  14  -8   5   76.19   19.60
  -8  -6   5   43.70   19.40
   9   5  -5  197.78   25.80
   5 -14  -5  169.48   19.20
  -9  -5   5  203.58   26.10
  14  -9   5  196.78   26.20
   4 -14  -5   20.90   12.60
  10   4  -5   51.89   18.30
  14 -10   5   39.40   18.20
 -10  -4   5   64.89   19.90
   3 -14  -5  111.69   16.20
  11   3  -5  124.99   23.20
  14 -11   5  148.59   22.80
 -11  -3   5   91.59   21.00
  12   2  -5  334.57   36.50
   2 -14  -5  364.96   30.00
 -12  -2   5  323.07   36.50
  14 -12   5  359.56   35.60
  14 -12   5  415.16   34.90
  13   1  -5  249.48   33.70
  14 -13   5  208.38   28.20
  14 -13   5  210.88   25.90
 -13  -1   5  207.78   29.80
  14   0  -5   60.29   22.50
  14 -14   5   96.29   21.40
  14 -14   5   75.69   21.00
  13 -15  -5   -2.20   24.50
  -2 -13   5   19.50   21.00
  15  -2   5   22.80   20.10
  -2 -13   5    3.90   25.10
  12 -15  -5  -23.00   22.00
   3  12  -5    5.90   21.40
  -3 -12   5   35.70   24.10
  15  -3   5   39.40   19.70
   4  11  -5   20.60   21.00
  -4 -11   5  -21.60   22.30
  15  -4   5    4.70   17.70
   5  10  -5   -2.70   20.00
  -5 -10   5  -16.40   21.40
  15  -5   5    8.20   19.00
   6   9  -5  113.39   24.90
   9 -15  -5  111.79   18.30
  -6  -9   5   83.79   24.50
  15  -6   5  107.99   23.70
   8 -15  -5   -7.30   14.10
   7   8  -5    5.80   17.80
  -7  -8   5   30.80   22.00
  15  -7   5   11.80   20.70
   8   7  -5  604.34   47.60
   7 -15  -5  587.44   39.60
  -8  -7   5  613.34   49.60
  15  -8   5  555.24   47.10
   6 -15  -5   43.20   13.90
   9   6  -5   20.60   18.40
  15  -9   5   59.49   21.30
  -9  -6   5   38.80   20.40
  10   5  -5  127.89   24.10
   5 -15  -5  139.19   18.50
  15 -10   5  180.18   26.90
 -10  -5   5  194.98   28.20
  11   4  -5  203.98   27.90
  15 -11   5  268.37   33.20
 -11  -4   5  220.88   28.60
  12   3  -5   26.20   19.60
  15 -12   5  -20.10   18.60
 -12  -3   5   23.50   20.60
  13   2  -5    5.20   21.70
  15 -13   5   -0.20   18.50
  15 -13   5   -4.40   18.10
   5  11  -5    3.40   23.70
  16  -5   5   26.40   22.10
  -5 -11   5   -1.70   25.10
   6  10  -5   47.20   24.40
  10 -16  -5   84.19   20.70
  16  -6   5   86.09   26.90
  -6 -10   5   55.19   26.40
   7   9  -5   42.10   23.80
   9 -16  -5   16.70   16.80
  16  -7   5   11.90   23.90
  -7  -9   5  -44.20   24.20
   8   8  -5   14.30   21.20
   8 -16  -5   23.80   15.40
  16  -8   5   32.70   25.10
  -8  -8   5   43.70   24.60
   7 -16  -5   26.80   15.30
   9   7  -5    0.70   20.00
  -9  -7   5    4.50   23.10
  16  -9   5  -28.40   22.10
  10   6  -5   64.39   22.70
   6 -16  -5   90.29   17.40
 -10  -6   5  139.09   26.20
  16 -10   5   64.79   26.10
  11   5  -5   12.30   21.80
 -11  -5   5   13.50   21.40
  16 -11   5  -12.90   21.30
   0   0  -6 7379.16  365.06
   0   0  -6 8296.77  365.36
   0   0   6 7373.36  364.36
   0   0   6 7720.73  363.76
   0   0   6 8168.48  365.56
  -1   0  -6  496.55   26.90
   0   1  -6  477.75   26.40
  -1   0  -6  496.35   26.90
   1  -1  -6  449.26   27.10
   0   1  -6  480.95   27.60
   1  -1  -6  504.15   27.20
   0  -1   6  499.45   26.10
   0  -1   6  484.05   27.00
   1   0   6  473.25   25.70
   0  -1   6  469.05   26.30
  -1   1   6  472.35   25.70
  -1   1   6  444.26   26.10
   1   0   6  488.55   27.00
   0  -1  -6  497.05   26.90
  -1   1  -6  477.35   27.50
   0  -1  -6  486.45   27.40
   1   0  -6  475.55   27.30
   1   0  -6  486.25   27.70
  -1   1  -6  478.05   26.60
   0   1   6  503.85   27.90
  -1   0   6  503.55   26.60
   1  -1   6  484.95   25.80
   0   1   6  497.35   26.10
  -1   0   6  464.65   26.70
   1  -1   6  463.85   26.20
   1  -1   6  488.15   27.20
   2  -1  -6  131.19   12.60
  -1  -1  -6  138.49   11.30
   2  -1  -6  155.08    9.80
   2  -1  -6  136.19   12.00
  -1   2  -6  110.79   12.90
  -1  -1  -6  125.69   11.30
  -1   2  -6  126.19   10.50
   1   1   6  136.59   10.10
   1  -2   6  125.69   10.80
  -2   1   6  140.79   11.40
   1  -2   6  149.19   11.70
   1  -2   6  119.29   10.50
   1   1   6  128.69    8.40
  -2   1   6  118.69   11.30
   1   1   6  146.09   12.30
  -2  -1  -6   79.69    8.80
   3  -2  -6   70.89    7.60
   3  -2  -6   54.59    8.40
   3  -2  -6   73.09    9.50
  -1   3  -6   85.09    7.90
  -1   3  -6   58.09    9.10
   1  -3   6   69.89    9.00
   1  -3   6   74.09    8.80
   1  -3   6   51.59    7.50
   2   1   6   64.69    7.10
  -3   2   6   74.19    9.10
   2   1   6   56.59    8.30
  -3   2   6   66.09    8.50
   2  -2  -6  398.56   25.40
   0   2  -6  414.26   25.70
   2  -2  -6  446.76   24.90
   0   2  -6  430.66   24.00
  -2   0  -6  435.86   24.50
  -2   2   6  429.96   24.60
  -2   2   6  426.56   24.20
   0  -2   6  424.96   24.60
   0  -2   6  425.96   24.60
   2   0   6  444.16   22.50
   2   0   6  414.76   23.30
   2   0   6  456.95   25.10
   0  -2   6  454.55   24.60
   1  -2  -6  120.89   11.30
   1   1  -6  133.29   13.20
   1   1  -6  144.59   11.70
   1  -2  -6  134.39   11.70
  -2   1  -6  130.79   10.90
   1   1  -6  144.59   11.50
   2  -1   6  130.69   10.30
  -1   2   6  138.29   10.90
  -1  -1   6  124.49   11.30
   2  -1   6  135.59   10.00
  -1  -1   6  111.79   11.10
   2  -1   6  130.49   11.80
  -1   2   6  131.59   10.10
  -2   2  -6  427.86   25.80
   2   0  -6  485.65   24.70
   2   0  -6  434.26   25.40
   0  -2  -6  446.06   24.30
   0  -2  -6  434.66   25.60
   2   0  -6  443.06   26.30
  -2   2  -6  422.66   24.10
  -2   0   6  425.56   25.20
   0   2   6  439.86   22.50
   2  -2   6  425.46   24.40
   0   2   6  436.66   26.00
  -2   0   6  428.06   24.90
   0   2   6  420.66   23.50
   2  -2   6  449.76   24.30
   2  -2   6  429.16   24.50
   3  -1  -6  395.96   24.50
  -1  -2  -6  386.26   23.40
   3  -1  -6  418.86   22.90
  -2   3  -6  373.56   22.50
   3  -1  -6  431.36   25.50
  -2   3  -6  423.36   25.10
   2  -3   6  421.16   23.10
   1   2   6  413.06   20.00
  -3   1   6  399.46   24.00
   2  -3   6  417.66   23.70
   1   2   6  414.86   24.10
  -3   1   6  359.36   23.70
   2  -3   6  390.66   23.30
   1   2   6  386.66   21.40
   4  -2  -6  459.25   25.00
   4  -2  -6  453.85   27.60
  -2   4  -6  398.26   23.60
  -2   4  -6  436.46   26.60
  -2  -2  -6  459.15   25.40
   4  -2  -6  389.26   26.40
   2   2   6  410.86   22.50
   2  -4   6  453.15   25.90
  -4   2   6  432.76   25.80
   2   2   6  425.46   25.60
   2  -4   6  440.76   24.20
  -4   2   6  437.66   26.40
   2  -4   6  396.36   24.50
   5  -3  -6  245.28   22.60
  -3  -2  -6  272.77   17.60
   5  -3  -6  270.67   20.70
   5  -3  -6  269.87   19.20
   3   2   6  253.17   15.30
   2  -5   6  262.57   18.30
   2  -5   6  276.37   17.30
  -5   3   6  272.37   20.00
  -5   3   6  256.47   18.80
   3   2   6  314.27   26.00
   2  -5   6  298.67   20.00
  -3  -1  -6 1751.82   86.79
   4  -3  -6 1792.62   85.89
  -1   4  -6 1804.72   88.09
   4  -3  -6 1745.03   87.89
  -1   4  -6 1801.62   85.69
   4  -3  -6 1610.64   88.29
  -4   3   6 1849.31   87.79
   1  -4   6 1775.32   87.49
   3   1   6 1826.22   87.19
   1  -4   6 1845.12   86.19
   1  -4   6 1777.42   87.29
   3   1   6 1726.53   84.99
  -4   3   6 1753.12   87.29
   0   3  -6   16.70    7.10
   0   3  -6   29.40    5.40
   3  -3  -6   28.80    3.80
  -3   0  -6   29.60    5.70
   3  -3  -6   23.30    6.30
   3  -3  -6   26.80    6.90
   0  -3   6   31.60    6.30
   3   0   6   15.80    6.00
   0  -3   6   13.60    5.20
   3   0   6   30.20    5.30
  -3   3   6   33.50    6.80
  -3   3   6   26.60    6.40
   0  -3   6   34.50    6.90
  -3   1  -6  374.16   22.50
   1   2  -6  386.26   24.80
   1   2  -6  405.86   23.70
   1   2  -6  385.46   22.50
   2  -3  -6  386.56   24.30
   2  -3  -6  413.46   22.90
  -2   3   6  396.06   22.80
   3  -1   6  395.86   22.20
  -1  -2   6  401.16   23.70
  -1  -2   6  370.66   23.20
   3  -1   6  392.06   23.00
  -2   3   6  441.26   22.90
   2   1  -6   64.49    8.50
   2   1  -6   83.69   11.00
   2   1  -6   62.09    8.10
   1  -3  -6   50.69    8.00
   1  -3  -6   76.39    8.70
  -3   2  -6   90.59    8.80
  -2  -1   6   74.39    9.90
   3  -2   6   69.59    8.60
  -2  -1   6   54.69    8.30
   3  -2   6   72.59    8.30
   3  -2   6   57.29    8.00
  -1   3   6   84.69    8.30
   3   0  -6   31.40    6.10
  -3   3  -6   25.00    5.50
   0  -3  -6   21.90    6.30
   3   0  -6   35.30    8.90
   0  -3  -6   26.80    5.00
   3   0  -6   31.90    6.50
   3  -3   6   16.90    5.30
   0   3   6   28.80    3.90
   3  -3   6   35.20    6.30
   3  -3   6   24.20    6.40
  -3   0   6   29.20    7.10
  -3   0   6   27.70    6.50
  -1  -3  -6  584.14   32.90
   4  -1  -6  557.74   34.00
   4  -1  -6  615.54   35.60
   4  -1  -6  604.64   33.20
   3  -4   6  602.24   32.00
   3  -4   6  558.94   32.50
   1   3   6  601.24   30.20
  -4   1   6  621.74   34.20
   1   3   6  572.64   32.90
   3  -4   6  619.64   33.50
  -4   1   6  600.84   33.50
   5  -2  -6   25.90   10.30
   5  -2  -6    6.00    6.60
  -2  -3  -6   13.30    5.50
   5  -2  -6   13.20    7.70
   2   3   6   10.30    6.90
   3  -5   6   26.10    6.00
   3  -5   6   34.40    7.00
   3  -5   6   16.20    8.10
   2   3   6   10.40    3.50
  -5   2   6   26.60    8.60
  -5   2   6   18.00    6.60
  -3  -3  -6   74.49    9.40
   6  -3  -6   59.19   11.50
   6  -3  -6   96.59   16.30
   3   3   6   71.99    6.60
  -6   3   6   64.79    9.80
   3  -6   6   77.19   10.40
   3  -6   6   82.49   12.40
  -6   3   6   65.99   11.60
   3  -6   6   67.99    8.20
  -4  -3  -6   21.30    6.30
   7  -4  -6   17.90    9.90
   4   3   6   19.20    4.20
   3  -7   6   32.10    6.80
   3  -7   6    2.30    6.80
  -7   4   6    9.90    7.80
   6  -4  -6 1050.19   58.59
  -4  -2  -6 1025.10   54.39
   6  -4  -6 1032.60   56.69
   2  -6   6 1130.09   59.29
   4   2   6 1025.90   51.89
   2  -6   6 1128.29   53.49
  -6   4   6 1058.99   56.59
   2  -6   6 1086.39   55.59
  -6   4   6 1055.19   55.39
   5  -4  -6  937.31   53.29
   5  -4  -6  951.70   53.09
  -4  -1  -6  989.60   50.79
   5  -4  -6  974.70   50.89
  -5   4   6 1033.70   51.99
   4   1   6  961.80   48.90
  -5   4   6 1001.70   51.09
   1  -5   6 1035.50   49.90
   1  -5   6  981.80   52.39
   1  -5   6 1016.40   51.59
   0   4  -6 1483.15   70.29
   4  -4  -6 1506.55   69.69
   0   4  -6 1418.76   72.89
   4  -4  -6 1409.66   72.09
  -4   0  -6 1415.96   71.39
   4  -4  -6 1352.36   73.19
  -4   4   6 1433.26   71.89
   0  -4   6 1501.05   71.19
   0  -4   6 1441.76   72.59
  -4   4   6 1438.66   71.49
   4   0   6 1501.75   73.19
   0  -4   6 1417.26   72.19
   4   0   6 1418.26   70.29
  -4   1  -6  536.55   31.00
   1   3  -6  578.04   30.40
   1   3  -6  563.84   33.20
   3  -4  -6  553.34   32.90
   3  -4  -6  569.84   31.20
   1   3  -6  641.74   33.10
  -3   4   6  587.84   31.10
   4  -1   6  566.24   32.00
  -3   4   6  595.84   31.20
  -1  -3   6  557.94   32.20
   4  -1   6  575.44   30.70
  -1  -3   6  590.54   32.80
   2  -4  -6  470.55   24.60
   2   2  -6  441.66   25.10
   2   2  -6  442.36   27.70
   2   2  -6  439.06   26.30
   2  -4  -6  412.06   26.60
  -2   4   6  440.96   24.30
   4  -2   6  424.76   25.40
  -2   4   6  460.35   24.40
  -2  -2   6  431.26   26.40
   4  -2   6  436.36   24.90
  -2  -2   6  463.95   26.90
   3   1  -6 1765.42   88.19
   3   1  -6 1854.41   88.89
   3   1  -6 1849.91   89.99
   1  -4  -6 1713.83   88.89
   1  -4  -6 1886.51   86.29
  -1   4   6 1756.82   86.09
   4  -3   6 1744.33   87.69
   4  -3   6 1810.92   88.09
  -3  -1   6 1814.12   89.19
  -1   4   6 1842.92   86.69
  -3  -1   6 1720.13   88.99
   0  -4  -6 1468.35   73.89
   4   0  -6 1440.76   75.19
   4   0  -6 1416.06   74.09
   4   0  -6 1449.46   74.29
   4  -4   6 1430.56   73.29
   0   4   6 1530.05   70.59
   4  -4   6 1508.95   72.69
   0   4   6 1554.44   70.19
   4  -4   6 1399.66   73.69
  -4   0   6 1417.96   74.29
  -4   0   6 1538.35   74.69
  -1  -4  -6 3470.75  165.38
   5  -1  -6 3190.58  167.18
   5  -1  -6 3145.89  166.38
   5  -1  -6 3363.06  166.58
   1   4   6 3481.95  161.68
   4  -5   6 3553.14  164.28
   1   4   6 3584.54  160.98
  -5   1   6 3474.65  166.68
  -5   1   6 3522.55  166.38
   1   4   6 3666.33  167.68
   4  -5   6 3501.75  165.68
   4  -5   6 3409.06  166.18
  -2  -4  -6  237.58   17.80
   6  -2  -6  234.08   20.90
   4  -6   6  210.98   20.90
  -6   2   6  265.97   19.80
   4  -6   6  268.17   18.70
  -6   2   6  280.47   24.80
   2   4   6  274.77   13.70
   4  -6   6  223.78   17.30
   7  -3  -6  428.06   31.80
  -3  -4  -6  443.96   27.30
   4  -7   6  452.35   28.60
   3   4   6  504.75   23.20
   4  -7   6  487.95   27.40
  -7   3   6  442.86   29.30
  -4  -4  -6  693.83   40.10
   8  -4  -6  751.62   45.10
   4   4   6  738.63   35.60
   4   4   6  740.33   35.70
   4   4   6  765.72   36.00
   4  -8   6  726.13   42.30
   4  -8   6  762.92   39.40
  -8   4   6  728.13   42.00
   9  -5  -6   53.09   14.30
   5   4   6   54.29    5.40
  -9   5   6   67.59   11.80
   4  -9   6   62.09   12.50
   5   4   6   55.59    7.00
   5   4   6   61.59    6.30
   4  -9   6   49.99    9.40
   8  -5  -6   26.30   12.10
   3  -8   6   59.99   10.90
   5   3   6   47.80    5.20
   5   3   6   57.99    6.60
  -8   5   6   68.69   10.50
   3  -8   6   44.10    7.90
   7  -5  -6   83.69   13.60
   7  -5  -6  102.89   20.40
   2  -7   6   76.99    8.90
   5   2   6   76.89    6.80
   5   2   6   84.89    8.30
   2  -7   6   60.59   10.10
  -7   5   6   90.99   10.80
   6  -5  -6  893.91   50.49
   6  -5  -6  934.11   53.09
   1  -6   6 1017.20   48.20
   5   1   6  947.11   47.40
   1  -6   6  991.40   50.49
  -6   5   6  940.51   49.20
   5   1   6  933.41   46.10
  -6   5   6  923.61   50.39
   0   5  -6  717.53   35.40
   5  -5  -6  670.13   36.40
   5  -5  -6  724.53   39.60
   5  -5  -6  665.23   39.90
   0  -5   6  714.73   38.40
   0  -5   6  714.23   39.60
  -5   5   6  662.53   36.60
  -5   5   6  685.43   37.80
   5   0   6  666.73   36.00
   1   4  -6 3656.63  164.08
   4  -5  -6 3320.67  163.88
   4  -5  -6 3712.73  158.88
   1   4  -6 3463.75  160.48
   4  -5  -6 3290.17  161.58
  -1  -4   6 3226.08  163.18
   5  -1   6 3328.17  161.28
  -1  -4   6 3318.37  162.98
  -4   5   6 3162.58  160.68
  -4   5   6 3413.56  161.78
   2   3  -6   18.80    7.00
   3  -5  -6   19.40    5.70
   3  -5  -6   18.40    6.50
   2   3  -6   20.30    5.00
  -3   5   6   13.10    5.20
  -3   5   6   20.40    5.00
  -2  -3   6   23.20    6.70
  -2  -3   6   11.60    7.40
   5  -2   6   21.60    5.70
   2  -5  -6  274.77   16.30
   3   2  -6  252.07   17.40
   3   2  -6  355.96   31.20
   2  -5  -6  251.47   19.20
   3   2  -6  286.57   19.80
  -2   5   6  270.97   16.20
   5  -3   6  279.97   18.10
  -3  -2   6  273.77   19.50
  -2   5   6  231.28   16.20
   5  -3   6  291.47   21.00
  -3  -2   6  244.58   19.90
   1  -5  -6 1007.20   47.50
   4   1  -6 1032.20   52.69
   4   1  -6  995.00   51.19
   1  -5  -6 1028.20   51.89
   5  -4   6  968.70   50.99
  -4  -1   6  994.50   52.19
  -1   5   6  959.60   47.10
  -1   5   6  894.71   49.90
  -4  -1   6  945.41   52.29
   5  -4   6  949.90   50.39
   5   0  -6  691.83   40.20
   5   0  -6  651.03   39.00
   0  -5  -6  644.84   38.00
   0   5   6  755.02   34.20
   5  -5   6  683.33   38.40
   0   5   6  675.03   33.20
   5  -5   6  666.93   37.50
  -5   0   6  741.63   39.60
  -1  -5  -6 1022.70   54.49
   6  -1  -6 1044.70   57.79
   5  -6   6 1011.30   53.79
   5  -6   6 1068.99   55.79
  -6   1   6 1101.19   56.29
   5  -6   6  952.80   55.89
   1   5   6 1132.29   50.29
   7  -2  -6  169.18   19.70
  -2  -5  -6  179.58   15.80
   5  -7   6  157.08   16.40
  -7   2   6  216.18   17.80
   5  -7   6  200.88   17.90
   2   5   6  180.68   10.00
  -3  -5  -6 1108.19   60.49
   8  -3  -6 1240.98   66.29
   5  -8   6 1260.07   63.69
   5  -8   6 1198.28   60.59
  -8   3   6 1129.79   62.99
   9  -4  -6  549.35   38.70
  -4  -5  -6  540.85   32.40
   5  -9   6  570.24   35.90
   5  -9   6  565.44   35.50
  -9   4   6  519.55   34.70
   4   5   6  588.44   28.60
   5  -9   6  554.84   32.90
  10  -5  -6  879.21   51.89
   5 -10   6  834.32   45.80
 -10   5   6  800.52   48.30
   5   5   6  897.81   42.70
   5 -10   6  814.82   48.90
   5 -10   6  817.82   49.70
  11  -6  -6  501.55   37.30
   5 -11   6  433.86   34.60
   5 -11   6  509.65   35.70
   6   5   6  473.55   26.90
  10  -6  -6  453.55   34.10
   4 -10   6  431.86   26.10
   4 -10   6  459.95   31.30
   6   4   6  369.46   21.80
   9  -6  -6   -0.90   11.30
   6   3   6   -1.20    4.40
   6   3   6   -7.30    5.80
   3  -9   6    1.00    6.50
   3  -9   6    0.90    8.10
   6   3   6    2.30    4.10
   8  -6  -6   -0.60   10.90
   2  -8   6    4.90    6.10
   2  -8   6    6.40    7.90
  -8   6   6   13.70    7.20
   6   2   6    3.10    3.30
   6   2   6    0.60    4.70
   7  -6  -6 1133.39   60.99
   7  -6  -6 1078.49   63.59
   6   1   6 1078.19   56.79
   1  -7   6 1168.68   56.99
   6   1   6 1206.48   55.89
  -7   6   6 1127.99   58.19
   1  -7   6 1156.08   59.99
   6  -6  -6  489.25   29.70
   6  -6  -6  494.35   32.80
  -6   6   6  481.75   29.70
  -6   6   6  480.05   27.50
   6   0   6  491.75   27.40
   0  -6   6  506.15   29.90
   6   0   6  489.55   27.90
   5  -6  -6 1027.90   53.79
   1   5  -6 1064.19   50.59
   5  -6  -6  933.81   54.59
   1   5  -6 1046.90   55.29
  -5   6   6 1018.70   51.29
  -5   6   6 1053.99   52.89
   6  -1   6 1016.40   52.59
  -1  -5   6 1015.90   54.09
   4  -6  -6  238.08   19.90
   2   4  -6  248.58   15.40
   2   4  -6  269.57   20.20
   4  -6  -6  258.27   17.30
  -4   6   6  247.08   17.10
   6  -2   6  255.47   16.70
  -2  -4   6  253.27   19.10
  -4   6   6  230.08   15.10
   6  -2   6  247.88   17.90
   3  -6  -6   83.69    9.30
   3   3  -6   74.89    9.30
   3   3  -6   93.39   13.00
   3  -6  -6   76.29   11.00
  -3   6   6   66.89    7.20
  -3  -3   6   88.29   11.90
   6  -3   6   75.09    9.80
   6  -3   6   80.89   10.70
  -3   6   6   78.49    9.30
   2  -6  -6 1079.29   57.39
   2  -6  -6 1126.89   53.29
   4   2  -6 1083.09   55.89
   4   2  -6 1128.59   59.19
  -2   6   6 1125.49   54.09
   6  -4   6 1095.89   56.19
   6  -4   6 1047.20   57.09
  -4  -2   6 1071.99   57.79
   1  -6  -6  971.70   53.49
   5   1  -6  935.71   53.29
   5   1  -6 1027.90   55.89
  -5  -1   6  982.30   54.19
  -1   6   6 1080.49   49.90
   6  -5   6  998.90   53.69
   6  -5   6 1050.79   53.09
   6   0  -6  576.14   34.60
   6   0  -6  437.56   32.30
   0  -6  -6  508.85   30.70
   6  -6   6  540.65   31.20
  -6   0   6  546.55   32.90
   6  -6   6  509.75   31.90
   7  -1  -6  468.25   34.10
  -1  -6  -6  488.35   30.20
   6  -7   6  447.66   31.50
   6  -7   6  488.35   31.30
  -7   1   6  513.05   32.20
   1   6   6  584.44   27.30
   8  -2  -6    6.60   11.20
  -2  -6  -6    7.40    6.60
   2   6   6   13.40    3.80
   6  -8   6   23.00    9.60
   2   6   6   22.30    6.60
   6  -8   6   14.60    8.90
  -8   2   6   24.60    9.80
   9  -3  -6  443.66   30.90
  -3  -6  -6  382.06   24.30
   3   6   6  333.07   19.80
  -9   3   6  366.16   27.60
   6  -9   6  343.57   27.00
   6  -9   6  395.06   28.20
  -4  -6  -6   52.49    9.70
  10  -4  -6   39.20   14.80
   6 -10   6   37.70   12.00
   6 -10   6   43.10   13.20
 -10   4   6   43.90   13.10
  11  -5  -6  120.09   21.80
   6 -11   6   94.69   17.60
   5   6   6   64.49    8.80
   6 -11   6   77.19   15.90
  12  -6  -6  274.07   30.90
   6 -12   6  239.08   26.30
   6   6   6  243.68   18.30
   6 -12   6  214.78   27.40
  13  -7  -6   -2.70   16.50
   6 -13   6   -5.70   14.00
   6 -13   6    0.10   16.30
   7   6   6  -12.50    8.80
  12  -7  -6 1127.49   66.99
   5 -12   6 1142.69   65.09
   5 -12   6 1104.79   66.49
   7   5   6 1168.98   58.09
  11  -7  -6   -0.30   13.70
   4 -11   6   -1.40   12.20
   7   4   6   16.60    7.30
   7   4   6   16.90    6.00
   4 -11   6   26.50   13.10
  10  -7  -6  185.58   23.00
   7   3   6  137.59   13.10
   3 -10   6  157.78   18.80
   7   3   6  146.19   14.60
   7   3   6  137.29   12.90
   3 -10   6  159.08   15.20
   9  -7  -6  390.46   30.20
   7   2   6  355.26   23.20
   7   2   6  342.77   21.30
   2  -9   6  395.06   22.70
   7   2   6  371.26   22.60
   2  -9   6  359.86   26.70
   8  -7  -6   28.70   12.00
   1  -8   6    6.70    7.80
   7   1   6   -3.90    6.00
   7  -7  -6   82.59   16.60
   7  -7  -6   94.09   13.70
   0  -7   6   79.69   11.30
   7   0   6   83.49   10.90
   7   0   6   81.89   10.60
   6  -7  -6  439.66   30.90
   1   6  -6  483.25   31.40
   6  -7  -6  448.86   27.50
  -6   7   6  424.66   27.80
  -1  -6   6  439.26   29.20
   7  -1   6  494.15   28.10
   7  -1   6  505.75   28.40
   5  -7  -6  177.48   12.60
   5  -7  -6  216.38   11.90
   2   5  -6  218.18   13.30
   5  -7  -6  177.58   17.30
   2   5  -6  244.88   20.10
   5  -7  -6  173.38   18.40
  -2  -5   6  234.78   18.80
  -5   7   6  208.18   16.30
   7  -2   6  196.28   17.00
   7  -2   6  223.48   17.30
   4  -7  -6  478.35   30.30
   3   4  -6  478.15   25.70
   4  -7  -6  466.85   26.40
   3   4  -6  493.45   31.70
   7  -3   6  474.65   28.70
   7  -3   6  441.16   29.20
  -3  -4   6  476.65   30.30
  -4   7   6  489.05   27.40
   4   3  -6   37.90   10.60
   3  -7  -6   31.20    8.70
   3  -7  -6   32.60    5.70
   4   3  -6   23.30    6.10
   7  -4   6   27.70    8.00
   7  -4   6   25.90    8.50
  -4  -3   6   34.80    9.80
  -3   7   6   19.60    6.20
   5   2  -6   90.69   15.00
   2  -7  -6   65.59   11.00
   2  -7  -6   76.49    6.20
   5   2  -6   76.09   10.30
  -2   7   6  101.89   10.10
   7  -5   6   82.59   12.70
  -5  -2   6   87.89   12.90
   6   1  -6 1081.69   62.09
   1  -7  -6 1087.09   61.79
   6   1  -6 1183.98   65.19
  -6  -1   6 1166.28   63.09
   7  -6   6 1206.08   62.59
  -1   7   6 1342.07   59.19
   7  -6   6 1220.08   63.49
   0  -7  -6   92.29   12.00
   7   0  -6  104.29   17.10
  -7   0   6   89.39   13.50
   7  -7   6   90.69   14.30
   7  -7   6   98.29   13.40
   0   7   6  133.09   12.80
  -1  -7  -6   51.79    9.70
   8  -1  -6   51.69   14.00
   7  -8   6   59.59   11.90
   7  -8   6   58.69   11.80
   1   7   6   56.69   10.10
  -8   1   6   68.19   12.80
  -2  -7  -6   67.39   10.40
   9  -2  -6  101.99   17.00
   7  -9   6   59.29   13.20
  -9   2   6   64.79   13.50
   7  -9   6   54.19   12.50
   2   7   6   66.79    9.00
  -3  -7  -6    7.50    8.50
  10  -3  -6   20.60   13.10
 -10   3   6   30.50   11.70
   3   7   6   23.00    6.30
   7 -10   6   13.20   11.90
  11  -4  -6  364.26   30.50
   4   7   6  301.17   19.90
 -11   4   6  276.67   28.50
   7 -11   6  305.77   28.40
   7 -11   6  343.87   29.20
  12  -5  -6  977.10   60.49
   5   7   6  876.51   49.50
   7 -12   6 1014.20   57.09
   7 -12   6 1025.10   59.89
  13  -6  -6  247.38   31.20
   6   7   6  172.38   18.00
   7 -13   6  138.99   20.20
   7 -13   6  178.88   25.40
  14  -7  -6  269.47   32.60
   7 -14   6  213.08   25.60
   7 -14   6  302.17   34.80
  15  -8  -6  771.72   58.29
   7 -15   6  722.93   54.99
   7 -15   6  626.24   48.00
  14  -8  -6    8.90   20.90
   6 -14   6    1.50   18.70
  13  -8  -6  318.57   35.20
   5 -13   6  348.17   31.20
   8   5   6  308.77   23.50
   5 -13   6  245.68   31.90
  12  -8  -6  165.38   24.30
   4 -12   6  191.38   22.70
   8   4   6  205.08   15.90
   8   4   6  216.88   17.70
   4 -12   6  155.08   22.40
  11  -8  -6  359.76   32.20
   8   3   6  272.07   20.90
   3 -11   6  341.97   28.70
   8   3   6  297.27   20.60
  10  -8  -6   75.29   17.10
   2 -10   6   67.39   16.80
   8   2   6   68.79    9.40
   8   2   6   84.19   11.90
   9  -8  -6   53.79   14.70
   8   1   6   59.49   10.40
   8   1   6   34.00    7.00
   1  -9   6   51.89   12.20
   8  -8  -6  383.86   29.20
   0  -8   6  392.56   27.30
   8   0   6  374.56   22.50
   1   7  -6   42.50   11.80
   7  -8  -6   45.10   11.00
   7  -8  -6   37.90   14.10
  -1  -7   6   46.40   11.00
   8  -1   6   52.99    9.00
   6  -8  -6   26.90    7.20
   6  -8  -6   10.30    8.90
   6  -8  -6   16.40   10.70
   2   6  -6   15.90    4.40
   2   6  -6   14.10    9.50
  -2  -6   6   15.60    9.10
   8  -2   6   11.40    8.20
   5  -8  -6 1128.19   63.39
   5  -8  -6 1145.59   60.19
   3   5  -6 1219.58   58.39
   3   5  -6 1260.57   65.99
   8  -3   6 1145.49   62.99
  -3  -5   6 1207.38   64.09
   8  -3   6 1199.08   63.29
  -5   8   6 1280.57   61.49
   4  -8  -6  720.83   42.60
   4   4  -6  740.43   38.50
   4   4  -6  848.12   46.30
   4  -8  -6  748.13   38.20
   8  -4   6  714.43   43.00
  -4  -4   6  666.33   42.60
  -4   8   6  819.12   40.80
   8  -4   6  742.73   43.10
   5   3  -6   45.00    7.70
   5   3  -6   45.40   13.30
   3  -8  -6   51.59   10.30
   3  -8  -6   50.89    5.60
   8  -5   6   45.90   10.50
  -5  -3   6   64.79   11.80
   8  -5   6   48.80   10.80
  -3   8   6   48.50    8.70
   6   2  -6   -0.20   10.30
   2  -8  -6   -1.20    7.20
   6   2  -6    5.60    7.20
   8  -6   6    3.70    8.70
   8  -6   6   25.20   10.40
  -6  -2   6   -0.70    8.80
  -2   8   6   10.20    7.10
   7   1  -6   36.30   12.30
   1  -8  -6    7.80    8.40
   7   1  -6    1.50    9.30
   8  -7   6   19.80   10.00
   8  -7   6   20.70    9.90
  -1   8   6   20.10    8.60
  -7  -1   6    6.90    8.90
   0  -8  -6  457.25   29.60
   8   0  -6  467.55   34.00
   0   8   6  532.55   29.70
   8  -8   6  455.05   32.10
   8  -8   6  435.96   32.20
  -8   0   6  411.36   31.90
   9  -1  -6  142.19   20.20
  -1  -8  -6  130.79   16.70
  -9   1   6  172.58   20.80
   8  -9   6  154.68   20.30
   8  -9   6  146.79   18.70
  10  -2  -6 1459.25   85.79
  -2  -8  -6 1434.26   74.89
   8 -10   6 1379.66   88.59
 -10   2   6 1503.95   79.19
   2   8   6 1476.85   72.19
   8 -10   6 1540.15   78.99
  11  -3  -6  808.92   49.70
  -3  -8  -6  703.13   42.40
   8 -11   6  732.83   48.00
   8 -11   6  795.12   47.00
 -11   3   6  795.82   47.60
   3   8   6  700.93   39.40
  12  -4  -6  457.05   37.00
 -12   4   6  429.66   33.90
   8 -12   6  424.96   32.90
   4   8   6  353.46   25.50
   8 -12   6  463.95   36.00
  13  -5  -6   11.10   18.40
   5   8   6   13.50    9.70
   8 -13   6    9.20   13.50
   8 -13   6   22.60   18.40
  14  -6  -6   65.99   23.10
   8 -14   6   63.39   21.10
   8 -14   6   50.59   16.30
  15  -7  -6    8.20   24.10
   8 -15   6   30.90   22.30
   8 -15   6   30.40   19.20
  15  -9  -6  276.07   36.30
   6 -15   6  313.67   32.20
   6 -15   6  326.97   39.40
  14  -9  -6   39.10   22.00
   5 -14   6   42.60   20.60
   5 -14   6   37.20   18.80
  13  -9  -6  785.12   54.39
   4 -13   6  796.32   53.89
   9   4   6  782.92   44.40
  12  -9  -6  874.91   55.49
   3 -12   6  882.21   54.39
   3 -12   6  812.32   51.79
   9   3   6  816.82   46.20
  11  -9  -6  108.49   20.40
   9   2   6  104.79   12.50
   2 -11   6   78.19   17.00
  10  -9  -6  173.28   21.80
   9   1   6  152.18   16.60
   1 -10   6  149.79   19.70
   9   1   6  155.18   18.80
   9  -9  -6 1421.36   73.49
   9   0   6 1361.06   71.89
   0  -9   6 1311.47   71.79
   9   0   6 1267.17   66.59
   8  -9  -6  145.39   25.20
   1   8  -6  100.49   18.00
   8  -9  -6  149.29   17.60
  -1  -8   6  195.28   19.60
   9  -1   6  118.49   13.60
   7  -9  -6   83.89   15.80
   2   7  -6   59.49   14.30
   7  -9  -6   77.49   12.10
   9  -2   6   72.89   11.10
  -2  -7   6   81.19   13.70
   3   6  -6  375.56   20.60
   6  -9  -6  341.47   26.20
   3   6  -6  429.36   30.50
   6  -9  -6  348.87   26.90
   6  -9  -6  383.96   20.70
   9  -3   6  407.66   27.20
  -3  -6   6  380.16   28.20
   4   5  -6  596.54   37.80
   5  -9  -6  492.75   29.70
   4   5  -6  544.75   28.00
   5  -9  -6  503.35   33.60
  -4  -5   6  537.65   35.30
  -5   9   6  572.04   34.60
   9  -4   6  519.25   34.20
   4  -9  -6   60.69   11.50
   5   4  -6   55.19    7.40
   4  -9  -6   67.29    7.20
   5   4  -6   56.29   14.40
  -4   9   6   79.29   12.40
   9  -5   6   59.89   13.20
   9  -5   6   88.09   14.10
  -5  -4   6   60.29   13.10
   6   3  -6    8.20    6.40
   3  -9  -6    6.10    8.50
   6   3  -6    2.50   11.30
  -3   9   6    5.40    9.30
  -6  -3   6   10.20   10.50
   9  -6   6  -13.50    9.30
   9  -6   6   16.80   10.30
   7   2  -6  372.86   26.40
   2  -9  -6  361.96   26.80
   7   2  -6  399.86   32.10
  -7  -2   6  378.56   29.10
   9  -7   6  374.56   29.40
   9  -7   6  397.66   29.50
   1  -9  -6   23.50   10.00
   8   1  -6   38.60   14.50
   9  -8   6   37.10   12.50
  -1   9   6   54.19   12.50
  -8  -1   6   44.60   12.30
   9  -8   6   43.20   13.00
   0  -9  -6 1405.66   73.09
   9   0  -6 1370.36   82.49
   0   9   6 1573.84   73.69
   9  -9   6 1469.25   77.29
  -9   0   6 1174.48   79.79
  10  -1  -6  138.99   20.10
  -1  -9  -6  128.09   14.70
 -10   1   6   98.89   16.90
   9 -10   6  128.19   18.90
   9 -10   6  121.99   19.80
  -2  -9  -6  757.02   46.10
  11  -2  -6  835.32   53.39
 -11   2   6  924.71   51.49
   9 -11   6  846.22   50.09
   9 -11   6  837.02   52.59
   2   9   6  806.82   44.30
  12  -3  -6   44.10   16.70
  -3  -9  -6   32.40   11.70
   3   9   6   37.30   10.00
   9 -12   6   44.40   18.00
 -12   3   6   47.10   14.90
   9 -12   6   49.40   14.90
  13  -4  -6  -11.80   16.70
   4   9   6   11.40   10.00
   9 -13   6    7.40   13.50
   9 -13   6    1.30   17.20
  14  -5  -6  746.73   54.09
   9 -14   6  711.23   52.69
   9 -14   6  686.63   47.00
  15  -6  -6  238.58   33.10
   9 -15   6  185.48   29.10
   9 -15   6  189.68   23.40
  15 -10  -6   19.40   24.50
   5 -15   6   67.59   25.30
   5 -15   6   14.50   20.10
  14 -10  -6   33.30   22.50
   4 -14   6   34.10   20.70
   4 -14   6   36.60   18.30
  13 -10  -6  254.07   33.60
   3 -13   6  201.88   27.70
   3 -13   6  199.28   25.50
  10   3   6  230.88   24.30
  12 -10  -6  454.45   38.90
  10   2   6  401.76   29.50
   2 -12   6  434.36   36.50
  11 -10  -6   63.69   18.10
  10   1   6   40.70   10.80
   1 -11   6   68.19   15.70
  10 -10  -6   39.70   16.80
   0 -10   6   75.89   16.70
  10   0   6   67.99   11.10
   1   9  -6  113.09   19.20
   9 -10  -6  140.99   19.50
  -1  -9   6  134.09   22.00
  10  -1   6  123.39   14.90
   2   8  -6 1510.55   79.99
   8 -10  -6 1393.06   74.69
   8 -10  -6 1428.66   78.09
  10  -2   6 1427.46   73.19
  -2  -8   6 1388.66   78.39
   7 -10  -6    8.90    8.90
   7 -10  -6    7.10    9.60
   7 -10  -6   31.60    7.20
   3   7  -6   10.40   13.60
   7 -10  -6  -15.20   12.60
  -3  -7   6   31.80   13.10
  10  -3   6   28.40   10.20
   4   6  -6   37.90    5.00
   6 -10  -6   41.10   11.20
   4   6  -6   27.60   14.60
   6 -10  -6   38.00    5.80
   6 -10  -6   42.10   10.80
  10  -4   6   44.40   12.30
  -4  -6   6   33.30   12.40
   5 -10  -6  773.32   41.50
   5 -10  -6  781.02   46.80
   5   5  -6  876.01   51.59
   5   5  -6  834.22   41.10
  10  -5   6  803.72   48.40
  -5  -5   6  888.61   50.19
   6   4  -6  397.56   33.40
   4 -10  -6  436.56   29.50
   6   4  -6  408.06   24.50
  10  -6   6  440.56   31.90
  -6  -4   6  470.45   32.50
   7   3  -6  136.49   27.60
   7   3  -6  126.39   15.50
   3 -10  -6  119.69   15.50
  -3  10   6  207.78   23.70
  10  -7   6  126.39   18.10
  10  -7   6  162.98   21.40
  -7  -3   6  187.98   28.60
   2 -10  -6   60.39   12.40
   8   2  -6  108.29   19.30
   8   2  -6   95.59   13.60
  -8  -2   6   79.29   16.00
  10  -8   6   52.59   23.20
  10  -8   6   58.19   14.30
   9   1  -6  188.28   25.80
   1 -10  -6  198.18   21.10
  -9  -1   6  193.48   23.80
  10  -9   6  184.98   24.00
  10  -9   6  206.98   23.20
  -1  10   6  195.58   21.00
   0 -10  -6   73.09   13.10
  10   0  -6   65.39   16.40
 -10   0   6   70.79   15.60
  10 -10   6   55.09   16.20
  10 -10   6   67.59   16.10
  -1 -10  -6  358.96   27.60
  11  -1  -6  370.56   34.60
  10 -11   6  351.76   33.20
 -11   1   6  459.15   33.10
  10 -11   6  395.06   31.70
  12  -2  -6 1066.59   63.39
  -2 -10  -6  917.81   55.19
  10 -12   6 1036.00   58.79
  10 -12   6 1083.39   63.19
 -12   2   6  982.80   60.49
  13  -3  -6    2.40   18.90
  10 -13   6   18.00   15.40
   3  10   6    2.70   11.30
  10 -13   6   -7.50   17.50
  14  -4  -6  253.07   31.70
  10 -14   6  195.88   24.30
  10 -14   6  180.58   27.70
  15  -5  -6    6.30   23.50
  10 -15   6   17.90   17.10
  10 -15   6   14.70   20.90
  15 -11  -6   30.80   25.90
   4 -15   6   14.20   21.70
   4 -15   6   33.60   24.10
  14 -11  -6  293.27   35.20
   3 -14   6  292.97   30.80
   3 -14   6  251.07   33.50
  13 -11  -6  136.99   26.60
   2 -13   6  156.88   24.10
  11   2   6  169.88   21.20
   2 -13   6  160.48   23.10
  12 -11  -6   95.29   23.00
   1 -12   6  106.19   20.60
  11   1   6  137.59   17.50
  11 -11  -6  286.07   33.40
  11   0   6  286.07   24.30
   0 -11   6  282.07   33.60
  10 -11  -6  371.06   33.30
   1  10  -6  398.86   35.50
  -1 -10   6  321.37   32.00
  11  -1   6  320.27   25.30
   2   9  -6  880.41   53.09
   9 -11  -6  767.22   48.40
  -2  -9   6  811.62   50.39
  11  -2   6  723.63   44.10
   3   8  -6  778.12   49.70
   8 -11  -6  730.43   42.80
  -3  -8   6  790.22   47.60
  11  -3   6  658.13   42.70
   7 -11  -6  280.67   21.10
   4   7  -6  340.37   31.40
   7 -11  -6  285.07   35.40
  11  -4   6  331.17   26.50
  -4  -7   6  320.87   30.00
   5   6  -6   80.19   18.20
   5   6  -6   98.99    8.10
   6 -11  -6  107.59   15.30
  -5  -6   6  119.99   19.40
  11  -5   6   97.39   16.00
   6   5  -6  426.16   36.10
   5 -11  -6  401.26   30.60
   6   5  -6  443.46   23.60
  11  -6   6  413.96   32.50
  -6  -5   6  447.06   34.60
   4 -11  -6   13.30   10.10
   7   4  -6   10.80    6.40
   7   4  -6   10.30   14.30
  -7  -4   6   -3.10   12.60
  11  -7   6   11.60   12.60
   8   3  -6  313.17   23.40
   3 -11  -6  324.37   25.80
   8   3  -6  321.17   31.60
  11  -8   6  323.17   28.50
  -8  -3   6  355.26   31.00
  11  -8   6  287.07   27.90
   2 -11  -6  105.09   14.80
   9   2  -6   77.99   14.30
   9   2  -6   77.79   18.50
  11  -9   6  120.49   19.10
  -9  -2   6   93.99   18.20
  11  -9   6   84.49   17.40
   1 -11  -6   39.60   12.00
  10   1  -6   38.50   17.10
 -10  -1   6   24.20   15.10
  11 -10   6   50.49   15.70
  11 -10   6   22.10   12.80
   0 -11  -6  258.67   25.90
  11   0  -6  350.66   34.50
  11 -11   6  303.67   29.10
  11 -11   6  318.57   31.60
 -11   0   6  334.37   31.50
  12  -1  -6   20.50   18.20
  -1 -11  -6   45.40   13.40
 -12   1   6   32.30   15.10
  11 -12   6   14.50   16.50
  11 -12   6   30.80   14.70
  13  -2  -6    9.70   18.80
  -2 -11  -6   27.30   13.90
  11 -13   6   12.10   14.50
 -13   2   6   -2.50   17.10
  11 -13   6  -15.70   17.20
  14  -3  -6  265.37   33.80
  11 -14   6  266.07   30.70
  11 -14   6  282.17   35.00
  15  -4  -6    4.50   23.80
  11 -15   6    6.90   21.50
  11 -15   6   -2.50   16.30
  15 -12  -6   22.70   27.60
   3 -15   6   68.09   24.50
   3 -15   6   45.90   26.70
  14 -12  -6  646.44   53.69
   2 -14   6  604.64   50.99
   2 -14   6  687.53   52.59
  13 -12  -6  879.41   58.79
  12   1   6  769.02   56.39
   1 -13   6  912.41   58.39
   1 -13   6  832.82   57.09
  12 -12  -6   41.70   19.90
   0 -12   6  -24.30   16.50
  12   0   6   -3.00   12.80
  11 -12  -6   44.10   18.80
  -1 -11   6   59.09   18.20
  12  -1   6   28.50   13.10
  10 -12  -6  999.60   58.79
   2  10  -6 1113.09   64.09
  -2 -10   6  965.40   59.69
  12  -2   6  889.81   54.59
   3   9  -6   49.40   19.50
   9 -12  -6   54.19   15.30
  12  -3   6   29.50   13.40
  -3  -9   6   19.30   16.20
   8 -12  -6  450.15   32.10
   8 -12  -6  405.56   28.60
   4   8  -6  437.86   37.60
  -4  -8   6  398.26   34.70
  12  -4   6  373.76   31.60
   7 -12  -6  987.50   55.59
   5   7  -6  963.40   61.39
  -5  -7   6  953.60   58.99
  12  -5   6  970.50   56.69
   6 -12  -6  173.18   24.20
   6   6  -6  252.77   30.50
  12  -6   6  214.48   26.70
  -6  -6   6  254.97   29.40
   5 -12  -6 1016.10   60.89
   7   5  -6 1108.49   53.79
   7   5  -6 1069.69   66.19
  12  -7   6 1052.89   62.89
  -7  -5   6 1235.98   65.59
   8   4  -6  220.18   28.40
   8   4  -6  189.28   16.40
   4 -12  -6  169.58   19.60
  12  -8   6  222.08   25.40
  -8  -4   6  168.68   22.80
   9   3  -6  804.12   45.00
   9   3  -6  816.82   53.39
   3 -12  -6  761.02   47.20
  12  -9   6  809.02   50.79
  -9  -3   6  814.22   51.99
  12  -9   6  835.52   50.49
   2 -12  -6  389.06   30.40
  10   2  -6  416.06   36.00
  10   2  -6  346.57   30.90
  12 -10   6  408.06   34.00
  12 -10   6  356.76   33.20
 -10  -2   6  420.86   35.20
  11   1  -6  118.19   23.30
   1 -12  -6  127.39   17.10
  12 -11   6  117.99   21.50
  12 -11   6  162.98   21.40
 -11  -1   6  148.89   22.40
   0 -12  -6    7.90   12.30
  12   0  -6  -15.60   17.70
  12 -12   6   29.90   17.50
 -12   0   6    5.20   15.20
  12 -12   6   -8.90   14.40
  13  -1  -6  254.07   31.00
  -1 -12  -6  215.08   27.20
  12 -13   6  238.18   26.70
  12 -13   6  208.38   27.80
 -13   1   6  204.18   27.30
  14  -2  -6  231.78   30.70
  12 -14   6  212.08   29.30
  12 -14   6  187.68   24.10
  15  -3  -6  102.19   30.90
  12 -15   6  116.89   29.20
  12 -15   6  141.29   23.30
  14 -13  -6    9.90   25.70
   1 -14   6   69.69   25.30
   1 -14   6   79.99   24.40
  13 -13  -6  149.69   28.20
   0 -13   6  187.38   28.30
   0 -13   6  167.78   27.30
  12 -13  -6  190.78   28.20
  13  -1   6  207.78   27.70
  -1 -12   6  223.18   29.60
  11 -13  -6   13.30   19.10
   2  11  -6   20.00   20.80
  -2 -11   6   13.50   17.90
  13  -2   6   -9.80   13.40
   3  10  -6   -5.00   19.40
  10 -13  -6   11.50   16.80
  13  -3   6  -14.40   12.30
  -3 -10   6  -13.10   17.00
   9 -13  -6   -2.40   13.70
   4   9  -6  -12.70   18.00
  13  -4   6   14.20   14.00
  -4  -9   6    2.40   17.60
   5   8  -6   18.10   19.00
   8 -13  -6   22.30   13.50
  13  -5   6   22.70   14.70
   6   7  -6  184.98   27.10
   7 -13  -6  160.08   19.80
  -6  -7   6  191.18   26.40
  13  -6   6  157.18   26.10
   6 -13  -6  -22.90   10.80
   7   6  -6   21.70   18.10
  13  -7   6    5.80   14.90
  -7  -6   6    3.30   16.20
   8   5  -6  293.57   35.10
   5 -13  -6  289.47   27.20
  13  -8   6  334.47   32.90
  -8  -5   6  310.47   33.80
   9   4  -6  828.02   53.69
   4 -13  -6  664.43   46.10
  13  -9   6  794.12   50.79
  -9  -4   6  827.82   53.09
  10   3  -6  215.08   27.70
  10   3  -6  221.88   24.50
  13 -10   6  188.38   23.60
 -10  -3   6  213.68   27.60
  13 -10   6  220.78   25.90
  11   2  -6  161.48   25.90
 -11  -2   6  127.99   24.10
  13 -11   6  162.98   23.50
  13 -11   6  192.68   24.50
  12   1  -6  820.72   56.39
  13 -12   6  809.12   53.19
 -12  -1   6  746.83   54.59
  13 -12   6  899.11   55.39
  13   0  -6  200.28   29.80
  13 -13   6  158.68   22.50
 -13   0   6  170.98   27.70
  13 -13   6  155.98   25.40
  14  -1  -6 1118.69   76.29
  13 -14   6 1294.77   72.29
  13 -14   6 1255.07   75.19
  -1 -13   6 1339.77   78.09
  -1 -13   6 1182.28   78.19
  14  -2   6  182.78   25.40
  -2 -12   6  242.68   31.60
   3  11  -6  337.67   41.00
  14  -3   6  238.18   30.90
  -3 -11   6  300.97   34.10
   4  10  -6  194.48   31.20
  10 -14  -6  244.48   26.40
  14  -4   6  156.88   23.40
  -4 -10   6  230.18   29.90
   9 -14  -6  744.63   45.80
   5   9  -6  659.83   51.09
  14  -5   6  612.14   46.90
  -5  -9   6  599.14   49.40
   6   8  -6   21.50   21.10
   8 -14  -6   46.10   14.70
  14  -6   6   63.19   19.30
  -6  -8   6   -3.40   20.80
   7   7  -6  258.27   34.90
   7 -14  -6  298.07   28.30
  -7  -7   6  300.47   35.20
  14  -7   6  256.87   33.50
   8   6  -6   21.30   19.50
   6 -14  -6   30.10   13.90
  14  -8   6   12.20   17.40
   5 -14  -6   38.80   14.30
   9   5  -6   45.20   21.10
  14  -9   6   24.40   18.30
  -9  -5   6   56.99   20.90
  10   4  -6   31.10   21.10
   4 -14  -6   22.50   14.10
 -10  -4   6   40.10   20.30
  14 -10   6   25.00   16.80
  14 -10   6   51.99   19.10
   3 -14  -6  282.97   29.80
  14 -11   6  281.77   33.60
 -11  -3   6  330.27   37.10
  14 -11   6  319.27   35.00
   2 -14  -6  566.54   41.80
  12   2  -6  647.44   49.30
  14 -12   6  682.93   47.60
 -12  -2   6  607.74   49.99
  14 -12   6  619.94   47.60
  13   1  -6   87.89   24.30
  14 -13   6   60.59   21.60
 -13  -1   6   54.19   24.70
  14 -13   6   59.49   21.40
   3  12  -6  107.19   34.50
  -3 -12   6  122.39   29.80
  15  -3   6  140.29   24.90
   4  11  -6  -23.40   23.50
  15  -4   6   44.20   20.20
  -4 -11   6   31.50   26.30
  10 -15  -6   -4.90   16.40
   5  10  -6   12.30   22.70
  15  -5   6   32.50   20.60
  -5 -10   6   24.60   23.80
   6   9  -6  152.98   29.10
   9 -15  -6  223.78   24.70
  -6  -9   6  202.68   29.60
  15  -6   6  183.38   27.80
   7   8  -6   27.20   22.70
   8 -15  -6   32.10   15.60
  -7  -8   6   23.50   22.30
  15  -7   6   34.20   21.50
   8   7  -6  813.62   56.19
   7 -15  -6  723.03   47.30
  15  -8   6  736.03   53.79
  -8  -7   6  734.93   57.29
   9   6  -6  218.18   31.50
   6 -15  -6  267.27   28.60
  15  -9   6  269.07   32.90
  -9  -6   6  289.27   33.00
   5 -15  -6   79.49   16.70
  10   5  -6   71.39   22.30
  15 -10   6   74.89   22.30
 -10  -5   6   90.49   25.00
   4 -15  -6  -25.40   14.40
  11   4  -6   31.40   22.20
  15 -11   6   40.70   21.70
  15 -11   6   -3.20   18.90
  12   3  -6   45.40   28.30
  15 -12   6   59.09   21.70
  15 -12   6   27.10   22.80
 -12  -3   6   71.39   24.80
   0   0  -7   85.29   10.70
   0   0  -7  109.19   12.00
   0   0   7   79.19    9.00
   0   0   7   87.29   11.40
   0   0   7   89.69    9.60
   0   1  -7  307.67   22.80
  -1   0  -7  364.56   22.60
   1  -1  -7  346.27   22.40
   1  -1  -7  332.97   21.90
   0   1  -7  348.87   21.40
  -1   0  -7  338.67   21.70
   1   0   7  342.97   19.50
  -1   1   7  359.66   20.40
   1   0   7  342.17   20.60
   0  -1   7  337.57   20.70
  -1   1   7  356.46   21.20
   0  -1   7  344.97   22.80
   0  -1   7  341.47   21.20
   0  -1  -7  329.87   21.80
   1   0  -7  360.86   23.30
   1   0  -7  330.07   21.80
  -1   1  -7  339.17   23.20
   0  -1  -7  363.56   22.20
  -1   1  -7  324.47   21.20
   0   1   7  350.96   19.50
  -1   0   7  329.67   21.20
   0   1   7  307.37   20.10
   1  -1   7  335.37   22.40
   1  -1   7  358.16   20.90
  -1   0   7  355.76   21.00
   1  -1   7  363.06   20.40
  -1  -1  -7  704.33   36.60
  -1   2  -7  679.93   38.10
   2  -1  -7  648.24   37.30
  -1   2  -7  683.23   36.20
  -1  -1  -7  629.34   36.50
   2  -1  -7  666.53   37.30
  -2   1   7  680.73   36.30
  -2   1   7  665.23   36.40
   1  -2   7  656.43   36.70
   1   1   7  699.93   34.10
   1  -2   7  686.63   36.00
   1  -2   7  661.93   36.20
   1   1   7  669.93   35.00
   3  -2  -7  623.04   29.60
  -2  -1  -7  582.34   32.80
  -1   3  -7  563.74   31.60
   3  -2  -7  547.75   33.90
   3  -2  -7  576.94   33.60
   1  -3   7  557.04   32.60
   2   1   7  614.54   29.30
  -3   2   7  616.34   33.20
   1  -3   7  562.84   32.40
   2   1   7  573.64   30.70
  -3   2   7  570.94   32.70
   1  -3   7  564.74   32.50
  -2   0  -7  354.56   22.50
   0   2  -7  309.97   24.40
   0   2  -7  336.47   21.70
   2  -2  -7  381.66   23.30
   2  -2  -7  383.36   23.90
   2   0   7  374.86   21.20
   0  -2   7  385.66   23.60
   2   0   7  375.76   20.10
   0  -2   7  364.76   22.50
  -2   2   7  359.56   22.10
  -2   2   7  352.36   21.90
   0  -2   7  369.96   22.30
   1  -2  -7  674.33   37.00
   1   1  -7  687.13   38.50
   1  -2  -7  652.13   37.70
   1   1  -7  708.13   37.30
  -2   1  -7  703.73   37.10
  -1  -1   7  688.23   37.20
  -1  -1   7  685.73   37.20
   2  -1   7  648.24   35.90
  -1   2   7  689.53   35.60
  -1   2   7  676.53   36.20
   2  -1   7  705.63   35.40
   2   0  -7  346.87   24.80
  -2   2  -7  358.46   22.20
   0  -2  -7  364.56   23.60
   2   0  -7  383.26   24.00
   2   0  -7  399.06   22.00
   0  -2  -7  392.36   23.00
   0   2   7  368.96   20.50
   0   2   7  373.76   21.60
   2  -2   7  390.56   22.20
  -2   0   7  370.76   23.30
  -2   0   7  356.66   23.20
   2  -2   7  355.36   22.10
  -1  -2  -7  130.89   12.90
   3  -1  -7  137.39   14.70
  -2   3  -7  102.49   13.40
  -2   3  -7  105.29   11.10
   3  -1  -7  107.29   13.50
   3  -1  -7  129.09   11.20
   1   2   7  125.59   10.40
  -3   1   7  126.99   12.80
  -3   1   7  126.39   13.20
   2  -3   7  126.29   12.70
   2  -3   7  117.49   11.90
   4  -2  -7   66.99   11.80
  -2   4  -7   46.70    7.30
   4  -2  -7   62.39    8.00
  -2  -2  -7   57.29    9.20
   4  -2  -7   54.19   10.40
   2  -4   7   73.59   10.40
   2   2   7   52.89    6.70
   2  -4   7   61.59    9.00
  -4   2   7  104.79   11.60
   2   2   7   62.29    5.20
  -4   2   7   52.99   10.00
   2  -4   7   43.90    8.30
   5  -3  -7 1472.35   69.09
   5  -3  -7 1354.76   72.19
  -3  -2  -7 1370.16   69.79
   5  -3  -7 1341.87   72.19
   2  -5   7 1358.86   70.19
   2  -5   7 1381.36   72.69
  -5   3   7 1408.56   71.29
   2  -5   7 1390.26   68.99
   3   2   7 1364.16   66.99
  -5   3   7 1345.07   70.19
  -1   4  -7  663.93   35.30
  -3  -1  -7  679.93   36.70
   4  -3  -7  704.73   38.20
   4  -3  -7  629.74   38.20
  -4   3   7  688.83   37.70
   3   1   7  644.74   34.30
   1  -4   7  678.93   36.30
   1  -4   7  644.34   37.30
   1  -4   7  678.33   37.00
  -4   3   7  618.24   36.50
   3  -3  -7  117.09   12.40
   3  -3  -7  105.19   12.60
  -3   0  -7  119.79   11.90
   0   3  -7  118.49   11.10
   0  -3   7  104.59   13.10
   3   0   7  113.79   10.50
   0  -3   7  110.79   12.80
  -3   3   7  121.19   12.80
   0  -3   7  113.79   12.40
   3   0   7  107.39   10.20
  -3   3   7   94.49   11.50
  -3   1  -7  129.39   12.20
   1   2  -7  125.19   11.80
   2  -3  -7  123.19   13.00
   2  -3  -7  123.49   13.60
  -1  -2   7  111.69   13.50
  -2   3   7  130.59   12.10
  -2   3   7  148.89   12.40
  -1  -2   7  132.99   13.10
   3  -1   7  115.49   11.00
   3  -1   7  102.99   10.70
   1  -3  -7  525.95   32.50
   2   1  -7  556.34   32.20
   2   1  -7  623.74   31.90
   2   1  -7  557.54   34.80
   1  -3  -7  594.44   31.40
  -3   2  -7  566.94   31.50
  -1   3   7  574.94   30.80
   3  -2   7  560.64   31.00
  -2  -1   7  547.25   32.50
  -2  -1   7  529.85   32.10
  -1   3   7  586.34   30.20
   3  -2   7  552.84   31.10
   3   0  -7  124.59   12.00
  -3   3  -7   97.79   10.90
   0  -3  -7  122.09   13.30
   3   0  -7  113.49   13.10
   3   0  -7  116.99   14.90
   0  -3  -7  108.49   11.50
  -3   0   7  121.49   13.40
   0   3   7  106.59   10.60
  -3   0   7  108.99   13.00
   3  -3   7  116.59   12.70
   3  -3   7   95.79   11.20
   0   3   7  106.09   10.20
   4  -1  -7  501.25   28.40
   4  -1  -7  463.95   30.10
  -1  -3  -7  490.85   29.30
  -4   1   7  492.85   29.50
   3  -4   7  490.75   29.50
  -4   1   7  459.95   30.00
   3  -4   7  470.15   28.50
   1   3   7  499.75   24.40
   3  -4   7  473.65   28.90
   1   3   7  500.95   26.00
   5  -2  -7   57.29    9.80
   5  -2  -7   44.00   11.20
  -2  -3  -7   48.90    8.70
   3  -5   7   61.89    9.70
   3  -5   7   54.89    9.30
   3  -5   7   72.29   12.00
  -5   2   7   81.79   11.60
  -5   2   7   73.49   17.10
   2   3   7   63.39    7.70
   6  -3  -7  316.87   27.10
  -3  -3  -7  385.36   23.70
   6  -3  -7  388.46   25.30
   3  -6   7  351.46   24.20
  -6   3   7  334.37   24.30
   3   3   7  360.46   20.00
   3  -6   7  355.66   23.50
   7  -4  -7   20.30   10.90
   7  -4  -7   30.40   11.30
  -4  -3  -7    8.60    6.60
   3  -7   7   12.20    8.00
   3  -7   7   19.30    8.20
  -7   4   7   16.10    8.80
   4   3   7   10.60    4.40
  -4  -2  -7   88.69   11.30
   6  -4  -7  102.19   13.90
   6  -4  -7  109.89   15.50
   2  -6   7  111.09   13.60
  -6   4   7  127.99   14.60
   4   2   7  118.89    9.70
   2  -6   7  120.89   13.80
  -4  -1  -7  220.38   16.90
  -1   5  -7  236.18   15.90
   5  -4  -7  236.48   15.70
   5  -4  -7  239.58   21.60
   5  -4  -7  232.88   20.90
  -5   4   7  234.08   17.80
   1  -5   7  224.68   18.20
   4   1   7  217.88   14.90
  -5   4   7  192.68   19.20
   1  -5   7  274.97   18.20
   4  -4  -7  357.46   23.20
  -4   0  -7  340.27   21.90
   4  -4  -7  309.27   23.70
   0   4  -7  318.97   20.10
  -4   4   7  324.77   21.30
   4   0   7  313.27   19.80
   0  -4   7  369.26   31.70
   0  -4   7  330.17   22.20
  -4   4   7  353.86   22.50
   3  -4  -7  484.95   29.80
  -4   1  -7  481.55   28.00
   3  -4  -7  477.65   27.80
   1   3  -7  470.45   27.00
  -3   4   7  439.36   26.90
   4  -1   7  475.65   26.70
  -1  -3   7  497.35   29.20
  -1  -3   7  462.05   29.40
  -3   4   7  505.55   27.90
   2   2  -7   66.49    9.70
   2   2  -7   51.19    8.10
   2  -4  -7   62.29   10.40
   2  -4  -7   52.69    8.30
  -2   4   7   67.19    8.10
  -2   4   7   56.09    7.80
  -2  -2   7   43.00    8.90
   4  -2   7   58.59    7.90
  -2  -2   7   59.39   10.30
   1  -4  -7  647.84   38.30
   3   1  -7  746.33   38.00
   3   1  -7  653.03   37.40
   1  -4  -7  690.43   35.60
   4  -3   7  655.13   37.40
   4  -3   7  679.63   36.90
  -3  -1   7  663.23   38.30
  -3  -1   7  620.04   38.30
  -1   4   7  676.23   35.10
  -1   4   7  709.23   35.20
   4   0  -7  341.37   23.30
   0  -4  -7  298.87   22.40
   4   0  -7  340.17   22.60
   0   4   7  326.37   19.50
   4  -4   7  347.97   22.00
  -4   0   7  304.17   22.70
   0   4   7  335.47   18.40
   4  -4   7  328.37   23.00
   5  -1  -7  335.97   26.50
   5  -1  -7  373.96   25.70
  -1  -4  -7  399.16   25.10
   1   4   7  406.16   21.50
   1   4   7  408.56   20.20
   4  -5   7  373.46   25.10
   4  -5   7  385.06   26.70
  -5   1   7  415.96   26.30
   6  -2  -7  278.97   24.00
   6  -2  -7  283.07   23.00
  -2  -4  -7  290.47   20.70
  -6   2   7  248.08   21.10
   4  -6   7  281.87   21.10
   2   4   7  279.87   15.80
   7  -3  -7  500.95   36.00
  -3  -4  -7  500.45   31.40
   7  -3  -7  528.55   35.20
   3   4   7  548.75   26.60
  -7   3   7  513.15   32.70
   4  -7   7  545.05   33.30
   8  -4  -7    5.60   12.00
  -4  -4  -7    6.90    7.60
   4   4   7   24.30    4.20
   4  -8   7   10.00    9.80
   4  -8   7   20.00   10.00
   4   4   7   24.00    4.80
  -8   4   7    8.50    9.20
   9  -5  -7 1028.60   59.09
   5   4   7 1007.10   47.90
   4  -9   7  987.90   52.29
  -9   5   7  902.81   53.89
   5   4   7  957.20   47.30
   5   4   7 1002.70   47.30
   8  -5  -7  178.98   22.40
   3  -8   7  167.58   19.20
  -8   5   7  192.48   18.00
   5   3   7  178.98   12.30
   3  -8   7  184.58   17.80
   7  -5  -7  938.71   52.09
   7  -5  -7  831.32   53.79
   2  -7   7  966.10   49.50
   5   2   7  947.21   47.30
   2  -7   7 1003.00   51.99
  -7   5   7  983.10   50.99
   6  -5  -7    6.00   12.00
   6  -5  -7   14.20    9.80
   6  -5  -7   11.50    6.70
   5   1   7    5.80    4.80
   1  -6   7    4.60    6.90
   1  -6   7   -9.90    7.30
  -6   5   7    6.50    6.40
   5  -5  -7  117.49   14.20
   5  -5  -7  125.49    9.80
   0   5  -7  122.99   11.30
   5  -5  -7  123.69   15.70
  -5   5   7  126.69   12.70
   5   0   7  108.39   10.80
  -5   5   7  108.79   14.70
   0  -5   7  120.49   13.90
   4  -5  -7  399.46   24.40
   1   4  -7  413.56   26.50
   4  -5  -7  355.46   25.50
   1   4  -7  384.06   22.60
   5  -1   7  381.86   23.00
  -4   5   7  385.66   23.00
  -1  -4   7  349.07   25.10
  -4   5   7  390.76   24.30
   2   3  -7   62.69    8.10
   3  -5  -7   47.30    8.30
   2   3  -7   65.59   10.40
   3  -5  -7   51.69   10.40
  -3   5   7   68.49    8.80
  -2  -3   7   54.99   10.50
  -3   5   7   62.99    7.70
   5  -2   7   66.49    9.40
   2  -5  -7 1461.35   67.69
   3   2  -7 1414.16   70.59
   3   2  -7 1397.56   69.19
   2  -5  -7 1325.97   70.59
  -3  -2   7 1386.26   70.89
  -2   5   7 1364.76   67.39
  -2   5   7 1314.77   66.79
   5  -3   7 1317.97   69.09
   4   1  -7  246.48   19.70
   1  -5  -7  234.98   15.00
   4   1  -7  242.28   18.80
   1  -5  -7  241.68   19.70
   5  -4   7  239.68   18.10
  -1   5   7  229.68   15.00
   5  -4   7  242.08   19.80
  -1   5   7  186.98   15.10
  -4  -1   7  234.18   19.60
   5   0  -7   87.69   12.70
   5   0  -7  125.29   15.00
   0  -5  -7  100.69   13.30
   0   5   7  114.19    8.20
  -5   0   7   91.79   12.80
   0   5   7  116.69    9.30
   5  -5   7   95.59   12.20
   5  -5   7  118.19   14.70
   6  -1  -7  164.48   18.60
   6  -1  -7  158.88   18.70
  -1  -5  -7  135.79   15.30
   5  -6   7  146.19   16.50
  -6   1   7  137.49   16.70
   1   5   7  173.88   10.00
   1   5   7  137.69    8.80
   7  -2  -7   74.69   14.30
   7  -2  -7   39.40   12.90
  -2  -5  -7   74.59   11.50
   5  -7   7   56.39   11.50
  -7   2   7   59.99   11.80
   2   5   7   78.09    5.90
  -3  -5  -7   16.90    8.10
   8  -3  -7   23.20   14.30
   5  -8   7   20.40   10.80
  -8   3   7   20.30   10.10
   9  -4  -7   91.69   18.00
  -4  -5  -7   62.29   11.70
   4   5   7   74.39    7.20
  -9   4   7   94.59   14.60
  10  -5  -7  102.89   19.30
   5   5   7   91.69    9.50
   5 -10   7   86.29   16.50
   5 -10   7   78.29   17.10
  11  -6  -7  127.79   33.30
   5 -11   7   60.59   16.20
   5 -11   7  106.39   17.60
   6   5   7   79.59   10.00
  10  -6  -7  232.28   28.20
   4 -10   7  258.97   25.70
 -10   6   7  203.48   22.30
   6   4   7  213.88   14.50
   6   4   7  221.38   13.60
   9  -6  -7 1118.19   62.59
   6   3   7 1062.19   51.79
   6   3   7 1032.80   52.59
   3  -9   7 1113.59   55.79
  -9   6   7 1083.89   57.89
   6   3   7 1030.20   53.29
   8  -6  -7   25.00   12.90
  -8   6   7   20.50    8.70
   6   2   7   17.90    4.40
   2  -8   7   14.80    9.30
   2  -8   7   11.70    8.90
   6   2   7   16.00    6.00
   7  -6  -7    1.20   10.80
   7  -6  -7   -9.60    8.70
  -7   6   7    8.90    7.20
   1  -7   7   10.00    8.20
   1  -7   7    9.90    8.60
   6   1   7   13.90    5.80
   6   1   7    8.60    5.90
   6  -6  -7  527.55   35.40
   6  -6  -7  546.75   35.60
   6   0   7  533.05   29.80
  -6   6   7  557.14   31.10
   6   0   7  560.54   30.60
   0  -6   7  578.64   33.90
   5  -6  -7  133.79   14.50
   5  -6  -7  127.59   16.00
   1   5  -7  155.78   18.10
   1   5  -7  143.69   11.80
  -5   6   7  165.48   16.10
   6  -1   7  130.79   12.50
   6  -1   7  134.69   13.10
  -1  -5   7  132.79   15.70
  -5   6   7  131.79   12.20
   2   4  -7  261.27   21.70
   2   4  -7  278.17   17.60
   4  -6  -7  273.77   21.90
   4  -6  -7  277.67   19.30
  -4   6   7  257.77   16.80
  -2  -4   7  271.37   20.60
   6  -2   7  240.48   18.70
  -4   6   7  273.77   19.00
   3  -6  -7  373.06   26.00
   3   3  -7  367.76   22.70
   3  -6  -7  421.96   22.50
   3   3  -7  383.96   26.60
  -3  -3   7  384.06   25.80
  -3   6   7  353.46   22.40
  -3   6   7  332.27   20.30
   6  -3   7  347.47   23.90
   4   2  -7  113.39   14.90
   2  -6  -7  111.69   10.80
   2  -6  -7  113.39   13.90
   4   2  -7  113.19   12.50
  -4  -2   7   89.49   12.90
   6  -4   7  104.19   13.00
  -2   6   7  127.99   11.40
  -2   6   7   85.19    9.10
   5   1  -7   -4.90    9.20
   1  -6  -7    2.10    7.60
   5   1  -7  -14.80    6.50
  -5  -1   7    8.90    8.40
   6  -5   7    3.30    7.40
  -1   6   7   12.60    5.00
   6   0  -7  633.74   39.30
   6   0  -7  560.54   37.50
   0  -6  -7  599.34   36.60
   0   6   7  669.13   31.70
   6  -6   7  595.54   37.00
  -6   0   7  587.94   37.40
   7  -1  -7   54.99   14.00
   7  -1  -7   28.30   12.40
  -1  -6  -7   18.10    9.20
  -7   1   7   28.80   10.70
   6  -7   7   47.80   11.30
   1   6   7   42.70    6.00
   8  -2  -7  516.85   37.90
  -2  -6  -7  527.45   33.20
  -8   2   7  553.64   35.30
   6  -8   7  511.15   34.40
   2   6   7  601.14   29.40
   6  -8   7  493.95   35.10
  -3  -6  -7  954.70   51.99
   9  -3  -7  981.60   58.39
  -9   3   7  958.40   54.19
   6  -9   7 1022.40   55.19
   3   6   7  882.31   46.30
   6  -9   7  973.30   59.19
  -4  -6  -7  125.49   15.00
  10  -4  -7  106.69   20.20
   6 -10   7  131.79   19.40
   6 -10   7  106.89   17.50
 -10   4   7   91.29   16.00
   4   6   7  100.59    9.80
  11  -5  -7   49.40   17.90
   5   6   7   43.70    8.00
   6 -11   7   32.50   16.10
 -11   5   7   32.90   13.60
   6 -11   7   62.39   14.90
  12  -6  -7   68.79   21.10
   6 -12   7   68.29   17.50
   6 -12   7   79.19   20.10
  13  -7  -7  435.36   43.20
   6 -13   7  398.76   37.00
   6 -13   7  424.96   40.50
  12  -7  -7  320.27   36.50
   5 -12   7  302.77   32.90
   5 -12   7  293.27   31.10
  11  -7  -7  114.39   21.60
   4 -11   7   88.49   17.20
   7   4   7  102.99   13.30
   4 -11   7  103.29   19.10
  10  -7  -7 1499.35   78.89
   3 -10   7 1458.25   76.29
   7   3   7 1288.97   68.29
   9  -7  -7  914.31   52.29
   7   2   7  828.62   42.30
   7   2   7  855.91   44.70
   2  -9   7  895.91   50.39
   7   2   7  773.82   43.40
   8  -7  -7  149.59   17.80
   7   1   7  124.59   14.90
   1  -8   7  141.99   16.80
   7   1   7  115.19   13.00
   7  -7  -7   14.90    8.80
   7  -7  -7   -4.90    9.30
   7   0   7   25.80    8.00
   7   0   7   11.90    7.10
   0  -7   7   24.80    9.70
   1   6  -7   41.70   11.90
   1   6  -7   35.20    6.20
   6  -7  -7   34.30   11.20
   6  -7  -7   67.09   12.10
   7  -1   7   56.19    9.60
  -1  -6   7   38.50   10.20
   7  -1   7   37.60    8.70
   2   5  -7   71.09    8.20
   2   5  -7   67.89   13.10
   5  -7  -7   74.99   13.00
   5  -7  -7   78.89   11.20
  -2  -5   7   66.39   12.30
   7  -2   7   59.19   10.00
  -5   7   7   81.29   11.20
   7  -2   7   74.09   10.90
   4  -7  -7  537.45   29.80
   4  -7  -7  535.85   33.60
   3   4  -7  528.15   29.30
   3   4  -7  594.34   35.00
  -3  -4   7  504.15   33.50
   7  -3   7  522.05   31.60
  -4   7   7  518.45   30.30
   7  -3   7  521.25   32.00
   4   3  -7   10.80    9.60
   4   3  -7   22.50    6.80
   3  -7  -7   12.90    8.60
   3  -7  -7   20.30    6.30
   7  -4   7   24.10    9.00
   7  -4   7    7.70    7.60
  -3   7   7   24.40    7.00
  -4  -3   7   13.60    8.80
   2  -7  -7 1011.00   49.90
   5   2  -7 1036.40   54.69
   5   2  -7 1092.29   58.79
   2  -7  -7 1033.30   56.59
  -5  -2   7 1058.99   57.49
   7  -5   7  995.80   56.09
   7  -5   7 1027.10   55.69
  -2   7   7 1066.39   52.49
   1  -7  -7   14.70    9.00
   6   1  -7    1.70    8.50
   6   1  -7    2.20   11.60
  -6  -1   7   11.00    9.60
   7  -6   7    7.40    8.40
   7  -6   7    1.90    8.70
  -1   7   7    4.50    5.80
   0  -7  -7   25.30    9.40
   7   0  -7    8.40   12.60
   7   0  -7   13.80   10.60
  -7   0   7   29.50   10.60
   0   7   7   13.10    6.50
   7  -7   7   19.10    9.70
   7  -7   7   18.10   10.90
  -1  -7  -7   39.10   10.60
   8  -1  -7   29.80   13.60
   8  -1  -7    3.50   13.10
   7  -8   7   41.40   12.10
   7  -8   7   38.50   12.20
  -8   1   7   43.90   12.80
   1   7   7   45.30    9.40
   9  -2  -7  345.27   31.80
  -2  -7  -7  290.27   23.40
   7  -9   7  301.67   27.80
   7  -9   7  287.17   26.50
  -9   2   7  311.97   31.20
  10  -3  -7   53.59   27.70
  -3  -7  -7   18.40   10.40
   7 -10   7   19.50   14.00
 -10   3   7   24.20   12.80
   7 -10   7   13.10   12.50
  11  -4  -7  769.92   51.99
   7 -11   7  822.52   50.09
   7 -11   7  744.63   48.10
 -11   4   7  771.52   47.00
   4   7   7  683.23   39.10
  12  -5  -7   53.29   20.80
   7 -12   7   78.89   19.80
   7 -12   7   42.20   16.00
  13  -6  -7  156.68   26.50
   7 -13   7  133.89   24.30
   7 -13   7  178.98   24.30
  14  -7  -7  123.69   28.30
   7 -14   7  161.08   24.80
   7 -14   7  129.79   26.30
  15  -8  -7  515.25   54.09
   7 -15   7  507.25   51.59
  14  -8  -7  -54.19   22.30
   6 -14   7    8.00   21.10
   6 -14   7   29.90   19.60
  13  -8  -7  -27.90   19.10
   5 -13   7   -6.80   17.20
   5 -13   7   21.40   18.30
  12  -8  -7   24.10   20.30
   4 -12   7   12.10   17.10
   4 -12   7  -11.50   14.60
  11  -8  -7   18.90   17.80
   8   3   7   20.30    7.70
   3 -11   7   30.50   14.30
   8   3   7   23.20    8.70
  10  -8  -7  514.65   39.10
   8   2   7  475.95   28.70
   2 -10   7  478.35   35.60
   8   2   7  484.15   27.60
   9  -8  -7  151.58   20.00
   8   1   7  134.79   15.40
   8   1   7  128.09   12.20
   1  -9   7  164.78   20.30
   8  -8  -7 1790.72   89.69
   8   0   7 1813.52   86.19
   8   0   7 1756.42   88.09
   0  -8   7 1657.23  103.69
   7  -8  -7   32.50    8.40
   7  -8  -7   58.69   15.10
   1   7  -7   53.09   14.60
   7  -8  -7   40.80   12.00
   8  -1   7   43.50    9.60
  -1  -7   7   23.60   10.80
   8  -1   7   35.30    9.90
   6  -8  -7  469.85   32.90
   2   6  -7  535.15   27.40
   2   6  -7  546.55   35.40
   6  -8  -7  478.95   32.00
   8  -2   7  493.45   31.60
  -2  -6   7  479.45   33.30
   8  -2   7  514.15   31.70
   3   5  -7   29.30    6.10
   5  -8  -7   14.30    9.60
   3   5  -7   43.80   12.50
   5  -8  -7   42.20    9.30
   8  -3   7   35.10   10.10
  -5   8   7   41.60   14.60
  -3  -5   7   32.40   12.20
   8  -3   7   18.10    9.90
   4   4  -7   12.50   11.30
   4  -8  -7   12.10    9.20
   4  -8  -7   23.60    7.00
   4   4  -7   25.50    6.40
   8  -4   7   24.00   10.60
   8  -4   7   17.70   10.50
  -4  -4   7    0.80    9.60
  -4   8   7   23.60    8.60
   5   3  -7  189.88   16.20
   3  -8  -7  186.18   12.20
   3  -8  -7  205.58   19.50
   5   3  -7  181.28   22.00
   8  -5   7  186.98   20.40
   8  -5   7  188.58   19.90
  -5  -3   7  151.78   19.10
  -3   8   7  184.18   17.00
   6   2  -7   41.70    9.30
   6   2  -7   20.60   12.90
   2  -8  -7   29.00   10.20
  -6  -2   7   22.10   12.20
   8  -6   7   35.90   11.50
   8  -6   7   22.60   10.80
  -2   8   7   30.60    8.70
   7   1  -7  148.99   17.60
   7   1  -7  144.49   20.50
   1  -8  -7  165.68   18.00
  -7  -1   7  138.09   17.70
   8  -7   7  175.88   20.90
  -1   8   7  189.18   17.00
   8  -7   7  141.79   18.50
   0  -8  -7 1764.42   94.99
   8   0  -7 1759.72   96.99
   8   0  -7 1992.40  100.49
  -8   0   7 1882.71  101.49
   8  -8   7 1979.40   97.69
  -1  -8  -7   45.30   11.60
   9  -1  -7   46.30   18.40
   8  -9   7   26.50   13.90
  -9   1   7   46.40   14.30
   8  -9   7   50.39   14.50
  10  -2  -7  195.58   25.80
  -2  -8  -7  204.98   21.30
   8 -10   7  229.08   26.30
 -10   2   7  208.58   25.20
   8 -10   7  249.78   26.70
  -3  -8  -7  187.88   22.20
  11  -3  -7  263.17   32.00
 -11   3   7  239.18   26.30
   3   8   7  223.68   17.50
   8 -11   7  230.38   28.50
   8 -11   7  205.48   23.60
  12  -4  -7  243.98   29.90
   8 -12   7  263.27   32.00
 -12   4   7  201.28   24.40
   8 -12   7  214.58   25.00
  13  -5  -7  539.05   45.60
   8 -13   7  463.95   43.20
   8 -13   7  519.45   40.60
  14  -6  -7   74.09   25.30
   8 -14   7   71.29   20.00
   8 -14   7   26.90   22.00
  15  -7  -7   28.10   26.70
   8 -15   7   -1.00   25.20
   8 -15   7   10.40   19.20
  15  -9  -7  279.97   37.50
   6 -15   7  199.28   44.60
   6 -15   7  189.48   27.80
  14  -9  -7  205.38   31.60
   5 -14   7  155.58   29.40
  13  -9  -7  -19.80   21.00
   4 -13   7    5.00   18.10
   4 -13   7  -17.80   16.20
  12  -9  -7  797.72   56.79
   3 -12   7  831.02   53.39
   3 -12   7  848.62   54.89
  11  -9  -7   12.00   17.90
   9   2   7   13.80    9.60
   2 -11   7    5.60   14.60
   9   2   7   29.20   10.00
  10  -9  -7   -5.90   15.80
   1 -10   7   -6.70   12.10
   9   1   7    2.60    9.50
   9   1   7   12.20    8.00
   9  -9  -7  -10.50   13.30
   9   0   7   -0.50    6.70
   0  -9   7   -5.40   12.60
   9   0   7   -1.40    9.60
   8  -9  -7   29.40   13.10
   8  -9  -7   29.50   10.70
   9  -1   7   39.80   11.50
   9  -1   7   23.70   12.80
  -1  -8   7   31.40   13.70
   2   7  -7  316.67   28.10
   7  -9  -7  250.27   26.80
   9  -2   7  332.67   25.40
   9  -2   7  311.17   23.30
  -2  -7   7  263.17   25.80
   6  -9  -7  878.61   49.90
   3   6  -7 1011.00   56.79
   6  -9  -7  881.21   53.39
   3   6  -7  997.60   47.30
   9  -3   7  939.81   52.69
   9  -3   7  974.20   53.59
   4   5  -7   90.49   17.20
   5  -9  -7   83.39    9.90
   4   5  -7   73.29    8.20
   5  -9  -7   68.69   13.10
   9  -4   7   49.30   13.50
   9  -4   7   64.79   13.30
   5   4  -7 1033.60   60.89
   4  -9  -7 1045.30   50.49
   4  -9  -7  998.90   56.79
   5   4  -7 1031.10   52.39
   9  -5   7  954.50   57.49
   9  -5   7 1001.90   57.99
  -4   9   7 1140.59   56.09
   6   3  -7 1126.09   57.79
   6   3  -7 1076.39   64.99
   3  -9  -7 1071.19   60.89
   9  -6   7 1061.29   62.39
  -6  -3   7 1112.49   67.29
   9  -6   7 1066.59   62.39
  -3   9   7 1292.97   60.09
   2  -9  -7  874.11   50.09
   7   2  -7  888.91   54.69
   7   2  -7  886.11   48.60
   9  -7   7  939.21   52.79
   9  -7   7  739.83   54.29
  -7  -2   7  886.21   51.29
   1  -9  -7  129.49   16.50
   8   1  -7  131.39   17.90
   8   1  -7  149.88   27.30
   9  -8   7  160.58   20.60
   9  -8   7  140.79   20.50
  -1   9   7  179.98   21.30
  -8  -1   7  156.38   19.90
   9   0  -7   10.90   13.70
   0  -9  -7    4.40   10.90
   9   0  -7   -0.40   14.40
   9  -9   7    8.70   13.40
  -9   0   7    6.00   12.60
  -1  -9  -7   17.70   11.10
  10  -1  -7   29.90   16.70
   9 -10   7   17.80   14.20
   9 -10   7   21.60   14.80
 -10   1   7   -2.90   13.00
  -2  -9  -7   -8.90   11.90
  11  -2  -7   -5.50   15.70
   9 -11   7   32.90   15.80
 -11   2   7   21.90   13.70
   9 -11   7    0.20   15.20
  -3  -9  -7   58.39   14.80
  12  -3  -7   64.29   20.90
 -12   3   7   79.39   17.10
   9 -12   7   73.29   17.80
   9 -12   7   36.40   19.30
  13  -4  -7 1027.10   65.59
   9 -13   7 1007.20   60.49
   9 -13   7  934.91   63.99
  14  -5  -7   12.80   22.50
   9 -14   7   -8.20   21.60
   9 -14   7   16.30   17.30
  15  -6  -7  436.16   48.40
   9 -15   7  263.17   31.00
   9 -15   7  284.77   48.90
  14 -10  -7  397.56   45.30
   4 -14   7  270.77   34.80
   4 -14   7  283.77   32.90
  13 -10  -7   -3.80   22.00
   3 -13   7   -3.40   18.60
  12 -10  -7  186.18   27.80
   2 -12   7  177.98   24.50
  11 -10  -7  510.85   41.50
  10   1   7  397.16   31.40
   1 -11   7  456.95   37.60
  10   1   7  467.75   29.90
  10 -10  -7  418.26   36.10
   0 -10   7  441.36   35.00
  10   0   7  400.86   30.60
  10   0   7  388.26   26.70
   9 -10  -7   17.80   13.10
  10  -1   7    1.90   11.30
  10  -1   7   -1.50    8.60
  -1  -9   7   22.70   13.90
   2   8  -7  229.38   28.00
   8 -10  -7  194.58   18.70
   8 -10  -7  199.38   24.00
  -2  -8   7  240.58   26.00
  10  -2   7  156.08   19.70
  10  -2   7  213.28   19.80
   7 -10  -7   26.10   12.70
   3   7  -7   30.40   15.90
  10  -3   7   26.30   12.60
  -3  -7   7   34.60   13.60
  10  -3   7   39.70   11.60
   6 -10  -7  103.79   15.50
   4   6  -7  100.69   10.30
   4   6  -7  131.89   21.10
  -4  -6   7  118.99   18.30
  10  -4   7  107.89   17.70
  10  -4   7  124.19   17.10
   5   5  -7   86.79   19.60
   5   5  -7  100.69   10.80
  10  -5   7  113.59   16.30
  10  -5   7  110.89   17.80
  -5  -5   7   77.59   16.40
   4 -10  -7  230.58   22.50
   6   4  -7  202.78   27.80
   6   4  -7  221.08   17.10
  -6  -4   7  214.98   25.40
  10  -6   7  213.58   25.00
   3 -10  -7 1419.16   76.09
   7   3  -7 1489.65   72.99
   7   3  -7 1471.95   81.49
  -7  -3   7 1404.26   77.99
  10  -7   7 1450.45   78.79
  10  -7   7 1400.96   78.59
   8   2  -7  497.85   40.90
   8   2  -7  499.35   33.50
   2 -10  -7  447.66   34.20
  10  -8   7  561.94   38.20
  -8  -2   7  549.85   37.80
  10  -8   7  506.55   38.70
   9   1  -7   -4.90   12.30
   1 -10  -7   -9.60   10.80
   9   1  -7    3.40   15.70
  10  -9   7   18.90   14.70
  -9  -1   7  -22.30   12.40
  10  -9   7   12.00   14.90
   0 -10  -7  386.96   35.60
  10   0  -7  472.05   39.10
  10   0  -7  515.95   37.80
  10 -10   7  502.15   36.60
 -10   0   7  420.66   36.30
  10 -10   7  465.95   38.20
  -1 -10  -7   66.29   26.20
  11  -1  -7   66.39   21.10
  10 -11   7   60.79   17.90
 -11   1   7  115.09   19.40
  10 -11   7  102.09   20.90
  12  -2  -7   14.30   19.30
  -2 -10  -7   19.90   14.10
 -12   2   7    6.50   15.70
  10 -12   7   24.40   16.70
  10 -12   7    3.10   17.60
  13  -3  -7  -38.80   19.10
  10 -13   7   -3.50   20.40
 -13   3   7   10.90   17.10
  10 -13   7   -2.00   16.20
  14  -4  -7    5.20   23.70
  10 -14   7   20.80   18.00
  10 -14   7   47.50   22.10
  14 -11  -7   43.60   27.30
   3 -14   7  -26.60   20.60
   3 -14   7   15.70   21.60
  13 -11  -7   16.60   24.40
   2 -13   7   48.00   21.20
   2 -13   7   54.69   21.40
  12 -11  -7  151.48   34.40
  11   1   7  139.99   19.80
  11 -11  -7  542.35   43.10
  11   0   7  498.25   37.30
  11   0   7  532.85   34.50
   0 -11   7  489.65   41.60
  10 -11  -7   95.99   19.30
  -1 -10   7   90.49   19.30
  11  -1   7   49.80   15.30
  11  -1   7   77.09   13.60
   2   9  -7    8.70   18.20
   9 -11  -7   12.90   13.50
   9 -11  -7   23.90   15.00
  -2  -9   7   25.10   15.50
  11  -2   7    6.20   13.70
  11  -2   7    3.00   10.20
   8 -11  -7  198.28   23.20
  11  -3   7  218.98   22.30
  -3  -8   7  202.88   23.50
  11  -3   7  177.28   22.50
   7 -11  -7  748.03   45.70
   4   7  -7  853.51   52.59
  11  -4   7  725.63   44.80
  -4  -7   7  717.23   47.60
  11  -4   7  551.04   54.89
   5   6  -7   44.40    6.40
   6 -11  -7   44.80   12.90
   5   6  -7   37.30   17.80
  -5  -6   7   37.20   16.10
  11  -5   7   48.10   15.00
  11  -5   7   41.00   15.80
   5 -11  -7   81.89   15.00
   6   5  -7   66.79   20.30
   6   5  -7   82.49    8.90
  -6  -5   7   51.19   15.80
  11  -6   7   70.19   16.50
  11  -6   7   91.09   18.00
   7   4  -7  114.79   14.20
   4 -11  -7   99.69   15.70
   7   4  -7  114.49   22.80
  -7  -4   7  138.19   20.20
  11  -7   7   95.99   18.00
  11  -7   7  108.39   18.70
   8   3  -7   12.40    9.60
   3 -11  -7   12.10   11.70
   8   3  -7   13.30   17.80
  11  -8   7   -1.30   18.00
  -8  -3   7   22.50   15.30
  11  -8   7   13.70   14.60
   2 -11  -7   14.50   12.30
   9   2  -7   49.20   19.00
   9   2  -7   23.70   12.20
  11  -9   7   11.50   15.90
  11  -9   7   35.00   15.30
  -9  -2   7   50.09   15.50
   1 -11  -7  426.26   33.60
  10   1  -7  535.75   36.60
  10   1  -7  526.95   41.80
  11 -10   7  447.06   38.80
  11 -10   7  406.06   37.00
 -10  -1   7  460.75   37.80
   0 -11  -7  533.45   38.60
  11   0  -7  595.04   47.20
  11 -11   7  552.24   41.60
  11 -11   7  552.14   44.50
 -11   0   7  600.44   43.50
  12  -1  -7  122.69   24.80
  -1 -11  -7   72.29   16.60
  11 -12   7  104.99   24.00
  11 -12   7  113.59   21.00
 -12   1   7   95.99   19.40
  -2 -11  -7  411.56   36.30
  13  -2  -7  495.45   44.70
  11 -13   7  450.15   45.20
  11 -13   7  448.66   38.80
 -13   2   7  410.96   40.70
  14  -3  -7  375.06   43.60
  11 -14   7  340.67   36.00
  11 -14   7  291.27   40.20
  14 -12  -7  407.06   50.99
  13 -12  -7  269.47   33.70
   1 -13   7  201.38   30.30
   1 -13   7  232.48   30.80
   0 -12   7  109.99   23.70
  12   0   7  116.69   21.10
  12  -1   7   58.29   16.60
  -1 -11   7   99.99   22.60
  10 -12  -7   36.00   16.60
   2  10  -7   33.00   21.70
  -2 -10   7   41.00   19.00
  12  -2   7   28.80   13.50
   3   9  -7   74.89   22.80
   9 -12  -7  107.19   18.20
  12  -3   7   63.69   15.40
  -3  -9   7   98.59   20.60
   8 -12  -7  204.78   23.40
   4   8  -7  247.48   31.40
  -4  -8   7  216.68   26.20
  12  -4   7  194.58   25.10
  12  -4   7  189.38   21.90
   7 -12  -7   57.79   14.70
   5   7  -7   41.60   20.70
  12  -5   7   32.30   15.90
  -5  -7   7   59.19   18.70
  12  -5   7   65.69   16.40
   6 -12  -7   82.19   15.50
   6   6  -7   70.69   21.10
  -6  -6   7   85.19   19.80
  12  -6   7   80.89   17.50
  12  -6   7   62.89   16.60
   7   5  -7  280.87   34.80
   5 -12  -7  221.68   25.30
  -7  -5   7  280.87   30.10
  12  -7   7  259.87   28.40
  12  -7   7  233.18   25.90
   4 -12  -7   33.00   13.00
   8   4  -7   28.00    9.00
   8   4  -7   38.50   21.20
  -8  -4   7   34.00   16.40
  12  -8   7   16.80   15.80
  12  -8   7   20.60   15.50
   9   3  -7  812.32   45.80
   3 -12  -7  767.92   48.80
   9   3  -7  907.21   57.39
  12  -9   7  770.12   52.79
  12  -9   7  792.62   52.89
  -9  -3   7  882.11   54.99
  10   2  -7  170.08   19.70
   2 -12  -7  151.18   19.90
  10   2  -7  172.78   27.30
  12 -10   7  200.18   24.90
  12 -10   7  165.38   24.00
 -10  -2   7  189.38   25.60
  11   1  -7  152.28   27.50
   1 -12  -7  147.89   19.70
  11   1  -7  164.78   22.10
 -11  -1   7  124.09   22.70
  12 -11   7  149.69   24.50
  12 -11   7  187.98   25.90
   0 -12  -7   89.19   17.80
  12   0  -7   94.39   24.80
  12 -12   7   91.99   22.50
 -12   0   7  129.89   21.70
  12 -12   7  124.09   21.40
  13  -1  -7   21.30   22.20
  -1 -12  -7   17.60   17.40
 -13   1   7   -8.60   18.20
  12 -13   7   36.10   19.20
  12 -13   7    3.80   21.00
  14  -2  -7   52.09   25.80
  12 -14   7   11.50   23.70
   0 -13   7   47.70   25.60
  -1 -12   7  -20.50   21.50
  13  -2   7  405.06   43.10
  -2 -11   7  429.56   43.80
   3  10  -7  -22.00   22.40
  10 -13  -7   14.50   15.90
  -3 -10   7   -9.60   20.30
  13  -3   7   23.40   15.70
   4   9  -7  993.30   65.99
   9 -13  -7 1017.80   57.19
  -4  -9   7  858.31   65.29
  13  -4   7  764.72   67.39
   8 -13  -7  510.85   38.40
   5   8  -7  633.64   48.10
  -5  -8   7  483.15   43.20
  13  -5   7  437.46   39.80
   7 -13  -7  133.99   20.10
   6   7  -7  121.09   25.50
  13  -6   7  119.89   21.90
  -6  -7   7  185.08   25.50
  13  -6   7  129.19   21.40
   7   6  -7  386.36   40.50
   6 -13  -7  343.47   30.90
  13  -7   7  366.16   35.10
  -7  -6   7  314.17   36.90
  13  -7   7  408.56   36.00
   8   5  -7   -1.90   20.00
   5 -13  -7    6.00   13.50
  13  -8   7   32.80   16.80
  13  -8   7   -8.70   16.90
  -8  -5   7   22.10   19.50
   4 -13  -7   -1.30   13.40
   9   4  -7   26.70   20.90
  13  -9   7    9.40   16.90
  -9  -4   7    1.30   19.10
  13  -9   7  -29.00   15.30
   3 -13  -7   17.30   14.40
  10   3  -7   66.59   23.10
  13 -10   7   22.40   18.30
  13 -10   7   10.80   17.90
 -10  -3   7   20.00   17.80
  11   2  -7   31.40   23.30
   2 -13  -7   24.20   15.60
  13 -11   7   65.29   20.90
 -11  -2   7   22.20   19.20
  13 -11   7   65.09   20.10
   1 -13  -7  194.58   23.70
  12   1  -7  201.38   31.80
  13 -12   7  197.08   27.20
 -12  -1   7  204.88   27.80
  13 -12   7  218.68   29.10
  13   0  -7   16.50   24.30
  13 -13   7    9.20   21.10
  13 -13   7   49.50   22.20
 -13   0   7   16.00   22.10
  -2 -12   7   35.70   25.10
   3  11  -7  339.07   42.40
  11 -14  -7  422.86   40.80
  -3 -11   7  369.36   40.10
   4  10  -7  -24.30   24.50
  10 -14  -7   28.20   18.70
  -4 -10   7   52.19   24.00
  14  -4   7   39.50   19.50
   5   9  -7   22.80   23.70
   9 -14  -7   17.10   16.80
  14  -5   7   12.10   17.70
  -5  -9   7   -2.30   22.90
   8 -14  -7   53.89   16.30
   6   8  -7   29.60   23.20
  14  -6   7   10.20   18.40
  -6  -8   7   26.40   22.50
   7   7  -7  150.78   29.50
   7 -14  -7  155.88   20.90
  14  -7   7  152.48   24.90
  14  -7   7  144.59   24.30
  -7  -7   7  176.68   27.70
   8   6  -7   30.50   23.70
   6 -14  -7    7.70   14.30
  14  -8   7   11.00   18.90
  14  -8   7   10.10   18.70
  -8  -6   7   -0.10   21.50
   5 -14  -7  181.08   22.10
   9   5  -7  203.98   31.10
  14  -9   7  212.88   28.10
  14  -9   7  217.38   27.10
  -9  -5   7  205.78   31.20
   4 -14  -7  305.87   31.20
  10   4  -7  355.96   41.20
  14 -10   7  283.07   32.40
 -10  -4   7  239.78   31.10
  14 -10   7  342.37   36.60
  11   3  -7   36.60   23.00
   3 -14  -7   -8.20   15.80
 -11  -3   7   10.20   22.60
  14 -11   7   17.10   20.50
  14 -11   7   22.40   20.40
   2 -14  -7  363.36   36.80
  12   2  -7  409.96   46.50
 -12  -2   7  481.65   45.50
  14 -12   7  390.66   43.60
   9 -15  -7  336.87   33.90
   6   9  -7  268.47   38.60
  -6  -9   7  299.17   36.20
  15  -6   7  259.77   32.50
   7   8  -7   39.70   27.30
   8 -15  -7   10.00   16.30
  15  -7   7    2.40   21.20
  -7  -8   7   93.69   25.70
   8   7  -7  512.45   52.79
   7 -15  -7  477.15   39.00
  15  -8   7  394.56   42.80
  -8  -7   7  557.94   50.59
  15  -8   7  530.85   46.20
   9   6  -7  222.68   34.50
   6 -15  -7  249.88   25.10
  15  -9   7  193.58   30.60
  15  -9   7  187.58   27.80
  -9  -6   7  240.48   38.60
   0   0  -8 1992.30  100.89
   0   0  -8 2011.50  101.09
   0   0   8 2119.99  100.19
   0   0   8 2044.80   99.19
  -1   0  -8  394.46   25.90
   1  -1  -8  442.06   27.00
  -1   0  -8  391.76   27.10
   0   1  -8  373.26   25.40
   1  -1  -8  424.16   27.00
   0  -1   8  408.56   24.90
  -1   1   8  404.46   25.00
   1   0   8  400.96   23.40
  -1   1   8  392.06   24.50
   1   0   8  411.26   24.40
   0  -1   8  445.26   25.50
  -1   1  -8  389.06   28.80
   0  -1  -8  383.46   26.20
   0  -1  -8  430.56   27.00
   1   0  -8  384.56   26.20
  -1   1  -8  405.86   25.80
   1   0  -8  503.35   38.40
   1  -1   8  421.76   25.00
   0   1   8  427.56   24.80
   1  -1   8  421.46   24.50
  -1   0   8  404.86   25.20
   0   1   8  417.36   24.00
  -1   0   8  396.66   25.10
   2  -1  -8  107.09   13.50
   2  -1  -8  116.29   14.80
  -1   2  -8  129.29   13.00
  -1  -1  -8  119.39   14.10
  -2   1   8   97.79   11.80
   1   1   8  113.59   10.60
   1   1   8  115.19   11.40
   1  -2   8  103.69   13.10
  -2   1   8  109.09   13.30
   1  -2   8  114.89   12.60
   3  -2  -8    0.30    9.60
  -2  -1  -8    3.30    6.40
  -1   3  -8    8.30    5.80
   3  -2  -8    9.40    7.60
  -3   2   8    5.00    6.70
   1  -3   8    7.80    8.50
   2   1   8   10.30    4.60
   2   1   8   13.70    5.30
  -3   2   8    8.60    8.10
   1  -3   8   -3.80    6.10
   0   2  -8  115.39   12.80
   2  -2  -8  103.19   12.80
  -2   0  -8   86.99   11.50
   2  -2  -8   78.79   12.40
   2   0   8   95.69   10.80
  -2   2   8   89.19   11.00
   2   0   8   90.89    9.70
   0  -2   8   86.59   11.30
   0  -2   8   74.29   10.40
  -2   2   8   79.49   10.30
   1  -2  -8  116.49   13.50
   1  -2  -8  111.59   13.90
  -2   1  -8  117.89   13.40
   1   1  -8  120.49   13.70
  -1  -1   8  135.99   14.80
  -1  -1   8  135.09   14.20
  -1   2   8  122.29   12.20
   2  -1   8  102.89   11.70
  -1   2   8  112.79   12.20
   2  -1   8  124.29   12.30
   0  -2  -8   99.59   12.10
   2   0  -8   71.59   11.30
   0  -2  -8   82.39   11.80
  -2   2  -8  107.59   12.50
  -2   0   8   78.79   10.60
  -2   0   8   75.89   11.50
   0   2   8   96.39   10.50
   0   2   8   92.19   10.30
   2  -2   8   89.39   11.50
   2  -2   8   94.49   11.50
  -1  -2  -8  477.95   30.20
   3  -1  -8  497.25   31.00
  -2   3  -8  506.15   29.00
  -3   1   8  447.96   30.30
   2  -3   8  494.65   29.10
   1   2   8  512.85   26.20
   1   2   8  490.25   27.40
  -3   1   8  469.55   29.80
   2  -3   8  477.95   29.00
   4  -2  -8   49.40    7.50
  -2   4  -8   48.30    8.20
  -2  -2  -8   41.10    9.20
   4  -2  -8   60.69   11.60
   2   2   8   53.99    7.20
   2  -4   8   59.49    9.80
  -4   2   8   55.89   10.30
   2   2   8   56.29    7.60
   5  -3  -8   -7.00    8.60
  -3  -2  -8    0.50    7.40
   5  -3  -8   18.70    6.30
  -5   3   8   -8.60    7.00
   3   2   8    6.30    5.30
   2  -5   8   22.80    8.40
   3   2   8    5.50    3.40
  -3  -1  -8   -0.40    6.80
  -1   4  -8    5.50    6.00
   4  -3  -8    8.50    8.50
   3   1   8    6.60    5.00
  -4   3   8    5.80    9.40
   3   1   8   -7.20    6.30
  -4   3   8   21.40    7.40
   1  -4   8   14.90    7.80
   3  -3  -8  334.87   24.40
  -3   0  -8  333.27   22.90
   0   3  -8  315.87   21.70
   3  -3  -8  336.17   23.70
   3   0   8  323.37   19.40
  -3   3   8  375.26   23.50
   0  -3   8  312.27   22.70
  -3   3   8  328.77   22.20
   3   0   8  322.57   20.60
  -3   1  -8  500.85   30.60
   2  -3  -8  504.55   30.80
   2  -3  -8  543.05   32.50
   1   2  -8  496.35   30.20
   3  -1   8  468.95   28.70
  -1  -2   8  507.85   30.90
   3  -1   8  521.85   28.50
  -2   3   8  540.05   30.10
  -2   3   8  530.15   29.80
   2   1  -8    9.60    7.50
   1  -3  -8    6.10    7.80
  -3   2  -8    6.30    5.90
   1  -3  -8   23.80    8.80
   3  -2   8   10.00    6.90
  -2  -1   8   26.50    8.30
   3  -2   8   15.10    6.40
  -1   3   8   15.10    6.30
  -1   3   8   12.80    6.20
   0  -3  -8  332.37   22.30
  -3   3  -8  334.67   22.20
   0  -3  -8  315.77   23.40
   3   0  -8  350.86   21.30
   3   0  -8  354.86   24.50
   3  -3   8  313.47   22.70
   3  -3   8  301.27   21.70
  -3   0   8  336.37   23.40
   0   3   8  339.27   19.90
   0   3   8  346.67   20.90
  -1  -3  -8  112.49   14.00
   4  -1  -8  125.29   12.80
   4  -1  -8   92.79   13.10
   3  -4   8  111.69   13.80
   1   3   8  112.29   11.30
   3  -4   8  109.39   13.10
  -4   1   8  117.99   14.30
  -2  -3  -8   49.60   10.50
   5  -2  -8   49.40   12.00
   5  -2  -8   47.40    9.20
   3  -5   8   47.10    9.80
   2   3   8   46.70    5.20
  -5   2   8   38.70   10.10
   2   3   8   54.99    7.40
   6  -3  -8   66.39   14.60
  -3  -3  -8   77.49   12.20
   6  -3  -8   94.19   11.90
   3  -6   8   69.89   12.30
   3   3   8   79.19    9.80
  -6   3   8   92.49   12.50
   7  -4  -8  476.65   36.10
  -4  -3  -8  467.15   31.20
   7  -4  -8  480.05   31.50
   3  -7   8  485.75   31.60
  -7   4   8  463.85   31.90
   4   3   8  486.05   25.90
  -4  -2  -8    2.70    7.60
   6  -4  -8   -2.70    6.80
   6  -4  -8   16.70   11.50
   2  -6   8   -5.50    7.60
  -6   4   8    5.60    8.10
   4   2   8    2.80    5.20
  -4  -1  -8   52.59   10.00
  -1   5  -8   57.59    9.00
   5  -4  -8   46.40   11.90
   5  -4  -8   74.99    8.10
   4   1   8   59.99    8.10
   1  -5   8   67.69   11.50
  -5   4   8   69.09   10.80
   0   4  -8   36.70    7.30
   4  -4  -8   51.99   11.10
   4  -4  -8   21.30    9.30
  -4   0  -8   21.40    8.10
  -4   4   8   30.40    8.30
  -4   4   8   27.10    9.90
   0  -4   8   20.50    9.00
   4   0   8   27.20    6.80
   4   0   8   19.10    6.20
   3  -4  -8  106.29   13.70
  -4   1  -8  116.69   13.60
   1   3  -8  118.39   12.90
   3  -4  -8  124.09   13.70
   4  -1   8  113.39   12.70
   4  -1   8  114.29   12.20
  -1  -3   8  130.99   15.30
  -3   4   8  125.69   13.10
  -3   4   8  105.29   14.10
   2  -4  -8   41.20   10.00
   2  -4  -8   37.40    9.40
   2   2  -8   36.20    8.60
  -2   4   8   50.89    8.90
   4  -2   8   53.49    9.10
  -2  -2   8   43.80    9.80
   4  -2   8   41.10    8.20
  -2   4   8   50.89    8.20
   3   1  -8   10.90    7.50
   1  -4  -8   15.60    7.80
   1  -4  -8   -0.20    7.30
   3   1  -8   -2.90    6.90
   4  -3   8    0.50    7.80
  -1   4   8    4.90    5.80
  -3  -1   8    1.50    8.00
  -1   4   8    2.20    5.30
   4  -3   8    2.20    6.20
   4   0  -8   22.90    8.40
   0  -4  -8   30.60    9.20
   4   0  -8   16.00    9.00
   0   4   8   40.10    6.90
   4  -4   8   32.80   10.70
   0   4   8   43.00    6.60
  -4   0   8   38.70    9.70
   4  -4   8   17.70    7.70
   5  -1  -8   69.09   12.50
  -1  -4  -8   69.19   12.50
   5  -1  -8   75.39   11.70
   1   4   8   64.79    7.20
  -5   1   8   68.09   12.10
   1   4   8   76.39    8.40
   4  -5   8   67.09   10.60
   6  -2  -8    3.00   10.60
   6  -2  -8   14.30    9.40
  -2  -4  -8    1.70    8.20
   4  -6   8   -7.60    8.30
  -6   2   8    2.50    8.20
   7  -3  -8   17.40   12.50
  -3  -4  -8   11.50    9.30
   7  -3  -8   11.30   11.70
  -7   3   8   13.50   10.20
   4  -7   8   21.30   10.20
   3   4   8   27.00    5.90
  -4  -4  -8  686.73   43.20
   8  -4  -8  751.22   46.60
   8  -4  -8  689.23   48.50
   4  -8   8  732.73   44.80
  -8   4   8  793.12   44.60
   4   4   8  767.32   37.00
   9  -5  -8   93.79   21.10
   9  -5  -8  122.99   20.00
   4  -9   8  121.89   17.40
   5   4   8  119.99   10.10
  -9   5   8  110.29   22.60
   8  -5  -8   -2.30   11.80
   3  -8   8   13.40   11.30
  -8   5   8   -4.00    9.70
   5   3   8    4.80    5.60
   7  -5  -8  252.47   20.00
   7  -5  -8  253.47   25.80
  -7   5   8  210.88   20.20
   2  -7   8  180.88   28.40
   5   2   8  205.58   15.40
   6  -5  -8   79.99   10.70
   6  -5  -8   72.89   14.60
   1  -6   8  112.79   14.50
   1  -6   8   85.19   14.00
  -6   5   8   90.29   12.40
   5   1   8   76.99    9.30
   5  -5  -8   -1.10   11.20
   5  -5  -8    4.60    9.20
   0   5  -8    7.70    5.80
  -5   5   8    9.10    7.30
   0  -5   8   12.80    8.00
   5   0   8    3.90    5.50
   4  -5  -8   71.39   11.50
   4  -5  -8   66.69   11.70
   1   4  -8   52.29    8.80
  -1  -4   8   53.39   11.40
  -4   5   8   57.59   11.50
  -4   5   8   66.79    9.30
   5  -1   8   51.19    8.40
   2   3  -8   42.90    8.50
   2   3  -8   50.39   11.10
   3  -5  -8   57.39   10.20
   3  -5  -8   51.19   11.00
  -2  -3   8   68.19   12.00
   5  -2   8   58.79    9.30
  -3   5   8   51.79    9.60
  -3   5   8   39.10    7.80
   3   2  -8    5.50    8.50
   2  -5  -8   17.40    8.20
   3   2  -8    9.40    7.30
   2  -5  -8    6.80    8.40
  -2   5   8   11.50    7.00
   5  -3   8    4.50    7.00
  -3  -2   8    7.20    8.80
   5  -3   8    9.60    9.30
  -2   5   8    8.70    5.60
   4   1  -8   80.29   12.10
   4   1  -8   52.39   10.90
   1  -5  -8   56.29    8.90
   1  -5  -8   53.69   11.10
  -1   5   8   68.19    8.60
   5  -4   8   50.59    9.40
   5  -4   8   45.60   12.00
  -4  -1   8   69.69   12.80
  -1   5   8   63.09    7.70
   5   0  -8   11.30    9.50
   5   0  -8   -3.60    9.10
   0  -5  -8    3.30    8.50
   0   5   8   10.20    5.60
  -5   0   8    4.50    8.40
   5  -5   8   11.30    8.60
  -1  -5  -8   11.60    9.40
   6  -1  -8   16.30   11.40
   6  -1  -8   11.10   11.50
   1   5   8   25.30    5.20
  -6   1   8   12.60    8.40
   1   5   8   19.80    4.50
   5  -6   8   18.00    9.60
   7  -2  -8   56.09   14.30
  -2  -5  -8   35.60   11.10
   7  -2  -8   70.79   14.60
  -7   2   8   52.39   12.60
   5  -7   8   51.89   12.80
   2   5   8   51.79    6.60
   8  -3  -8   33.30   15.60
   8  -3  -8    7.70   13.40
  -3  -5  -8   17.60    9.50
   5  -8   8   33.90   12.70
  -8   3   8   18.30   10.90
   9  -4  -8   74.69   18.00
  -4  -5  -8   54.39   13.40
   9  -4  -8   53.49   18.60
  -9   4   8   90.99   15.40
   5  -9   8   61.29   14.90
  10  -5  -8  361.66   35.20
   5 -10   8  322.07   31.00
 -10   5   8  304.97   28.10
  11  -6  -8  158.58   26.40
   5 -11   8  126.29   23.20
 -11   6   8  148.69   19.60
   5 -11   8  147.19   22.90
  10  -6  -8  -10.00   16.50
 -10   6   8    8.20   12.90
   4 -10   8   12.60   14.20
   9  -6  -8  231.08   27.10
   9  -6  -8  199.28   26.60
   6   3   8  194.98   15.00
   3  -9   8  197.48   23.50
  -9   6   8  280.47   22.90
   8  -6  -8  292.87   29.30
   8  -6  -8  274.07   24.50
  -8   6   8  317.27   23.90
   6   2   8  285.77   16.70
   6   2   8  275.97   18.90
   2  -8   8  320.87   26.40
   7  -6  -8  449.26   26.10
   6   1   8  397.46   25.10
   6   1   8  425.66   24.60
  -7   6   8  436.06   27.90
   1  -7   8  442.96   31.30
   6  -6  -8  127.99   18.20
   6   0   8  110.19   13.90
  -6   6   8  123.09   13.20
   0  -6   8  130.59   15.90
   6   0   8  113.39   13.10
   5  -6  -8    6.90    9.90
   1   5  -8   31.00    7.10
   5  -6  -8    5.80   10.70
   6  -1   8    8.50    6.80
  -5   6   8   13.10    6.50
  -1  -5   8   29.40   10.70
   2   4  -8    1.20    9.70
   2   4  -8    5.40    6.40
   4  -6  -8    4.80    9.00
   4  -6  -8    0.30    8.50
   6  -2   8    5.70    7.10
  -4   6   8   25.10    9.30
  -4   6   8    5.10    5.70
  -2  -4   8   -1.90    8.50
   3  -6  -8  103.49   14.20
   3   3  -8   89.29   14.10
   3   3  -8   75.69   10.70
   3  -6  -8   94.09   11.20
  -3  -3   8   71.89   13.40
  -3   6   8   93.89   11.30
   6  -3   8   67.99   11.00
  -3   6   8   86.79   10.10
   4   2  -8    5.80   10.00
   2  -6  -8    2.40    9.50
   2  -6  -8   -1.10    6.80
   4   2  -8   -6.10    7.40
  -2   6   8   12.00    7.10
   6  -4   8   -5.70   11.30
   6  -4   8   11.10    7.90
  -2   6   8    3.70    4.50
  -4  -2   8    0.20    9.00
   1  -6  -8   82.39   13.00
   5   1  -8   88.09   14.70
   5   1  -8   68.99   12.20
  -5  -1   8   78.79   13.10
  -1   6   8   74.59    9.10
   6  -5   8   86.99   13.00
  -1   6   8   77.39    8.10
   0  -6  -8  115.09   15.30
   6   0  -8  155.18   19.10
   6   0  -8  121.89   16.40
   6  -6   8  129.39   16.50
   0   6   8  144.89   12.10
  -6   0   8  114.39   15.90
   7  -1  -8  165.88   20.40
  -1  -6  -8  155.08   19.10
   7  -1  -8  151.98   19.40
   6  -7   8  152.28   21.30
  -7   1   8  157.48   18.50
   8  -2  -8   84.59   18.30
   8  -2  -8   62.39   17.80
  -2  -6  -8   86.09   14.50
  -8   2   8   70.59   14.50
   6  -8   8   81.99   16.50
   9  -3  -8   72.99   19.30
  -3  -6  -8   72.09   13.70
   6  -9   8   89.59   17.00
   6  -9   8  119.29   17.90
  -9   3   8   96.09   16.30
  10  -4  -8  171.38   25.10
  10  -4  -8  103.39   23.20
  -4  -6  -8  139.49   17.10
   6 -10   8   97.99   18.70
   6 -10   8  113.29   19.30
 -10   4   8  122.09   18.60
  11  -5  -8  154.78   25.90
   6 -11   8  162.88   23.70
 -11   5   8  144.99   20.90
   6 -11   8  123.79   21.10
  12  -6  -8   11.80   22.50
   6 -12   8  -20.40   18.20
   6 -12   8   19.90   18.20
  13  -7  -8    9.80   25.00
   6 -13   8    2.80   19.80
   6 -13   8   46.50   23.40
  12  -7  -8  123.39   26.60
   5 -12   8  166.08   25.50
   5 -12   8  159.68   24.30
  11  -7  -8   64.49   22.00
   4 -11   8   82.99   18.60
  10  -7  -8   57.19   20.10
  10  -7  -8   93.69   21.00
   3 -10   8  125.19   19.40
   7   3   8  132.79   16.50
   9  -7  -8  300.77   31.70
   9  -7  -8  296.07   27.70
   7   2   8  255.47   19.30
   7   2   8  286.07   19.00
   2  -9   8  325.17   27.80
   8  -7  -8   34.20   10.30
   8  -7  -8   40.10   14.70
   1  -8   8   38.90   13.00
  -8   7   8   43.60   10.80
   7   1   8   39.00    8.30
   7  -7  -8   41.30   10.60
   7  -7  -8   69.89   14.80
   0  -7   8   37.30   12.50
   7   0   8   23.90    8.30
  -7   7   8   47.80    9.60
   7   0   8   34.50    9.60
   1   6  -8  163.78   14.00
   6  -7  -8  134.69   17.90
   7  -1   8  146.09   15.10
  -1  -6   8  155.88   19.30
   7  -1   8  144.39   16.00
  -6   7   8  148.09   14.40
   5  -7  -8   34.40   11.20
   2   5  -8   60.19   13.80
   5  -7  -8   20.00   10.80
   2   5  -8   71.29    9.10
   7  -2   8   45.40   10.00
  -5   7   8   49.30    7.80
   7  -2   8   37.20   10.00
   3   4  -8    2.80    6.40
   4  -7  -8   28.10   11.20
   4  -7  -8    7.50    8.70
   3   4  -8   20.00   11.10
  -4   7   8   15.20    9.40
  -3  -4   8   -1.40    9.80
   7  -3   8   20.50    9.10
   7  -3   8   14.40    9.00
   3  -7  -8  501.75   28.10
   4   3  -8  527.05   30.30
   3  -7  -8  479.45   33.00
   4   3  -8  534.65   34.40
  -4  -3   8  435.56   32.80
  -3   7   8  496.75   29.30
   7  -4   8  480.95   31.40
   7  -4   8  480.65   32.10
   5   2  -8  261.47   25.30
   5   2  -8  251.07   21.00
   2  -7  -8  207.28   22.50
   7  -5   8  234.88   22.30
  -5  -2   8  204.58   24.30
   7  -5   8  231.18   21.30
  -2   7   8  241.88   18.00
   1  -7  -8  453.15   32.40
   6   1  -8  491.85   33.00
   6   1  -8  495.45   35.50
   7  -6   8  458.95   33.20
   7  -6   8  470.45   32.40
  -1   7   8  508.45   27.80
   7   0  -8   28.90   12.90
   0  -7  -8   39.90   11.40
   7   0  -8   41.00   15.70
   0   7   8   70.19   12.00
   7  -7   8   36.60   12.20
   7  -7   8   13.30   15.80
  -7   0   8   42.40   13.20
   8  -1  -8   15.20   16.20
   8  -1  -8   16.50   14.00
   7  -8   8   20.10   12.00
   7  -8   8   -7.90   13.00
  -8   1   8    0.40   11.70
   9  -2  -8  366.16   37.50
   9  -2  -8  528.85   40.20
  -2  -7  -8  425.16   31.80
   7  -9   8  394.46   34.50
  -9   2   8  457.05   33.90
   7  -9   8  457.55   34.60
  10  -3  -8  150.48   26.00
  -3  -7  -8  200.18   23.70
  10  -3  -8  246.68   32.80
   7 -10   8  201.28   27.30
   7 -10   8  262.97   28.60
 -10   3   8  240.88   24.90
  11  -4  -8   38.80   19.80
   7 -11   8   12.70   16.80
 -11   4   8   -8.40   14.20
   7 -11   8    6.40   16.80
  12  -5  -8   11.70   22.00
   7 -12   8   24.70   17.90
   7 -12   8   68.39   22.30
 -12   5   8   56.39   17.50
  13  -6  -8   90.49   26.60
   7 -13   8   84.49   24.30
   7 -13   8  109.59   23.80
  14  -7  -8   45.60   29.00
   7 -14   8   53.59   28.30
   7 -14   8   67.39   24.10
  14  -8  -8   53.19   28.90
   6 -14   8   90.79   29.60
   6 -14   8   53.49   23.70
  13  -8  -8  265.77   35.00
   5 -13   8  312.37   39.40
   5 -13   8  248.98   31.90
  12  -8  -8  179.88   29.90
   4 -12   8  175.18   25.90
   4 -12   8  184.58   27.00
  11  -8  -8   12.10   20.40
   3 -11   8    5.60   15.20
  10  -8  -8    1.80   17.30
  10  -8  -8   -1.80   16.40
   2 -10   8    6.10   12.90
   8   2   8    9.90    8.10
   9  -8  -8  -31.80   12.90
   9  -8  -8   19.90   12.90
   8   1   8   -7.10    6.30
   1  -9   8   -6.40   12.40
   8   1   8    6.70    8.30
   8  -8  -8    9.70    8.50
   8  -8  -8   -2.80   12.60
   0  -8   8  -15.00   11.50
   8   0   8    2.10    8.30
   8   0   8    5.70    7.70
   7  -8  -8   10.00   12.20
  -1  -7   8   13.30   12.30
   8  -1   8    8.30    9.00
   8  -1   8   18.40    9.10
   2   6  -8   86.39   16.60
   6  -8  -8   78.59   16.20
   2   6  -8   83.59    9.60
  -2  -6   8   86.19   15.70
   8  -2   8   78.49   12.80
   8  -2   8   75.09   13.40
   5  -8  -8   13.30   11.20
   3   5  -8   42.10   14.30
   3   5  -8   36.70    7.70
   8  -3   8   30.60   10.80
  -3  -5   8   22.60   12.30
   8  -3   8   19.50   10.40
   4   4  -8  849.12   48.80
   4   4  -8  756.22   41.50
  -4  -4   8  706.93   46.60
   8  -4   8  760.32   45.60
   8  -4   8  720.23   45.00
  -4   8   8  840.12   50.09
   5   3  -8    1.50    7.80
   5   3  -8  -13.60   12.60
   8  -5   8  -15.10   10.40
  -5  -3   8   -7.40   11.50
  -3   8   8   -1.90    9.20
   8  -5   8    3.80   10.70
   6   2  -8  263.87   23.10
   6   2  -8  267.97   30.30
  -6  -2   8  300.97   27.60
  -2   8   8  342.87   22.10
   8  -6   8  205.28   27.00
   8  -6   8  280.17   26.10
   7   1  -8   52.99   13.20
   7   1  -8   64.79   17.20
   8  -7   8   37.20   15.40
   8  -7   8   53.29   14.00
  -7  -1   8   32.60   13.60
   8   0  -8   14.00   12.80
   0  -8  -8   34.10   12.70
   8  -8   8    1.40   13.30
  -8   0   8   31.50   12.30
   8  -8   8   11.80   14.40
  -1  -8  -8   14.40   11.60
   9  -1  -8   -0.20   15.10
   9  -1  -8    9.30   17.60
   8  -9   8    9.90   13.60
  -9   1   8    9.80   12.70
   8  -9   8   -4.30   13.50
  10  -2  -8   24.00   18.80
  10  -2  -8   25.10   19.30
  -2  -8  -8   40.60   13.50
   8 -10   8   14.50   15.60
 -10   2   8   34.30   15.90
   8 -10   8   37.70   16.40
  11  -3  -8   11.40   20.30
  -3  -8  -8   10.90   13.50
  11  -3  -8    8.40   20.40
 -11   3   8   44.10   14.80
   8 -11   8   -4.40   16.30
   8 -11   8   12.60   17.40
  12  -4  -8   40.40   22.60
   8 -12   8   44.30   19.10
   8 -12   8   78.09   22.70
 -12   4   8   50.49   17.90
  13  -5  -8  154.08   29.10
   8 -13   8  100.89   26.30
   8 -13   8  123.09   22.40
  14  -6  -8    2.90   27.20
   8 -14   8   -6.30   25.50
   8 -14   8   -8.60   21.40
  14  -9  -8  368.86   50.09
  13  -9  -8   38.10   27.10
   4 -13   8   23.70   22.60
   4 -13   8   -8.30   21.30
  12  -9  -8  255.87   32.20
   3 -12   8  258.67   31.10
  11  -9  -8  265.57   29.80
   2 -11   8  236.08   28.50
  10  -9  -8  198.18   22.80
  10  -9  -8  197.18   26.70
   1 -10   8  168.58   23.40
   9   1   8  182.18   19.60
   9  -9  -8  571.24   36.30
   9  -9  -8  549.05   41.30
   9   0   8  562.64   32.60
   9   0   8  567.04   35.50
   0  -9   8  598.74   41.10
   8  -9  -8    2.90   13.40
  -1  -8   8   27.10   14.20
   9  -1   8   27.60   11.20
   9  -1   8    6.00    8.70
   2   7  -8  506.55   38.90
   7  -9  -8  449.36   34.30
   9  -2   8  440.86   31.70
   9  -2   8  446.06   30.70
  -2  -7   8  464.15   35.40
   3   6  -8   89.89   19.20
   3   6  -8   91.89   10.00
   6  -9  -8   73.59   14.80
  -3  -6   8  123.99   17.70
   9  -3   8  108.59   15.80
   9  -3   8  100.99   15.70
   4   5  -8   59.99    9.20
   5  -9  -8   48.40   12.80
   4   5  -8   69.79   22.50
  -4  -5   8   64.29   15.80
   9  -4   8   44.50   13.70
   9  -4   8   60.39   14.30
   5   4  -8  118.29   12.50
   5   4  -8  101.89   25.20
   4  -9  -8  129.99   17.20
   9  -5   8  111.89   19.10
  -5  -4   8   78.19   16.50
   9  -5   8  125.49   18.60
   6   3  -8  225.08   20.30
   6   3  -8  222.38   28.60
   3  -9  -8  280.37   25.10
   9  -6   8  227.68   25.80
   9  -6   8  204.48   25.40
  -6  -3   8  206.78   25.30
   7   2  -8  321.17   25.60
   2  -9  -8  289.77   27.00
   7   2  -8  275.47   33.90
  -7  -2   8  270.27   28.20
   9  -7   8  300.27   30.30
   9  -7   8  346.47   30.60
   8   1  -8    8.00   17.00
   8   1  -8  -11.80   11.10
   1  -9  -8    4.80   12.10
   9  -8   8   -5.60   14.10
  -8  -1   8    2.90   12.90
   9   0  -8  635.44   44.70
   9   0  -8  727.53   50.89
   0  -9  -8  595.14   42.70
   9  -9   8  666.73   46.70
   9  -9   8  648.04   45.80
  -9   0   8  684.73   44.00
  -1  -9  -8   -4.20   12.80
  10  -1  -8   29.00   20.70
  10  -1  -8    3.10   20.50
 -10   1   8  -21.10   14.00
   9 -10   8    5.10   16.20
   9 -10   8   -2.80   16.20
  11  -2  -8   11.60   19.60
  11  -2  -8   -6.70   19.70
  -2  -9  -8    0.50   13.40
   9 -11   8    5.20   18.70
 -11   2   8   18.50   16.00
   9 -11   8    7.00   16.90
  -3  -9  -8  140.89   20.90
  12  -3  -8  222.78   31.20
   9 -12   8  184.38   28.00
 -12   3   8  168.88   24.00
   9 -12   8  200.28   25.70
  13  -4  -8   11.90   22.80
 -13   4   8   28.60   18.70
   9 -13   8   30.90   19.20
   9 -13   8   23.00   22.00
  14  -5  -8   65.39   28.70
  13 -10  -8   41.80   28.80
   3 -13   8   48.40   23.20
   3 -13   8   59.49   25.70
   2 -12   8   93.79   23.20
  11 -10  -8   22.60   20.60
   1 -11   8    9.60   19.60
  10 -10  -8   -5.90   16.80
  10   0   8    1.50   12.30
   0 -10   8   58.39   17.80
   9 -10  -8  -10.50   15.20
  -1  -9   8   27.40   15.80
  10  -1   8    7.90   13.10
  10  -1   8   -1.20   10.00
   8 -10  -8   18.10   15.60
  10  -2   8   69.09   15.40
  -2  -8   8   28.80   16.20
  10  -2   8   28.10   11.50
   7 -10  -8  207.48   25.90
   3   7  -8  292.67   31.50
  10  -3   8  211.98   25.90
  10  -3   8  217.68   23.70
  -3  -7   8  232.08   26.00
   4   6  -8  120.49   21.70
   4   6  -8  128.49   13.30
   6 -10  -8  112.59   17.60
  10  -4   8  123.19   18.30
  -4  -6   8  124.89   20.00
   5   5  -8  311.67   34.80
   5   5  -8  309.97   20.30
   5 -10  -8  281.87   27.20
  10  -5   8  261.07   30.20
  10  -5   8  296.07   29.80
  -5  -5   8  299.57   29.90
   4 -10  -8   17.90   12.10
   6   4  -8    9.80    8.10
   6   4  -8  -14.00   17.40
  -6  -4   8   18.20   14.00
  10  -6   8   -1.60   14.40
  10  -6   8   19.60   13.80
   3 -10  -8   97.69   16.20
   7   3  -8  101.19   13.50
   7   3  -8  100.69   22.40
  10  -7   8  138.39   20.90
  -7  -3   8  129.29   20.10
  10  -7   8   96.49   19.90
   2 -10  -8    8.70   12.90
   8   2  -8   13.80   11.90
   8   2  -8   20.00   19.50
  10  -8   8   35.70   16.50
  -8  -2   8    3.40   14.80
  10  -8   8   -1.50   14.40
   1 -10  -8  213.78   23.40
   9   1  -8  243.58   30.30
   9   1  -8  165.58   21.60
  -9  -1   8  232.48   28.10
  10  -9   8  237.78   27.10
  10  -9   8  242.18   30.20
   0 -10  -8   23.60   14.40
  10   0  -8    2.70   15.50
  10   0  -8   19.70   21.10
  10 -10   8  -22.10   16.10
 -10   0   8   26.10   15.50
  10 -10   8   20.80   18.20
  11  -1  -8   14.20   18.70
  11  -1  -8  119.69   25.40
  -1 -10  -8   61.69   16.40
  10 -11   8   34.50   21.20
  10 -11   8   64.49   20.00
 -11   1   8   57.09   18.40
  -2 -10  -8    6.40   16.20
  12  -2  -8   33.40   21.70
  12  -2  -8    5.40   22.00
 -12   2   8   15.60   17.70
  10 -12   8   10.50   19.40
  10 -12   8  -17.10   19.50
  13  -3  -8  120.89   29.00
  10 -13   8   99.29   24.10
 -13   3   8  118.69   23.50
  10 -13   8  132.19   27.70
   2 -13   8   25.70   26.20
   1 -12   8  102.79   25.70
  11 -11  -8   22.00   18.90
  11   0   8   17.40   16.50
   0 -11   8   17.10   21.30
  10 -11  -8   48.70   18.30
  -1 -10   8   41.90   19.70
  11  -1   8   30.70   17.00
   9 -11  -8  -10.50   14.10
  11  -2   8   16.30   12.00
  -2  -9   8    5.80   16.10
   8 -11  -8   -2.80   14.20
   3   8  -8   39.80   20.60
  11  -3   8   10.80   12.60
  11  -3   8    2.00   15.60
  -3  -8   8   -5.70   16.80
   7 -11  -8   26.70   13.70
   4   7  -8   25.70   19.50
  11  -4   8    6.30   15.90
  -4  -7   8  -11.50   16.10
  11  -4   8   -1.20   13.10
   6 -11  -8  123.19   18.60
   5   6  -8  179.38   26.50
  -5  -6   8  148.49   22.30
  11  -5   8  133.09   20.60
  11  -5   8  125.19   19.80
   5 -11  -8  135.99   18.00
   6   5  -8   99.29   24.20
   6   5  -8  146.99   16.50
  -6  -5   8  108.39   20.00
  11  -6   8  134.79   21.30
  11  -6   8  115.09   19.30
   4 -11  -8   59.49   15.20
   7   4  -8   27.30   20.60
   7   4  -8   73.69   11.20
  -7  -4   8   59.49   16.80
  11  -7   8   76.39   17.90
  11  -7   8   46.80   21.70
   8   3  -8   -2.90   20.20
   3 -11  -8    3.10   13.00
   8   3  -8   17.30   10.70
  -8  -3   8  -10.90   14.90
  11  -8   8   45.30   16.90
  11  -8   8    8.60   16.40
   9   2  -8  222.28   25.70
   9   2  -8  221.78   30.90
   2 -11  -8  208.08   24.10
  -9  -2   8  280.97   32.50
  11  -9   8  246.78   32.00
  11  -9   8  220.18   27.30
  10   1  -8   73.79   24.80
   1 -11  -8   40.20   15.50
  10   1  -8   79.09   17.40
 -10  -1   8   51.39   17.40
  11 -10   8   25.20   18.60
  11 -10   8   65.69   21.50
  11   0  -8   35.80   18.30
  11   0  -8   35.20   24.00
   0 -11  -8   26.80   16.00
  11 -11   8   24.40   21.00
 -11   0   8   25.20   18.10
  11 -11   8   21.20   18.90
  12  -1  -8   43.10   24.50
  12  -1  -8    0.40   20.90
  -1 -11  -8   22.60   17.10
  11 -12   8   20.60   19.30
 -12   1   8   36.50   17.60
  11 -12   8   30.60   21.20
  13  -2  -8   83.29   27.80
  -2 -11  -8  102.19   21.30
  13  -2  -8  127.79   27.60
  11 -13   8   83.59   25.10
  11 -13   8  102.29   27.80
 -13   2   8   96.99   24.40
  12 -12  -8   49.00   23.00
   0 -12   8   49.60   27.10
  11 -12  -8  -10.00   19.50
  -1 -11   8    0.40   21.60
  12  -1   8   33.40   19.50
  10 -12  -8   -3.90   17.10
  -2 -10   8    9.90   19.30
  12  -2   8   15.10   18.90
   3   9  -8  207.48   31.40
   9 -12  -8  147.19   23.00
  -3  -9   8  132.69   24.40
  12  -3   8  133.59   20.20
  12  -3   8  173.48   25.00
   8 -12  -8   58.29   16.50
   4   8  -8   44.90   23.80
  -4  -8   8   50.59   20.40
  12  -4   8   58.49   19.30
  12  -4   8   69.79   16.80
   7 -12  -8   29.70   15.00
   5   7  -8   52.79   23.70
  -5  -7   8   69.09   21.00
  12  -5   8   29.60   16.70
  12  -5   8   34.90   18.30
   6   6  -8   -8.50   19.80
   6 -12  -8  -11.70   13.10
  12  -6   8   11.80   16.70
  -6  -6   8   -8.90   17.50
  12  -6   8   40.80   17.90
   7   5  -8  170.68   28.20
   5 -12  -8  111.89   19.00
  -7  -5   8  162.08   24.60
  12  -7   8  119.19   22.00
  12  -7   8  136.39   22.20
   4 -12  -8  163.18   21.00
   8   4  -8  208.08   30.70
  12  -8   8  197.28   26.10
  12  -8   8  173.78   26.20
  -8  -4   8  182.88   25.10
   9   3  -8  291.37   39.40
   3 -12  -8  243.68   29.90
  12  -9   8  277.67   31.20
  12  -9   8  251.27   33.20
  -9  -3   8  255.57   29.50
  10   2  -8  102.59   24.20
  10   2  -8  110.69   27.00
   2 -12  -8   55.39   17.40
  12 -10   8   79.99   21.60
  12 -10   8   86.89   23.50
 -10  -2   8   96.99   20.60
  11   1  -8   72.39   19.20
   1 -12  -8   56.39   18.10
  11   1  -8  116.99   27.10
 -11  -1   8   37.60   18.90
  12 -11   8   34.40   22.20
  12 -11   8   61.49   22.90
  12   0  -8   64.69   21.10
  12   0  -8   94.69   28.30
   0 -12  -8   19.60   18.50
  12 -12   8   24.30   23.70
 -12   0   8   62.09   22.40
  12 -12   8   31.30   22.80
  11 -13  -8  116.79   24.70
  -2 -11   8  101.39   26.50
  13  -2   8  106.39   24.60
  10 -13  -8  167.58   25.80
  -3 -10   8  146.99   27.30
  13  -3   8  102.79   24.10
   9 -13  -8    6.70   16.40
   4   9  -8  -22.60   24.70
  13  -4   8  -22.00   18.70
  -4  -9   8   14.50   21.30
  13  -4   8  -13.60   24.20
   8 -13  -8  103.89   19.90
   5   8  -8  206.18   32.80
  -5  -8   8  161.28   26.30
  13  -5   8   97.19   20.30
  13  -5   8   89.79   22.10
   6   7  -8   80.59   27.70
   7 -13  -8  100.29   18.40
  -6  -7   8   97.39   22.90
  13  -6   8   74.79   20.10
  13  -6   8   55.29   21.70
   6 -13  -8   21.30   15.80
   7   6  -8   61.99   26.30
  13  -7   8   21.00   19.60
  -7  -6   8   29.50   19.80
  13  -7   8   54.29   19.50
   5 -13  -8  231.08   24.70
   8   5  -8  252.37   34.80
  13  -8   8  208.58   29.40
  -8  -5   8  279.97   31.90
  13  -8   8  265.27   34.40
   9   4  -8    5.20   24.70
   4 -13  -8   40.60   16.50
  13  -9   8   28.60   20.60
  -9  -4   8   49.20   22.20
  13  -9   8   27.00   19.80
  10   3  -8    7.40   25.30
   3 -13  -8  -14.20   15.70
 -10  -3   8   24.10   21.00
  13 -10   8   53.19   21.90
  13 -10   8   76.29   22.60
  11   2  -8   48.70   25.20
   2 -13  -8   -0.40   17.30
 -11  -2   8   -7.10   21.60
  13 -11   8   24.10   22.70
  13 -11   8    0.40   22.10
   9 -14  -8   56.39   20.30
   5   9  -8   81.69   31.20
   8 -14  -8   20.70   16.40
   6   8  -8   -6.10   26.80
  14  -6   8    7.80   21.60
  14  -6   8  -42.50   19.00
  -6  -8   8   15.60   22.80
   7   7  -8   11.60   27.50
   7 -14  -8   14.80   16.50
  -7  -7   8   -9.10   23.40
  14  -7   8   43.60   21.60
  14  -7   8   27.30   21.00
   6 -14  -8   47.40   16.70
   8   6  -8   34.30   27.90
  14  -8   8   46.00   22.20
  14  -8   8   31.80   22.10
  -8  -6   8   46.30   25.70
   9   5  -8  458.35   50.99
   0   0  -9 1022.10   56.39
   0   0   9 1088.79   55.49
   0   0   9 1040.90   54.59
   0   1  -9   40.80   10.30
  -1   0  -9   25.20    8.70
   1  -1  -9   28.60    9.90
   1   0   9   27.20    8.00
  -1   1   9   22.80    9.10
   0  -1   9   26.50    8.80
   1   0   9   23.30    8.40
  -1   1   9   37.60    8.80
   0  -1   9   43.10   10.50
   0  -1  -9   34.90   10.30
   1   0  -9   42.50   10.40
  -1   1  -9   26.90    9.50
  -1   0   9   25.70    8.60
   0   1   9   23.00    8.60
  -1   0   9   40.00   10.30
   1  -1   9   43.50    9.10
   0   1   9   36.80    8.40
   1  -1   9   30.10    9.20
   2  -1  -9    1.90    8.20
  -1  -1  -9   -1.20    8.00
  -1   2  -9   37.60    9.00
  -2   1   9    6.30   10.60
   1   1   9   -1.10    6.70
   1  -2   9    9.30    7.80
   1   1   9   -0.60    6.60
  -2   1   9    8.10    8.00
   1  -2   9    9.90   10.10
   3  -2  -9  799.72   46.50
  -1   3  -9  736.43   43.50
  -2  -1  -9  724.03   44.70
   1  -3   9  753.52   44.20
   2   1   9  922.11   41.00
   2   1   9  754.92   42.00
  -3   2   9  789.22   44.10
   2  -2  -9   95.39   13.60
   0   2  -9   75.79   11.50
  -2   0  -9   63.39   11.50
  -2   2   9   65.69   12.20
  -2   2   9   74.19   11.20
   2   0   9  106.39   10.70
   2   0   9   86.59   10.90
   0  -2   9   57.99   11.30
   1  -2  -9    8.10    9.00
  -2   1  -9   -6.30    6.90
   1   1  -9   18.40    8.20
   1  -2  -9    4.70   11.70
  -1  -1   9    1.70    7.60
  -1   2   9   21.00    8.30
   2  -1   9    1.30    7.50
   2  -1   9   16.00    7.50
  -1   2   9    9.20    7.30
  -2   2  -9   69.89   11.60
   0  -2  -9   81.79   14.10
   2   0  -9   81.99   12.60
   0  -2  -9   78.09   12.60
  -2   0   9   98.29   13.40
   2  -2   9   82.09   12.20
   0   2   9   89.39   10.60
   2  -2   9   79.39   11.10
   0   2   9   84.39   10.70
  -2   3  -9  763.72   43.40
  -1  -2  -9  744.43   44.80
   3  -1  -9  777.52   45.70
  -3   1   9  790.42   44.30
   2  -3   9  805.32   43.90
   1   2   9  777.82   40.50
   1   2   9  792.52   41.70
  -2   4  -9   54.99   10.30
  -2  -2  -9   51.29   11.40
   4  -2  -9   82.39   14.10
   2   2   9   71.79    8.30
   2  -4   9   67.99   12.10
  -4   2   9   85.19   12.80
   2   2   9   75.89    9.80
   5  -3  -9  870.61   50.59
   3   2   9  852.61   44.30
   2  -5   9  861.91   48.30
   3   2   9  802.12   42.70
  -5   3   9  864.21   47.80
   4  -3  -9  485.35   32.60
  -3  -1  -9  483.45   31.50
  -1   4  -9  451.35   29.60
  -4   3   9  461.95   30.10
   3   1   9  453.75   27.60
   1  -4   9  500.25   30.80
   3   1   9  471.25   25.80
   3  -3  -9  202.98   20.90
  -3   0  -9  181.98   19.50
   0   3  -9  207.88   18.80
   0  -3   9  215.48   20.00
   3   0   9  199.88   16.60
   3   0   9  197.38   15.70
  -3   3   9  220.88   18.60
  -3   3   9  250.77   23.30
   2  -3  -9  799.32   45.70
   2  -3  -9  803.72   45.10
   1   2  -9  767.52   43.60
  -3   1  -9  772.42   43.90
   3  -1   9  773.42   42.10
  -2   3   9  751.02   42.40
   3  -1   9  786.92   41.30
  -1  -2   9  792.72   44.40
  -2   3   9  718.63   43.00
   2   1  -9  800.62   44.20
   1  -3  -9  748.53   43.80
   1  -3  -9  749.92   44.70
  -3   2  -9  808.92   43.70
  -1   3   9  790.72   41.70
   3  -2   9  725.83   41.70
  -1   3   9  755.92   41.60
   3  -2   9  747.43   42.20
  -2  -1   9  754.52   43.60
  -3   3  -9  196.38   18.40
   3   0  -9  194.98   21.10
   0  -3  -9  199.98   19.80
   3  -3   9  211.38   18.60
   3  -3   9  185.48   20.40
  -3   0   9  187.08   19.30
   0   3   9  195.78   16.40
   0   3   9  217.38   16.70
   4  -1  -9 1704.13   88.29
  -1  -3  -9 1677.63   87.69
  -4   1   9 1690.53   86.99
   3  -4   9 1753.52   86.49
   1   3   9 1686.23   83.59
   1   3   9 1693.53   82.39
   5  -2  -9  949.71   46.50
   5  -2  -9  879.91   52.39
  -5   2   9  900.21   49.99
   2   3   9  859.91   44.70
   2   3   9  881.21   46.20
   3  -5   9  897.91   50.09
  -3  -3  -9  118.79   16.20
   6  -3  -9  119.79   14.30
   6  -3  -9   83.49   19.70
  -6   3   9  118.49   15.70
   3   3   9  125.49   12.90
   3  -6   9  109.79   15.60
   7  -4  -9   29.80   14.20
   7  -4  -9   11.50    9.40
  -4  -3  -9   12.30   10.90
   3  -7   9    7.30   11.10
   4   3   9    4.80    6.70
  -7   4   9   -3.90   10.90
   6  -4  -9   36.50   14.30
   6  -4  -9   27.30    7.20
  -4  -2  -9   26.00   10.90
  -6   4   9   25.50   11.00
   2  -6   9   32.30   12.50
   4   2   9   32.90    7.50
  -1   5  -9  499.55   30.10
   5  -4  -9  407.16   45.90
  -4  -1  -9  468.55   35.30
   4   1   9  523.25   26.80
   4   1   9  474.65   28.30
  -5   4   9  478.85   31.30
   4  -4  -9  167.08   19.00
  -4   0  -9  167.58   20.50
   0   4  -9  137.29   16.40
  -4   4   9  169.88   17.20
   4   0   9  178.78   14.40
   0  -4   9  180.58   19.00
   4   0   9  130.89   14.90
   1   3  -9 1726.43   83.89
  -4   1  -9 1666.13   84.59
   3  -4  -9 1606.74   85.89
   3  -4  -9 1715.83   84.09
   4  -1   9 1598.14   82.49
  -3   4   9 1614.44   82.79
  -1  -3   9 1619.14   84.99
   4  -1   9 1681.33   81.69
  -3   4   9 1665.03   83.79
   2   2  -9   66.19   12.00
   2  -4  -9   87.79   13.80
   2  -4  -9   57.99   11.70
  -2  -2   9   97.99   14.20
   4  -2   9   74.69   11.50
  -2   4   9   69.69   11.60
   4  -2   9   63.59   10.90
  -2   4   9   75.59   10.30
   3   1  -9  520.65   32.10
   1  -4  -9  452.35   32.00
   1  -4  -9  496.95   30.80
  -1   4   9  484.15   28.20
   4  -3   9  454.55   29.90
  -1   4   9  513.15   29.10
  -3  -1   9  429.76   31.40
   4  -3   9  471.05   31.50
   4   0  -9  178.78   17.00
   4   0  -9  167.58   20.40
   0  -4  -9  161.08   19.60
   0   4   9  172.28   15.10
   4  -4   9  133.19   15.70
   0   4   9  182.78   15.40
  -4   0   9  187.18   19.60
   5  -1  -9   17.40    9.30
   5  -1  -9   14.10   11.20
   1   4   9   30.20    7.20
   4  -5   9   17.40    9.30
   1   4   9   27.80    7.50
  -5   1   9    4.70    9.50
   6  -2  -9   -5.90    9.50
   6  -2  -9   16.50   12.90
  -2  -4  -9   10.40   10.60
   4  -6   9  -16.50    9.20
  -6   2   9   -5.10    9.60
   2   4   9   10.00    6.70
  -3  -4  -9  658.93   41.90
   7  -3  -9  700.63   40.60
   7  -3  -9  639.34   45.60
   3   4   9  696.13   35.10
  -7   3   9  647.34   53.49
   4  -7   9  646.64   42.20
   8  -4  -9  657.23   47.00
  -4  -4  -9  627.04   41.50
   8  -4  -9  727.33   42.30
  -8   4   9  660.33   42.60
   4  -8   9  592.54   42.20
   9  -5  -9  726.83   51.59
   9  -5  -9  726.03   46.40
   4  -9   9  703.13   46.00
  -9   5   9  637.34   43.20
   8  -5  -9   33.50   17.70
   8  -5  -9   32.30   12.00
   3  -8   9   24.20   13.00
   5   3   9   34.80    7.90
   7  -5  -9  217.48   25.20
   7  -5  -9  219.28   16.90
   2  -7   9  180.28   21.20
   5   2   9  196.78   16.30
  -7   5   9  184.88   21.60
   6  -5  -9   -3.00   11.10
   5   1   9    3.30    6.80
  -6   5   9    9.40    9.70
   1  -6   9    9.40   11.50
   0   5  -9  153.38   16.40
   5  -5  -9  154.08   18.60
   0  -5   9  142.19   17.30
  -5   5   9  192.98   17.80
   5   0   9  151.48   16.80
   5   0   9  142.29   15.10
   4  -5  -9   35.60   14.10
   1   4  -9   35.50    9.20
   5  -1   9   40.80    8.90
   5  -1   9   18.90    9.90
  -4   5   9   12.40    8.40
   2   3  -9  838.22   47.10
   3  -5  -9  907.41   47.90
  -3   5   9  793.32   47.20
   5  -2   9  903.61   47.20
  -3   5   9  891.41   45.80
  -2  -3   9  823.72   49.70
   5  -2   9  847.52   46.50
   2  -5  -9  851.31   46.00
   3   2  -9  862.41   47.60
   5  -3   9  879.31   48.10
  -2   5   9  804.02   44.00
  -3  -2   9  852.31   48.90
  -2   5   9  817.62   45.30
   5  -3   9  841.22   46.70
   4   1  -9  533.45   33.50
   4   1  -9  546.85   32.60
   1  -5  -9  449.06   41.00
  -4  -1   9  500.05   34.10
   5  -4   9  471.95   31.70
  -1   5   9  507.35   29.20
  -1   5   9  464.55   27.90
   5   0  -9  148.19   17.70
   0  -5  -9  137.89   17.40
   5   0  -9  174.38   19.70
  -5   0   9  182.88   20.90
   0   5   9  145.89   12.90
   0   5   9  122.19   16.00
   5  -5   9  170.68   19.50
   6  -1  -9  230.88   23.30
  -1  -5  -9  213.28   23.30
   6  -1  -9  229.78   26.10
   5  -6   9  218.98   22.60
  -6   1   9  170.38   24.70
   7  -2  -9  305.57   26.60
  -2  -5  -9  230.18   25.20
  -7   2   9  290.97   26.00
   5  -7   9  246.88   25.40
   8  -3  -9   54.59   16.10
  -3  -5  -9   47.40   13.60
   8  -3  -9   52.09   17.30
   5  -8   9    6.10   13.30
  -8   3   9   53.59   14.20
   9  -4  -9   81.29   19.30
  -4  -5  -9   38.10   14.00
   9  -4  -9   68.19   20.90
   5  -9   9   24.50   15.30
  -9   4   9   41.40   13.80
  10  -5  -9   61.89   21.80
  10  -5  -9   41.90   21.10
 -10   5   9   20.20   14.10
   5 -10   9   27.50   17.60
  11  -6  -9   84.99   24.40
  11  -6  -9   22.90   25.60
   5 -11   9   64.99   20.20
   5 -11   9  105.99   22.20
 -11   6   9   75.29   17.10
  10  -6  -9    1.60   21.20
  10  -6  -9    1.50   18.40
   4 -10   9   -1.10   14.40
 -10   6   9   25.20   14.10
   9  -6  -9  211.98   27.70
   9  -6  -9  236.68   26.80
  -9   6   9  247.68   26.20
   3  -9   9  279.47   28.90
   8  -6  -9  804.72   54.09
   8  -6  -9  869.71   44.80
  -8   6   9  827.82   47.90
   2  -8   9  846.62   50.79
   6   2   9  767.72   43.10
   7  -6  -9  154.38   21.50
   6   1   9  123.59   13.80
   1  -7   9  112.39   17.30
   6   1   9  127.09   14.50
  -7   6   9   95.49   13.90
   6  -6  -9   89.49   16.00
  -6   6   9  132.19   14.30
   6   0   9  126.39   15.00
   6   0   9  109.19   13.70
   0  -6   9  113.79   16.90
   5  -6  -9  246.28   24.50
   1   5  -9  223.38   18.80
  -5   6   9  215.78   18.20
  -1  -5   9  237.38   24.10
   6  -1   9  210.68   18.80
   4  -6  -9   11.30   11.50
   2   4  -9    6.30    8.10
  -2  -4   9  -13.70   10.90
   6  -2   9   -1.20    7.90
  -4   6   9    2.10    7.00
   6  -2   9    0.00   11.80
   3   3  -9  141.39   16.50
   3  -6  -9   78.49   14.50
   3   3  -9  143.39   17.30
  -3   6   9  101.79   12.60
   6  -3   9  109.69   17.00
   6  -3   9  109.79   13.70
  -3  -3   9  133.29   18.30
  -3   6   9  109.89   14.20
   2  -6  -9   17.90   10.40
   4   2  -9   47.10   11.30
   4   2  -9   40.70   12.80
   6  -4   9   27.80   10.30
  -2   6   9   39.10    9.80
  -2   6   9   33.40    7.10
  -4  -2   9   19.30   12.10
   5   1  -9    2.00   11.40
   5   1  -9    6.80   10.60
   1  -6  -9    3.90   10.90
  -5  -1   9    8.10   11.90
  -1   6   9   12.40    5.30
   6  -5   9  -13.30   10.20
   0  -6  -9  116.89   18.10
   6   0  -9  135.59   18.30
   6   0  -9  132.59   18.90
  -6   0   9  148.49   18.90
   6  -6   9  117.09   16.80
   0   6   9  107.09    9.10
  -1  -6  -9    6.70   11.80
   7  -1  -9   -8.70   12.40
   7  -1  -9   20.10   14.90
   6  -7   9    3.80   11.80
  -7   1   9   14.00   11.40
   8  -2  -9 1999.30  106.39
  -2  -6  -9 1905.01  102.49
   8  -2  -9 2154.28  105.09
  -8   2   9 1920.21  102.59
   6  -8   9 1976.10  103.99
  -3  -6  -9   75.29   16.70
   9  -3  -9   60.89   19.90
   9  -3  -9   63.69   19.50
  -9   3   9   86.19   16.30
   6  -9   9   47.60   16.40
   6  -9   9   55.39   16.10
  -4  -6  -9   95.29   17.20
  10  -4  -9   63.79   38.10
  10  -4  -9   84.79   23.80
   6 -10   9   66.49   20.50
 -10   4   9   41.80   15.30
   6 -10   9   47.10   17.80
  11  -5  -9    7.20   23.60
  11  -5  -9   42.40   24.00
   6 -11   9   19.40   18.60
 -11   5   9   32.10   16.10
   6 -11   9   24.50   19.70
  12  -6  -9   27.80   27.10
  12  -6  -9   79.49   28.10
   6 -12   9   98.09   24.80
   6 -12   9   86.39   24.00
  13  -7  -9   32.50   30.20
  13  -7  -9   30.40   30.20
  12  -7  -9   91.09   28.30
  12  -7  -9  104.39   29.20
   5 -12   9  139.99   24.60
   5 -12   9   59.09   24.60
  11  -7  -9   16.40   23.40
  11  -7  -9   60.59   22.60
   4 -11   9   47.90   20.00
  10  -7  -9  329.07   34.90
  10  -7  -9  288.97   37.30
   3 -10   9  294.87   32.80
   9  -7  -9    1.80   17.50
   7   2   9   -3.70    9.50
  -9   7   9    8.20   13.00
   2  -9   9    0.50   14.00
   8  -7  -9   75.99   18.80
   1  -8   9   75.19   17.40
   7   1   9  106.39   12.50
  -8   7   9   86.09   13.90
   7  -7  -9   39.50   14.70
   7   0   9   46.20   10.90
   7   0   9   55.99   11.00
  -7   7   9   50.79   10.80
   0  -7   9   40.60   14.50
   6  -7  -9   -0.90   11.40
  -6   7   9    4.60    8.00
   7  -1   9   10.60    9.80
   7  -1   9    9.10    9.20
  -1  -6   9   13.10   12.10
   5  -7  -9  236.18   25.10
   2   5  -9  218.48   19.30
   7  -2   9  262.67   21.80
  -5   7   9  227.68   18.50
   7  -2   9  251.87   21.70
  -2  -5   9  255.17   25.80
   4  -7  -9  666.73   42.80
   3   4  -9  647.44   38.50
   3   4  -9  747.33   44.00
   7  -3   9  687.03   40.90
  -3  -4   9  649.24   42.80
   7  -3   9  672.33   40.00
  -4   7   9  673.03   36.20
   4   3  -9   -8.10    8.50
   3  -7  -9   -6.60   10.70
   4   3  -9    1.20   12.10
   7  -4   9   -3.60   10.10
   7  -4   9    5.20   10.10
  -4  -3   9   18.40   12.40
   5   2  -9  211.48   22.10
   2  -7  -9  194.48   23.90
   5   2  -9  236.18   25.90
  -5  -2   9  243.08   25.00
   7  -5   9  154.88   25.80
   7  -5   9  215.18   22.80
   6   1  -9  134.59   17.30
   6   1  -9  159.98   20.90
   1  -7  -9  115.79   17.60
   7  -6   9  128.59   18.60
   7  -6   9  132.19   18.10
  -6  -1   9   97.99   16.50
   7   0  -9   40.50   17.60
   0  -7  -9   31.80   14.20
   7   0  -9   66.49   15.90
  -7   0   9   31.20   14.10
   7  -7   9   39.90   14.70
   7  -7   9   39.10   14.40
  -1  -7  -9  764.32   49.80
   8  -1  -9  755.02   56.99
   8  -1  -9  882.51   54.89
   7  -8   9  845.72   50.89
  -8   1   9  772.52   49.99
   7  -8   9  853.71   51.89
   9  -2  -9   90.09   23.30
  -2  -7  -9   66.69   16.70
   9  -2  -9  130.19   23.20
   7  -9   9   83.59   20.00
  -9   2   9   80.89   17.80
   7  -9   9   78.59   19.30
  -3  -7  -9  138.09   20.20
  10  -3  -9  136.79   26.90
  10  -3  -9  179.08   27.60
   7 -10   9  144.39   24.50
   7 -10   9  164.48   24.30
 -10   3   9  124.39   20.40
  11  -4  -9  356.16   42.20
  11  -4  -9  244.98   33.70
   7 -11   9  291.77   36.00
   7 -11   9  302.97   36.30
 -11   4   9  263.17   31.90
  12  -5  -9   60.59   28.20
  12  -5  -9    3.20   25.80
   7 -12   9   75.69   24.10
   7 -12   9   36.00   20.90
 -12   5   9   12.80   18.00
  13  -6  -9   14.80   30.10
  13  -6  -9   71.69   30.40
  12  -8  -9   61.29   26.40
   4 -12   9   11.40   23.60
   4 -12   9   55.99   21.60
  11  -8  -9   42.90   24.00
   3 -11   9   34.50   19.60
  10  -8  -9   65.09   22.40
   2 -10   9   59.09   19.30
   9  -8  -9    7.50   17.40
   8   1   9   13.00    9.80
   1  -9   9    6.90   15.70
   8  -8  -9  383.76   34.00
   8   0   9  352.56   27.10
   0  -8   9  389.76   33.50
   7  -8  -9  683.53   48.20
   8  -1   9  769.62   43.60
   8  -1   9  768.42   43.40
  -1  -7   9  780.42   48.40
   6  -8  -9 1753.92   95.89
   2   6  -9 1992.00   90.59
   8  -2   9 1899.11   93.49
   8  -2   9 1750.52   92.79
  -2  -6   9 1742.03   96.09
   3   5  -9   47.90   16.80
   3   5  -9   39.10    9.40
   5  -8  -9   36.00   13.00
   8  -3   9   39.30   13.40
  -3  -5   9   46.00   13.50
   8  -3   9   44.50   12.60
   4   4  -9  640.54   37.20
   4   4  -9  724.23   45.10
   4  -8  -9  651.03   42.60
  -4  -4   9  530.15   41.80
   8  -4   9  698.63   52.39
   8  -4   9  647.24   41.70
   5   3  -9   51.69   17.10
   3  -8  -9   43.30   14.30
   5   3  -9   38.00   11.30
  -5  -3   9   55.29   14.10
   8  -5   9   44.80   15.30
   8  -5   9   31.50   13.70
   2  -8  -9  830.12   51.09
   6   2  -9  860.41   48.80
   6   2  -9  938.71   54.89
  -6  -2   9  784.82   50.79
   8  -6   9  885.21   51.79
   8  -6   9  736.43   51.09
   1  -8  -9   67.89   16.20
   7   1  -9   90.29   15.90
   8  -7   9   74.79   17.20
   8  -7   9  121.89   19.10
  -7  -1   9   74.59   17.50
   8   0  -9  367.26   37.70
   8   0  -9  464.95   40.20
   0  -8  -9  390.06   33.20
   8  -8   9  366.46   35.10
   8  -8   9  426.76   35.00
  -8   0   9  368.56   32.90
  -1  -8  -9   85.99   18.00
   9  -1  -9  107.79   21.40
   9  -1  -9  119.39   24.90
  -9   1   9  149.69   20.20
   8  -9   9  142.49   22.60
   8  -9   9   98.19   20.20
  10  -2  -9  200.98   31.00
  10  -2  -9  176.38   27.60
  -2  -8  -9  197.38   23.10
   8 -10   9  175.98   27.00
 -10   2   9  204.98   25.00
   8 -10   9  228.58   27.00
  11  -3  -9    8.80   22.50
  11  -3  -9   19.70   25.80
  -3  -8  -9  -16.40   15.80
 -11   3   9    9.50   16.20
   8 -11   9   12.00   20.40
   8 -11   9   10.00   18.90
  12  -4  -9   89.19   27.60
  12  -4  -9   44.00   27.60
   8 -12   9   50.29   24.70
 -12   4   9   45.40   18.30
   8 -12   9   13.70   21.40
  12  -9  -9   51.59   25.80
   3 -12   9   28.10   21.60
  11  -9  -9   24.30   22.50
   2 -11   9   -1.00   20.00
  10  -9  -9   41.90   20.30
   1 -10   9   46.00   19.10
   9  -9  -9  505.75   42.90
   0  -9   9  618.84   44.20
   9   0   9  539.15   35.60
   8  -9  -9  109.79   21.20
   9  -1   9   99.79   16.00
  -1  -8   9  109.09   20.50
   7  -9  -9   81.99   17.00
   9  -2   9   96.29   16.80
  -2  -7   9   77.99   19.40
   9  -2   9   95.79   15.70
   3   6  -9   58.29   19.20
   6  -9  -9   37.10   15.50
   3   6  -9   54.79    9.90
   9  -3   9   51.49   15.10
   9  -3   9   67.59   18.10
  -3  -6   9   72.09   17.10
   4   5  -9   55.19   18.10
   5  -9  -9   33.90   13.60
   4   5  -9   38.30    9.90
   9  -4   9   41.00   16.20
   9  -4   9   48.50   15.30
  -4  -5   9   36.80   16.50
   5   4  -9  676.43   37.60
   4  -9  -9  625.44   42.60
   5   4  -9  728.73   48.50
   9  -5   9  629.24   44.50
  -5  -4   9  583.34   44.10
   9  -5   9  620.84   43.40
   3  -9  -9  255.97   27.90
   6   3  -9  325.87   33.10
   6   3  -9  250.07   23.60
   9  -6   9  261.27   30.10
   9  -6   9  278.67   29.70
  -6  -3   9  232.18   27.60
   7   2  -9   20.00   19.80
   7   2  -9   -1.00   11.60
   2  -9  -9   35.20   15.00
   9  -7   9   36.30   16.30
  -7  -2   9   14.90   14.60
   8   1  -9    9.60   13.30
   8   1  -9   48.80   22.40
   1  -9  -9   11.70   14.50
   9  -8   9   22.30   17.30
  -8  -1   9    7.90   15.10
   9  -8   9    3.30   16.90
   0  -9  -9  592.84   44.00
   9   0  -9  607.24   49.40
   9   0  -9  579.14   43.90
  -9   0   9  614.94   44.10
   9  -9   9  622.04   46.70
   9  -9   9  607.34   46.30
  -1  -9  -9   75.29   18.80
  10  -1  -9   35.60   19.90
  10  -1  -9   71.99   24.20
 -10   1   9   69.29   19.50
   9 -10   9   60.49   22.10
   9 -10   9   54.09   21.40
  -2  -9  -9   74.89   20.30
  11  -2  -9  124.19   29.40
  11  -2  -9  147.89   25.50
   9 -11   9  148.89   25.00
 -11   2   9   91.99   21.20
   9 -11   9  113.79   26.30
  12  -3  -9   22.90   24.20
  12  -3  -9  -45.30   24.70
  -3  -9  -9    6.30   18.70
   9 -12   9   10.60   21.60
   9 -12   9    6.10   23.60
 -12   3   9   30.40   18.80
  12 -10  -9   30.00   24.70
   2 -12   9    1.60   24.50
  11 -10  -9  171.68   28.40
   1 -11   9  232.48   30.20
  10 -10  -9   16.40   19.50
   0 -10   9    0.70   19.60
   9 -10  -9   97.99   21.00
  -1  -9   9   63.99   18.90
  10  -1   9   70.29   16.80
   8 -10  -9  181.48   24.10
  -2  -8   9  128.49   22.60
   7 -10  -9  131.29   20.90
   3   7  -9  179.18   27.70
  10  -3   9  187.08   24.70
  10  -3   9  120.19   20.60
  -3  -7   9  134.79   21.90
   6 -10  -9   48.40   14.90
   4   6  -9   76.79   21.90
  -4  -6   9   45.00   17.60
  10  -4   9   47.40   16.90
  10  -4   9   50.59   17.70
   5 -10  -9   30.20   14.40
   5   5  -9   -4.50   19.60
   5   5  -9   -0.30    9.00
  10  -5   9    8.00   15.40
  10  -5   9  -21.60   15.40
  -5  -5   9    7.20   16.50
   6   4  -9   24.60   10.30
   6   4  -9   22.50   19.80
   4 -10  -9   37.10   14.60
  10  -6   9    8.00   17.10
  10  -6   9   28.00   16.80
  -6  -4   9   39.10   18.40
   7   3  -9  323.17   41.00
   3 -10  -9  318.37   30.90
   7   3  -9  311.57   26.10
  10  -7   9  343.07   34.00
  -7  -3   9  267.17   31.60
  10  -7   9  309.57   34.60
   8   2  -9   80.49   24.90
   2 -10  -9   76.09   17.60
   8   2  -9   63.09   15.00
  -8  -2   9   45.50   17.40
  10  -8   9   34.10   20.20
  10  -8   9   52.09   20.40
   9   1  -9   -8.70   23.40
   1 -10  -9   34.70   17.00
  -9  -1   9    8.00   17.30
  10  -9   9  -19.20   19.90
  10  -9   9   32.70   19.60
   0 -10  -9   31.40   17.60
  10   0  -9    3.00   23.90
  10   0  -9    1.30   17.40
  10 -10   9   56.29   22.90
 -10   0   9   25.60   17.50
  10 -10   9  -46.50   18.60
  -1 -10  -9  269.27   30.00
  11  -1  -9  332.27   39.70
  11  -1  -9  337.97   44.30
  10 -11   9  359.76   40.90
  10 -11   9  426.46   42.80
 -11   1   9  360.96   36.80
  12  -2  -9   54.49   29.90
  12  -2  -9   34.50   23.90
  -2 -10  -9    4.90   19.30
 -12   2   9   -2.00   19.20
  10 -12   9   42.30   25.30
  10 -12   9    5.30   24.80
  11 -11  -9  507.25   47.70
   0 -11   9  571.24   50.19
  10 -11  -9  312.47   37.20
  -1 -10   9  322.37   35.70
   9 -11  -9   71.29   19.30
  -2  -9   9  104.89   24.20
  11  -2   9   88.39   21.90
   8 -11  -9   24.20   16.90
  11  -3   9   29.60   18.00
  -3  -8   9    7.30   19.30
   7 -11  -9  295.47   30.10
   4   7  -9  379.56   42.80
  -4  -7   9  221.98   28.30
  11  -4   9  211.48   26.60
  11  -4   9  249.08   26.30
   5   6  -9   31.10   24.10
   6 -11  -9   17.90   14.20
  11  -5   9   48.40   18.30
  11  -5   9   18.00   16.70
  -5  -6   9   22.20   19.40
   5 -11  -9   40.30   16.70
   6   5  -9  115.39   28.20
  -6  -5   9  151.28   23.00
  11  -6   9   96.39   21.10
  11  -6   9   96.29   21.60
   4 -11  -9   21.30   15.90
   7   4  -9   68.59   24.60
  11  -7   9   33.30   20.10
  -7  -4   9   65.69   19.80
  11  -7   9   59.39   19.70
   8   3  -9   45.90   26.00
   3 -11  -9   38.80   17.30
  -8  -3   9   59.89   18.70
  11  -8   9   65.49   21.90
  11  -8   9   99.69   22.00
   2 -11  -9  -12.80   16.60
   9   2  -9    8.20   14.50
   9   2  -9   11.20   25.90
  -9  -2   9   21.50   19.40
  11  -9   9   29.60   21.10
  11  -9   9   31.10   21.70
  10   1  -9  182.18   32.60
   1 -11  -9  186.78   24.30
  10   1  -9  203.48   24.40
  11 -10   9  174.68   29.90
  11 -10   9  238.88   30.90
 -10  -1   9  165.38   26.30
   0 -11  -9  434.86   42.30
  11   0  -9  503.65   43.80
  11   0  -9  564.84   51.79
  11 -11   9  542.25   47.40
 -11   0   9  454.25   43.80
  11 -11   9  447.26   48.20
  10 -12  -9   28.70   19.10
  -2 -10   9   34.80   24.80
  12  -2   9   33.90   22.20
   9 -12  -9   -5.00   17.30
  -3  -9   9    6.60   20.50
  12  -3   9   -1.10   19.80
   4   8  -9   24.50   27.90
   8 -12  -9   44.40   18.30
  -4  -8   9   23.50   20.00
  12  -4   9   26.30   21.60
   5   7  -9   77.89   28.60
   7 -12  -9   45.80   17.10
  12  -5   9   39.10   22.20
  12  -5   9   -3.10   18.90
  -5  -7   9   31.60   21.70
   6 -12  -9  127.59   20.70
   6   6  -9   85.19   28.90
  12  -6   9  111.29   22.10
  -6  -6   9  102.29   24.10
  12  -6   9  113.49   23.20
   5 -12  -9   70.09   18.00
   7   5  -9   68.59   28.00
  -7  -5   9   72.59   22.00
  12  -7   9   69.59   22.70
  12  -7   9   51.99   21.50
   8   4  -9   41.10   28.60
   4 -12  -9   18.90   16.30
  12  -8   9   45.20   20.90
  -8  -4   9    9.60   18.80
  12  -8   9   55.19   22.40
   9   3  -9  -24.90   27.90
   3 -12  -9    8.30   17.20
  -9  -3   9   80.69   22.20
  12  -9   9   34.90   23.00
  12  -9   9   23.50   22.60
  10   2  -9   -6.70   28.20
   2 -12  -9  -25.40   17.30
  12 -10   9  -34.40   21.60
 -10  -2   9   15.40   22.10
  12 -10   9   12.40   23.00
   6   7  -9   84.49   32.30
   7 -13  -9   68.19   19.80
   7   6  -9   92.49   32.40
   6 -13  -9   84.89   19.60
   0   0  10  207.98   19.70
   0   1 -10  201.78   21.80
  -1   0 -10  264.17   22.90
   1  -1 -10  186.98   23.60
   1   0  10  205.18   21.50
   0  -1  10  244.68   21.20
   1   0  10  198.48   19.70
  -1   1  10  251.57   21.30
   1   0 -10  228.48   25.90
   0  -1 -10  233.28   23.00
   0   1  10  219.78   21.50
   0   1  10  195.58   20.10
  -1   0  10  244.58   21.50
   1  -1  10  224.38   20.40
  -1  -1 -10  377.46   27.90
   2  -1 -10  328.47   35.70
  -1   2 -10  384.96   28.00
   1   1  10  374.66   25.70
   1   1  10  340.77   26.80
   1  -2  10  433.26   28.30
  -2   1  10  393.46   27.80
  -2  -1 -10  131.39   16.60
  -1   3 -10   94.99   14.50
   3  -2 -10   93.39   15.30
  -3   2  10  134.69   15.70
   2   1  10   97.39   13.20
   2  -2 -10  248.38   24.10
   0   2 -10  245.58   22.60
  -2   0 -10  235.58   23.30
   2   0  10  185.68   23.20
   2   0  10  236.38   20.10
   0  -2  10  223.18   22.00
  -2   2  10  232.58   21.30
  -2   1 -10  404.06   28.50
   1   1 -10  369.36   28.90
   1  -2 -10  370.86   29.70
   2  -1  10  357.26   27.20
  -1  -1  10  392.16   28.20
  -1   2  10  391.36   26.70
   2  -1  10  373.06   26.40
  -1   2  10  360.16   27.90
   2   0 -10  227.48   24.10
   0  -2 -10  248.68   22.70
  -2   0  10  249.18   22.50
   2  -2  10  208.28   20.90
   0   2  10  268.37   20.60
   0   2  10  190.88   23.80
  -1  -2 -10    8.50   11.30
   3  -1 -10   -3.60   14.00
  -2   3 -10   31.40   10.70
   1   2  10    3.90    8.50
   2  -3  10    0.90    9.40
  -3   1  10   17.20   10.60
  -2   4 -10  261.37   22.80
  -2  -2 -10  233.78   24.90
   4  -2 -10  280.07   27.40
   2  -4  10  201.38   23.10
   2   2  10  269.17   20.40
  -4   2  10  268.97   23.00
   5  -3 -10  650.33   43.10
  -3  -2 -10  607.04   40.30
   2  -5  10  564.64   39.10
  -5   3  10  612.84   38.70
   3   2  10  630.04   35.30
   4  -3 -10  481.15   34.80
  -1   4 -10  470.95   31.30
  -3  -1 -10  453.25   32.70
   3   1  10  460.05   28.50
   1  -4  10  425.76   32.30
  -4   3  10  411.86   30.50
   0   3 -10  236.78   22.80
   3  -3 -10  281.57   26.30
  -3   0 -10  214.98   23.50
  -3   3  10  263.27   21.80
   3   0  10  232.48   20.40
   0  -3  10  272.07   24.70
   1   2 -10    2.20    9.90
   2  -3 -10    0.30   10.50
  -3   1 -10   -5.00    9.50
   3  -1  10   -6.30    8.60
  -2   3  10    9.20    8.70
  -3   2 -10  116.39   16.40
   1  -3 -10  120.49   17.40
   2   1 -10   99.29   15.90
  -1   3  10  110.89   14.00
  -2  -1  10   96.39   17.00
   3  -2  10  126.79   14.90
   0  -3 -10  235.58   24.10
   3   0 -10  293.27   28.40
   3  -3  10  263.27   22.80
   0   3  10  252.07   20.80
  -3   0  10  226.48   24.30
  -1  -3 -10   39.20   12.40
   4  -1 -10   45.00   14.60
   3  -4  10   42.80   12.10
   1   3  10   44.80   10.00
  -4   1  10   32.10   13.80
  -2  -3 -10   -1.00   11.80
   5  -2 -10   29.40   14.20
   3  -5  10   25.40   11.60
   2   3  10    8.90    8.50
   6  -3 -10  244.68   29.30
  -3  -3 -10  280.07   26.10
  -6   3  10  233.38   24.80
   3   3  10  228.98   19.10
   3  -6  10  245.48   25.70
  -4  -3 -10  192.18   23.00
   7  -4 -10  184.48   24.30
   3  -7  10  201.08   23.00
  -7   4  10  222.28   26.30
  -4  -2 -10    8.50   12.60
   6  -4 -10   18.50   14.30
   2  -6  10   25.30   12.10
   4   2  10   26.50    9.00
  -6   4  10   -1.60   12.30
   5  -4 -10  728.93   46.60
  -4  -1 -10  719.03   44.50
   4   1  10  691.03   40.00
  -5   4  10  699.33   42.70
   1  -5  10  759.02   45.10
   0   4 -10   76.49   12.90
   4  -4 -10   66.99   16.00
  -4   0 -10   76.69   15.10
  -4   4  10   64.89   12.70
   4   0  10   94.69   12.20
   0  -4  10   86.09   15.60
   1   3 -10   33.60   11.90
   3  -4 -10   39.20   13.50
  -3   4  10   40.40   10.30
  -1  -3  10   42.00   13.20
   4  -1  10   62.49   11.50
   2  -4 -10  254.57   25.70
   2   2 -10  285.97   24.30
  -2   4  10  284.77   21.50
  -2  -2  10  245.98   25.40
   4  -2  10  242.88   22.40
   1  -4 -10  418.86   32.00
   3   1 -10  402.56   32.00
   4  -3  10  409.76   29.80
  -1   4  10  455.85   27.60
  -3  -1  10  455.35   32.30
   0  -4 -10   80.19   15.60
  -4   0  10   49.90   13.70
   4  -4  10   77.69   13.90
   0   4  10   74.29   11.10
   5  -1 -10  488.65   36.70
  -1  -4 -10  459.75   34.80
   4  -5  10  447.76   33.30
  -5   1  10  485.75   34.30
   1   4  10  479.45   28.50
   6  -2 -10  266.67   30.60
   6  -2 -10  300.17   22.90
  -2  -4 -10  254.47   26.90
   2   4  10  238.88   19.40
  -6   2  10  263.17   26.90
   4  -6  10  288.17   26.20
   7  -3 -10  251.27   29.60
  -3  -4 -10  227.28   25.10
  -7   3  10  256.27   27.40
   4  -7  10  272.87   27.30
   8  -4 -10   63.29   20.20
  -4  -4 -10   74.29   17.00
   4  -8  10   57.49   17.20
  -8   4  10   81.29   16.80
   9  -5 -10  128.59   26.00
  -9   5  10  136.49   19.70
   4  -9  10  144.49   23.10
   8  -5 -10  193.48   27.40
   3  -8  10  185.68   24.60
  -8   5  10  166.28   20.50
   7  -5 -10   36.40   16.30
   2  -7  10   55.59   15.80
  -7   5  10    4.40   13.20
   5   2  10   37.80   10.00
   6  -5 -10   18.50   14.40
  -6   5  10   55.39   13.40
   1  -6  10   37.20   14.00
   5   1  10   41.10   10.20
   0   5 -10  181.88   19.30
   5  -5 -10  142.59   20.20
   5   0  10  126.19   14.90
  -5   5  10  152.18   17.30
   0  -5  10  138.39   18.90
   4  -5 -10  453.85   34.30
   1   4 -10  464.25   30.50
  -1  -4  10  434.86   33.10
   5  -1  10  422.56   29.50
  -4   5  10  453.75   30.10
   2   3 -10   22.80   10.80
   3  -5 -10   17.60   12.50
   5  -2  10   25.40   10.50
  -3   5  10   26.10    9.80
  -2  -3  10   -2.10   11.50
   2  -5 -10  599.74   40.40
   3   2 -10  673.53   39.20
  -2   5  10  619.14   35.10
  -3  -2  10  563.84   39.70
   5  -3  10  568.64   37.60
   4   1 -10  732.33   44.10
   1  -5 -10  741.93   45.00
  -4  -1  10  655.63   44.00
   5  -4  10  702.63   43.00
  -1   5  10  677.73   38.00
   0  -5 -10   93.29   17.40
   5   0 -10  150.08   19.70
   5   0 -10  141.19   21.10
   0   5  10  135.69   14.20
  -5   0  10  140.19   18.40
   5  -5  10  150.48   18.50
   6  -1 -10  135.29   20.80
  -1  -5 -10   82.29   18.00
   6  -1 -10  118.49   16.10
  -6   1  10  138.09   18.70
   5  -6  10  104.09   16.50
   7  -2 -10  813.12   54.29
  -2  -5 -10  747.53   50.69
   7  -2 -10  900.41   48.40
   5  -7  10  792.22   50.79
  -7   2  10  829.02   50.09
   8  -3 -10    7.00   15.20
   8  -3 -10   24.30   19.50
  -3  -5 -10    1.70   15.40
   5  -8  10  -33.30   13.70
  -8   3  10    9.70   14.10
   9  -4 -10   35.90   21.40
  -4  -5 -10   19.80   15.60
  -9   4  10   27.30   15.20
   5  -9  10   20.50   17.50
  10  -5 -10   53.39   25.10
 -10   5  10   63.39   17.40
   5 -10  10   71.69   21.10
  11  -6 -10  -11.30   25.30
 -11   6  10   31.10   17.90
   5 -11  10   10.80   24.30
   5 -11  10   13.40   22.50
  10  -6 -10   -4.50   22.70
   4 -10  10   20.00   19.20
 -10   6  10    0.40   16.30
   9  -6 -10  340.87   40.30
  -9   6  10  310.27   31.00
   3  -9  10  376.86   35.10
   8  -6 -10    4.70   17.80
  -8   6  10   27.00   13.80
   2  -8  10   -7.00   14.50
   7  -6 -10  432.96   37.60
   6   1  10  471.85   29.20
  -7   6  10  423.96   31.70
   1  -7  10  438.66   35.50
   6  -6 -10  126.69   19.50
   0  -6  10  131.89   19.20
   6   0  10  132.99   15.50
  -6   6  10  134.99   16.00
   5  -6 -10   86.89   17.20
   1   5 -10  105.69   14.30
  -5   6  10  119.59   14.50
   6  -1  10   98.39   13.80
  -1  -5  10  100.69   17.30
   2   4 -10  250.97   22.80
   4  -6 -10  238.38   27.20
   6  -2  10  259.27   23.10
  -4   6  10  229.68   20.50
  -2  -4  10  265.37   27.00
   3  -6 -10  246.08   26.50
   3   3 -10  251.57   23.30
   6  -3  10  238.08   26.60
  -3   6  10  213.08   18.60
  -3  -3  10  215.98   25.30
   4   2 -10   10.60   11.50
   2  -6 -10   11.70   12.90
   6  -4  10    3.20   12.10
  -2   6  10    4.90    7.30
  -4  -2  10   28.50   13.40
   5   1 -10   73.99   20.20
   5   1 -10   53.59   14.80
   1  -6 -10   61.39   15.00
   6  -5  10   48.00   14.30
  -5  -1  10   59.69   15.50
   0  -6 -10  118.39   19.50
   6   0 -10  138.49   20.60
   6   0 -10  156.38   19.60
   6  -6  10  174.98   20.90
  -6   0  10  125.79   18.40
  -1  -6 -10   23.90   16.20
   7  -1 -10   63.09   17.30
   7  -1 -10   11.90   16.80
  -7   1  10   45.50   14.50
   6  -7  10   21.70   14.70
   8  -2 -10  881.11   59.79
   8  -2 -10 1007.90   57.49
  -2  -6 -10  854.21   56.39
   6  -8  10  915.71   57.39
  -8   2  10  922.31   56.09
   9  -3 -10   28.80   21.50
  -3  -6 -10    5.90   16.10
   9  -3 -10  -14.00   18.60
   6  -9  10   17.10   17.10
   6  -9  10   -2.10   17.50
  -9   3  10    2.20   15.00
  10  -4 -10   27.50   23.90
   6 -10  10   28.60   21.10
   6 -10  10  -17.00   19.10
 -10   4  10   24.20   16.10
  11  -5 -10  308.57   37.20
 -11   5  10  270.47   33.10
   6 -11  10  273.47   34.30
   6 -11  10  292.77   34.50
  11  -7 -10  169.28   32.50
   4 -11  10  111.79   27.30
  10  -7 -10  375.36   46.70
   3 -10  10  504.65   42.90
   9  -7 -10   -6.40   19.20
   2  -9  10   22.30   17.80
  -9   7  10    2.60   14.10
   8  -7 -10  673.43   48.60
   1  -8  10  570.54   45.30
  -8   7  10  648.94   41.80
   7  -7 -10  109.49   20.00
   7   0  10  103.09   14.40
   0  -7  10  109.89   19.60
  -7   7  10  107.99   15.70
   6  -7 -10   39.80   16.20
  -6   7  10   57.39   11.70
   7  -1  10   32.20   11.80
  -1  -6  10   14.70   15.90
   5  -7 -10  747.03   48.80
   2   5 -10  792.62   43.80
  -2  -5  10  729.83   48.50
   7  -2  10  798.22   45.40
   7  -2  10  730.33   44.80
  -5   7  10  767.82   42.30
   4  -7 -10  291.47   28.40
   3   4 -10  294.87   23.70
  -4   7  10  236.08   19.50
  -3  -4  10  283.37   28.60
   7  -3  10  243.68   25.70
   7  -3  10  265.47   28.80
   3  -7 -10  203.38   25.90
   4   3 -10  194.58   23.40
  -4  -3  10  229.38   27.60
   7  -4  10  231.98   26.00
   7  -4  10  249.38   25.90
   2  -7 -10   30.10   15.00
   5   2 -10   33.10   13.10
   5   2 -10   34.30   16.20
   7  -5  10   42.90   15.10
  -5  -2  10   38.80   15.40
   7  -5  10   18.20   14.20
   6   1 -10  601.24   39.90
   6   1 -10  464.55   39.80
   1  -7 -10  441.46   37.50
   7  -6  10  508.65   37.60
   7  -6  10  488.35   37.90
  -6  -1  10  448.76   36.60
   7   0 -10  127.09   21.70
   7   0 -10  101.39   19.40
   0  -7 -10  111.09   19.80
   7  -7  10   99.49   19.90
   7  -7  10  102.89   20.40
  -7   0  10  143.49   19.60
   8  -1 -10  118.69   22.30
   8  -1 -10  142.89   24.80
  -1  -7 -10   94.29   19.90
  -8   1  10   81.99   19.00
   7  -8  10   78.99   19.90
   7  -8  10  121.39   21.20
  -2  -7 -10   85.49   19.50
   9  -2 -10   23.30   20.60
   9  -2 -10  134.69   25.20
  -9   2  10   93.49   19.40
   7  -9  10   38.70   20.50
   7  -9  10   54.99   21.10
  10  -3 -10  945.81   65.59
  -3  -7 -10  898.11   59.79
  10  -3 -10  994.10   65.49
   7 -10  10  975.50   64.69
   7 -10  10  972.10   63.19
 -10   3  10  891.11   57.49
  11  -4 -10   -3.60   24.90
 -11   4  10   28.30   18.80
   7 -11  10   60.79   24.60
   7 -11  10   75.79   25.10
  11  -8 -10  103.09   30.10
   3 -11  10  139.69   29.70
  10  -8 -10  -12.30   20.90
   2 -10  10   19.60   20.20
   9  -8 -10   13.50   20.70
   1  -9  10   79.79   20.20
   8  -8 -10  279.67   33.30
   8   0  10  260.17   25.00
   0  -8  10  271.27   33.20
   7  -8 -10  100.29   19.60
  -1  -7  10  112.89   20.50
   8  -1  10   89.99   15.60
   2   6 -10  923.81   47.20
   6  -8 -10  758.62   52.89
  -2  -6  10  828.12   53.79
   3   5 -10   -2.30   10.10
   5  -8 -10    1.70   12.30
  -3  -5  10    3.00   14.10
   8  -3  10   18.60   14.90
   8  -3  10    7.20   13.70
   4  -8 -10   26.90   15.80
   4   4 -10   64.39   13.30
  -4  -4  10   48.10   16.50
   8  -4  10   80.19   16.10
   8  -4  10   69.99   17.50
   3  -8 -10  150.58   21.30
   5   3 -10  187.98   19.90
   8  -5  10  189.08   23.60
  -5  -3  10  174.98   23.10
   8  -5  10  227.98   27.30
   6   2 -10    7.70   15.00
   2  -8 -10   23.40   15.90
   6   2 -10   -1.60   18.30
  -6  -2  10   33.20   15.90
   8  -6  10   13.90   16.20
   7   1 -10  676.93   45.60
   7   1 -10  731.43   50.29
   1  -8 -10  641.14   46.60
   8  -7  10  669.93   47.90
  -7  -1  10  633.74   45.80
   8  -7  10  674.63   46.80
   8   0 -10  279.47   33.10
   0  -8 -10  254.97   32.40
   8   0 -10  300.77   30.20
   8  -8  10  284.07   33.80
   8  -8  10  304.27   35.10
  -8   0  10  301.07   31.40
  -1  -8 -10  130.89   22.50
   9  -1 -10  149.19   29.00
   9  -1 -10  168.28   24.60
  -9   1  10  132.59   22.80
   8  -9  10  160.28   27.00
   8  -9  10  148.89   24.70
  -2  -8 -10  356.86   39.80
  10  -2 -10  353.16   46.90
  10  -2 -10  423.96   45.00
 -10   2  10  436.96   38.40
   8 -10  10  460.65   43.30
   8 -10  10  393.16   44.60
  -3  -8 -10   -2.80   19.70
  11  -3 -10   51.69   29.00
  11  -3 -10  -51.79   23.50
 -11   3  10    1.00   18.60
   8 -11  10   -6.30   24.70
   8 -11  10    9.20   24.20
  10  -9 -10  -19.00   20.10
   1 -10  10    3.40   22.20
   9  -9 -10  -19.70   18.50
   0  -9  10   54.99   20.90
   8  -9 -10  121.29   22.50
  -1  -8  10  156.98   25.30
   9  -1  10   93.69   19.10
   7  -9 -10   86.19   18.00
   9  -2  10   40.70   16.80
  -2  -7  10   79.49   20.30
   6  -9 -10   -8.20   15.50
   9  -3  10   -9.80   15.40
  -3  -6  10    3.40   17.90
   5  -9 -10    7.80   14.80
   4   5 -10   40.30   11.60
   9  -4  10   32.10   16.20
   9  -4  10   55.09   18.50
  -4  -5  10    7.60   16.30
   4  -9 -10  113.49   20.90
   5   4 -10  141.09   25.50
   5   4 -10  148.19   16.90
   9  -5  10  155.18   23.40
  -5  -4  10  174.98   25.40
   9  -5  10  169.68   23.00
   6   3 -10  395.06   40.20
   6   3 -10  343.47   29.00
   3  -9 -10  329.27   33.90
   9  -6  10  285.97   34.40
   9  -6  10  357.76   38.10
  -6  -3  10  355.46   34.70
   7   2 -10   54.49   23.50
   2  -9 -10   12.10   15.90
   7   2 -10   19.10   14.50
  -7  -2  10    2.60   16.10
   9  -7  10   26.90   19.80
   9  -7  10   11.10   18.90
   1  -9 -10   65.39   19.20
   8   1 -10   42.00   25.70
   8   1 -10   53.39   17.80
  -8  -1  10   30.00   17.50
   9  -8  10   43.20   21.30
   9  -8  10   41.20   22.40
   0  -9 -10   69.69   19.60
   9   0 -10   86.89   27.50
   9   0 -10   33.50   19.70
   9  -9  10   63.09   23.20
  -9   0  10  111.79   20.40
   9  -9  10   10.00   23.20
  -1  -9 -10   95.49   22.60
  10  -1 -10  117.49   32.40
  10  -1 -10   95.39   23.80
   9 -10  10  100.49   28.20
   9 -10  10   91.29   25.40
 -10   1  10   78.79   21.70
  10 -10 -10  198.88   29.50
   0 -10  10  176.78   30.40
   9 -10 -10   73.49   21.20
  -1  -9  10   17.30   24.10
   8 -10 -10  330.87   36.10
  -2  -8  10  433.16   40.60
  10  -2  10  374.56   37.60
   7 -10 -10  871.01   55.59
  -3  -7  10  843.82   57.89
  10  -3  10  877.21   55.59
   6 -10 -10   -5.60   15.50
  -4  -6  10  -13.90   18.60
  10  -4  10   40.50   18.40
   5 -10 -10   77.99   18.80
   5   5 -10  111.99   26.70
  10  -5  10   59.59   23.80
  10  -5  10   51.59   19.50
  -5  -5  10   68.49   20.50
   6   4 -10   13.50   23.90
   4 -10 -10   26.20   17.00
  10  -6  10   25.30   21.00
  -6  -4  10   10.70   17.60
  10  -6  10    2.50   18.30
   3 -10 -10  506.15   42.70
   7   3 -10  528.35   36.90
   7   3 -10  596.24   52.29
  10  -7  10  524.95   46.10
  -7  -3  10  458.15   41.50
  10  -7  10  506.25   46.20
   2 -10 -10  -18.90   16.90
   8   2 -10   -8.60   15.30
   8   2 -10    1.20   25.80
  -8  -2  10  -10.10   17.30
  10  -8  10  -10.00   20.50
  10  -8  10  -31.60   21.30
   9   1 -10   -2.70   28.90
   1 -10 -10   28.70   19.80
   9   1 -10   17.60   17.50
  -9  -1  10   19.70   18.80
  10  -9  10  -53.69   22.40
  10  -9  10   19.00   23.70
  10   0 -10  326.07   37.40
  10   0 -10  277.77   39.80
   0 -10 -10  231.08   29.20
 -10   0  10  231.68   30.00
  10 -10  10  319.77   36.10
   8 -11 -10   40.70   18.40
  -3  -8  10  -13.30   21.70
  11  -3  10   26.50   20.60
   7 -11 -10   13.00   17.60
  -4  -7  10   20.00   22.80
  11  -4  10    9.50   20.40
   6 -11 -10  263.07   32.90
   5   6 -10  314.07   38.30
  11  -5  10  236.98   30.80
  -5  -6  10  227.68   30.80
   5 -11 -10   30.50   17.50
   6   5 -10   28.30   28.30
  -6  -5  10    6.70   20.40
  11  -6  10   17.20   31.20
  11  -6  10   33.40   21.70
   7   4 -10  218.38   35.60
   4 -11 -10  141.39   23.40
  11  -7  10  162.38   27.70
  -7  -4  10   97.89   25.60
  11  -7  10  153.08   27.30
   3 -11 -10  107.09   22.60
   8   3 -10  154.18   34.30
  -8  -3  10  128.69   25.20
  11  -8  10  185.98   30.40
  11  -8  10  169.48   29.10
   0   0 -11 2599.34  130.49
   0   0  11 2571.44  128.69
  -1   0 -11   18.60   13.80
   0   1 -11   -2.10   12.40
   1  -1 -11    0.00   13.20
  -1   1  11  -11.20   11.70
   1   0  11   10.30   11.40
   0  -1  11    7.30   12.60
   0  -1 -11    6.50   12.40
   1   0 -11   -6.00   12.70
  -1   1 -11   19.80   13.30
  -1   0  11    4.60   12.80
   0   1  11    1.50   11.70
  -1   2 -11   65.59   14.70
   2  -1 -11   86.79   17.80
  -1  -1 -11  103.39   17.90
   1   1  11   54.09   13.70
   1  -2  11   51.49   14.70
   3  -2 -11    9.10   14.20
  -1   3 -11    3.10   11.90
  -2  -1 -11  -17.70   12.80
   2   1  11   13.00   10.90
   1  -3  11  -24.20   11.70
   0   2 -11   77.09   15.10
  -2   0 -11   50.39   14.70
   2  -2 -11   76.39   16.90
  -2   2  11   25.80   12.60
   2   0  11   56.79   13.20
   0  -2  11   55.59   14.70
   1   1 -11   90.19   17.40
   1  -2 -11   77.89   17.00
  -2   1 -11   81.09   16.80
   2  -1  11   74.79   15.90
  -1   2  11   72.99   13.90
  -1  -1  11   73.79   15.80
  -2   2 -11   81.19   15.70
   0  -2 -11   62.29   15.40
   2   0 -11   64.19   16.00
  -2   0  11   58.69   15.30
   0   2  11   67.39   13.30
   2  -2  11   53.99   13.90
   3  -1 -11  427.26   34.10
  -2   3 -11  384.56   31.40
  -1  -2 -11  362.26   31.80
   2  -3  11  368.26   30.60
   1   2  11  391.26   28.90
  -3   1  11  363.56   31.40
  -2  -2 -11   -1.20   13.10
   4  -2 -11    1.10   14.40
   2  -4  11   10.30   12.60
  -4   2  11   -0.30   13.30
   2   2  11   -0.70   10.60
  -3  -2 -11  397.96   34.30
   5  -3 -11  391.86   36.80
   2  -5  11  381.56   33.30
   3   2  11  381.86   28.00
  -5   3  11  357.66   32.40
  -3  -1 -11  114.09   20.10
   4  -3 -11  125.49   19.70
  -1   4 -11  123.19   17.40
   1  -4  11  154.58   19.40
   3   1  11  174.08   20.00
  -3   0 -11   69.19   15.50
   0   3 -11   66.59   15.30
   3  -3 -11   62.99   16.60
  -3   3  11   37.70   12.80
   3   0  11   63.99   13.40
   0  -3  11   51.59   14.40
  -3   1 -11  362.96   31.00
   1   2 -11  393.56   31.60
   2  -3 -11  362.36   31.90
  -1  -2  11  393.06   31.70
  -2   3  11  311.37   27.30
   3  -1  11  333.47   28.60
   2   1 -11    4.90   13.10
   1  -3 -11   32.50   14.90
  -3   2 -11    4.40   12.40
  -2  -1  11   17.50   13.70
  -1   3  11    3.10   10.70
   3  -2  11   13.80   12.10
   0  -3 -11   61.49   15.60
   3   0 -11   59.69   16.20
   0   3  11   53.69   12.70
   3  -3  11   26.90   13.10
  -3   0  11   51.29   15.10
  -1  -3 -11   45.00   16.00
   4  -1 -11   87.29   18.40
   1   3  11   27.30   11.30
  -4   1  11   68.69   14.90
   3  -4  11   44.70   14.40
   5  -2 -11   82.99   19.90
  -2  -3 -11   92.29   18.50
   3  -5  11   84.29   17.10
  -5   2  11   61.99   15.50
   2   3  11   67.79   14.70
   6  -3 -11    0.40   17.40
  -3  -3 -11    4.30   14.40
   3  -6  11   -3.10   14.60
  -6   3  11  -11.90   13.10
  -4  -3 -11   74.29   19.00
   7  -4 -11   72.69   21.80
  -7   4  11   87.69   18.40
   3  -7  11   96.19   20.60
  -4  -2 -11   34.70   16.30
   6  -4 -11  -19.70   16.30
  -6   4  11   20.10   15.00
   2  -6  11    0.80   14.90
  -4  -1 -11  931.51   56.59
   5  -4 -11 1016.00   59.99
   4   1  11  962.70   51.69
  -5   4  11  891.31   54.69
   1  -5  11  850.91   55.69
   0   4 -11    0.90   12.30
   4  -4 -11   18.90   14.00
   0  -4  11   22.30   14.20
  -4   4  11   -2.80   12.00
   4   0  11   32.40   12.50
   3  -4 -11   40.60   15.00
   1   3 -11   37.20   13.70
  -3   4  11   27.10   12.10
  -1  -3  11   46.20   15.40
   4  -1  11   30.80   12.30
   2  -4 -11   29.30   14.50
   2   2 -11   12.00   13.20
   4  -2  11  -25.30   11.80
  -2   4  11    1.80   11.00
  -2  -2  11    3.90   13.20
   1  -4 -11  119.69   19.60
   3   1 -11  139.39   19.70
  -1   4  11  141.09   15.70
  -3  -1  11  140.39   20.80
   4  -3  11  147.49   18.90
   4   0 -11    8.50   14.90
   0  -4 -11   21.20   14.10
  -4   0  11    9.60   13.70
   4  -4  11   29.10   13.40
   0   4  11   36.00   10.70
  -1  -4 -11  134.09   21.30
   5  -1 -11  206.68   24.90
  -5   1  11  180.38   21.80
   4  -5  11  177.38   21.40
  -2  -4 -11   31.30   16.50
   6  -2 -11   20.80   18.90
  -6   2  11   50.29   15.60
   4  -6  11   30.90   15.70
   7  -3 -11   32.80   19.30
  -3  -4 -11   -6.00   16.80
   4  -7  11   13.10   15.30
  -7   3  11   30.40   15.90
   8  -4 -11   18.30   23.10
  -4  -4 -11   85.29   20.60
  -8   4  11   96.19   19.10
   4  -8  11  107.19   21.80
   9  -5 -11   -9.70   23.70
  -9   5  11   28.00   17.80
   4  -9  11   -7.30   19.40
   8  -5 -11   48.00   21.00
  -8   5  11   37.30   16.50
   3  -8  11   34.10   19.30
   7  -5 -11    2.70   18.60
  -7   5  11   13.40   15.40
   2  -7  11   14.80   18.20
   6  -5 -11  232.98   27.90
  -6   5  11  202.48   23.40
   1  -6  11  194.48   25.40
   5   1  11  234.78   22.90
   5  -5 -11   15.80   16.50
   0  -5  11   30.30   15.80
  -5   5  11   32.80   14.70
   5   0  11   35.30   12.60
   1   4 -11  164.88   19.30
   4  -5 -11  170.38   23.60
  -1  -4  11  197.18   23.20
   5  -1  11  170.88   20.10
  -4   5  11  162.18   18.70
   2   3 -11   83.09   16.60
   3  -5 -11   60.49   17.20
   5  -2  11   52.29   14.70
  -2  -3  11   71.59   17.40
  -3   5  11   88.89   13.70
   3   2 -11  440.56   34.50
   2  -5 -11  395.76   34.20
   5  -3  11  355.36   31.70
  -2   5  11  435.46   28.40
  -3  -2  11  353.66   33.40
   1  -5 -11  939.51   58.29
   4   1 -11  968.90   57.99
   5  -4  11  973.70   56.19
  -4  -1  11  992.00   57.99
   0  -5 -11   45.90   16.70
   5   0 -11   50.69   18.00
   5  -5  11   38.90   15.10
  -5   0  11   44.30   15.50
  -1  -5 -11    5.40   15.90
   6  -1 -11   -5.50   18.00
  -6   1  11   30.90   15.30
   5  -6  11    7.80   14.80
  -2  -5 -11   -3.70   17.00
   7  -2 -11    8.40   19.40
  -7   2  11   32.30   16.40
   5  -7  11    1.00   17.00
   8  -3 -11    1.30   22.10
  -3  -5 -11  -10.30   18.00
   5  -8  11   49.90   19.00
  -8   3  11   50.69   17.50
   9  -4 -11  269.87   33.60
  -9   4  11  239.28   27.40
   5  -9  11  266.87   31.30
   9  -6 -11  593.74   51.79
   3  -9  11  549.95   46.70
  -9   6  11  541.55   42.70
   8  -6 -11  234.68   32.50
  -8   6  11  258.87   30.00
   2  -8  11  240.68   29.30
   7  -6 -11    6.30   19.00
  -7   6  11   23.10   14.70
   1  -7  11   47.50   19.10
   6  -6 -11   -8.90   16.30
   0  -6  11   29.10   17.00
   6   0  11    7.60   12.70
   5  -6 -11  -19.20   14.40
   1   5 -11   24.70   12.70
  -1  -5  11   24.10   16.20
  -5   6  11   17.80   12.10
   6  -1  11   -0.80   14.20
   2   4 -11   46.70   13.90
   4  -6 -11   35.90   17.00
   6  -2  11   37.90   15.10
  -2  -4  11   57.09   18.50
  -4   6  11   47.50   11.80
   3   3 -11    1.00   13.30
   3  -6 -11    8.20   13.80
  -3  -3  11    7.50   15.70
   6  -3  11   -4.00   12.60
   4   2 -11    4.00   13.90
   2  -6 -11   10.60   15.50
   6  -4  11   11.90   13.60
  -4  -2  11   22.60   16.10
   1  -6 -11  231.68   26.40
   5   1 -11  199.58   23.70
  -5  -1  11  193.88   23.80
   6  -5  11  235.88   27.30
   6   0 -11   21.40   17.90
   0  -6 -11   12.20   15.70
  -6   0  11   15.10   14.90
   6  -6  11    1.20   16.30
  -1  -6 -11   -0.40   17.20
   7  -1 -11   43.40   20.50
  -7   1  11   15.70   16.10
   6  -7  11    2.50   16.60
   8  -2 -11  262.77   32.20
  -2  -6 -11  341.07   36.80
  -8   2  11  303.57   34.20
   6  -8  11  335.97   36.10
  -3  -6 -11   91.69   23.40
   9  -3 -11  145.59   28.50
   6  -9  11  111.79   26.60
  -9   3  11   85.79   21.10
   6  -9  11   88.29   24.70
   9  -7 -11  457.05   47.80
   2  -9  11  487.45   47.10
  -9   7  11  492.15   39.80
   8  -7 -11   98.19   24.50
  -8   7  11   76.19   18.40
   1  -8  11  101.89   23.00
   7  -7 -11  328.87   38.00
  -7   7  11  304.97   30.70
   0  -7  11  291.57   34.70
   6  -7 -11    4.10   16.50
  -1  -6  11   32.60   18.30
  -6   7  11    5.90   12.50
   7  -1  11   10.80   19.70
   5  -7 -11   25.20   17.70
   2   5 -11   -7.40   14.10
  -2  -5  11   13.10   16.80
   7  -2  11   22.10   15.20
   4  -7 -11    8.60   15.80
   3   4 -11   -9.60   12.60
   7  -3  11    3.20   14.20
  -3  -4  11   23.40   16.50
   3  -7 -11   62.59   17.50
   4   3 -11   91.99   17.70
   7  -4  11   72.29   17.70
  -4  -3  11  111.39   20.80
   7  -4  11  120.29   20.10
   5   2 -11   45.50   15.50
   2  -7 -11    5.80   15.50
  -5  -2  11    7.30   16.30
   7  -5  11   22.30   16.70
   1  -7 -11   24.30   17.30
   6   1 -11   15.20   17.10
  -6  -1  11   24.40   16.50
   7  -6  11   10.60   17.00
   7  -6  11   60.99   19.70
   7   0 -11  330.17   37.30
   0  -7 -11  296.17   35.60
  -7   0  11  298.87   31.30
   7  -7  11  301.27   36.60
   7  -7  11  326.17   33.30
  -1  -7 -11   32.40   20.10
   8  -1 -11   -5.90   19.80
  -8   1  11   22.10   17.90
   7  -8  11   10.20   19.50
   7  -8  11   22.30   21.30
  -2  -7 -11   68.39   23.80
   9  -2 -11   72.79   26.30
   7  -9  11   77.19   24.10
  -9   2  11  130.49   22.50
   7  -9  11  137.19   28.70
   8  -8 -11   64.49   21.00
   0  -8  11   48.30   24.40
   7  -8 -11    9.70   17.60
  -1  -7  11    6.80   19.50
   6  -8 -11  212.88   27.40
  -2  -6  11  297.67   31.50
   8  -2  11  283.77   30.60
   5  -8 -11   -5.90   17.10
   8  -3  11    4.10   16.30
  -3  -5  11    2.40   18.40
   4  -8 -11   38.20   17.90
   4   4 -11   75.29   16.20
  -4  -4  11   80.09   20.20
   8  -4  11   63.79   18.20
   5   3 -11   20.60   15.20
   3  -8 -11   12.60   17.30
   8  -5  11   40.00   21.10
  -5  -3  11   19.90   17.80
   8  -5  11   38.80   18.40
   2  -8 -11  268.07   29.50
   6   2 -11  225.48   24.60
  -6  -2  11  219.08   27.10
   8  -6  11  263.27   29.60
   8  -6  11  259.87   30.50
   1  -8 -11  106.69   22.80
   7   1 -11  119.79   21.50
   8  -7  11  112.69   25.10
  -7  -1  11   88.49   20.90
   8  -7  11   80.19   22.10
   8   0 -11  106.39   23.30
   0  -8 -11   61.59   22.00
  -8   0  11   46.30   19.90
   8  -8  11  110.49   26.10
   8  -8  11  112.39   23.90
   7  -9 -11   76.79   21.70
   9  -2  11   78.69   20.20
  -2  -7  11  128.29   26.10
   6  -9 -11  107.09   21.30
   9  -3  11  107.29   21.10
  -3  -6  11   81.79   22.20
   5  -9 -11  231.08   27.30
   9  -4  11  292.07   33.90
  -4  -5  11  214.98   28.00
   4  -9 -11    1.40   17.70
   9  -5  11    4.70   18.90
  -5  -4  11    6.00   19.40
   6   3 -11  567.84   41.40
   3  -9 -11  600.54   46.30
   9  -6  11  594.14   48.00
   9  -6  11  612.04   58.19
  -6  -3  11  535.55   45.90
   7   2 -11  508.75   40.70
   2  -9 -11  514.45   44.00
   9  -7  11  513.65   45.60
  -7  -2  11  514.05   44.50
   9  -7  11  458.15   49.00
   0   0 -12 3892.51  189.28
   0   0  12 3733.93  186.58
   1  -1 -12  -34.20   16.10
  -1   0 -12   16.00   15.50
   0   1 -12   37.50   17.10
   0  -1  12   21.60   15.20
   1   0  12   -1.30   15.00
  -1   1  12   15.90   15.50
  -1   1 -12   -1.70   16.20
   1   0 -12  -25.90   14.90
   0  -1 -12   24.20   15.60
   0   1  12   11.10   15.50
   1  -1  12   26.70   15.20
  -1   0  12   -1.20   14.50
  -1   2 -12   28.70   17.40
  -1  -1 -12   12.20   16.20
   2  -1 -12   55.79   18.40
  -2   1  12   47.70   17.10
   1  -2  12   40.60   15.90
   1   1  12   31.60   19.50
  -1   3 -12  116.29   20.60
  -2  -1 -12  110.19   21.80
   3  -2 -12  149.69   23.50
   2   1  12  118.19   19.50
  -3   2  12  111.59   19.10
   1  -3  12  187.68   22.40
  -2   0 -12   -0.30   15.80
   2  -2 -12   -3.20   16.40
   0   2 -12  -23.00   15.30
   0  -2  12  -27.10   14.90
  -2   2  12   17.90   14.90
   2   0  12   24.40   15.70
   1   1 -12   66.79   18.90
   1  -2 -12   32.30   18.10
  -2   1 -12   64.29   18.60
  -1   2  12   56.09   16.80
  -1  -1  12   22.40   16.40
   2  -1  12   51.89   16.10
   0  -2 -12   10.00   16.30
  -2   2 -12   10.10   15.80
   2   0 -12   17.50   17.50
  -2   0  12    5.70   15.30
   2  -2  12   29.10   14.80
   0   2  12   18.60   15.10
   3  -1 -12   62.29   20.10
  -1  -2 -12   44.50   18.00
  -3   1  12   50.59   16.50
   1   2  12   11.50   15.00
   2  -3  12   46.90   17.40
  -2  -2 -12  169.58   23.80
   4  -2 -12  174.78   26.40
   2  -4  12  142.59   22.40
  -4   2  12  171.68   21.40
  -3  -2 -12   62.29   20.00
   5  -3 -12  133.59   23.70
  -5   3  12   67.09   18.50
   2  -5  12   43.00   19.80
  -3  -1 -12   51.69   18.20
   4  -3 -12   43.60   21.10
   1  -4  12   84.39   19.40
  -4   3  12   24.60   16.30
   3   1  12   44.60   15.60
   0   3 -12   32.30   16.60
  -3   0 -12    2.40   17.10
   3  -3 -12   41.40   18.70
   3   0  12   32.50   16.30
   0  -3  12   26.50   16.70
  -3   3  12   25.90   15.60
   1   2 -12   26.40   17.40
   2  -3 -12   63.79   18.50
  -3   1 -12   21.50   18.40
   3  -1  12   51.19   16.50
  -1  -2  12   30.40   17.00
  -2   3  12   32.10   19.60
   1  -3 -12  120.79   21.90
   2   1 -12  110.49   21.40
  -1   3  12  139.09   18.50
   3  -2  12  119.49   19.90
  -2  -1  12  133.59   21.20
   0  -3 -12   43.80   18.80
   3   0 -12   44.80   19.50
  -3   0  12   35.40   16.50
   3  -3  12   34.60   15.50
   4  -1 -12   16.60   18.60
  -1  -3 -12   23.10   16.60
  -4   1  12   -2.20   15.30
   3  -4  12  -18.40   14.90
   5  -2 -12   47.20   20.00
  -2  -3 -12   -2.50   18.30
  -5   2  12    7.40   16.50
   3  -5  12   46.50   17.50
   6  -3 -12  222.48   31.00
  -3  -3 -12  186.98   27.20
   3  -6  12  196.88   25.50
  -6   3  12  181.68   24.40
   7  -4 -12   14.00   23.60
   3  -7  12   25.50   22.70
  -7   4  12   11.20   19.30
   6  -4 -12  120.59   25.30
   2  -6  12  126.09   24.60
  -6   4  12  159.28   22.60
   5  -4 -12  336.17   41.20
   1  -5  12  432.16   37.30
  -5   4  12  410.26   36.90
   4  -4 -12  186.18   27.50
   0   4 -12  223.18   24.90
  -4   4  12  183.08   23.80
   4   0  12  211.88   23.80
   0  -4  12  191.08   25.50
   3  -4 -12    1.50   16.80
   1   3 -12   19.10   16.10
  -1  -3  12   12.40   17.30
   4  -1  12   -3.00   14.90
   2  -4 -12  123.79   23.70
   2   2 -12  168.88   23.70
   4  -2  12  137.89   20.20
  -2  -2  12  133.09   21.70
  -2   4  12  164.28   27.70
   3   1 -12   51.09   19.30
   1  -4 -12   59.19   19.40
   4  -3  12   40.00   16.40
  -3  -1  12   49.00   17.30
   4   0 -12  190.68   27.00
   0  -4 -12  182.78   25.20
  -4   0  12  200.28   23.90
   4  -4  12  235.78   25.10
   5  -1 -12  363.96   42.40
  -1  -4 -12  360.46   37.80
  -5   1  12  432.76   36.20
   4  -5  12  381.56   37.00
  -2  -4 -12   67.19   20.90
   6  -2 -12   28.80   22.10
   4  -6  12   44.60   19.00
  -6   2  12   39.00   18.20
  -3  -4 -12    9.70   20.10
   7  -3 -12    7.10   23.70
  -7   3  12    6.90   18.50
   4  -7  12   22.00   21.10
   6  -5 -12  272.17   32.10
  -6   5  12  286.77   33.10
   1  -6  12  280.47   31.90
   5  -5 -12  198.58   27.50
   0  -5  12  206.18   27.80
  -5   5  12  248.28   25.40
   1   4 -12  447.86   36.40
   4  -5 -12  413.36   40.30
   5  -1  12  419.26   36.10
  -1  -4  12  415.66   38.80
   2   3 -12    9.00   16.50
   3  -5 -12   50.19   20.20
  -2  -3  12   59.09   19.40
   5  -2  12   17.80   16.20
   2  -5 -12   64.69   19.50
   3   2 -12  109.69   21.50
   5  -3  12  104.99   19.90
  -3  -2  12  119.19   22.60
   1  -5 -12  332.47   37.50
   4   1 -12  362.56   38.90
  -4  -1  12  374.16   37.00
   5  -4  12  385.56   36.20
   5   0 -12  269.57   30.00
   0  -5 -12  185.88   25.90
  -5   0  12  127.39   22.60
   5  -5  12  167.18   24.30
   6  -1 -12  125.19   25.40
  -1  -5 -12  113.59   22.80
   5  -6  12  137.79   22.80
  -6   1  12  133.09   22.40
   6  -6 -12    7.00   21.10
   0  -6  12   12.00   22.70
   5  -6 -12  141.59   25.30
  -1  -5  12   96.59   22.80
   6  -1  12  146.69   23.80
   4  -6 -12   33.40   18.20
   2   4 -12   23.50   16.50
   6  -2  12   98.69   19.10
  -2  -4  12   54.19   21.30
   3   3 -12  215.88   25.00
   3  -6 -12  185.08   25.80
   6  -3  12  166.28   23.90
  -3  -3  12  195.18   26.30
   4   2 -12  125.39   22.40
   2  -6 -12  133.39   23.50
  -4  -2  12  139.89   23.00
   6  -4  12  114.09   22.00
   1  -6 -12  286.47   36.20
   5   1 -12  316.37   37.00
  -5  -1  12  270.87   30.10
   6  -5  12  355.06   35.40
   0  -6 -12   -1.60   18.60
   6   0 -12  -18.60   20.40
  -6   0  12   24.30   18.30
   6  -6  12   58.79   21.60
   3   4 -12    3.40   16.30
   4  -7 -12   49.99   22.10
   7  -3  12   11.00   19.30
  -3  -4  12   13.80   20.20
   4   3 -12    1.20   17.70
   3  -7 -12   54.39   20.70
   7  -4  12   48.30   20.00
  -4  -3  12   12.40   21.70
   0   0 -13  861.11   59.19
   0   0  13  852.81   56.39
  -1   0 -13   23.30   21.00
   0   1 -13  -33.30   19.50
   1  -1 -13   20.50   21.40
   0  -1  13   36.10   20.10
   1   0  13   21.60   19.10
  -1   1  13  -29.10   18.50
   1   0 -13  -52.19   19.90
  -1   1 -13   25.90   21.80
   0  -1 -13   11.00   21.10
  -1   0  13  -15.50   18.80
   0   1  13    8.20   19.30
   1  -1  13  -10.30   19.00
  -1   2 -13  105.19   23.40
  -1  -1 -13   90.49   23.60
   2  -1 -13   87.49   24.60
   1  -2 -13   91.59   25.00
   1   1 -13  111.69   23.80
  -2   1 -13   82.79   22.90
   0   0   0    0.00    0.00
_computing_structure_solution     'SHELXT 2014/5 (Sheldrick, 2014)'
;
_shelx_hkl_checksum              66223
_shelx_res_file
;
    vsYAu_0m.res created by SHELXL-2014/7
TITL vsYAu_0m_a.res in P6/m
CELL 0.71073 12.5433 12.5433 9.1389 90.000 90.000 120.000
ZERR 1 0.0017 0.0017 0.0014 0.000 0.000 0.000
LATT 1
SYMM x-y, x, z
SYMM y, -x+y, z
SYMM -y, x-y, z
SYMM -x+y, -x, z
SYMM -x, -y, z
SFAC Au Y
UNIT 51 14
LIST 6 ! automatically inserted. Change 6 to 4 for CHECKCIF!!
TEMP 20.000
omit 0 56
L.S. 4
acta
FMAP 2
PLAN 2
BOND $H
WGHT    0.009800   45.996021
EXTI    0.000329
FVAR       0.05992   1.00855
AU1   1    0.102360    0.442480    0.336236    11.00000    0.00600    0.00386 =
         0.00694    0.00170   -0.00081    0.00078
AU2   1    0.267051    0.076701    0.232486    11.00000    0.00449    0.00665 =
         0.00721    0.00177    0.00225    0.00352
AU3   1    0.493905    0.116517    0.151508    11.00000    0.00277    0.00777 =
         0.00664    0.00101    0.00011    0.00136
AU4   1    0.058507    0.237983    0.500000    10.50000    0.00147    0.00628 =
         0.00606    0.00000    0.00000    0.00190
AU5   1    0.028011    0.139093    0.000000    10.25000    0.01384    0.00316 =
         0.00580    0.00000    0.00000    0.00458
AU6   1    0.333333    0.666667    0.310305    10.33330    0.00346    0.00346 =
         0.01096    0.00000    0.00000    0.00173
AU7   1    0.333333    0.666667    0.000000    10.16667    0.00926    0.00926 =
         0.00967    0.00000    0.00000    0.00463
Y1    2    0.465116    0.141127    0.500000    10.50000    0.00300    0.00373 =
         0.00531    0.00000    0.00000    0.00203
Y2    2    0.113163    0.392268    0.000000    10.50000    0.00836    0.02138 =
         0.00544    0.00000    0.00000    0.01032
Y3    2    0.000000    0.000000    0.301837    10.16667    0.00163    0.00163 =
         0.00681    0.00000    0.00000    0.00081
HKLF 4 1 1 0 0 0 1 0 0 0 1
REM  vsYAu_0m_a.res in P6/m
REM R1 =  0.0223 for     994 Fo > 4sig(Fo)  and  0.0270 for all    1075 data
REM     62 parameters refined using      0 restraints
END
WGHT      0.0103     33.0403
REM Highest difference peak  2.261,  deepest hole -2.500,  1-sigma level  0.483
Q1    1   0.1355  0.3384  0.0000  10.50000  0.05    2.26
Q2    1   0.0000  0.0000  0.0000  10.08333  0.05    2.18
;
_shelx_res_checksum              84145
loop_
_space_group_symop_operation_xyz
'x, y, z'
'x-y, x, z'
'y, -x+y, z'
'-y, x-y, z'
'-x+y, -x, z'
'-x, -y, z'
'-x, -y, -z'
'-x+y, -x, -z'
'-y, x-y, -z'
'y, -x+y, -z'
'x-y, x, -z'
'x, y, -z'
loop_
_atom_site_type_symbol
_atom_site_label
_atom_site_fract_x
_atom_site_fract_y
_atom_site_fract_z
_atom_site_U_iso_or_equiv
_atom_site_adp_type
_atom_site_calc_flag
_atom_site_occupancy
Au Au1 0.10236(4) 0.44248(4) 0.33624(4) 0.00635(12) Uani d 1
Au Au2 0.26705(4) 0.07670(4) 0.23249(5) 0.00579(12) Uani d 1
Au Au3 0.49390(4) 0.11652(4) 0.15151(4) 0.00630(12) Uani d 1
Au Au4 0.05851(5) 0.23798(5) 0.5000 0.00462(14) Uani d 1
Au Au5 0.02801(12) 0.13909(11) 0.0000 0.0075(3) Uani d 0.5
Au Au6 0.3333 0.6667 0.31031(8) 0.00596(16) Uani d 1
Au Au7 0.3333 0.6667 0.0000 0.0094(2) Uani d 1
Y Y1 0.46512(14) 0.14113(14) 0.5000 0.0039(3) Uani d 1
Y Y2 0.11316(15) 0.39227(16) 0.0000 0.0104(3) Uani d 1
Y Y3 0.0000 0.0000 0.3018(3) 0.0034(5) Uani d 1
loop_
_atom_site_aniso_label
_atom_site_aniso_U_11
_atom_site_aniso_U_22
_atom_site_aniso_U_33
_atom_site_aniso_U_12
_atom_site_aniso_U_13
_atom_site_aniso_U_23
Au1 0.0060(2) 0.0039(2) 0.0069(2) 0.00078(17) -0.00081(15) 0.00170(15)
Au2 0.0045(2) 0.0066(2) 0.0072(2) 0.00352(17) 0.00225(16) 0.00177(16)
Au3 0.0028(2) 0.0078(2) 0.00664(19) 0.00136(17) 0.00011(15) 0.00101(16)
Au4 0.0015(3) 0.0063(3) 0.0061(3) 0.0019(2) 0.000 0.000
Au5 0.0138(7) 0.0032(5) 0.0058(5) 0.0046(5) 0.000 0.000
Au6 0.0035(2) 0.0035(2) 0.0110(3) 0.00173(11) 0.000 0.000
Au7 0.0093(3) 0.0093(3) 0.0097(5) 0.00463(17) 0.000 0.000
Y1 0.0030(7) 0.0037(7) 0.0053(7) 0.0020(6) 0.000 0.000
Y2 0.0084(8) 0.0214(9) 0.0054(7) 0.0103(7) 0.000 0.000
Y3 0.0016(7) 0.0016(7) 0.0068(11) 0.0008(3) 0.000 0.000
loop_
_atom_type_symbol
_atom_type_description
_atom_type_scat_dispersion_real
_atom_type_scat_dispersion_imag
_atom_type_scat_source
Au Au -2.0133 8.8022 'International Tables Vol C Tables 4.2.6.8 and 6.1.1.4'
Y Y -2.7962 3.5667 'International Tables Vol C Tables 4.2.6.8 and 6.1.1.4'
loop_
_geom_angle_atom_site_label_1
_geom_angle_atom_site_label_2
_geom_angle_atom_site_label_3
_geom_angle_site_symmetry_1
_geom_angle_site_symmetry_3
_geom_angle
Au3 Au1 Au4 3_565 . 171.85(2)
Au3 Au1 Au6 3_565 . 61.666(16)
Au4 Au1 Au6 . . 125.96(2)
Au3 Au1 Au3 3_565 4 63.156(19)
Au4 Au1 Au3 . 4 108.88(2)
Au6 Au1 Au3 . 4 124.41(2)
Au3 Au1 Au2 3_565 4 112.435(19)
Au4 Au1 Au2 . 4 59.603(16)
Au6 Au1 Au2 . 4 150.78(2)
Au3 Au1 Au2 4 4 54.779(14)
Au3 Au1 Au1 3_565 12_556 127.804(14)
Au4 Au1 Au1 . 12_556 57.388(12)
Au6 Au1 Au1 . 12_556 94.744(17)
Au3 Au1 Au1 4 12_556 124.659(13)
Au2 Au1 Au1 4 12_556 108.595(12)
Au3 Au1 Y1 3_565 9_556 109.87(3)
Au4 Au1 Y1 . 9_556 66.20(3)
Au6 Au1 Y1 . 9_556 142.78(3)
Au3 Au1 Y1 4 9_556 65.20(2)
Au2 Au1 Y1 4 9_556 66.23(3)
Au1 Au1 Y1 12_556 9_556 60.499(16)
Au3 Au1 Y1 3_565 2 122.94(3)
Au4 Au1 Y1 . 2 64.59(3)
Au6 Au1 Y1 . 2 61.37(3)
Au3 Au1 Y1 4 2 168.96(3)
Au2 Au1 Y1 4 2 115.16(3)
Au1 Au1 Y1 12_556 2 60.540(17)
Y1 Au1 Y1 9_556 2 116.82(3)
Au3 Au1 Au2 3_565 2 120.06(2)
Au4 Au1 Au2 . 2 58.635(16)
Au6 Au1 Au2 . 2 97.393(15)
Au3 Au1 Au2 4 2 104.016(18)
Au2 Au1 Au2 4 2 59.287(16)
Au1 Au1 Au2 12_556 2 108.028(11)
Y1 Au1 Au2 9_556 2 115.85(3)
Y1 Au1 Au2 2 2 65.09(3)
Au3 Au1 Y1 3_565 3_565 66.79(2)
Au4 Au1 Y1 . 3_565 118.50(2)
Au6 Au1 Y1 . 3_565 60.61(3)
Au3 Au1 Y1 4 3_565 102.75(3)
Au2 Au1 Y1 4 3_565 146.74(3)
Au1 Au1 Y1 12_556 3_565 61.169(16)
Y1 Au1 Y1 9_556 3_565 82.47(4)
Y1 Au1 Y1 2 3_565 88.28(5)
Au2 Au1 Y1 2 3_565 152.17(3)
Au3 Au1 Y2 3_565 . 64.84(3)
Au4 Au1 Y2 . . 110.44(4)
Au6 Au1 Y2 . . 89.55(4)
Au3 Au1 Y2 4 . 61.12(3)
Au2 Au1 Y2 4 . 64.01(3)
Au1 Au1 Y2 12_556 . 167.04(3)
Y1 Au1 Y2 9_556 . 121.01(4)
Y1 Au1 Y2 2 . 111.68(4)
Au2 Au1 Y2 2 . 59.21(3)
Y1 Au1 Y2 3_565 . 131.02(4)
Au3 Au2 Au5 . 8 107.84(3)
Au3 Au2 Au5 . 3 112.81(3)
Au5 Au2 Au5 8 3 33.36(3)
Au3 Au2 Au4 . 8_556 113.29(2)
Au5 Au2 Au4 8 8_556 114.08(3)
Au5 Au2 Au4 3 8_556 130.86(3)
Au3 Au2 Au4 . 3 120.19(2)
Au5 Au2 Au4 8 3 130.96(3)
Au5 Au2 Au4 3 3 111.27(3)
Au4 Au2 Au4 8_556 3 56.052(18)
Au3 Au2 Au1 . 5 62.518(15)
Au5 Au2 Au1 8 5 107.53(3)
Au5 Au2 Au1 3 5 140.26(3)
Au4 Au2 Au1 8_556 5 56.781(16)
Au4 Au2 Au1 3 5 102.94(2)
Au3 Au2 Au2 . 2 125.154(19)
Au5 Au2 Au2 8 2 86.85(3)
Au5 Au2 Au2 3 2 56.15(2)
Au4 Au2 Au2 8_556 2 106.976(13)
Au4 Au2 Au2 3 2 58.475(14)
Au1 Au2 Au2 5 2 161.406(12)
Au3 Au2 Au2 . 3 112.347(19)
Au5 Au2 Au2 8 3 58.89(3)
Au5 Au2 Au2 3 3 88.54(3)
Au4 Au2 Au2 8_556 3 58.731(14)
Au4 Au2 Au2 3 3 107.084(13)
Au1 Au2 Au2 5 3 61.863(16)
Au2 Au2 Au2 2 3 120.0
Au3 Au2 Y3 . . 172.47(3)
Au5 Au2 Y3 8 . 66.54(5)
Au5 Au2 Y3 3 . 65.57(5)
Au4 Au2 Y3 8_556 . 66.46(4)
Au4 Au2 Y3 3 . 66.37(4)
Au1 Au2 Y3 5 . 113.56(3)
Au2 Au2 Y3 2 . 60.718(6)
Au2 Au2 Y3 3 . 60.718(6)
Au3 Au2 Au1 . 3 76.470(16)
Au5 Au2 Au1 8 3 135.48(3)
Au5 Au2 Au1 3 3 102.99(3)
Au4 Au2 Au1 8_556 3 103.33(2)
Au4 Au2 Au1 3 3 55.682(15)
Au1 Au2 Au1 5 3 112.921(16)
Au2 Au2 Au1 2 3 58.850(15)
Au2 Au2 Au1 3 3 161.742(11)
Y3 Au2 Au1 . 3 111.02(2)
Au3 Au2 Y2 . 3 66.83(3)
Au5 Au2 Y2 8 3 78.88(4)
Au5 Au2 Y2 3 3 56.50(4)
Au4 Au2 Y2 8_556 3 165.07(3)
Au4 Au2 Y2 3 3 110.19(3)
Au1 Au2 Y2 5 3 128.42(3)
Au2 Au2 Y2 2 3 64.87(3)
Au2 Au2 Y2 3 3 135.92(2)
Y3 Au2 Y2 . 3 115.52(5)
Au1 Au2 Y2 3 3 61.84(3)
Au3 Au2 Y2 . 8 62.06(3)
Au5 Au2 Y2 8 8 54.92(4)
Au5 Au2 Y2 3 8 81.85(4)
Au4 Au2 Y2 8_556 8 105.59(3)
Au4 Au2 Y2 3 8 161.51(3)
Au1 Au2 Y2 5 8 60.68(3)
Au2 Au2 Y2 2 8 137.48(2)
Au2 Au2 Y2 3 8 58.83(3)
Y3 Au2 Y2 . 8 110.51(4)
Au1 Au2 Y2 3 8 136.12(3)
Y2 Au2 Y2 3 8 87.798(17)
Au2 Au3 Au1 . 2_655 125.00(2)
Au2 Au3 Au3 . 12 105.707(13)
Au1 Au3 Au3 2_655 12 127.803(14)
Au2 Au3 Au7 . 7_665 122.101(18)
Au1 Au3 Au7 2_655 7_665 96.937(17)
Au3 Au3 Au7 12 7_665 60.921(10)
Au2 Au3 Au6 . 2_655 105.008(18)
Au1 Au3 Au6 2_655 2_655 61.068(14)
Au3 Au3 Au6 12 2_655 120.237(16)
Au7 Au3 Au6 7_665 2_655 59.317(18)
Au2 Au3 Au1 . 5 62.702(15)
Au1 Au3 Au1 2_655 5 75.78(2)
Au3 Au3 Au1 12 5 124.659(13)
Au7 Au3 Au1 7_665 5 172.590(18)
Au6 Au3 Au1 2_655 5 114.88(2)
Au2 Au3 Au3 . 6_655 112.16(2)
Au1 Au3 Au3 2_655 6_655 61.909(15)
Au3 Au3 Au3 12 6_655 90.0
Au7 Au3 Au3 7_665 6_655 123.004(19)
Au6 Au3 Au3 2_655 6_655 122.580(19)
Au1 Au3 Au3 5 6_655 54.935(14)
Au2 Au3 Y2 . 8 67.15(3)
Au1 Au3 Y2 2_655 8 123.00(3)
Au3 Au3 Y2 12 8 63.624(16)
Au7 Au3 Y2 7_665 8 124.05(2)
Au6 Au3 Y2 2_655 8 172.15(3)
Au1 Au3 Y2 5 8 62.36(2)
Au3 Au3 Y2 6_655 8 62.70(3)
Au2 Au3 Y2 . 2_655 166.16(3)
Au1 Au3 Y2 2_655 2_655 63.65(2)
Au3 Au3 Y2 12 2_655 64.234(16)
Au7 Au3 Y2 7_665 2_655 62.81(3)
Au6 Au3 Y2 2_655 2_655 88.63(3)
Au1 Au3 Y2 5 2_655 114.00(3)
Au3 Au3 Y2 6_655 2_655 60.40(3)
Y2 Au3 Y2 8 2_655 99.21(4)
Au2 Au3 Y2 . 3 61.64(3)
Au1 Au3 Y2 2_655 3 149.16(3)
Au3 Au3 Y2 12 3 64.444(15)
Au7 Au3 Y2 7_665 3 62.48(3)
Au6 Au3 Y2 2_655 3 88.15(3)
Au1 Au3 Y2 5 3 123.51(3)
Au3 Au3 Y2 6_655 3 148.03(3)
Y2 Au3 Y2 8 3 87.78(5)
Y2 Au3 Y2 2_655 3 117.55(5)
Au2 Au3 Y1 . . 66.14(3)
Au1 Au3 Y1 2_655 . 61.78(3)
Au3 Au3 Y1 12 . 169.67(3)
Au7 Au3 Y1 7_665 . 117.06(3)
Au6 Au3 Y1 2_655 . 58.78(3)
Au1 Au3 Y1 5 . 58.46(3)
Au3 Au3 Y1 6_655 . 98.93(3)
Y2 Au3 Y1 8 . 116.05(3)
Y2 Au3 Y1 2_655 . 124.89(3)
Y2 Au3 Y1 3 . 105.37(3)
Au4 Au4 Au4 2 3 120.0000(10)
Au4 Au4 Au1 2 . 113.38(2)
Au4 Au4 Au1 3 . 116.43(2)
Au4 Au4 Au1 2 12_556 113.38(2)
Au4 Au4 Au1 3 12_556 116.43(2)
Au1 Au4 Au1 . 12_556 65.23(2)
Au4 Au4 Au2 2 4 62.122(16)
Au4 Au4 Au2 3 4 115.570(12)
Au1 Au4 Au2 . 4 63.616(15)
Au1 Au4 Au2 12_556 4 118.43(2)
Au4 Au4 Au2 2 9_556 62.122(16)
Au4 Au4 Au2 3 9_556 115.570(12)
Au1 Au4 Au2 . 9_556 118.43(2)
Au1 Au4 Au2 12_556 9_556 63.615(15)
Au2 Au4 Au2 4 9_556 117.28(3)
Au4 Au4 Au2 2 11_556 115.680(12)
Au4 Au4 Au2 3 11_556 61.827(16)
Au1 Au4 Au2 . 11_556 120.41(2)
Au1 Au4 Au2 12_556 11_556 65.686(15)
Au2 Au4 Au2 4 11_556 175.71(3)
Au2 Au4 Au2 9_556 11_556 62.795(16)
Au4 Au4 Au2 2 2 115.680(13)
Au4 Au4 Au2 3 2 61.827(16)
Au1 Au4 Au2 . 2 65.685(15)
Au1 Au4 Au2 12_556 2 120.41(2)
Au2 Au4 Au2 4 2 62.795(16)
Au2 Au4 Au2 9_556 2 175.71(3)
Au2 Au4 Au2 11_556 2 116.77(3)
Au4 Au4 Y1 2 2 174.03(3)
Au4 Au4 Y1 3 2 65.97(3)
Au1 Au4 Y1 . 2 61.84(3)
Au1 Au4 Y1 12_556 2 61.84(3)
Au2 Au4 Y1 4 2 116.188(17)
Au2 Au4 Y1 9_556 2 116.188(17)
Au2 Au4 Y1 11_556 2 66.401(18)
Au2 Au4 Y1 2 2 66.401(18)
Au4 Au4 Y1 2 9_556 63.42(3)
Au4 Au4 Y1 3 9_556 176.58(3)
Au1 Au4 Y1 . 9_556 60.86(3)
Au1 Au4 Y1 12_556 9_556 60.86(3)
Au2 Au4 Y1 4 9_556 65.576(17)
Au2 Au4 Y1 9_556 9_556 65.576(17)
Au2 Au4 Y1 11_556 9_556 117.239(17)
Au2 Au4 Y1 2 9_556 117.239(17)
Y1 Au4 Y1 2 9_556 110.61(3)
Au4 Au4 Y3 2 . 65.483(12)
Au4 Au4 Y3 3 . 65.483(12)
Au1 Au4 Y3 . . 113.46(4)
Au1 Au4 Y3 12_556 . 177.95(3)
Au2 Au4 Y3 4 . 59.59(3)
Au2 Au4 Y3 9_556 . 116.52(4)
Au2 Au4 Y3 11_556 . 116.29(4)
Au2 Au4 Y3 2 . 59.52(3)
Y1 Au4 Y3 2 . 119.17(3)
Y1 Au4 Y3 9_556 . 117.20(3)
Au4 Au4 Y3 2 7_556 65.483(12)
Au4 Au4 Y3 3 7_556 65.483(12)
Au1 Au4 Y3 . 7_556 177.95(3)
Au1 Au4 Y3 12_556 7_556 113.45(4)
Au2 Au4 Y3 4 7_556 116.52(4)
Au2 Au4 Y3 9_556 7_556 59.59(3)
Au2 Au4 Y3 11_556 7_556 59.52(3)
Au2 Au4 Y3 2 7_556 116.29(4)
Y1 Au4 Y3 2 7_556 119.17(3)
Y1 Au4 Y3 9_556 7_556 117.20(3)
Y3 Au4 Y3 . 7_556 67.82(8)
Au5 Au5 Au5 3 2 120.0
Au5 Au5 Au2 3 9 128.67(3)
Au5 Au5 Au2 2 9 76.23(5)
Au5 Au5 Au2 3 4 128.67(3)
Au5 Au5 Au2 2 4 76.23(5)
Au2 Au5 Au2 9 4 101.79(5)
Au5 Au5 Au5 3 8 30.0
Au5 Au5 Au5 2 8 90.0
Au2 Au5 Au5 9 8 125.74(2)
Au2 Au5 Au5 4 8 125.74(2)
Au5 Au5 Au5 3 9 90.0000(10)
Au5 Au5 Au5 2 9 30.0
Au2 Au5 Au5 9 9 94.93(5)
Au2 Au5 Au5 4 9 94.93(5)
Au5 Au5 Au5 8 9 60.0
Au5 Au5 Y2 3 . 111.68(8)
Au5 Au5 Y2 2 . 128.32(8)
Au2 Au5 Y2 9 . 71.90(3)
Au2 Au5 Y2 4 . 71.90(3)
Au5 Au5 Y2 8 . 141.68(8)
Au5 Au5 Y2 9 . 158.32(8)
Au5 Au5 Au2 3 2 70.41(5)
Au5 Au5 Au2 2 2 131.18(2)
Au2 Au5 Au2 9 2 138.15(5)
Au2 Au5 Au2 4 2 64.963(16)
Au5 Au5 Au2 8 2 89.59(5)
Au5 Au5 Au2 9 2 124.51(3)
Y2 Au5 Au2 . 2 66.25(3)
Au5 Au5 Au2 3 11 70.41(5)
Au5 Au5 Au2 2 11 131.18(2)
Au2 Au5 Au2 9 11 64.963(17)
Au2 Au5 Au2 4 11 138.15(5)
Au5 Au5 Au2 8 11 89.59(5)
Au5 Au5 Au2 9 11 124.51(3)
Y2 Au5 Au2 . 11 66.25(3)
Au2 Au5 Au2 2 11 97.64(4)
Au5 Au5 Y3 3 7 75.483(13)
Au5 Au5 Y3 2 7 75.483(13)
Au2 Au5 Y3 9 7 61.48(2)
Au2 Au5 Y3 4 7 149.93(5)
Au5 Au5 Y3 8 7 64.27(2)
Au5 Au5 Y3 9 7 64.27(3)
Y2 Au5 Y3 . 7 119.74(3)
Au2 Au5 Y3 2 7 144.41(5)
Au2 Au5 Y3 11 7 60.71(2)
Au5 Au5 Y3 3 . 75.483(13)
Au5 Au5 Y3 2 . 75.483(13)
Au2 Au5 Y3 9 . 149.93(5)
Au2 Au5 Y3 4 . 61.48(2)
Au5 Au5 Y3 8 . 64.27(2)
Au5 Au5 Y3 9 . 64.27(2)
Y2 Au5 Y3 . . 119.74(3)
Au2 Au5 Y3 2 . 60.71(2)
Au2 Au5 Y3 11 . 144.41(5)
Y3 Au5 Y3 7 . 119.82(6)
Au5 Au5 Au5 3 7 60.0
Au5 Au5 Au5 2 7 60.0
Au2 Au5 Au5 9 7 112.76(4)
Au2 Au5 Au5 4 7 112.76(4)
Au5 Au5 Au5 8 7 30.0
Au5 Au5 Au5 9 7 30.0
Y2 Au5 Au5 . 7 171.68(8)
Au2 Au5 Au5 2 7 108.85(4)
Au2 Au5 Au5 11 7 108.85(4)
Y3 Au5 Au5 7 7 59.91(3)
Y3 Au5 Au5 . 7 59.91(3)
Au7 Au6 Au1 . 4_665 94.744(17)
Au7 Au6 Au1 . . 94.744(17)
Au1 Au6 Au1 4_665 . 119.324(5)
Au7 Au6 Au1 . 5_565 94.744(17)
Au1 Au6 Au1 4_665 5_565 119.324(5)
Au1 Au6 Au1 . 5_565 119.323(5)
Au7 Au6 Au3 . 3_565 59.762(16)
Au1 Au6 Au3 4_665 3_565 151.89(3)
Au1 Au6 Au3 . 3_565 57.269(13)
Au1 Au6 Au3 5_565 3_565 77.503(13)
Au7 Au6 Au3 . 6_665 59.762(16)
Au1 Au6 Au3 4_665 6_665 77.503(13)
Au1 Au6 Au3 . 6_665 151.89(3)
Au1 Au6 Au3 5_565 6_665 57.269(13)
Au3 Au6 Au3 3_565 6_665 96.87(2)
Au7 Au6 Au3 . 2 59.762(16)
Au1 Au6 Au3 4_665 2 57.269(13)
Au1 Au6 Au3 . 2 77.504(13)
Au1 Au6 Au3 5_565 2 151.89(3)
Au3 Au6 Au3 3_565 2 96.87(2)
Au3 Au6 Au3 6_665 2 96.87(2)
Au7 Au6 Y1 . 3_565 125.05(2)
Au1 Au6 Y1 4_665 3_565 140.20(3)
Au1 Au6 Y1 . 3_565 63.60(3)
Au1 Au6 Y1 5_565 3_565 62.21(3)
Au3 Au6 Y1 3_565 3_565 66.50(2)
Au3 Au6 Y1 6_665 3_565 119.40(3)
Au3 Au6 Y1 2 3_565 140.85(3)
Au7 Au6 Y1 . 7_666 125.05(2)
Au1 Au6 Y1 4_665 7_666 62.21(3)
Au1 Au6 Y1 . 7_666 140.20(3)
Au1 Au6 Y1 5_565 7_666 63.60(3)
Au3 Au6 Y1 3_565 7_666 140.85(3)
Au3 Au6 Y1 6_665 7_666 66.50(2)
Au3 Au6 Y1 2 7_666 119.40(3)
Y1 Au6 Y1 3_565 7_666 90.31(3)
Au7 Au6 Y1 . 2 125.05(2)
Au1 Au6 Y1 4_665 2 63.60(3)
Au1 Au6 Y1 . 2 62.21(3)
Au1 Au6 Y1 5_565 2 140.20(3)
Au3 Au6 Y1 3_565 2 119.40(3)
Au3 Au6 Y1 6_665 2 140.85(3)
Au3 Au6 Y1 2 2 66.50(2)
Y1 Au6 Y1 3_565 2 90.31(3)
Y1 Au6 Y1 7_666 2 90.31(3)
Au6 Au7 Au6 8_565 . 180.0
Au6 Au7 Au3 8_565 10_565 60.922(10)
Au6 Au7 Au3 . 10_565 119.079(10)
Au6 Au7 Au3 8_565 6_665 119.080(10)
Au6 Au7 Au3 . 6_665 60.921(10)
Au3 Au7 Au3 10_565 6_665 128.178(5)
Au6 Au7 Au3 8_565 3_565 119.080(10)
Au6 Au7 Au3 . 3_565 60.921(10)
Au3 Au7 Au3 10_565 3_565 58.16(2)
Au3 Au7 Au3 6_665 3_565 98.377(12)
Au6 Au7 Au3 8_565 7_665 60.921(10)
Au6 Au7 Au3 . 7_665 119.079(10)
Au3 Au7 Au3 10_565 7_665 98.377(12)
Au3 Au7 Au3 6_665 7_665 58.158(19)
Au3 Au7 Au3 3_565 7_665 128.178(5)
Au6 Au7 Au3 8_565 11 60.920(10)
Au6 Au7 Au3 . 11 119.079(10)
Au3 Au7 Au3 10_565 11 98.377(12)
Au3 Au7 Au3 6_665 11 128.178(5)
Au3 Au7 Au3 3_565 11 128.178(5)
Au3 Au7 Au3 7_665 11 98.377(13)
Au6 Au7 Au3 8_565 2 119.078(10)
Au6 Au7 Au3 . 2 60.921(10)
Au3 Au7 Au3 10_565 2 128.178(5)
Au3 Au7 Au3 6_665 2 98.377(12)
Au3 Au7 Au3 3_565 2 98.377(12)
Au3 Au7 Au3 7_665 2 128.178(5)
Au3 Au7 Au3 11 2 58.16(2)
Au6 Au7 Y2 8_565 . 90.0
Au6 Au7 Y2 . . 90.0
Au3 Au7 Y2 10_565 . 63.81(3)
Au3 Au7 Y2 6_665 . 150.919(10)
Au3 Au7 Y2 3_565 . 63.81(3)
Au3 Au7 Y2 7_665 . 150.919(10)
Au3 Au7 Y2 11 . 64.37(3)
Au3 Au7 Y2 2 . 64.37(3)
Au6 Au7 Y2 8_565 8_565 90.0
Au6 Au7 Y2 . 8_565 90.0
Au3 Au7 Y2 10_565 8_565 64.37(3)
Au3 Au7 Y2 6_665 8_565 63.81(3)
Au3 Au7 Y2 3_565 8_565 64.37(3)
Au3 Au7 Y2 7_665 8_565 63.81(3)
Au3 Au7 Y2 11 8_565 150.919(10)
Au3 Au7 Y2 2 8_565 150.919(10)
Y2 Au7 Y2 . 8_565 120.0000(10)
Au6 Au7 Y2 8_565 9_665 90.0
Au6 Au7 Y2 . 9_665 90.0
Au3 Au7 Y2 10_565 9_665 150.919(10)
Au3 Au7 Y2 6_665 9_665 64.37(3)
Au3 Au7 Y2 3_565 9_665 150.919(10)
Au3 Au7 Y2 7_665 9_665 64.37(3)
Au3 Au7 Y2 11 9_665 63.81(3)
Au3 Au7 Y2 2 9_665 63.81(3)
Y2 Au7 Y2 . 9_665 120.0
Y2 Au7 Y2 8_565 9_665 120.0
Au6 Y1 Au6 7_666 2_655 70.09(4)
Au6 Y1 Au1 7_666 5 152.94(5)
Au6 Y1 Au1 2_655 5 108.96(2)
Au6 Y1 Au1 7_666 8_556 108.96(2)
Au6 Y1 Au1 2_655 8_556 152.94(5)
Au1 Y1 Au1 5 8_556 59.00(3)
Au6 Y1 Au1 7_666 10_556 56.41(2)
Au6 Y1 Au1 2_655 10_556 90.67(4)
Au1 Y1 Au1 5 10_556 148.61(6)
Au1 Y1 Au1 8_556 10_556 111.67(3)
Au6 Y1 Au1 7_666 3 90.67(4)
Au6 Y1 Au1 2_655 3 56.41(2)
Au1 Y1 Au1 5 3 111.67(3)
Au1 Y1 Au1 8_556 3 148.61(6)
Au1 Y1 Au1 10_556 3 58.92(3)
Au6 Y1 Au1 7_666 11_656 55.79(2)
Au6 Y1 Au1 2_655 11_656 89.52(4)
Au1 Y1 Au1 5 11_656 97.53(4)
Au1 Y1 Au1 8_556 11_656 69.88(3)
Au1 Y1 Au1 10_556 11_656 107.15(3)
Au1 Y1 Au1 3 11_656 140.29(5)
Au6 Y1 Au1 7_666 2_655 89.52(4)
Au6 Y1 Au1 2_655 2_655 55.79(2)
Au1 Y1 Au1 5 2_655 69.88(3)
Au1 Y1 Au1 8_556 2_655 97.53(4)
Au1 Y1 Au1 10_556 2_655 140.29(5)
Au1 Y1 Au1 3 2_655 107.15(3)
Au1 Y1 Au1 11_656 2_655 57.66(3)
Au6 Y1 Au4 7_666 3 109.98(4)
Au6 Y1 Au4 2_655 3 109.98(4)
Au1 Y1 Au4 5 3 95.91(4)
Au1 Y1 Au4 8_556 3 95.91(4)
Au1 Y1 Au4 10_556 3 53.57(3)
Au1 Y1 Au4 3 3 53.57(3)
Au1 Y1 Au4 11_656 3 151.146(16)
Au1 Y1 Au4 2_655 3 151.146(16)
Au6 Y1 Au4 7_666 8_556 142.36(3)
Au6 Y1 Au4 2_655 8_556 142.36(3)
Au1 Y1 Au4 5 8_556 52.94(3)
Au1 Y1 Au4 8_556 8_556 52.94(3)
Au1 Y1 Au4 10_556 8_556 96.62(4)
Au1 Y1 Au4 3 8_556 96.62(4)
Au1 Y1 Au4 11_656 8_556 122.77(4)
Au1 Y1 Au4 2_655 8_556 122.77(4)
Au4 Y1 Au4 3 8_556 50.61(3)
Au6 Y1 Au3 7_666 . 123.52(5)
Au6 Y1 Au3 2_655 . 54.720(18)
Au1 Y1 Au3 5 . 56.346(17)
Au1 Y1 Au3 8_556 . 114.50(4)
Au1 Y1 Au3 10_556 . 128.51(4)
Au1 Y1 Au3 3 . 69.815(18)
Au1 Y1 Au3 11_656 . 108.99(4)
Au1 Y1 Au3 2_655 . 51.435(17)
Au4 Y1 Au3 3 . 99.72(3)
Au4 Y1 Au3 8_556 . 93.46(3)
Au6 Y1 Au3 7_666 12_556 54.720(18)
Au6 Y1 Au3 2_655 12_556 123.52(5)
Au1 Y1 Au3 5 12_556 114.50(4)
Au1 Y1 Au3 8_556 12_556 56.346(17)
Au1 Y1 Au3 10_556 12_556 69.815(18)
Au1 Y1 Au3 3 12_556 128.51(4)
Au1 Y1 Au3 11_656 12_556 51.435(17)
Au1 Y1 Au3 2_655 12_556 108.99(4)
Au4 Y1 Au3 3 12_556 99.72(3)
Au4 Y1 Au3 8_556 12_556 93.46(3)
Au3 Y1 Au3 . 12_556 159.33(5)
Au5 Y2 Au2 . 11 57.25(3)
Au5 Y2 Au2 . 2 57.25(3)
Au2 Y2 Au2 11 2 87.50(5)
Au5 Y2 Au3 . 9 96.61(5)
Au2 Y2 Au3 11 9 100.39(3)
Au2 Y2 Au3 2 9 142.63(6)
Au5 Y2 Au3 . 4 96.61(5)
Au2 Y2 Au3 11 4 142.63(6)
Au2 Y2 Au3 2 4 100.39(3)
Au3 Y2 Au3 9 4 52.75(3)
Au5 Y2 Au1 . . 101.33(3)
Au2 Y2 Au1 11 . 146.31(5)
Au2 Y2 Au1 2 . 58.949(16)
Au3 Y2 Au1 9 . 108.31(4)
Au3 Y2 Au1 4 . 56.516(19)
Au5 Y2 Au1 . 12 101.33(3)
Au2 Y2 Au1 11 12 58.950(16)
Au2 Y2 Au1 2 12 146.31(5)
Au3 Y2 Au1 9 12 56.515(19)
Au3 Y2 Au1 4 12 108.31(4)
Au1 Y2 Au1 . 12 154.07(6)
Au5 Y2 Au7 . . 150.05(6)
Au2 Y2 Au7 11 . 103.29(4)
Au2 Y2 Au7 2 . 103.29(4)
Au3 Y2 Au7 9 . 110.11(5)
Au3 Y2 Au7 4 . 110.11(5)
Au1 Y2 Au7 . . 83.33(3)
Au1 Y2 Au7 12 . 83.33(3)
Au5 Y2 Au3 . 3_565 148.61(4)
Au2 Y2 Au3 11 3_565 154.12(5)
Au2 Y2 Au3 2 3_565 107.37(2)
Au3 Y2 Au3 9 3_565 80.79(4)
Au3 Y2 Au3 4 3_565 56.89(3)
Au1 Y2 Au3 . 3_565 51.51(2)
Au1 Y2 Au3 12 3_565 102.99(5)
Au7 Y2 Au3 . 3_565 53.38(3)
Au5 Y2 Au3 . 10_565 148.61(4)
Au2 Y2 Au3 11 10_565 107.37(2)
Au2 Y2 Au3 2 10_565 154.12(5)
Au3 Y2 Au3 9 10_565 56.89(3)
Au3 Y2 Au3 4 10_565 80.79(4)
Au1 Y2 Au3 . 10_565 102.99(5)
Au1 Y2 Au3 12 10_565 51.51(2)
Au7 Y2 Au3 . 10_565 53.38(3)
Au3 Y2 Au3 3_565 10_565 51.53(3)
Au5 Y2 Au3 . 2 100.55(5)
Au2 Y2 Au3 11 2 88.54(4)
Au2 Y2 Au3 2 2 51.53(2)
Au3 Y2 Au3 9 2 162.83(6)
Au3 Y2 Au3 4 2 124.90(2)
Au1 Y2 Au3 . 2 68.85(2)
Au1 Y2 Au3 12 2 118.69(4)
Au7 Y2 Au3 . 2 53.15(3)
Au3 Y2 Au3 3_565 2 84.81(4)
Au3 Y2 Au3 10_565 2 106.53(5)
Au5 Y2 Au3 . 11 100.55(5)
Au2 Y2 Au3 11 11 51.53(2)
Au2 Y2 Au3 2 11 88.54(4)
Au3 Y2 Au3 9 11 124.90(2)
Au3 Y2 Au3 4 11 162.83(6)
Au1 Y2 Au3 . 11 118.69(4)
Au1 Y2 Au3 12 11 68.85(2)
Au7 Y2 Au3 . 11 53.15(3)
Au3 Y2 Au3 3_565 11 106.53(5)
Au3 Y2 Au3 10_565 11 84.81(4)
Au3 Y2 Au3 2 11 51.11(3)
Au2 Y3 Au2 . 5 115.81(3)
Au2 Y3 Au2 . 6 156.04(9)
Au2 Y3 Au2 5 6 58.564(11)
Au2 Y3 Au2 . 2 58.564(11)
Au2 Y3 Au2 5 2 156.04(9)
Au2 Y3 Au2 6 2 115.81(3)
Au2 Y3 Au2 . 3 58.565(11)
Au2 Y3 Au2 5 3 58.564(11)
Au2 Y3 Au2 6 3 115.81(3)
Au2 Y3 Au2 2 3 115.81(3)
Au2 Y3 Au2 . 4 115.81(3)
Au2 Y3 Au2 5 4 115.81(3)
Au2 Y3 Au2 6 4 58.564(11)
Au2 Y3 Au2 2 4 58.564(11)
Au2 Y3 Au2 3 4 156.04(9)
Au2 Y3 Au5 . 9 103.44(7)
Au2 Y3 Au5 5 9 51.98(3)
Au2 Y3 Au5 6 9 53.72(3)
Au2 Y3 Au5 2 9 104.88(7)
Au2 Y3 Au5 3 9 78.24(5)
Au2 Y3 Au5 4 9 81.06(5)
Au2 Y3 Au5 . 7 78.24(5)
Au2 Y3 Au5 5 7 53.72(3)
Au2 Y3 Au5 6 7 81.06(5)
Au2 Y3 Au5 2 7 103.44(7)
Au2 Y3 Au5 3 7 51.98(3)
Au2 Y3 Au5 4 7 104.88(7)
Au5 Y3 Au5 9 7 29.03(3)
Au2 Y3 Au5 . 2 104.88(7)
Au2 Y3 Au5 5 2 78.24(5)
Au2 Y3 Au5 6 2 51.98(3)
Au2 Y3 Au5 2 2 81.06(5)
Au2 Y3 Au5 3 2 103.44(7)
Au2 Y3 Au5 4 2 53.72(3)
Au5 Y3 Au5 9 2 29.03(3)
Au5 Y3 Au5 7 2 51.46(5)
Au2 Y3 Au5 . 8 51.98(3)
Au2 Y3 Au5 5 8 81.06(5)
Au2 Y3 Au5 6 8 104.88(7)
Au2 Y3 Au5 2 8 78.24(5)
Au2 Y3 Au5 3 8 53.72(3)
Au2 Y3 Au5 4 8 103.44(7)
Au5 Y3 Au5 9 8 51.46(5)
Au5 Y3 Au5 7 8 29.03(3)
Au5 Y3 Au5 2 8 60.18(6)
Au2 Y3 Au5 . 3 53.72(3)
Au2 Y3 Au5 5 3 104.88(7)
Au2 Y3 Au5 6 3 103.44(7)
Au2 Y3 Au5 2 3 51.98(3)
Au2 Y3 Au5 3 3 81.06(5)
Au2 Y3 Au5 4 3 78.24(5)
Au5 Y3 Au5 9 3 60.18(6)
Au5 Y3 Au5 7 3 51.46(5)
Au5 Y3 Au5 2 3 51.46(5)
Au5 Y3 Au5 8 3 29.03(3)
Au2 Y3 Au5 . . 81.06(5)
Au2 Y3 Au5 5 . 103.44(7)
Au2 Y3 Au5 6 . 78.24(5)
Au2 Y3 Au5 2 . 53.72(3)
Au2 Y3 Au5 3 . 104.87(7)
Au2 Y3 Au5 4 . 51.98(3)
Au5 Y3 Au5 9 . 51.46(5)
Au5 Y3 Au5 7 . 60.18(6)
Au5 Y3 Au5 2 . 29.03(3)
Au5 Y3 Au5 8 . 51.46(5)
Au5 Y3 Au5 3 . 29.03(3)
loop_
_geom_bond_atom_site_label_1
_geom_bond_atom_site_label_2
_geom_bond_site_symmetry_2
_geom_bond_distance
Au1 Au3 3_565 2.7542(7)
Au1 Au4 . 2.7769(7)
Au1 Au6 . 2.8654(6)
Au1 Au3 4 2.9686(7)
Au1 Au2 4 2.9735(7)
Au1 Au1 12_556 2.9933(9)
Au1 Y1 9_556 3.0393(14)
Au1 Y1 2 3.0429(14)
Au1 Au2 2 3.0640(7)
Au1 Y1 3_565 3.1036(14)
Au1 Y2 . 3.1532(7)
Au2 Au3 . 2.7337(7)
Au2 Au5 8 2.7381(9)
Au2 Au5 3 2.8229(10)
Au2 Au4 8_556 2.8630(6)
Au2 Au4 3 2.8708(6)
Au2 Au1 5 2.9735(7)
Au2 Au2 2 2.9872(6)
Au2 Au2 3 2.9872(6)
Au2 Y3 . 3.0537(8)
Au2 Au1 3 3.0639(7)
Au2 Y2 3 3.0723(13)
Au2 Y2 8 3.2509(14)
Au3 Au1 2_655 2.7542(7)
Au3 Au3 12 2.7692(9)
Au3 Au7 7_665 2.8489(5)
Au3 Au6 2_655 2.8818(6)
Au3 Au1 5 2.9686(7)
Au3 Au3 6_655 3.0024(10)
Au3 Y2 8 3.1167(15)
Au3 Y2 2_655 3.1852(17)
Au3 Y2 3 3.2096(16)
Au3 Y1 . 3.2373(7)
Au4 Au4 2 2.6942(7)
Au4 Au4 3 2.6942(7)
Au4 Au1 12_556 2.7769(7)
Au4 Au2 4 2.8630(6)
Au4 Au2 9_556 2.8630(6)
Au4 Au2 11_556 2.8709(6)
Au4 Au2 2 2.8709(6)
Au4 Y1 2 3.1175(17)
Au4 Y1 9_556 3.1837(16)
Au4 Y3 . 3.2463(15)
Au4 Y3 7_556 3.2463(15)
Au5 Au5 3 1.5982(12)
Au5 Au5 2 1.5983(12)
Au5 Au2 9 2.7381(9)
Au5 Au2 4 2.7381(9)
Au5 Au5 8 2.768(2)
Au5 Au5 9 2.768(2)
Au5 Y2 . 2.799(2)
Au5 Au2 2 2.8228(10)
Au5 Au2 11 2.8228(10)
Au5 Y3 7 3.188(2)
Au5 Y3 . 3.188(2)
Au5 Au5 7 3.196(2)
Au6 Au7 . 2.8358(9)
Au6 Au1 4_665 2.8653(6)
Au6 Au1 5_565 2.8654(6)
Au6 Au3 3_565 2.8818(6)
Au6 Au3 6_665 2.8818(6)
Au6 Au3 2 2.8818(6)
Au6 Y1 3_565 3.0189(13)
Au6 Y1 7_666 3.0189(13)
Au6 Y1 2 3.0189(13)
Au7 Au6 8_565 2.8358(9)
Au7 Au3 10_565 2.8488(5)
Au7 Au3 6_665 2.8488(5)
Au7 Au3 3_565 2.8488(5)
Au7 Au3 7_665 2.8488(5)
Au7 Au3 11 2.8488(5)
Au7 Au3 2 2.8488(5)
Au7 Y2 . 3.1572(18)
Au7 Y2 8_565 3.1572(18)
Au7 Y2 9_665 3.1572(18)
Y1 Au6 7_666 3.0190(13)
Y1 Au6 2_655 3.0190(13)
Y1 Au1 5 3.0393(14)
Y1 Au1 8_556 3.0393(14)
Y1 Au1 10_556 3.0429(14)
Y1 Au1 3 3.0429(14)
Y1 Au1 11_656 3.1037(14)
Y1 Au1 2_655 3.1037(14)
Y1 Au4 3 3.1174(16)
Y1 Au4 8_556 3.1837(16)
Y1 Au3 12_556 3.2374(7)
Y2 Au2 11 3.0723(13)
Y2 Au2 2 3.0723(13)
Y2 Au3 9 3.1167(15)
Y2 Au3 4 3.1167(15)
Y2 Au1 12 3.1532(7)
Y2 Au3 3_565 3.1852(16)
Y2 Au3 10_565 3.1852(17)
Y2 Au3 2 3.2096(15)
Y2 Au3 11 3.2096(15)
Y3 Au2 5 3.0537(8)
Y3 Au2 6 3.0537(8)
Y3 Au2 2 3.0537(8)
Y3 Au2 3 3.0537(8)
Y3 Au2 4 3.0537(8)
Y3 Au5 9 3.188(2)
Y3 Au5 7 3.188(2)
Y3 Au5 2 3.188(2)
Y3 Au5 8 3.188(2)
Y3 Au5 3 3.188(2)
