#------------------------------------------------------------------------------
#$Date: 2019-12-26 21:57:59 +0200 (Thu, 26 Dec 2019) $
#$Revision: 246128 $
#$URL: file:///home/coder/svn-repositories/cod/cif/2/31/18/2311824.cif $
#------------------------------------------------------------------------------
#
# This file is available in the Crystallography Open Database (COD),
# http://www.crystallography.net/. The original data for this entry
# were provided by IUCr Journals, http://journals.iucr.org/.
#
# The file may be used within the scientific community so long as
# proper attribution is given to the journal article from which the
# data were obtained.
#
data_2311824
loop_
_publ_author_name
'Nayak, Prakash S.'
'Jasinski, Jerry P.'
'Golen, James A.'
'Narayana, Badiadka'
'Kaur, Manpreet'
'Yathirajan, Hemmige S.'
'Glidewell, Christopher'
_publ_section_title
;
 Halogenated C,N-diarylacetamides: molecular conformations and
 supramolecular assembly.
;
_journal_coeditor_code           SK3561
_journal_issue                   'Pt 9'
_journal_name_full
'Acta crystallographica. Section C, Structural chemistry'
_journal_page_first              889
_journal_page_last               894
_journal_paper_doi               10.1107/S2053229614018713
_journal_volume                  70
_journal_year                    2014
_chemical_formula_iupac          'C15 H14 Cl N O'
_chemical_formula_moiety         'C15 H14 Cl N O'
_chemical_formula_sum            'C15 H14 Cl N O'
_chemical_formula_weight         259.72
_chemical_name_systematic
;
<i>N</i>-(4-Chloro-3-methylphenyl)-2-phenylacetamide
;
_space_group_crystal_system      triclinic
_space_group_IT_number           2
_space_group_name_Hall           '-P 1'
_space_group_name_H-M_alt        'P -1'
_atom_sites_solution_hydrogens   geom
_atom_sites_solution_primary     direct
_atom_sites_solution_secondary   difmap
_audit_creation_method           SHELXL-2014
_cell_angle_alpha                108.615(10)
_cell_angle_beta                 91.771(11)
_cell_angle_gamma                90.167(11)
_cell_formula_units_Z            2
_cell_length_a                   5.0039(7)
_cell_length_b                   10.7525(12)
_cell_length_c                   12.6177(12)
_cell_measurement_reflns_used    2447
_cell_measurement_temperature    173(2)
_cell_measurement_theta_max      72.403
_cell_measurement_theta_min      3.699
_cell_volume                     643.01(14)
_computing_cell_refinement       'CrysAlis PRO (Agilent, 2012)'
_computing_data_collection       'CrysAlis PRO (Agilent, 2012)'
_computing_data_reduction        'CrysAlis RED (Agilent, 2012)'
_computing_molecular_graphics    'PLATON (Spek, 2009)'
_computing_publication_material
'SHELXL2014 (Sheldrick, 2014) and PLATON (Spek, 2009)'
_computing_structure_refinement  'SHELXL2014 (Sheldrick, 2014)'
_computing_structure_solution    'SUPERFLIP (Palatinus & Chapuis, 2007)'
_diffrn_ambient_temperature      173(2)
_diffrn_measured_fraction_theta_full 0.996
_diffrn_measured_fraction_theta_max 0.961
_diffrn_measurement_device_type  'Agilent Eos Gemini'
_diffrn_measurement_method       '\w scans'
_diffrn_radiation_type           CuK\a
_diffrn_radiation_wavelength     1.54184
_diffrn_reflns_av_R_equivalents  0.0318
_diffrn_reflns_limit_h_max       5
_diffrn_reflns_limit_h_min       -6
_diffrn_reflns_limit_k_max       12
_diffrn_reflns_limit_k_min       -13
_diffrn_reflns_limit_l_max       15
_diffrn_reflns_limit_l_min       -11
_diffrn_reflns_number            3772
_diffrn_reflns_theta_full        67.684
_diffrn_reflns_theta_max         72.403
_diffrn_reflns_theta_min         3.699
_diffrn_standards_decay_%        0
_diffrn_standards_interval_count 0
_diffrn_standards_interval_time  0
_diffrn_standards_number         0
_exptl_absorpt_coefficient_mu    2.512
_exptl_absorpt_correction_T_max  0.818
_exptl_absorpt_correction_T_min  0.413
_exptl_absorpt_correction_type   multi-scan
_exptl_absorpt_process_details   '(CrysAlis PRO; Agilent, 2012)'
_exptl_crystal_colour            colourless
_exptl_crystal_density_diffrn    1.342
_exptl_crystal_description       block
_exptl_crystal_F_000             272
_exptl_crystal_size_max          0.280
_exptl_crystal_size_mid          0.160
_exptl_crystal_size_min          0.080
_refine_diff_density_max         0.367
_refine_diff_density_min         -0.295
_refine_ls_extinction_method     none
_refine_ls_goodness_of_fit_ref   1.094
_refine_ls_hydrogen_treatment    constr
_refine_ls_matrix_type           full
_refine_ls_number_parameters     164
_refine_ls_number_reflns         2447
_refine_ls_number_restraints     0
_refine_ls_restrained_S_all      1.094
_refine_ls_R_factor_all          0.0796
_refine_ls_R_factor_gt           0.0630
_refine_ls_shift/su_max          0.000
_refine_ls_shift/su_mean         0.000
_refine_ls_structure_factor_coef Fsqd
_refine_ls_weighting_details
'w=1/[\s^2^(Fo^2^)+(0.0930P)^2^+0.0997P] where P=(Fo^2^+2Fc^2^)/3'
_refine_ls_weighting_scheme      calc
_refine_ls_wR_factor_gt          0.1703
_refine_ls_wR_factor_ref         0.1866
_reflns_number_gt                1865
_reflns_number_total             2447
_reflns_threshold_expression     I>2\s(I)
_cod_data_source_file            sk3561sup1.cif
_cod_data_source_block           I
_cod_database_code               2311824
_shelx_space_group_comment
;
The symmetry employed for this shelxl refinement is uniquely defined
by the following loop, which should always be used as a source of
symmetry information in preference to the above space-group names.
They are only intended as comments.
;
_shelx_estimated_absorpt_t_min   0.540
_shelx_estimated_absorpt_t_max   0.824
_shelx_hkl_file
;
   0   0   1 24693.8 417.960   1
   0   0   2 25943.6 607.122   6
   0   0  -3 5179.15 343.509   1
   0   0  -4 2825.54 302.941   1
   0   0   4 2536.58 304.526   9
   0   0   4 2661.36 208.958   5
   0   0   4 3003.43 306.060   8
   0   0   5 59546.6 1517.09   8
   0   0   5 56693.4 1552.23   9
   0   0   6 6191.97 583.256   9
   0   0   6 5628.32 533.746   8
   0   0   7 29323.4 1358.76   9
   0   0   7 28741.9 1286.22   8
   0   0   8 33484.7 1495.00   8
   0   0   8 31776.1 1531.91   9
   0   0   9 19126.9 1275.38   9
   0   0  10 1873.88 420.239   9
   0   0  10 1766.06 458.988  26
   0   0  10 2439.97 441.968  16
   0   0  11 10919.5 1179.58  26
   0   0  11 10246.4 939.894  16
   0   0  12 3251.11 518.875  16
   0   0  13 264.795 190.975  16
   0   0  14 563.238 173.636  16
   0  -1  15 275.898 131.238  16
   0  -1  14 139.068 133.097  16
   0  -1  13 2311.25 405.267  16
   0  -1  12 666.038 281.184  16
   0  -1  12 1091.76 462.805  26
   0  -1  11 16320.3 1148.14  16
   0  -1  11 16070.2 1379.86  26
   0  -1  10 24648.9 1431.90   9
   0  -1  10 23475.8 1588.37  26
   0  -1   9 14.8913 118.928   8
   0  -1   9 76.0512 119.222   9
   0  -1   8 32180.1 1466.88   9
   0  -1   8 30869.3 1412.80   8
   0  -1   7 17175.2 992.412   9
   0  -1   7 15509.0 921.110   8
   0  -1   6 37090.5 1282.73   8
   0  -1   6 39696.9 1364.10   9
   0  -1   5 59749.9 1436.20   8
   0   1  -5 61673.3 1494.91   1
   0  -1   5 61084.2 1504.30   9
   0  -1   4 5125.84 275.224   5
   0  -1   4 5656.97 342.302   4
   0  -1   3 122097. 1395.77   4
   0  -1   3 120482. 1173.09   5
   0  -1   2 1719.82 154.350   4
   0  -1   1 28074.8 535.939   4
   0   1   0 8847.39 279.402   2
   0   1   1 5006.78 211.490   3
   0   1   1 4549.94 301.881   7
   0   1   2 82705.9 839.843   3
   0   1   2 82454.6 1248.01   1
   0   1   2 85787.8 1510.32   7
   0   1   2 82647.8 949.453   6
   0   1   3 59123.9 1280.95   1
   0   1   3 59697.4 1169.82   8
   0   1   3 60488.7 795.772   3
   0   1   4 17223.1 778.834   1
   0   1   4 16852.8 812.151   9
   0   1   4 17779.2 758.101   8
   0   1   5 101113. 2205.26   9
   0   1   5 99114.0 2035.98   8
   0   1   6 5342.00 585.985   9
   0   1   7 91.3148 133.627   9
   0   1   8 1487.84 379.560   9
   0   1   9 6022.34 744.014   9
   0   1  10 5.85192 133.067   9
   0   1  10 176.761 184.398  16
   0   1  11 2463.28 457.946  16
   0   1  12 2183.28 412.493  16
   0   1  13 616.485 197.828  16
   0   1  14 1518.85 240.388  16
   0  -2  15 860.063 192.654  16
   0  -2  14 29.5928 113.647  16
   0  -2  13 5133.19 782.718  26
   0  -2  13 3501.76 517.244  16
   0  -2  12 9417.84 880.740  16
   0  -2  12 9811.61 1068.53  26
   0  -2  11 1091.65 319.864  23
   0  -2  11 686.595 324.565  26
   0  -2  11 800.675 289.444  16
   0  -2  10 11507.4 961.252   8
   0  -2   9 7717.03 753.840   8
   0  -2   8 4808.34 567.282   9
   0  -2   8 5556.27 600.684   8
   0  -2   7 8395.08 664.229   8
   0  -2   7 8716.82 669.314   9
   0  -2   6 15385.0 797.034   8
   0  -2   6 14284.2 781.080   9
   0  -2   5 52942.3 1293.23   4
   0  -2   5 50757.1 1273.94   8
   0  -2   5 50108.2 1248.04   9
   0  -2   4 52437.4 1141.81   8
   0  -2   4 54090.3 1233.91   4
   0  -2   3 93277.2 1507.80   4
   0  -2   3 91165.6 1267.42   8
   0  -2   2 882774. 4283.64   4
   0  -2   1 11474.1 463.869   4
   0   2   0 3149.77 240.515   2
   0  -2   0 3223.01 240.036   4
   0   2   0 2744.62 271.765   7
   0   2   1 59929.0 1408.26   7
   0   2   2 81079.9 1510.15   9
   0   2   2 81230.0 1197.86   3
   0   2   3 165.279 65.0300   6
   0   2   3 299.788 88.1378   3
   0   2   3 115.015 121.953   9
   0   2   3 98.7903 100.053   1
   0   2   4 113337. 2272.36   9
   0   2   5 46819.5 1615.54   9
   0   2   6 7449.89 721.504   9
   0   2   7 25785.8 1406.55   9
   0   2   8 14631.3 1123.92   9
   0   2   9-115.438 146.004   9
   0   2   9 52.9901 129.851  19
   0   2   9 271.070 186.457  16
   0   2  10 7155.85 729.692  16
   0   2  10 5656.02 712.714  19
   0   2  11 464.940 210.403  16
   0   2  11 89.5219 146.954  19
   0   2  12 242.585 147.229  16
   0   2  12 9.04021 98.2817  19
   0   2  13 3022.13 354.364  16
   0  -3  15-566.574 180.880  16
   0  -3  14 1079.24 406.545  26
   0  -3  14 351.695 186.624  16
   0  -3  13 2586.81 452.557  16
   0  -3  13 2084.97 486.132  26
   0  -3  12 12430.6 1204.56  26
   0  -3  12 13460.1 1022.85  16
   0  -3  11 1508.63 421.348  26
   0  -3  11 1087.75 300.004  16
   0  -3  11 1277.72 353.066  23
   0  -3  11 1731.36 395.031   8
   0  -3  10 2051.96 416.362   8
   0  -3   9 2628.15 437.758   8
   0  -3   8 1610.67 347.726   8
   0  -3   7 112.242 111.606   8
   0  -3   6 9761.00 635.858   8
   0  -3   6 10494.7 689.838   4
   0  -3   5 67460.8 1483.78   8
   0  -3   5 68075.4 1654.17   4
   0  -3   4 281.891 146.448   4
   0  -3   4 445.707 120.978   8
   0  -3   3 258806. 2253.13   8
   0  -3   3 256403. 2905.92   4
   0  -3   2 4869.84 393.364   4
   0  -3   2 5208.32 283.524   8
   0  -3   1 46341.3 1128.18   4
   0   3  -1 45363.2 980.598   2
   0   3   0 4056.87 329.302   2
   0  -3   0 4305.66 338.420   4
   0  -3   0 3897.34 326.612  10
   0   3   1 491.093 130.748   9
   0  -3  -1 582.398 132.248   2
   0   3   2 1332.21 208.582   3
   0   3   2 1217.47 218.576   9
   0   3   3 78450.1 1463.02   3
   0   3   3 80039.0 1887.56   9
   0   3   4 81938.1 2105.43   9
   0   3   5 6073.20 637.654   9
   0  -3  -6 404.430 188.926  10
   0   3   6 370.903 223.248   9
   0  -3  -7 3492.54 547.613  10
   0   3   7 3646.37 566.330   9
   0   3   8 612.980 265.618   9
   0   3   8 298.273 170.421  19
   0   3   9 773.688 284.190   9
   0   3   9 755.121 285.289  19
   0   3  10 2648.65 439.030  16
   0   3  10 2284.64 443.654  19
   0   3  11 6790.05 685.730  19
   0   3  11 6255.30 604.269  16
   0   3  12 6346.47 567.083  19
   0  -4  15-89.7500 135.517  16
   0  -4  14 2417.09 475.949  26
   0  -4  14 2043.87 327.172  16
   0  -4  13 670.191 245.346  26
   0  -4  13 939.145 270.672  16
   0  -4  12-36.8701 147.750  23
   0  -4  12 209.136 218.085  16
   0  -4  12-173.079 240.931  26
   0  -4  11 3941.79 677.045  26
   0  -4  11 3587.34 517.009  16
   0  -4  11 4260.34 632.118  23
   0  -4  11 4322.01 619.002   8
   0  -4  10 5085.92 661.093  23
   0  -4  10 4550.45 696.025  26
   0  -4  10 5940.96 689.026   8
   0  -4   9 4621.23 591.532   8
   0  -4   8 590.774 246.454   8
   0  -4   7 35556.9 1420.43   4
   0  -4   7 35732.0 1361.79   8
   0  -4   6 11112.9 774.711   4
   0  -4   6 11161.5 705.884   8
   0  -4   5 8521.45 557.299   8
   0  -4   5 8477.50 651.181   4
   0  -4   4 713.468 212.522   4
   0  -4   4 639.072 152.655   8
   0  -4   3 138627. 1693.94  10
   0  -4   3 137802. 1812.60   8
   0  -4   3 140742. 2416.25   4
   0   4  -2 149531. 2035.80   2
   0  -4   2 146539. 1933.37  10
   0   4  -1 15842.8 692.759   2
   0  -4   1 14266.4 728.361   4
   0  -4   1 15305.2 694.722  10
   0  -4   0 85062.6 1721.06   4
   0  -4   0 83567.8 1735.15  10
   0   4   0 84967.3 1422.09   9
   0   4   1 917.882 190.540   9
   0   4   1 769.690 198.337   3
   0  -4  -1 984.616 221.660  10
   0  -4  -2 199744. 3207.20  10
   0   4   2 197519. 2715.29   3
   0   4   2 197568. 2804.22   9
   0   4   3 533.335 158.621   3
   0  -4  -3 548.769 222.423  10
   0   4   3 320.849 162.796   9
   0   4   4 130.063 201.363   9
   0  -4  -4 44.6408 153.392  10
   0  -4  -5 10202.7 871.492  10
   0   4   5 12196.5 950.311   9
   0   4   6 13265.8 1064.21   9
   0  -4  -6 11634.0 983.309  10
   0   4   7 12861.4 985.409  19
   0   4   7 13910.3 1110.14   9
   0  -4  -7 12546.0 1055.34  10
   0   4   8 13124.3 1046.05  19
   0   4   8 14405.2 1145.76   9
   0   4   9 623.617 254.357  19
   0   4  10 159.199 167.448  19
   0   4  11 746.196 231.488  19
   0   4  12 214.106 116.663  19
   0  -5  15 882.397 260.378  26
   0  -5  14 82.4708 179.329  26
   0  -5  13 306.428 194.189  26
   0  -5  12 1838.79 455.198  26
   0  -5  12 1990.55 451.053  23
   0  -5  11 1652.55 462.300  26
   0  -5  11 2116.16 437.337   8
   0  -5  11 2137.21 466.874  23
   0  -5  10 7805.53 833.686  23
   0  -5  10 6647.08 744.459   8
   0  -5  10 7117.50 870.553  26
   0  -5   9 34319.6 1583.06   8
   0  -5   8 21900.6 1189.83   8
   0  -5   7 45104.7 1576.66   8
   0  -5   7 48203.2 1787.00   4
   0  -5   6 5694.83 521.817   8
   0  -5   6 5797.69 611.512   4
   0  -5   5 90375.3 2282.65   4
   0  -5   5 88812.5 1916.23   8
   0  -5   4 4543.18 394.726   8
   0  -5   4 4747.49 519.248   4
   0  -5   3 55856.2 1696.42   4
   0  -5   3 53741.4 1233.97   8
   0  -5   3 56212.0 1301.97  10
   0  -5   2 1632.72 268.922  10
   0  -5   2 1698.43 363.273   4
   0  -5   1 46864.1 1380.05  10
   0  -5   1 47093.6 1458.73   4
   0  -5   0 205.467 132.405  10
   0  -5  -1 3376.54 432.024  10
   0   5   1 3114.89 401.897   3
   0   5   1 2776.37 320.852   9
   0   5   2 81601.0 1958.12   3
   0   5   2 83437.6 1953.23   9
   0  -5  -3 2157.25 399.891  10
   0   5   3 1552.17 315.549   9
   0   5   4 114.357 180.012   9
   0  -5  -4 180.831 181.533  10
   0  -5  -5 28834.3 1548.92  10
   0   5   5 31255.7 1597.38   9
   0   5   6 3465.80 540.029  19
   0   5   6 3961.57 610.616   9
   0  -5  -6 3817.68 588.056  10
   0   5   7 723.961 326.458   9
   0  -5  -7 143.108 216.889  10
   0   5   7 411.437 270.357  19
   0   5   8 475.177 247.452  19
   0   5   9 1792.54 396.536  19
   0   5  10 14009.8 964.512  19
   0   5  11 663.692 208.520  19
   0  -6  15 1536.56 303.400  26
   0  -6  14 1586.24 387.506  26
   0  -6  13 5369.14 745.735  26
   0  -6  12 70.6699 143.727  23
   0  -6  12 110.279 186.324  26
   0  -6  11 3912.95 617.137  23
   0  -6  11 3536.82 633.365  26
   0  -6  10-84.6943 152.448  23
   0  -6  10 137.149 153.250   8
   0  -6  10-47.7623 144.921  26
   0  -6   9 1108.82 301.559   8
   0  -6   8 14611.5 991.320   8
   0  -6   7 11430.1 835.316   8
   0  -6   7 11758.9 950.999   4
   0  -6   6 599.585 207.606   8
   0  -6   6 658.617 255.113   4
   0  -6   5 80711.7 1880.90   8
   0  -6   5 73806.6 2251.87   4
   0  -6   4 2152.72 388.705   4
   0  -6   4 1933.45 269.477   8
   0  -6   3 39809.3 1554.06   4
   0  -6   3 36853.7 1216.86  10
   0  -6   2 25158.9 1061.93  10
   0  -6   2 24111.4 1177.34   4
   0  -6   1 1335.59 263.346  10
   0  -6   0 33859.2 1383.13  10
   0   6   0 35774.1 1464.82   3
   0   6   1 4391.80 506.245   3
   0  -6  -1 4574.42 543.110  10
   0   6   2 40588.6 1495.54   3
   0  -6  -2 39172.3 1698.87  10
   0   6   3 2738.72 424.780   9
   0  -6  -3 4130.65 579.285  10
   0   6   4 1137.36 313.107   9
   0  -6  -4 1651.98 393.743  10
   0   6   5-15.2545 148.775  19
   0  -6  -5 349.672 211.278  10
   0   6   5 98.0473 118.442   9
   0   6   6 7657.15 800.900  19
   0  -6  -6 7402.18 805.088  10
   0   6   7 269.435 176.127  19
   0   6   8 483.769 233.635  19
   0   6   9 7109.49 681.207  19
   0   6  10 11869.9 761.480  19
   0  -7  15 1453.63 264.356  26
   0  -7  14 1210.52 314.801  26
   0  -7  13 339.491 207.959  26
   0  -7  12 802.741 316.791  23
   0  -7  12 614.382 266.691  26
   0  -7  11 8064.20 945.876  26
   0  -7  11 9180.21 904.583  23
   0  -7  10 11789.4 1016.37  23
   0  -7  10 10905.0 922.005   8
   0  -7  10 10742.3 1103.74  26
   0  -7   9 7876.50 882.900  26
   0  -7   9 8253.15 776.080   8
   0  -7   9 6903.24 744.191  23
   0  -7   8 3775.19 498.527   8
   0  -7   8 4024.81 581.794   4
   0  -7   7 3981.70 571.852   4
   0  -7   6 3337.28 515.161   4
   0  -7   5 37550.2 1685.66   4
   0  -7   4 4754.84 607.303   4
   0  -7   3 21148.0 1023.41  10
   0  -7   2 4411.19 489.512  10
   0   7  -2 4429.62 602.978   3
   0   7  -1 14622.7 1030.67   3
   0  -7   1 13677.1 887.067  10
   0   7   0 681.581 252.170   3
   0  -7   0 432.953 186.603  10
   0   7   1 303.501 152.636   3
   0  -7  -1 488.074 203.967  10
   0   7   2 1385.50 309.643   3
   0  -7  -2 1241.91 323.520  10
   0  -7  -3 10817.6 957.642  10
   0  -7  -4 14513.7 1027.24  18
   0  -7  -4 14932.2 1140.85  10
   0   7   4 15440.2 1088.13  19
   0   7   5 3471.00 531.673  19
   0  -7  -5 2155.49 426.239  10
   0  -7  -5 2339.53 419.310  18
   0   7   6 904.694 295.216  19
   0   7   7 2661.14 456.267  19
   0   7   8 3447.99 477.437  19
   0   7   9 357.931 166.039  19
   0  -8  14-16.2747 97.3022  26
   0  -8  13 164.566 164.172  26
   0  -8  12 124.360 165.216  23
   0  -8  12-20.0261 200.196  26
   0  -8  11 1826.19 390.011  23
   0  -8  11 1561.97 444.059  26
   0  -8  10 699.689 312.446  26
   0  -8  10 376.125 182.420  23
   0  -8   9 1395.99 342.448  23
   0  -8   9 2187.68 483.344  26
   0  -8   8 5978.34 683.663  11
   0  -8   7 3777.14 546.417  11
   0   8  -6 9381.89 1100.04   3
   0   8  -5-367.642 250.976   3
   0   8  -4 783.517 352.191   3
   0   8  -3 3893.78 617.966   3
   0   8  -2 2176.75 452.390   3
   0  -8   2 2705.65 412.651  10
   0   8  -1 307.460 221.707   3
   0  -8   1 147.148 130.807  10
   0   8   0 25782.5 1403.18   3
   0  -8   0 28546.0 1413.81  10
   0  -8  -1 6549.27 695.421  18
   0  -8  -1 7361.61 750.995  10
   0  -8  -2 1220.25 331.938  18
   0  -8  -2 537.618 224.713  10
   0  -8  -3 2105.33 419.292  10
   0  -8  -3 2943.29 494.440  18
   0   8   4 116.033 125.604  19
   0  -8  -4-53.9425 97.2649  18
   0   8   5-279.486 180.235  19
   0  -8  -5-55.4535 98.6284  18
   0   8   6 1269.75 322.284  19
   0   8   7 4819.79 530.511  19
   0   8   8 6777.82 545.638  19
   0  -9  14 44.5781 97.8413  26
   0  -9  13-109.881 151.781  26
   0  -9  12 191.082 143.322  26
   0  -9  11 100.483 118.653  23
   0  -9  11 82.8522 145.963  26
   0  -9  10 14234.6 1253.81  26
   0  -9   9 358.611 204.978  26
   0  -9   9 279.625 168.154  11
   0  -9   8 6070.22 714.105  11
   0  -9   7 3130.41 513.324  11
   0  -9   6 477.795 200.700  11
   0  -9   5 2136.87 427.360  11
   0  -9   5 2369.58 421.858  18
   0  -9   4 2122.00 405.875  18
   0  -9   4 1570.17 352.486  11
   0  -9   3 13862.4 1000.73  18
   0  -9   3 15809.4 1126.07  11
   0  -9   2 4106.04 548.294  18
   0  -9   2 4819.06 620.141  11
   0  -9   1 24643.5 1363.14  11
   0  -9   1 22124.6 1259.57  18
   0  -9   0 12447.1 956.431  10
   0  -9   0 15949.3 1097.24  18
   0  -9  -1 4698.89 601.663  10
   0  -9  -1 5484.28 665.946  18
   0  -9  -2 739.978 256.921  18
   0  -9  -3 4436.87 582.899  18
   0  -9  -4 1950.09 381.760  18
   0  -9  -5 2577.17 378.885  18
   0   9   6 1181.93 254.831  19
   0 -10  13-8.97605 103.020  26
   0 -10  12 1370.66 344.852  26
   0 -10  11 2146.13 464.129  26
   0 -10  10 5303.70 737.091  26
   0 -10   9 245.694 248.736  26
   0 -10   8 4915.39 627.459  13
   0 -10   8 3602.85 540.875  11
   0 -10   7 1003.08 295.263  11
   0 -10   6 318.108 220.888  11
   0 -10   5 1749.31 369.156  18
   0 -10   5 1880.82 413.136  11
   0 -10   4 277.210 175.577  11
   0 -10   4 448.425 207.150  18
   0 -10   3 490.108 241.710  11
   0 -10   3 452.515 202.289  18
   0 -10   2 1363.51 327.109  18
   0 -10   2 1784.83 384.137  11
   0 -10   1 5519.59 642.514  18
   0 -10   0 2915.88 487.757  18
   0 -10  -1 4368.23 584.198  18
   0 -10  -2 56.8687 115.485  18
   0 -10  -3 85.9861 101.835  18
   0 -10  -4 291.257 130.693  14
   0 -10  -4 349.692 162.615  18
   0 -10  -5 1251.16 218.170  14
   0 -11  12 13855.1 858.295  26
   0 -11  11 314.025 198.730  26
   0 -11  10-91.7139 146.952  26
   0 -11   9 182.582 200.137  26
   0 -11   8 2127.14 486.495  26
   0 -11   8 1715.58 343.281  13
   0 -11   7 109.841 81.8426  13
   0 -11   7-57.8385 119.668  11
   0 -11   6 169.533 135.598  11
   0 -11   5 6749.49 662.186  18
   0 -11   5 6410.36 708.068  11
   0 -11   4 345.041 179.896  18
   0 -11   4 353.646 220.591  11
   0 -11   3 19727.9 1192.61  11
   0 -11   3 20926.8 1193.99  18
   0 -11   2 199.523 145.484  11
   0 -11   2 470.090 191.050  18
   0 -11   1 10629.8 860.321  18
   0 -11   0 9510.46 811.587  18
   0 -11  -1 2791.16 421.346  18
   0 -11  -2 2222.72 341.309  18
   0 -11  -3 1873.43 272.098  18
   0 -12  10 211.550 159.286  26
   0 -12   9 206.878 128.420  26
   0 -12   8-157.801 100.453  13
   0 -12   8 341.668 199.615  26
   0 -12   7 196.771 152.949  13
   0 -12   6 3716.05 491.102  13
   0 -12   5 866.524 217.778  18
   0 -12   4 527.527 184.354  18
   0 -12   3 218.288 125.156  18
   0 -12   2 343.075 164.962  18
   0 -12   1 1742.36 313.150  18
   0 -12   0 374.236 124.589  13
   0 -12   0 806.442 198.665  18
   0 -12  -1-82.4295 76.0220  18
   0 -13   7 895.321 176.815  13
   0 -13   7 1760.68 297.757  26
   0 -13   6 149.692 124.428  26
   0 -13   6 217.090 109.279  13
   0 -13   5 207.582 123.430  13
   0 -13   4 891.303 207.136  13
   0 -13   3 92.0539 81.3792  13
   0 -13   2 926.906 174.331  18
   1 -13   4 1461.23 231.503  13
   1 -13   5 5533.30 470.905  26
   1 -13   5 4276.22 396.536  13
   1 -13   6 187.780 102.872  13
   1 -13   6 137.916 112.194  26
   1 -12   0 293.571 130.041  18
   1 -12   1 205.055 115.293  13
   1 -12   1 79.0456 114.054  18
   1 -12   2 341.000 160.109  13
   1 -12   2 588.170 189.334  18
   1 -12   3 11042.0 818.205  13
   1 -12   3 11879.5 771.971  18
   1 -12   4 679.466 237.926  13
   1 -12   5 433.789 196.666  13
   1 -12   6 478.806 190.389  13
   1 -12   7 3599.35 503.356  26
   1 -12   7 3473.11 436.635  13
   1 -12   8 172.529 118.620  13
   1 -12   8 311.070 164.932  26
   1 -12   9 754.599 230.913  26
   1 -12   9 695.842 164.173  13
   1 -12  10 140.452 94.8682  26
   1 -11  -3 2506.44 280.123  14
   1 -11  -3 2475.50 266.437  18
   1 -11  -2 475.723 159.415  18
   1 -11  -1 6419.26 583.395  18
   1 -11   0 91.2210 108.056  13
   1 -11   0 73.4901 133.858  18
   1 -11   1 537.944 224.483  13
   1 -11   1 693.393 236.555  18
   1 -11   2 1406.99 348.872  13
   1 -11   2 909.104 266.406  18
   1 -11   3 1690.93 358.314  18
   1 -11   3 1912.15 415.475  13
   1 -11   4 3081.57 463.525  18
   1 -11   4 3293.80 527.927  13
   1 -11   5 1174.15 318.052  13
   1 -11   6 529.582 230.261  13
   1 -11   7 12.1169 114.232  13
   1 -11   8 2075.37 465.808  26
   1 -11   8 2414.60 416.507  13
   1 -11   9 68.8138 137.111  26
   1 -11   9 103.183 99.9494  13
   1 -11  10 2374.75 443.790  26
   1 -11  11-56.1269 131.646  26
   1 -11  12 4317.09 441.612  26
   1 -10  -5 106.385 110.419  14
   1 -10  -4 714.133 207.092  14
   1 -10  -3 369.133 167.656  14
   1 -10  -3 388.530 150.360  18
   1 -10  -2 986.324 263.023  14
   1 -10  -2 776.217 247.846  18
   1 -10  -1 3358.96 491.094  18
   1 -10  -1 3419.04 474.067  14
   1 -10   0 6923.77 713.728  18
   1 -10   1 30368.0 1497.08  18
   1 -10   2 22810.3 1309.17  18
   1 -10   3 748.149 240.846  18
   1 -10   4 203.605 151.424  18
   1 -10   5 952.169 283.127  18
   1 -10   6 964.837 334.567  13
   1 -10   7-221.154 168.830  13
   1 -10   8-178.955 148.976  13
   1 -10   8-8.30041 144.963  26
   1 -10   9 4212.09 669.564  26
   1 -10  10 1006.52 320.455  26
   1 -10  11-25.5891 163.673  26
   1 -10  12 1132.51 285.323  26
   1 -10  13-90.9175 105.659  26
   1  -9  -7 1102.68 208.759  14
   1  -9  -6 259.032 147.855  14
  -1   9   5 3128.19 447.747  19
   1  -9  -5 3347.09 475.978  14
  -1   9   4 2101.68 390.504  19
   1  -9  -3 1963.22 370.031  18
   1  -9  -2 5931.36 670.673  14
   1  -9  -2 6873.94 729.972  18
   1  -9  -1 2952.25 486.777  18
   1  -9  -1 3128.56 483.810  14
   1  -9   0 3972.98 537.570  14
   1  -9   0 3531.86 544.297  18
   1  -9   0 4216.21 577.362  10
   1  -9   1 3287.01 498.813  10
   1  -9   1 2738.76 483.628  18
   1  -9   2 1012.02 290.462  18
   1  -9   2 1077.16 288.854  10
   1  -9   3 3010.23 499.485  11
   1  -9   3 2727.41 463.067  18
   1  -9   3 2902.86 454.162  10
   1  -9   4 10535.8 931.527  11
   1  -9   4 10070.3 874.859  18
   1  -9   5 556.851 245.404  11
   1  -9   5 419.165 198.225  18
   1  -9   6 6271.47 719.451  18
   1  -9   6 6716.03 784.814  13
   1  -9   7 6724.45 787.008  13
   1  -9   8 2676.08 586.859  26
   1  -9   8 2613.66 488.475  13
   1  -9   9 247.582 206.733  26
   1  -9  10 826.983 385.254  26
   1  -9  11-48.1235 146.429  26
   1  -9  12 4149.49 617.800  26
   1  -9  13 271.461 156.076  26
   1  -8  -8 4688.74 462.874  14
  -1   8   7 1168.23 269.210  19
  -1   8   6 2085.85 390.144  19
  -1   8   5-105.920 137.742  19
  -1   8   4 19597.6 1236.13  19
   1  -8  -3 2778.05 459.468  18
  -1   8   3 1865.34 389.254  19
   1  -8  -2 4126.04 558.148  18
   1  -8  -2 3808.52 561.004  10
   1  -8  -1 6280.42 710.739  18
   1  -8  -1 7131.94 768.983  10
   1  -8   0 10412.7 875.180  18
   1  -8   0 10053.4 876.514  10
   1  -8   1 12411.2 958.874  10
   1  -8   2 355.491 178.130   4
   1  -8   2 129.502 126.195  10
   1  -8   3 1933.42 371.384  10
   1  -8   3 1490.64 354.091   4
   1  -8   4 2129.78 438.718   4
   1  -8   5 2651.06 494.005   4
   1  -8   6 1444.26 347.853  11
   1  -8   6 1475.69 338.270  18
   1  -8   6 1255.75 346.085   4
   1  -8   7 17003.5 1229.15  13
   1  -8   8 469.624 244.889  26
   1  -8   9 3951.54 675.656  26
   1  -8  10 1785.43 467.121  26
   1  -8  11 2354.89 540.498  26
   1  -8  12 198.547 186.366  26
   1  -8  13 314.612 189.701  26
   1  -8  14 828.738 232.970  26
  -1   7   9 7360.96 746.145  20
  -1   7   9 5387.93 510.603  19
  -1   7   8 332.263 228.777  19
  -1   7   7 421.629 192.621  19
  -1   7   6 267.819 169.818  19
  -1   7   5 1520.48 392.579  19
   1  -7  -4 4215.41 600.740  10
  -1   7   4 4147.66 576.003  19
   1  -7  -3 8091.82 745.822  18
   1  -7  -3 8346.40 822.083  10
  -1   7   3 7225.28 722.644  19
   1  -7  -2 1534.75 388.470  10
  -1   7   1 11142.5 890.439   3
   1  -7  -1 13961.7 1013.58  10
   1  -7   0 22505.9 1256.60  10
   1  -7   1 4880.95 587.761  10
   1  -7   1 2835.80 475.767   4
   1  -7   2 15152.5 988.373  10
   1  -7   2 13857.6 997.821   4
   1  -7   3 138.472 145.580   4
   1  -7   3 314.721 181.926  10
   1  -7   4 13225.6 1010.61   4
   1  -7   5 19762.2 1247.23   4
   1  -7   6 4475.91 612.022   4
   1  -7   7 799.920 269.469   4
   1  -7   8 105.946 122.372   4
   1  -7   8-61.0154 143.122  26
   1  -7   9 1494.32 351.801  23
   1  -7   9 878.181 299.158  26
   1  -7  10 7485.93 909.829  26
   1  -7  11 793.615 328.406  26
   1  -7  12 421.209 238.201  26
   1  -7  13 93.4517 184.141  26
   1  -7  14 1946.58 377.225  26
  -1   6  10 1519.26 329.213  20
  -1   6  10 1258.36 266.070  19
  -1   6   9-219.744 166.804  19
  -1   6   8 10051.5 863.350  19
  -1   6   7 1249.50 335.146  19
  -1   6   6 17658.7 1210.98  19
   1  -6  -6 12051.8 997.648  10
   1  -6  -5 951.035 278.747  10
  -1   6   5 1290.18 341.324  19
   1  -6  -4 14692.9 1082.50  10
   1  -6  -3 8393.52 806.773  10
   1  -6  -2 25273.2 1329.16  10
   1  -6  -1 6153.37 643.139  10
  -1   6   1 6267.07 783.065   7
   1  -6   0 36560.7 1386.03   4
   1  -6   0 36926.6 1488.19  10
  -1   6  -1 23453.5 1389.81   7
   1  -6   1 26962.6 1253.41   4
   1  -6   1 25179.4 1193.74  10
   1  -6   2 6394.49 612.956  10
   1  -6   2 6815.51 660.548   4
   1  -6   3 8004.88 722.938   4
   1  -6   3 7982.71 647.723  10
   1  -6   4 12038.1 907.190   4
   1  -6   5 888.728 283.267   4
   1  -6   6 49.2160 112.901   4
   1  -6   7 15977.3 1140.79   4
   1  -6   8 1570.56 378.528   4
   1  -6   9 28972.4 1667.65  26
   1  -6   9 24942.2 1408.58  23
   1  -6  10 1174.59 349.301  26
   1  -6  10 1225.21 356.592  23
   1  -6  11 134.071 180.627  26
   1  -6  12 84.0439 161.104  26
   1  -6  13 347.378 230.820  26
   1  -6  14-41.3812 197.617  26
   1  -6  15 309.451 154.909  26
  -1   5  11 9024.59 618.005  19
  -1   5  11 10157.5 770.428  20
  -1   5  10 551.477 283.648  20
  -1   5  10 96.3854 137.627  19
  -1   5   9 1964.69 414.180  19
  -1   5   8 4734.06 639.928  19
  -1   5   7 22078.0 1340.23  19
   1  -5  -6 4152.62 594.491  10
  -1   5   6 5251.42 643.916  19
   1  -5  -5 270.627 190.210  10
   1  -5  -4 12034.9 942.176  10
   1  -5  -3 27157.9 1361.38  10
  -1   5   3 28025.2 1590.87   7
  -1   5   2 41866.4 1909.76   7
   1  -5  -2 39419.2 1526.92  10
   1  -5  -1 3476.53 468.502  10
  -1   5   1 2973.83 540.633   7
   1  -5  -1 3109.61 360.958   4
   1  -5   0 143.443 100.300   4
  -1   5   0 250.932 187.668   7
   1  -5   0 356.724 167.124  10
  -1   5  -1 4953.06 579.415   7
   1  -5   1 5478.04 520.690   4
   1  -5   1 5289.44 496.476  10
   1  -5   2 30417.2 1246.65   4
  -1   5  -2 29573.6 1268.97   7
   1  -5   2 29361.6 1132.87  10
   1  -5   3 9530.62 662.366  10
   1  -5   3 7280.27 694.142   4
   1  -5   4 8129.85 698.346   4
   1  -5   5 1108.37 276.771   4
   1  -5   6 4288.06 550.020   4
   1  -5   7 14541.0 1034.03   4
   1  -5   7 13935.7 875.303   8
   1  -5   8 102.755 133.108   8
   1  -5   8 125.466 124.686   4
   1  -5   9 296.290 191.127   8
   1  -5  10 1017.46 285.582   8
   1  -5  10 1374.49 364.663  23
   1  -5  10 787.374 322.443  26
   1  -5  11 4854.39 745.915  26
   1  -5  12 4468.77 697.673  26
   1  -5  13 378.902 209.388  26
   1  -5  14 4229.73 584.934  26
  -1   4  12 5020.07 417.152  19
  -1   4  11 4370.20 609.445  20
  -1   4  11 3376.48 436.842  19
  -1   4  10 1370.23 345.554  19
  -1   4  10 1749.28 445.970  20
  -1   4   9 10995.4 931.929  19
  -1   4   8 2326.74 468.573  19
  -1   4   7 7022.28 754.957  19
   1  -4  -6 38612.5 1707.10  10
   1  -4  -5 72.4291 101.550  10
   1  -4  -4 34009.4 1469.88  10
  -1   4   4 30587.5 1622.30   7
  -1   4   3 29438.8 1554.04   7
   1  -4  -3 34145.9 1387.49  10
   1  -4  -2 15029.5 868.831  10
  -1   4   2 14381.4 1019.81   7
   1  -4  -1 107111. 2141.77  10
   1  -4  -1 109961. 1846.70   4
   1  -4   0 894.520 201.870   4
  -1   4   0 983.330 241.324   7
   1  -4   0 1015.41 201.515  10
   1  -4   1 12150.7 716.780  10
  -1   4  -1 13447.3 766.202   7
   1  -4   2 1762.82 315.010   4
   1  -4   2 1754.40 268.519  10
  -1   4  -2 2240.07 289.049   7
   1  -4   3 86697.3 2029.47   4
  -1   4  -3 84887.8 1453.10   7
   1  -4   4 138069. 2660.48   4
   1  -4   5 86169.7 2201.15   4
   1  -4   5 83250.6 1807.14   8
   1  -4   6 1204.37 258.176   8
   1  -4   6 1104.28 285.159   4
   1  -4   7 18458.3 1023.20   8
   1  -4   7 19635.6 1150.02   4
   1  -4   8 1209.72 303.498   8
   1  -4   9 1012.34 291.261   8
   1  -4  10 270.135 182.064  26
   1  -4  10 598.558 246.371  23
   1  -4  11 19163.3 1461.27  26
   1  -4  12 5915.97 827.521  26
   1  -4  13-98.5035 273.563  26
   1  -4  13-147.615 144.121  16
   1  -4  14 7859.57 801.713  26
   1  -4  14 7355.73 586.303  16
  -1   3  12 290.003 174.406  20
  -1   3  12 240.626 129.175  19
  -1   3  11 1961.51 465.101  20
  -1   3  11 2028.96 368.851  19
  -1   3  11 1491.91 319.346  16
  -1   3  10 2645.32 441.812  16
  -1   3  10 3302.66 680.756  20
  -1   3  10 2785.81 471.417  19
  -1   3   9 28976.5 1397.48  16
  -1   3   9 26282.5 1467.70  19
  -1   3   8 4471.63 621.743  19
  -1   3   8 4386.97 540.965  16
  -1   3   7 16398.6 1183.98   9
  -1   3   6 1263.34 376.281   9
   1  -3  -5 101.473 106.098  10
  -1   3   5 318.059 238.509   7
   1  -3  -4 17985.8 985.300  10
  -1   3   4 16825.3 1143.29   7
  -1   3   3 2288.52 463.346   7
  -1   3   3 1869.88 401.925   9
  -1   3   2 9423.68 715.539   7
   1  -3  -2 10065.7 621.102  10
   1  -3  -2 9853.75 443.215   4
  -1   3   1 86904.0 1707.52   2
   1  -3  -1 90287.2 1483.72   4
  -1   3   1 89805.1 1893.98   7
   1  -3  -1 90653.8 1712.12  10
  -1   3   0 880.659 225.454   7
  -1   3   0 579.328 152.633   2
   1  -3   0 693.588 177.857  10
   1  -3   0 713.384 170.077   4
   1  -3   1 42789.5 1185.56   4
  -1   3  -1 43784.3 1044.20   7
   1  -3   2 41108.5 1031.87  10
   1  -3   2 40712.8 1231.41   4
  -1   3  -2 42226.5 923.626   7
   1  -3   3 4592.11 352.566   8
   1  -3   3 5167.78 489.010   4
  -1   3  -3 5430.23 324.779   7
   1  -3   4 75064.6 1871.91   4
   1  -3   4 72995.7 1601.02   8
   1  -3   5 29515.5 1148.25   8
   1  -3   5 31539.7 1281.07   4
   1  -3   6 48641.9 1431.90   9
   1  -3   6 49113.7 1655.25   4
   1  -3   6 47217.0 1538.09   8
   1  -3   7 284.014 165.435   9
   1  -3   7 576.170 223.825   8
   1  -3   7 245.092 138.027   4
   1  -3   8 10548.6 844.490   8
   1  -3  10 10291.9 1056.67  26
   1  -3  11 428.412 286.248  26
   1  -3  12 4723.77 744.776  26
   1  -3  13 6125.56 646.496  16
   1  -3  13 7085.02 851.921  26
   1  -3  14 1562.58 298.839  16
   1  -3  15 378.789 128.425  16
  -1   2  13 1181.01 253.466  16
  -1   2  12 2197.21 450.490  20
  -1   2  12 2060.22 377.312  16
  -1   2  11 213.294 204.511  20
  -1   2  11-26.8021 254.932  16
  -1   2  10 809.910 351.757  20
  -1   2  10 918.611 274.314  16
  -1   2  10 778.346 306.370  19
  -1   2   9 28472.8 1430.53  16
  -1   2   9 28146.2 1476.14  19
  -1   2   8 518.636 303.729   9
  -1   2   7 28434.0 1543.67   9
  -1   2   6 40330.1 1721.80   9
   1  -2  -5 23735.9 1108.19  10
  -1   2   5 19472.7 1214.40   7
  -1   2   5 22075.3 1057.55   6
  -1   2   5 23421.6 1240.60   9
  -1   2   4 40327.4 1565.06   7
   1  -2  -4 38768.7 1284.87  10
  -1   2   4 42628.8 1511.57   9
  -1   2   3 10807.6 724.948   7
   1  -2  -3 11139.6 629.786  10
  -1   2   3 12420.8 738.897   9
  -1   2   2 17032.2 781.222   7
   1  -2  -2 16222.4 674.784  10
  -1   2   1 42106.8 1083.59   7
  -1   2   1 42969.9 1038.49   2
   1  -2  -1 42004.8 914.620   4
  -1   2   0 19701.4 662.105   7
  -1   2  -1 56921.7 1021.40   7
   1  -2   1 54887.4 1150.23   5
   1  -2   2 999999. 5192.73   5
   1  -2   3 29174.0 971.419   8
   1  -2   3 28562.8 945.697   5
   1  -2   4 6357.94 520.722   8
   1  -2   4 6106.17 509.095   5
   1  -2   5 434.978 177.560   5
   1  -2   5 354.899 150.786   8
   1  -2   6 690.858 184.145   5
   1  -2   6 699.776 223.312   4
   1  -2   6 561.840 215.540   8
   1  -2   6 343.566 167.904   9
   1  -2   7 17421.7 1054.47   8
   1  -2   7 16207.3 975.315   9
   1  -2   8 134.412 156.710   9
   1  -2   9 29154.4 1495.74   9
   1  -2  10 4755.71 744.286  26
   1  -2  11 3549.81 671.618  26
   1  -2  12 9278.86 1025.86  26
   1  -2  13 752.242 262.322  16
   1  -2  13 1108.87 455.155  26
   1  -2  14 266.721 176.481  16
   1  -2  15 301.236 120.152  16
  -1   1  13 1352.63 317.960  16
  -1   1  12-263.840 270.577  16
  -1   1  12-177.932 191.265  20
  -1   1  11 8345.38 801.946  16
  -1   1  11 8440.22 1043.51  20
  -1   1  10 6365.51 919.826  20
  -1   1  10 5829.17 686.954  16
  -1   1   9 60633.8 2301.69   9
  -1   1   9 58195.4 2700.35  20
  -1   1   9 60975.5 2118.77  16
  -1   1   8 8439.21 844.354   9
  -1   1   7 4297.13 488.728   8
  -1   1   7 5036.20 640.079   9
  -1   1   6 2272.99 401.043   6
  -1   1   6 3515.33 548.207   9
  -1   1   6 2291.90 427.240   7
  -1   1   6 2471.99 342.261   8
  -1   1   5 113.758 164.151   9
  -1   1   5-22.8895 98.6805   6
  -1   1   5 26.4806 87.9200   8
  -1   1   5 51.0890 133.149   7
  -1   1   4 38664.5 1319.51   9
  -1   1   4 37761.6 985.707   8
   1  -1  -4 40348.4 1126.27   2
  -1   1   4 37004.7 1133.23   1
   1  -1  -4 36972.2 1072.53  10
  -1   1   4 38304.6 1337.33   7
   1  -1  -3 33733.9 918.439   2
  -1   1   3 33408.3 1082.26   9
  -1   1   3 33071.8 1046.98   7
   1  -1  -3 33309.9 892.838  10
   1  -1  -2 91310.5 1306.79  10
  -1   1   2 91748.1 1482.89   7
  -1   1   1 91430.7 1309.46   7
   1  -1  -1 94365.6 1128.04   5
  -1   1   1 92455.2 1240.57   2
   1  -1   0 230759. 1991.70   5
   1  -1   1 16821.8 671.933   5
   1  -1   2 709264. 4219.44   5
   1  -1   3 322.130 146.391   5
   1  -1   4 49198.9 1525.94   8
   1  -1   4 50225.1 1377.04   5
   1  -1   5 303.723 145.199   5
   1  -1   5 277.171 187.004   8
   1  -1   5 281.582 151.247   9
   1  -1   6 8510.93 625.108   5
   1  -1   6 6725.05 613.486   9
   1  -1   7 5901.33 632.829   9
   1  -1   8 4526.74 596.482   9
   1  -1   9-224.615 170.467   9
   1  -1  10 625.259 248.158   9
   1  -1  10 139.045 192.937  26
   1  -1  10 907.525 303.078  17
   1  -1  11 5425.44 836.370  26
   1  -1  12 928.088 495.701  26
   1  -1  13 853.587 269.111  16
   1  -1  14 1208.51 244.392  16
  -1   0  14 2025.81 331.231  16
  -1   0  13 3621.42 489.928  16
  -1   0  12 4061.77 573.051  16
  -1   0  11 3018.37 519.686  16
  -1   0  11 3692.20 695.755  20
  -1   0  10 10237.0 1061.77  26
  -1   0  10 10792.2 938.365  16
  -1   0  10 10611.6 1157.69  20
  -1   0   9 6425.90 677.748   8
  -1   0   9 5369.68 695.778   9
  -1   0   8 19417.1 1103.51   8
  -1   0   8 17729.7 1179.96   9
  -1   0   7 13391.2 996.441   6
  -1   0   7 13866.3 858.237   8
  -1   0   7 14385.9 995.318   9
  -1   0   6 54950.9 1886.62   6
  -1   0   6 54118.4 1504.87   8
  -1   0   6 55797.4 1796.92   7
  -1   0   6 50676.1 1725.03   9
  -1   0   5 780.191 210.036   9
  -1   0   5 513.768 196.182   6
  -1   0   5 877.288 183.891   8
   1   0  -5 918.249 177.139   2
  -1   0   5 554.432 187.657   7
   1   0  -4 6668.25 397.806   2
  -1   0   4 6162.12 412.094   1
  -1   0   4 6213.94 398.279   8
  -1   0   4 6729.17 511.811   6
  -1   0   4 5779.89 456.297   9
  -1   0   4 7011.30 492.056   7
  -1   0   3 1506.13 201.806   7
  -1   0   3 1385.13 163.953   1
   1   0  -3 1573.66 169.435   2
  -1   0   3 1595.35 214.041   9
  -1   0   2 421.760 105.073   7
   1   0  -1 246.819 69.4569   3
   1   0  -1 270.435 67.7116   5
   1   0   0 56504.9 892.602   3
   1   0   1 9285.09 403.767   3
   1   0   2 98194.3 1420.10   3
   1   0   3 20866.0 702.012   3
  -1   0  -3 18833.5 751.813   1
   1   0   4 1716.60 262.337   9
   1   0   5 4657.50 447.919   5
   1   0   5 3883.59 442.305   9
   1   0   6 4983.24 565.793   9
   1   0   6 4908.33 490.974   5
   1   0   7 58156.7 2016.01   9
   1   0   8 238.120 204.767   9
   1   0   9 7823.81 840.002   9
   1   0  10 3173.89 544.761   9
   1   0  10 3884.46 684.306  26
   1   0  10 2669.01 523.395  17
   1   0  11 1047.86 344.847  17
   1   0  12 1139.27 318.855  16
   1   0  13-54.2894 124.144  16
   1   0  14 17.1707 100.460  16
  -1  -1  14 1285.41 303.382  16
  -1  -1  13 119.161 294.029  16
  -1  -1  12 7983.05 811.513  16
  -1  -1  11 17684.8 1382.00  26
  -1  -1  11 20110.0 1592.66  20
  -1  -1  11 19842.4 1296.48  16
  -1  -1  10 10043.7 918.929  16
  -1  -1  10 10799.1 907.856   8
  -1  -1  10 9363.20 969.028  26
  -1  -1  10 11552.4 1180.84  20
  -1  -1   9 8342.84 767.986   8
  -1  -1   8 2132.37 392.345   9
  -1  -1   8 2223.43 377.546   8
  -1  -1   7 5723.20 603.489   9
  -1  -1   7 6262.84 579.139   8
  -1  -1   6 700.494 208.384   9
  -1  -1   6 837.339 274.607   6
  -1  -1   6 688.056 183.270   8
  -1  -1   5 44725.8 1511.47   6
  -1  -1   5 45870.2 1231.56   8
  -1  -1   5 44743.1 1302.02   7
  -1  -1   5 46000.0 1267.31   9
  -1  -1   4 63872.5 1277.96   8
  -1  -1   4 63864.5 1229.66   7
  -1  -1   4 62769.3 1240.46   9
  -1  -1   4 66435.9 1573.45   6
  -1  -1   3 55557.9 1031.49   8
  -1  -1   3 57125.5 951.157   7
   1   1  -3 56010.7 716.203   3
   1   1  -3 55139.9 708.112   2
   1   1  -2 11772.7 381.763   3
   1   1  -1 264554. 1915.16   3
   1   1   0 262984. 2077.00   3
  -1  -1   0 263863. 1708.12   1
  -1  -1  -1 730.710 148.817   1
   1   1   1 1444.77 234.030   3
   1   1   2 136168. 1726.35   3
  -1  -1  -2 133708. 1837.90   1
   1   1   3 41323.1 1033.90   3
   1   1   3 43910.0 1176.65   9
  -1  -1  -3 45075.0 1202.53   1
   1   1   4 46269.8 1157.46   3
   1   1   4 44355.2 1356.31   9
   1   1   5 9740.04 572.305   3
   1   1   5 9828.80 725.112   9
   1   1   6 128166. 2873.68   9
   1   1   7 4193.56 576.841   9
   1   1   8 274.546 254.001   9
   1   1   9 1767.26 425.419   9
   1   1   9 2209.32 549.853  26
   1   1   9 1788.21 451.080  17
   1   1  10 143.646 121.399   9
   1   1  10 695.315 261.337  17
   1   1  11 3062.71 585.852  17
   1   1  11 3349.87 534.821  19
   1   1  12 1282.05 311.344  16
   1   1  12 1450.45 293.768  19
   1   1  13 4382.32 462.706  16
  -1  -2  15 1734.52 275.815  16
  -1  -2  14 6733.68 616.197  16
  -1  -2  12 2410.42 478.904  16
  -1  -2  12 1943.06 463.170  26
  -1  -2  11 524.125 281.931  16
  -1  -2  11 252.305 171.116   8
  -1  -2  11 254.368 201.047  20
  -1  -2  11 156.619 216.553  26
  -1  -2  10 1233.35 343.123  16
  -1  -2  10 1059.21 368.568  20
  -1  -2  10 942.844 281.909  23
  -1  -2  10 397.979 236.676  26
  -1  -2  10 687.508 264.945   8
  -1  -2   9 242.253 198.526   8
  -1  -2   8 9293.20 744.802   8
  -1  -2   7 201.502 162.916   8
  -1  -2   6 1503.68 259.924   8
  -1  -2   5 41489.2 1470.58   6
  -1  -2   5 39728.5 1164.50   8
  -1  -2   4 150740. 2446.23   6
   1   2  -4 146947. 1390.11   3
  -1  -2   4 147792. 1525.96   7
  -1  -2   4 150434. 1992.64   8
   1   2  -3 3447.65 243.693   3
  -1  -2   3 3295.24 271.809   8
  -1  -2   3 2756.11 186.684   7
  -1  -2   3 3359.97 368.065   6
   1   2  -2 53843.7 1067.07   3
  -1  -2   2 56269.2 1366.04   6
   1   2  -1 51940.9 1021.27   3
  -1  -2   1 52265.3 692.245   2
   1   2  -1 52677.3 698.874   1
  -1  -2   1 53871.8 988.811   6
   1   2   0 335389. 2401.09   1
  -1  -2   0 338330. 1967.36   6
   1   2   1 335540. 2726.01   9
   1   2   1 330380. 2864.77   3
   1   2   2 16513.9 718.632   9
   1   2   2 16144.0 666.021   3
   1   2   3 3834.95 408.203   9
   1   2   3 4117.19 365.504   3
   1   2   4 111645. 1957.14   3
   1   2   4 108369. 2315.00   9
   1   2   5 19677.7 1092.30   9
   1   2   6 216.907 171.723   9
   1   2   7 277.774 231.533   9
   1   2   8 13301.3 1098.43   9
   1   2   9 14711.0 1260.34  17
   1   2   9 17756.2 1303.26   9
   1   2  10 2361.56 465.775  19
   1   2  11 138.282 149.793  16
   1   2  11 90.5612 156.588  19
   1   2  12-20.5290 106.411  16
   1   2  12 129.215 111.736  19
   1   2  13 311.232 126.390  16
  -1  -3  15 2138.18 292.652  16
  -1  -3  14 2860.45 422.199  16
  -1  -3  13 161.226 145.076  23
  -1  -3  13 190.239 227.986  26
  -1  -3  12-80.2223 136.416  23
  -1  -3  12-313.232 282.709  26
  -1  -3  11 3501.15 539.945  16
  -1  -3  11 3492.78 612.210  26
  -1  -3  11 3717.37 557.751   8
  -1  -3  11 3686.53 553.918  23
  -1  -3  10 1340.81 356.883  16
  -1  -3  10 1586.30 364.488  23
  -1  -3  10 1151.82 308.905   8
  -1  -3   9 14172.6 982.623   8
  -1  -3   8 1122.96 289.505   8
  -1  -3   7 76532.0 1979.10   8
  -1  -3   6 899.823 243.038   8
  -1  -3   5 44401.8 1268.92   8
  -1  -3   4 76.3202 130.950   8
   1   3  -4 93.0897 128.456   3
   1   3  -3 28270.0 863.833   3
   1   3  -2 35335.2 1008.18   3
   1   3  -1 53517.0 1248.54   3
   1   3  -1 52623.5 972.606   1
   1   3   0 20890.1 805.083   3
   1   3   0 21558.4 733.535   1
  -1  -3  -1 157268. 2065.99   2
   1   3   1 153174. 2133.34   9
   1   3   1 156670. 2241.66   3
   1   3   1 153308. 2264.67   1
   1   3   2 46748.3 1310.95   3
   1   3   2 46525.3 1343.82   9
   1   3   3 13287.0 749.026   3
   1   3   3 10527.1 792.500   9
   1   3   4 102336. 2406.13   9
   1   3   4 98079.2 2050.71   3
   1   3   5 6793.88 709.164   9
   1   3   6 6298.99 731.911   9
   1   3   7 75.9506 128.134   9
   1   3   8 3955.10 662.542  17
   1   3   8 4188.91 647.004   9
   1   3   9 1145.04 360.365  19
   1   3  10-18.5412 154.871  19
   1   3  11 1111.36 296.821  19
   1   3  12 1441.73 277.602  19
  -1  -4  14 1376.76 314.254  16
  -1  -4  14 1769.96 396.798  26
  -1  -4  13-419.529 285.175  16
  -1  -4  13-28.7749 125.174  23
  -1  -4  13-115.498 209.898  26
  -1  -4  12 11663.8 1124.47  26
  -1  -4  12 12805.6 1033.60  23
  -1  -4  12 12536.8 940.376  16
  -1  -4  11 1284.76 341.964  16
  -1  -4  11 1596.04 390.904  23
  -1  -4  11 1749.66 447.575  26
  -1  -4  11 1424.46 356.530   8
  -1  -4  10 545.058 235.963  23
  -1  -4  10 154.492 181.401  26
  -1  -4  10 853.355 268.926   8
  -1  -4  10 446.438 265.667  20
  -1  -4   9-393.451 190.153   8
  -1  -4   8 259.360 164.624   8
  -1  -4   7 18536.1 1016.93   8
  -1  -4   6 54382.2 1598.23   8
  -1  -4   5 9824.45 660.948   8
   1   4  -5 8803.95 594.963   3
   1   4  -4 10196.8 661.966   3
  -1  -4   4 10710.1 657.295   8
   1   4  -3 9897.99 656.016   3
   1   4  -2 16316.1 832.194   3
   1   4  -1 79868.7 1759.94   3
  -1  -4   0 659.943 145.600   2
   1   4   0 657.384 228.690   3
   1   4   0 612.790 166.017   1
   1   4   1 3780.36 482.002   3
   1   4   1 2063.08 282.206   9
   1   4   2 21725.6 1003.65   3
   1   4   2 21237.6 978.046   9
   1   4   3 15873.9 891.475   3
   1   4   3 14390.3 903.251   9
   1   4   4 5351.44 614.030   9
   1   4   4 5348.72 542.063   3
   1   4   5 1932.81 399.565   9
   1   4   6 207.508 198.538   9
   1   4   7 3589.35 589.399   9
   1   4   8 7012.56 825.609   9
   1   4   8 7518.95 808.377  19
  -1  -4  -8 7344.15 874.980  10
   1   4   9 248.794 212.812  19
   1   4  10 2672.89 451.559  19
   1   4  11 1842.47 340.194  19
   1   4  12 58.6190 77.8161  19
  -1  -5  14 2241.13 412.608  26
  -1  -5  13 332.180 225.077  23
  -1  -5  13-90.0441 233.759  26
  -1  -5  12 1749.62 403.463  23
  -1  -5  12 1648.30 450.941  26
  -1  -5  11 9550.04 940.818  23
  -1  -5  11 9145.68 869.033   8
  -1  -5  11 8547.99 954.774  26
  -1  -5  10-306.231 216.926  26
  -1  -5  10 356.432 207.045  23
  -1  -5  10 241.512 256.154  20
  -1  -5  10 226.375 174.640   8
  -1  -5   9 2186.37 422.122   8
  -1  -5   8 1907.71 377.351   8
  -1  -5   7 7516.87 692.791   8
  -1  -5   6 138.827 147.898   8
  -1  -5   5 612.227 195.829   8
   1   5  -5 345.952 146.991   3
  -1  -5   4 85.8205 137.192   8
   1   5  -4 14.5470 165.941   3
   1   5  -3 111862. 2448.82   3
   1   5  -2 1624.71 384.353   3
  -1  -5   2 737.641 184.332  10
   1   5  -1 1112.04 281.653   3
   1   5   0 2419.68 374.757   3
   1   5   1 18599.9 1028.59   3
   1   5   2 3008.06 449.545   3
   1   5   3 394.841 195.984   9
   1   5   3 1.18641 96.5660   3
   1   5   4 22016.8 1290.93   9
   1   5   5 438.016 258.031   9
  -1  -5  -6 7600.35 859.589  10
   1   5   6 8458.51 831.121  19
  -1  -5  -6 6000.33 687.226  18
   1   5   6 7754.28 846.011   9
   1   5   7 975.520 326.727   9
   1   5   7 1362.82 366.420  19
  -1  -5  -7 1036.15 330.098  10
  -1  -5  -7 907.045 275.605  18
   1   5   8 2385.34 470.439  19
   1   5   9 733.614 275.342  19
   1   5  10 150.405 144.437  19
   1   5  11 2149.63 320.188  19
  -1  -6  14 3856.76 485.210  26
  -1  -6  14 5170.41 567.214  23
  -1  -6  13 2103.81 416.712  26
  -1  -6  13 2567.76 467.454  23
  -1  -6  12 283.948 208.746  26
  -1  -6  12 222.491 196.832  23
  -1  -6  11 901.278 339.696  26
  -1  -6  11 1007.14 352.725  23
  -1  -6  10 422.723 223.436  26
  -1  -6  10 688.614 270.900  23
  -1  -6  10 710.774 281.599   8
  -1  -6  10 340.452 257.575  20
  -1  -6   9 7882.21 796.921   8
  -1  -6   9 8293.51 860.390  23
  -1  -6   9 6709.85 812.932  26
  -1  -6   9 7867.95 972.814  20
  -1  -6   8-118.205 169.106   8
  -1  -6   7 754.406 285.224   8
  -1  -6   6 9346.22 757.052   8
   1   6  -5 7881.29 805.369   3
  -1  -6   5 8777.55 693.337   8
  -1  -6   4 10425.1 723.830   8
   1   6  -4 8521.17 816.075   3
   1   6  -3 2627.95 471.144   3
   1   6  -2 23441.2 1220.51   3
  -1  -6   2 19115.1 921.985  10
  -1  -6   1 7740.93 638.019  10
   1   6  -1 9633.74 787.219   3
   1   6   0 2742.14 458.135   3
  -1  -6   0 1541.57 316.766  10
   1   6   1 2575.01 420.634   3
   1   6   2 27149.9 1349.14   3
   1   6   3 17739.2 1115.75   3
  -1  -6  -4 810.340 291.412  10
  -1  -6  -5 1592.45 382.839  10
   1   6   5 1764.04 395.676  19
  -1  -6  -5 1731.61 378.747  18
   1   6   6 6329.97 736.241  19
  -1  -6  -6 5625.99 669.565  18
   1   6   7 68.8647 164.175  19
  -1  -6  -7-138.226 124.779  18
   1   6   8 3696.38 526.035  19
   1   6   9 1894.14 357.098  19
   1   6  10-4.71148 94.4237  19
  -1  -7  14-427.337 182.046  26
  -1  -7  14-115.596 103.064  23
  -1  -7  13-243.395 169.214  26
  -1  -7  13-5.16570 144.264  23
  -1  -7  12-215.416 182.403  26
  -1  -7  12 54.3588 151.855  23
  -1  -7  11 138.151 148.274  23
  -1  -7  11-416.153 249.864  26
  -1  -7  10 4191.07 632.866  23
  -1  -7  10 3385.22 606.110  26
  -1  -7   9 27853.5 1493.27   8
  -1  -7   9 24838.0 1556.86  26
  -1  -7   9 27202.4 1524.44  23
  -1  -7   8 29939.8 1514.43  23
  -1  -7   8 32465.7 1570.61   8
  -1  -7   8 30560.9 1620.00  26
  -1  -7   7 3747.28 514.229   8
  -1  -7   6 2219.91 395.974   8
   1   7  -5 4300.54 695.012   3
  -1  -7   5 4137.12 517.553   8
  -1  -7   4 8593.15 693.130   8
   1   7  -4 7792.50 901.131   3
   1   7  -3 983.400 326.310   3
   1   7  -2 1379.75 364.256   3
   1   7  -1 37768.1 1640.31   3
  -1  -7   1 28172.4 1306.07  10
   1   7   0 11278.1 909.382   3
  -1  -7   0 10081.8 832.689  10
   1   7   1 14093.9 1022.47   3
  -1  -7  -1 13397.8 1021.91  10
   1   7   2 22901.0 1308.62   3
  -1  -7  -2 22460.8 1388.41  10
  -1  -7  -3 766.508 270.111  10
  -1  -7  -3 985.587 286.445  18
  -1  -7  -4 731.702 266.939  10
  -1  -7  -4 621.807 235.004  18
   1   7   5 4515.58 622.138  19
  -1  -7  -5 4079.58 576.226  18
   1   7   6 7985.66 804.010  19
  -1  -7  -6 7312.80 720.823  18
   1   7   7 1426.58 334.628  19
  -1  -7  -7 1317.13 290.779  18
   1   7   8 2918.54 419.775  19
   1   7   9 119.830 107.172  19
  -1  -8  13 70.3451 141.911  23
  -1  -8  13-34.6180 107.757  26
  -1  -8  12 2121.21 429.898  23
  -1  -8  12 1601.53 372.907  26
  -1  -8  11 381.756 231.533  26
  -1  -8  11 286.502 219.767  23
  -1  -8  10 2581.10 508.477  26
  -1  -8  10 2813.66 493.483  23
  -1  -8   9 5362.45 741.296  26
  -1  -8   9 5212.74 654.428  23
  -1  -8   8 3272.41 560.289  26
  -1  -8   8 2431.39 459.960  11
  -1  -8   8 2963.87 474.310   8
  -1  -8   8 2975.79 467.624  23
  -1  -8   7 3240.86 492.249   8
  -1  -8   7 2769.23 474.427  11
  -1  -8   6 9313.84 859.144  11
  -1  -8   6 11655.5 880.361   8
  -1  -8   5 1298.41 297.758   8
   1   8  -5 1674.39 468.327   3
   1   8  -4 17293.3 1338.09   3
   1   8  -3 522.569 238.042   3
   1   8  -2 492.400 256.794   3
   1   8  -1 1296.97 336.296   3
  -1  -8   1 384.521 169.299  10
  -1  -8   0 2229.93 416.864  18
   1   8   0 2330.29 416.833   3
  -1  -8   0 2082.76 403.368  10
  -1  -8  -1 23713.7 1338.07  18
  -1  -8  -1 21690.3 1321.41  10
  -1  -8  -2 224.040 151.579  10
  -1  -8  -2-42.0670 118.188  18
  -1  -8  -3 3934.26 565.490  18
  -1  -8  -4 402.753 207.366  18
  -1  -8  -5 1285.40 315.373  18
   1   8   6 279.772 163.625  19
  -1  -8  -6 51.4895 68.9994  18
   1   8   7 838.799 207.506  19
  -1  -8  -7 565.457 162.113  18
   1   8   8 684.477 155.659  19
  -1  -9  13 239.715 133.174  23
  -1  -9  13 14.2731 131.702  26
  -1  -9  12 599.052 223.131  26
  -1  -9  12 722.645 229.200  23
  -1  -9  11 231.899 120.935  26
  -1  -9  11 180.135 170.189  23
  -1  -9  10 23624.3 1278.07  23
  -1  -9  10 27151.6 1591.97  26
  -1  -9   9-183.374 148.386  23
  -1  -9   9-326.546 177.995  11
  -1  -9   8 2177.25 475.668  26
  -1  -9   8 973.720 313.176  11
  -1  -9   7 1175.28 326.394  11
  -1  -9   6 379.317 221.854  11
  -1  -9   5 233.250 213.030  11
  -1  -9   4 530.503 261.568  11
  -1  -9   3 5599.73 700.894  11
  -1  -9   3 5530.54 623.023  18
  -1  -9   2 3793.96 579.856  11
  -1  -9   2 2897.38 433.012  25
  -1  -9   2 2989.58 469.867  18
  -1  -9   1 19345.8 1234.44  11
  -1  -9   1 16754.5 1128.24  18
  -1  -9   0 142.478 123.219  10
  -1  -9   0 344.547 214.735  18
  -1  -9  -1 2054.32 428.998  18
  -1  -9  -2 4198.75 577.518  18
  -1  -9  -3 95.6572 124.021  18
  -1  -9  -4 3202.30 464.356  18
  -1  -9  -5 1355.50 277.973  18
  -1  -9  -6 2382.01 305.064  18
  -1 -10  12 3183.82 417.560  26
  -1 -10  12 2949.68 336.687  23
  -1 -10  11 3355.03 482.707  26
  -1 -10  10 2910.00 490.608  26
  -1 -10   9 90.4344 150.911  11
  -1 -10   9 44.8293 138.046  26
  -1 -10   8 136.677 141.577  11
  -1 -10   8 79.4201 145.922  26
  -1 -10   7-2.21116 179.013  11
  -1 -10   6 679.178 267.539  11
  -1 -10   5 1386.86 366.713  11
  -1 -10   4 1896.59 427.932  11
  -1 -10   3-38.2091 135.106  11
  -1 -10   3 135.245 139.172  18
  -1 -10   2 2224.74 416.293  11
  -1 -10   2 2218.75 421.497  18
  -1 -10   1 5300.73 641.093  18
  -1 -10   1 5007.60 622.996  11
  -1 -10   0 330.550 201.485  18
  -1 -10  -1-62.1216 139.607  18
  -1 -10  -2 2310.51 399.256  18
  -1 -10  -3 4629.35 521.579  18
  -1 -10  -4 928.134 223.116  18
  -1 -10  -5 684.862 150.605  18
  -1 -11  11 746.294 212.453  26
  -1 -11  10 197.491 151.541  26
  -1 -11   9 512.521 218.015  26
  -1 -11   9 164.501 123.253  11
  -1 -11   8 926.888 301.046  26
  -1 -11   8 657.041 232.628  11
  -1 -11   7 555.337 221.887  11
  -1 -11   6 2964.01 478.284  11
  -1 -11   5 154.286 173.341  11
  -1 -11   4 443.828 180.014  18
  -1 -11   4 482.489 241.990  11
  -1 -11   3 2203.08 401.435  11
  -1 -11   3 2647.15 417.322  18
  -1 -11   2 1463.80 324.101  18
  -1 -11   2 1231.70 279.842  11
  -1 -11   1 823.409 247.734  18
  -1 -11   0 1073.09 267.355  18
  -1 -11  -1 94.5628 114.916  18
  -1 -11  -2 750.374 195.179  18
  -1 -11  -3 123.794 88.8916  18
  -1 -12   9 380.251 170.803  26
  -1 -12   8 175.528 139.978  26
  -1 -12   7 1155.82 302.831  26
  -1 -12   7 663.241 211.165  11
  -1 -12   6 3396.86 450.687  11
  -1 -12   5 292.951 164.002  11
  -1 -12   4 1894.94 333.524  11
  -1 -12   3 604.006 183.156  18
  -1 -12   3 514.095 177.113  11
  -1 -12   2 81.9475 90.1095  18
  -1 -12   1 223.864 123.053  18
  -1 -12   0 285.892 128.561  18
  -1 -12  -1 5397.45 416.120  18
  -1 -13   5 421.046 134.081  13
   2 -12   2 757.392 172.015  13
  -2  12  -3 10233.7 650.873  21
   2 -12   3 11662.0 709.343  13
   2 -12   4 1090.87 240.917  13
   2 -12   5 217.288 139.358  13
   2 -12   6 809.848 211.361  13
   2 -12   7 409.041 141.111  13
  -2  12  -8 468.112 151.132  21
   2 -11  -2 999.977 186.368  14
   2 -11  -1 400.528 130.583  14
   2 -11   0 4331.28 436.506  14
   2 -11   1 530.397 187.911  13
   2 -11   2 1257.73 284.786  13
   2 -11   3 898.940 264.115  13
   2 -11   4 114.082 141.296  13
   2 -11   5 2461.17 438.880  13
   2 -11   6 2000.98 389.943  13
   2 -11   6 1791.48 356.546  26
   2 -11   7 706.654 227.026  13
   2 -11   7 757.822 238.456  26
   2 -11   8 925.197 230.515  26
   2 -11   8 1161.54 263.681  13
   2 -11   9 1169.90 250.531  26
  -2  11  -9 1151.69 259.768  21
   2 -10  -4 796.465 191.226  14
   2 -10  -3-75.2222 111.197  14
   2 -10  -2 2719.33 408.055  14
   2 -10  -1 677.975 221.263  14
   2 -10  -1 754.566 229.143  18
   2 -10   0 246.756 158.077  14
   2 -10   0-69.0667 87.1503  18
   2 -10   1 1623.72 358.582  13
   2 -10   1 1311.34 298.266  14
   2 -10   1 885.646 250.416  18
   2 -10   2 1134.43 316.316  13
   2 -10   2 812.491 241.667  14
   2 -10   2 874.531 264.653  18
   2 -10   3 10926.4 984.804  13
   2 -10   4 2274.94 464.902  13
   2 -10   5 1433.16 389.915  13
   2 -10   6-15.9126 155.148  13
   2 -10   7 2452.70 465.461  26
   2 -10   7 3075.21 522.809  13
   2 -10   8 3426.70 516.432  13
   2 -10   8 2778.57 504.481  26
   2 -10   9 1978.62 419.561  26
   2 -10  10-154.995 135.764  26
  -2  10 -10-124.013 115.096  21
   2 -10  11 170.317 122.497  26
   2  -9  -6 74.4708 77.3464  14
   2  -9  -5 644.886 209.768  14
   2  -9  -4 94.2273 121.598  14
   2  -9  -3 540.772 225.302  14
   2  -9  -2 14328.5 1043.93  14
   2  -9  -1 983.154 278.272  14
   2  -9  -1 1312.62 304.403  18
   2  -9   0 10671.6 895.658  14
   2  -9   0 10366.4 880.606  18
   2  -9   1 355.417 192.666  14
   2  -9   1 422.464 213.941  13
   2  -9   1 480.222 216.985  18
   2  -9   2 282.832 168.511  14
   2  -9   2 203.992 205.044  13
   2  -9   2 472.527 214.327  18
   2  -9   3 568.470 221.379  14
   2  -9   3 598.458 277.729  13
   2  -9   3 520.631 220.846  18
   2  -9   4 1748.88 430.777  13
   2  -9   5 1530.39 386.398  13
   2  -9   6 1894.80 447.165  13
   2  -9   7 5234.90 722.771  13
   2  -9   7 5826.46 753.475  26
   2  -9   8 5046.05 693.120  13
   2  -9   8 5113.60 718.037  26
   2  -9   9 298.432 234.040  26
   2  -9   9 430.711 202.615  13
   2  -9  10 613.960 251.137  26
   2  -9  11-47.0931 115.876  26
   2  -9  12 1074.03 256.301  26
   2  -8  -7 2670.02 368.477  14
   2  -8  -6 2133.22 396.556  14
   2  -8  -5 1803.94 390.769  14
   2  -8  -4 1460.31 356.604  14
   2  -8  -3 3821.38 583.514  14
   2  -8  -2 4565.38 614.145  14
   2  -8  -1 460.805 239.877  10
   2  -8  -1 627.489 273.197  18
   2  -8  -1 685.581 256.872  14
   2  -8   0 15984.1 1129.53  14
   2  -8   0 17103.6 1189.08  10
   2  -8   0 15491.9 1085.12  18
   2  -8   1 5093.27 632.704  14
   2  -8   1 6399.47 779.069  13
   2  -8   1 4861.07 616.517  18
   2  -8   2 56123.5 2076.57  14
   2  -8   2 52197.4 2201.46  13
   2  -8   2 56104.4 2072.75  18
   2  -8   3 15081.8 1076.61  14
   2  -8   3 12788.8 1100.94  13
   2  -8   3 12672.2 991.350  18
   2  -8   4 6562.60 801.701  13
   2  -8   5 7138.51 834.853  13
   2  -8   6 261.579 181.265  13
   2  -8   7 661.177 268.472  26
   2  -8   7 640.884 261.321  13
   2  -8   8 272.174 181.066  13
   2  -8   8-120.175 149.407  26
   2  -8   9 424.632 272.523  26
   2  -8   9 240.203 173.567  13
   2  -8  10 4759.65 708.178  26
   2  -8  11 2738.59 495.919  26
   2  -8  12 1318.92 328.822  26
   2  -8  13-214.457 137.753  26
  -2   7   9 5207.49 547.138  20
   2  -7  -8 3756.01 454.283  14
  -2   7   8 4324.11 623.589  20
   2  -7  -7 3286.46 490.950  14
   2  -7  -6 2028.23 421.788  14
  -2   7   6 2278.74 450.801  19
  -2   7   5 4686.23 643.596  19
  -2   7   4 10172.3 943.433  19
   2  -7  -3-96.5158 134.287  14
   2  -7  -3 177.525 155.381  10
   2  -7  -2 9759.83 936.930  10
   2  -7  -2 9246.60 874.267  14
   2  -7  -1 1715.41 371.037  14
   2  -7  -1 1652.30 371.752  10
   2  -7  -1 1621.57 347.197  18
  -2   7   1 1817.16 463.260   7
   2  -7   0 23515.9 1387.11  10
   2  -7   1 2788.59 474.062  10
   2  -7   2 21962.0 1291.55   4
   2  -7   3 498.874 215.031   4
   2  -7   4 7732.59 818.591   4
   2  -7   5 1736.89 406.652   4
   2  -7   6 768.545 287.133  13
   2  -7   7 13546.8 1106.48  13
   2  -7   7 14745.2 1178.40  26
   2  -7   8 84.9186 135.422  26
   2  -7   8 396.736 234.315  13
   2  -7   9 812.931 312.479  26
   2  -7  10 359.388 233.062  26
   2  -7  11 193.647 173.076  26
   2  -7  12-73.7097 131.637  26
   2  -7  13 148.271 102.501  26
  -2   6  10 8538.76 693.633  20
   2  -6  -9 236.087 151.196  14
  -2   6   9 13.1187 147.962  20
   2  -6  -8-13.8450 113.943  14
  -2   6   8 28.5983 167.230  19
  -2   6   7 6526.48 745.636  19
  -2   6   6 902.462 313.603  19
  -2   6   5 1043.34 326.695  19
   2  -6  -5 1018.57 301.918  10
  -2   6   4 16362.9 1188.13  19
   2  -6  -4 16978.4 1240.60  10
  -2   6   3 4051.86 580.720  19
   2  -6  -3 3944.91 580.925  10
  -2   6   3 3136.56 614.892   7
   2  -6  -2 2150.15 436.052  10
  -2   6   2 1486.60 443.832   7
   2  -6  -1 3737.46 534.276  10
  -2   6   1 2547.97 522.407   7
   2  -6   0 23730.1 1322.11  10
  -2   6   0 22674.8 1472.89   7
   2  -6   1 22887.6 1269.08  10
   2  -6   1 21550.7 1189.69   4
  -2   6  -1 22018.7 1368.28   7
   2  -6   2 3422.87 506.953   4
   2  -6   3 3694.43 542.032   4
   2  -6   4 183.131 174.935   4
   2  -6   5 21324.2 1368.55   4
   2  -6   6 12046.0 1055.78   4
   2  -6   7 2647.86 521.564   4
   2  -6   8 551.242 250.598  26
   2  -6   8 286.289 187.284  13
   2  -6   9 4150.40 671.499  26
   2  -6  10-49.2696 152.321  26
   2  -6  11 870.149 321.834  26
   2  -6  12 1027.52 321.452  26
   2  -6  13 1068.08 292.318  26
   2  -6  14 506.905 171.517  26
  -2   5  11 606.777 196.019  20
  -2   5  10 5538.75 691.962  20
  -2   5   9 3519.41 662.167  20
  -2   5   9 3347.93 486.774  19
  -2   5   8 1623.97 401.623  19
  -2   5   7 362.668 214.186  19
  -2   5   6 243.729 161.069  19
  -2   5   5 23110.7 1454.32  19
   2  -5  -5 27586.6 1581.64  10
   2  -5  -4 2861.03 506.106  10
  -2   5   4 2186.50 510.594   7
   2  -5  -3 1061.03 314.537  10
  -2   5   3 1687.47 457.698   7
   2  -5  -2 36366.9 1624.64  10
  -2   5   2 35243.8 1850.36   7
   2  -5  -1 3022.19 466.923  10
  -2   5   1 3055.95 529.499   7
   2  -5   0 26913.2 1296.57  10
   2  -5   0 28366.9 1249.14   4
  -2   5   0 28427.0 1437.25   7
   2  -5   1 593.516 195.919   4
   2  -5   1 629.805 218.652  10
  -2   5  -1 656.497 222.720   7
  -2   5  -2 5261.95 546.194   7
   2  -5   2 5082.24 581.649   4
   2  -5   3 347.817 171.040   4
   2  -5   4 28353.6 1471.31   4
   2  -5   5 57326.3 2172.64   4
   2  -5   6 15386.2 1180.27   4
   2  -5   7 1556.70 401.250   4
   2  -5   8 2374.80 486.720   4
   2  -5   9 59.1727 130.251  26
   2  -5  10-189.695 179.893  26
   2  -5  11 957.621 344.950  26
   2  -5  11 331.801 176.087  17
   2  -5  12 613.582 250.137  26
   2  -5  13 431.495 173.511  16
   2  -5  13 269.232 138.454  26
  -2   4  11 1098.82 307.129  20
  -2   4  10 5730.13 596.689  19
  -2   4  10 5899.63 823.996  20
  -2   4   9 471.981 262.777  19
  -2   4   9 145.135 171.387  20
  -2   4   8 672.269 347.384  19
  -2   4   7 37.8614 172.676  19
  -2   4   6 4259.37 742.103  19
  -2   4   5 22523.3 1577.71   7
   2  -4  -4 4877.83 630.798  10
  -2   4   4 4423.70 682.874   7
   2  -4  -3 15860.1 1055.92  10
  -2   4   3 15574.5 1192.95   7
   2  -4  -2 1180.24 283.155  10
  -2   4   2 1622.73 381.441   7
   2  -4  -1 17076.9 994.062  10
  -2   4   1 17753.2 1066.99   7
   2  -4   0 753.971 239.312  10
  -2   4   0 923.642 249.538   7
   2  -4   0 647.881 197.430   4
   2  -4   1 22283.4 1105.73   4
  -2   4  -1 22482.3 1044.45   7
   2  -4   2 2001.94 371.935   4
  -2   4  -2 2113.04 329.609   7
   2  -4   3 31575.5 1450.31   4
  -2   4  -3 29028.8 1098.26   7
   2  -4   4 160895. 3422.38   4
   2  -4   5 254.529 227.687   4
   2  -4   6 1485.40 428.337   4
   2  -4   7 2371.14 391.035   9
   2  -4   7 2928.73 521.350   4
   2  -4   8 2930.85 527.405   4
   2  -4   9 1453.22 378.458  26
   2  -4  10 2858.82 559.263  26
   2  -4  11 1185.70 381.452  26
   2  -4  11 1188.62 366.285  17
   2  -4  12-171.226 268.497  26
   2  -4  12 223.164 138.721  17
   2  -4  13 2510.27 452.897  26
   2  -4  14 618.314 168.306  16
  -2   3  12 428.123 196.992  20
  -2   3  11 40.6547 171.995  20
  -2   3  10 1012.54 388.325  20
  -2   3  10 1529.65 357.633  19
  -2   3   9 775.370 344.282  20
  -2   3   9 1074.04 342.002  19
  -2   3   9 1922.40 446.959  16
  -2   3   8 703.190 306.390  16
  -2   3   8 116.796 171.313  19
  -2   3   7 132040. 3348.20  19
  -2   3   7 125810. 2908.89  16
  -2   3   6 5201.15 747.494   7
  -2   3   5 262.759 190.408   7
   2  -3  -4 4898.41 607.954  10
  -2   3   4 4735.62 667.025   7
   2  -3  -3 10180.6 785.292  10
  -2   3   3 8670.26 786.160   7
   2  -3  -2 80079.6 2035.94  10
  -2   3   2 86966.9 2251.76   7
   2  -3  -1 21173.1 917.704   4
   2  -3  -1 22634.4 1022.21  10
  -2   3   1 21598.3 1038.77   7
  -2   3   0 67672.3 1708.50   7
  -2   3  -1 14504.6 780.749   7
   2  -3   2 109543. 2242.26   5
  -2   3  -2 103010. 2015.11   7
   2  -3   3 25335.7 1159.61   5
  -2   3  -3 22739.3 956.599   7
   2  -3   4 80785.2 2170.26   5
   2  -3   5 2192.94 476.767   5
   2  -3   6 1426.58 327.335   5
   2  -3   7 11962.2 903.403   9
   2  -3   7 12087.6 943.684   5
   2  -3   7 11918.6 1043.26   4
   2  -3   8 1728.35 374.696   9
   2  -3   9 5804.82 750.857  26
   2  -3   9 6019.53 714.960   9
   2  -3  10 2030.84 474.914  26
   2  -3  10 1659.70 409.904  17
   2  -3  11 1002.38 310.889  26
   2  -3  11 1028.96 319.054  17
   2  -3  12 10450.1 1001.85  26
   2  -3  12 8388.63 834.252  17
   2  -3  14 1673.00 267.164  16
  -2   2  13 4602.95 474.361  20
  -2   2  12 3334.86 539.515  20
  -2   2  11 3749.32 676.123  20
  -2   2  10 2717.08 612.375  20
  -2   2  10 4130.95 592.450  16
  -2   2   9 1795.90 458.437  16
  -2   2   9 1419.39 502.249  20
  -2   2   8 11054.1 1222.67  20
  -2   2   8 9521.33 882.525  19
  -2   2   8 9739.34 876.003  16
  -2   2   7 2194.33 485.282   7
  -2   2   6 2969.70 552.210   7
  -2   2   6 3378.36 535.047   6
  -2   2   5 47769.1 1964.93   7
   2  -2  -4 869.490 244.624  10
  -2   2   4 631.993 231.940   7
   2  -2  -3 42724.8 1439.38  10
  -2   2   3 39943.6 1479.78   7
   2  -2  -2 17831.0 866.934  10
  -2   2   2 18043.5 918.522   7
  -2   2   1 7935.42 570.504   7
  -2   2   1 7691.47 495.246   2
  -2   2   0 22863.1 933.223   7
   2  -2   0 21631.2 873.902   5
   2  -2   1 12093.5 729.343   5
  -2   2  -1 10934.4 653.438   7
   2  -2   2 146719. 2568.71   5
   2  -2   3 3680.26 458.174   5
   2  -2   4 20382.8 1094.57   5
   2  -2   5 85.2328 146.607   5
   2  -2   6 1898.53 398.243   5
   2  -2   7 5698.11 647.471   9
   2  -2   7 5403.44 643.283   5
   2  -2   8 1588.46 392.916   9
   2  -2   9 12649.7 1121.27  26
   2  -2   9 11478.0 1038.95  17
   2  -2   9 11651.9 1030.85   9
   2  -2  10 997.219 360.411  26
   2  -2  10 820.388 283.583   9
   2  -2  10 1273.89 372.601  17
   2  -2  11 4783.48 721.687  26
   2  -2  11 4176.82 647.069  17
   2  -2  12 8585.74 929.950  26
   2  -2  12 6438.62 745.049  17
   2  -2  13-2.86318 131.312  17
   2  -2  14-44.7171 86.4722  16
  -2   1  13 2521.72 408.463  20
  -2   1  12 220.728 191.153  20
  -2   1  11 1444.81 463.006  16
  -2   1  11 377.687 292.138  20
  -2   1  10 659.318 357.522  16
  -2   1  10 586.287 334.368  20
  -2   1   9 41126.0 2337.68  20
  -2   1   9 41240.1 1841.96  16
  -2   1   8 25262.3 1795.30  20
  -2   1   7 699.596 274.934   6
  -2   1   7 417.557 209.202   7
  -2   1   6 296.025 188.316   6
  -2   1   6 239.513 188.715   7
  -2   1   5 3170.28 464.375   7
  -2   1   4 12710.1 825.608   7
  -2   1   3 81540.6 1866.34   7
   2  -1  -2 18494.7 672.546   5
  -2   1   2 20673.6 890.102   7
  -2   1   1 44469.7 1025.80   2
   2  -1  -1 44780.7 1153.26   5
  -2   1   1 44085.2 1279.26   7
   2  -1   0 73870.8 1578.46   5
   2  -1   1 17582.3 853.531   5
   2  -1   2 57.8229 146.209   5
   2  -1   3 76.2587 177.905   5
   2  -1   4 22930.8 1168.50   5
   2  -1   5 7892.44 719.956   5
   2  -1   6 14678.9 1025.82   9
   2  -1   6 12991.3 961.265   5
   2  -1   7 22660.3 1348.13   9
   2  -1   7 23225.1 1330.31   5
   2  -1   8 14648.9 1144.72   9
   2  -1   9 104.274 149.630   9
   2  -1   9 260.267 192.217  17
   2  -1  10 1226.24 388.823  26
   2  -1  10 952.305 345.051  17
   2  -1  11 1218.07 455.134  26
   2  -1  11 262.966 221.972  17
   2  -1  12 836.506 285.942  17
   2  -1  13 1155.14 271.655  16
   2  -1  13 1755.26 346.584  17
   2  -1  14 959.581 176.248  16
  -2   0  13-51.6385 133.032  20
  -2   0  12 4186.20 693.105  20
  -2   0  12 6388.94 744.440  16
  -2   0  11 379.598 322.641  16
  -2   0  11 35.3646 174.585  20
  -2   0  10 9349.17 1130.13  20
  -2   0  10 8785.11 887.361  16
  -2   0   9 573.290 288.870  16
  -2   0   9 599.732 303.814  20
  -2   0   8 6555.31 833.021   6
  -2   0   7 9262.41 952.456   6
  -2   0   6 406.495 243.200   6
  -2   0   6 207.477 152.823   7
  -2   0   5 7992.49 539.360   8
  -2   0   5 7557.36 624.707   7
  -2   0   4 2193.00 257.828   8
  -2   0   4 2578.56 333.807   7
  -2   0   3 121828. 1695.04   8
  -2   0   3 125813. 2114.30   7
   2   0  -2 165.325 73.2443   5
  -2   0   2 176.008 130.839   7
   2   0  -1 23223.3 841.650   5
   2   0   0 1937.67 276.229   5
   2   0   1 9168.45 643.860   5
   2   0   2 71259.0 1827.72   5
   2   0   3 17701.4 972.943   5
   2   0   4 13482.3 889.740   5
   2   0   5 13215.8 917.309   9
   2   0   5 12077.6 881.206   5
   2   0   6 44858.7 1817.04   9
   2   0   6 41543.1 1710.52   5
   2   0   7 8821.50 870.225   9
   2   0   7 8717.62 829.440   5
   2   0   8 2109.08 466.215   9
   2   0   9 2489.88 507.956   9
   2   0   9 2558.29 569.592  26
   2   0   9 1844.07 455.566  17
   2   0  10 6339.71 831.313  17
   2   0  11 3196.05 588.379  17
   2   0  12 125.312 159.802  19
   2   0  12 58.5613 184.562  17
   2   0  13 151.617 105.213  16
  -2  -1  14 2208.70 351.897  20
  -2  -1  13 1145.80 356.433  20
  -2  -1  12 1687.70 519.427  16
  -2  -1  12 422.231 291.354  20
  -2  -1  11 409.566 355.327  16
  -2  -1  11 45.4750 190.732  20
  -2  -1  10-110.745 218.297  16
  -2  -1  10 159.642 245.566  20
  -2  -1   9 1792.37 433.250  16
  -2  -1   9 2490.37 569.721  20
  -2  -1   8 9402.27 998.337   6
  -2  -1   8 10266.5 792.864   8
  -2  -1   7 10810.8 1026.17   6
  -2  -1   7 11588.5 787.723   8
  -2  -1   6 1286.14 347.977   6
  -2  -1   6 1425.47 270.527   8
  -2  -1   5 70527.0 1713.99   7
  -2  -1   5 69988.9 1646.36   8
  -2  -1   5 73164.5 2312.39   6
  -2  -1   4 1439.27 223.725   8
  -2  -1   4 1578.40 241.887   7
  -2  -1   3 24401.2 887.267   7
  -2  -1   3 22013.7 782.135   8
   2   1  -2 35741.2 983.725   3
   2   1  -1 32668.0 1005.89   3
   2   1   0 134608. 2115.06   3
   2   1   1 55699.7 1413.12   3
  -2  -1  -1 54222.8 1257.44   1
   2   1   2 10096.5 634.276   3
   2   1   3 4191.42 426.965   3
   2   1   4 484.179 197.475   3
   2   1   4 475.680 227.971   9
   2   1   5 5594.33 624.146   9
   2   1   5 5418.69 602.544   5
   2   1   6 19363.9 1248.88   9
   2   1   6 15828.5 1085.12   5
   2   1   7 1279.97 365.135   9
   2   1   8 1802.96 430.503   9
   2   1   8 1827.39 453.328  17
   2   1   9 5301.55 766.450  17
   2   1   9 6393.25 789.268   9
   2   1  10-30.5539 182.851  17
   2   1  11 1946.36 467.677  17
   2   1  12 39.4877 130.879  16
   2   1  12 344.547 180.065  19
   2   1  13-96.9503 87.1194  16
  -2  -2  14 965.649 256.967  20
  -2  -2  13 476.988 257.001  20
  -2  -2  12 7219.31 977.494  20
  -2  -2  12 10929.2 955.697  16
  -2  -2  11 1887.33 502.928  16
  -2  -2  11 1089.68 447.809  20
  -2  -2  10 13076.8 986.945   8
  -2  -2  10 12007.7 1269.99  20
  -2  -2  10 11880.2 1033.18  16
  -2  -2   9 75.0828 174.381  16
  -2  -2   9 231.827 150.009   8
  -2  -2   9-62.5452 216.686  20
  -2  -2   8 2651.76 417.374   8
  -2  -2   7 7925.72 868.732   6
  -2  -2   7 8181.27 675.191   8
  -2  -2   6 1526.18 411.522   6
  -2  -2   6 1546.40 288.330   8
  -2  -2   5 93037.0 1948.77   8
  -2  -2   5 91888.4 2504.54   6
  -2  -2   4 611.623 240.622   6
  -2  -2   4 341.295 131.279   8
  -2  -2   4 253.658 92.5382   7
  -2  -2   3 7992.87 623.534   6
   2   2  -3 8753.09 509.699   3
   2   2  -2 2005.13 269.406   3
   2   2  -1 47416.0 1291.71   3
   2   2   0 25070.8 987.681   3
   2   2   1 1889.21 303.658   3
   2   2   2 70611.2 1747.63   3
   2   2   3 48481.0 1589.38   9
   2   2   3 45363.9 1447.22   3
   2   2   4 6892.68 660.819   9
   2   2   4 5950.80 566.178   3
   2   2   5 155.419 148.836   9
   2   2   5 197.943 165.969   3
   2   2   6 4990.22 667.197   9
   2   2   7 3333.73 574.740   9
   2   2   8 405.319 252.652   9
   2   2   8 468.413 305.383  17
   2   2   9 37.9537 146.421  17
   2   2  10 4019.69 686.947  17
   2   2  11 362.689 174.857  19
   2   2  12 832.369 182.137  16
   2   2  12 1528.32 274.574  19
  -2  -3  14 679.618 229.515  20
  -2  -3  13 184.416 253.997  20
  -2  -3  12 5733.35 874.716  20
  -2  -3  12 7891.19 812.990  16
  -2  -3  11-94.3551 120.887  23
  -2  -3  11-110.631 209.261  20
  -2  -3  10 15763.3 1084.14   8
  -2  -3  10 14666.0 1057.54  23
  -2  -3  10 15241.8 1442.60  20
  -2  -3  10 14554.2 1068.94  16
  -2  -3   9 3423.28 520.520  23
  -2  -3   9 4500.65 571.183   8
  -2  -3   9 4352.47 746.958  20
  -2  -3   8 1121.07 271.138   8
  -2  -3   7 3258.89 441.415   8
  -2  -3   6 10619.1 923.638   6
  -2  -3   6 11822.2 785.741   8
  -2  -3   5 7616.28 744.658   6
  -2  -3   5 8050.66 607.713   8
  -2  -3   4 6319.74 627.914   6
  -2  -3   4 5955.74 502.785   8
   2   3  -3 22198.9 916.051   3
  -2  -3   3 22272.1 1053.87   6
   2   3  -2 6960.80 562.565   3
  -2  -3   2 4321.01 460.830   6
   2   3  -1 96221.4 2032.52   3
   2   3   0 6836.38 581.079   3
   2   3   1 37205.0 1242.79   9
   2   3   1 35343.8 1351.51   3
   2   3   2 41923.3 1450.71   9
   2   3   2 37835.6 1405.40   3
   2   3   3 62024.4 1927.88   9
   2   3   3 63669.0 1886.94   3
   2   3   4 2713.37 416.315   3
   2   3   4 2151.43 403.385   9
   2   3   5 3899.86 506.925   3
   2   3   5 4562.75 619.264   9
   2   3   6 6367.31 751.632   9
   2   3   7 12346.6 1196.97  17
   2   3   7 10714.5 1022.81   9
   2   3   8 2112.48 514.051  17
  -2  -3  -9 136.914 149.956  18
   2   3   9 177.833 253.234  17
   2   3  10 131.030 172.081  19
   2   3  11 2111.35 361.689  19
   2   3  12 699.370 167.253  19
  -2  -4  14 1462.42 329.052  20
  -2  -4  13-104.033 109.637  23
  -2  -4  13-279.565 226.966  20
  -2  -4  12 3963.19 544.104  23
  -2  -4  12 3768.83 692.635  20
  -2  -4  12 5814.14 660.266  16
  -2  -4  11 227.817 180.865  23
  -2  -4  11 409.521 281.142  20
  -2  -4  10 2440.44 460.568  23
  -2  -4  10 2758.07 457.918   8
  -2  -4  10 2910.95 646.409  20
  -2  -4   9 66.0317 137.707  23
  -2  -4   9 324.695 185.563   8
  -2  -4   9 324.373 231.639  20
  -2  -4   8 940.329 251.057   8
  -2  -4   7 5679.41 600.084   8
  -2  -4   6 7616.72 655.541   8
  -2  -4   5 1661.81 315.079   8
  -2  -4   4 11282.0 841.436   6
   2   4  -4 12445.7 750.355   3
  -2  -4   3 75867.8 1979.34   6
   2   4  -3 71934.9 1854.62   3
   2   4  -2 1276.01 305.598   3
   2   4  -1 6228.60 586.375   3
   2   4   0 222.023 215.115   3
   2   4   1 31626.6 1363.86   3
   2   4   2 4514.93 539.392   3
   2   4   3 14327.9 987.120   3
   2   4   3 11600.0 901.564   9
   2   4   4 52614.5 1928.09   3
   2   4   4 54087.6 2063.67   9
   2   4   5 3659.54 566.993   9
   2   4   6 636.234 272.210   9
   2   4   6 235.943 236.712  17
   2   4   7 2869.64 509.923   9
  -2  -4  -7 3328.01 544.998  18
   2   4   7 4043.38 735.229  17
  -2  -4  -8 801.764 284.079  18
   2   4   9 1884.68 408.195  19
  -2  -4  -9 1611.55 355.644  18
   2   4  10 2681.30 426.183  19
   2   4  11 1001.98 231.649  19
  -2  -5  14 515.415 150.280  23
  -2  -5  13 3902.27 498.580  23
  -2  -5  13 3645.60 604.745  20
  -2  -5  12 1200.15 321.421  23
  -2  -5  12 1408.58 438.387  20
  -2  -5  11 173.395 185.432  23
  -2  -5  11-244.901 234.582  20
  -2  -5  10-204.383 191.247  23
  -2  -5  10 147.642 131.040   8
  -2  -5  10-427.495 283.967  20
  -2  -5   9 453.598 232.145  23
  -2  -5   9 238.320 157.191   8
  -2  -5   9 422.320 266.482  20
  -2  -5   8 324.965 224.383   8
  -2  -5   7 14114.8 987.915   8
  -2  -5   6 32478.7 1418.27   8
  -2  -5   5 7102.26 662.434   8
   2   5  -4 10108.8 792.386   3
   2   5  -3 3877.93 505.470   3
   2   5  -2 1021.83 279.781   3
   2   5  -1 959.849 269.829   3
   2   5   0 11156.2 871.362   3
   2   5   1 70244.0 2212.54   3
   2   5   2 8434.35 800.532   3
   2   5   3 312.300 165.238   3
   2   5   4 17357.6 1166.52   3
  -2  -5  -5 2577.17 498.422  18
  -2  -5  -6 235.990 180.451  18
  -2  -5  -7 2028.53 415.563  18
   2   5   8 465.589 220.121  19
  -2  -5  -8 342.758 179.997  18
   2   5   9 3758.21 496.982  19
  -2  -5  -9 3619.07 455.122  18
   2   5  10 230.114 136.217  19
  -2  -6  14-67.7122 99.0620  23
  -2  -6  13 233.985 195.397  23
  -2  -6  12 994.727 290.608  23
  -2  -6  12 552.836 300.716  20
  -2  -6  11 1080.87 320.915  23
  -2  -6  11 646.940 280.466  20
  -2  -6  10 3005.09 548.788  23
  -2  -6  10 2763.29 653.756  20
  -2  -6   9 1601.58 437.418  23
  -2  -6   9 1410.31 369.261   8
  -2  -6   9 1836.64 554.431  20
  -2  -6   8 20727.3 1268.49   8
  -2  -6   8 24205.0 1465.52  23
  -2  -6   8 20097.6 1569.69  20
  -2  -6   7 4666.25 596.492   8
  -2  -6   6 18527.6 1139.67   8
  -2  -6   5 5469.24 615.002   8
   2   6  -4 6805.58 737.991   3
   2   6  -3 3129.42 506.379   3
   2   6  -2 1386.63 382.453   3
   2   6  -1 7260.63 748.313   3
   2   6   0 732.726 267.815   3
   2   6   1 2170.54 421.752   3
   2   6   2 19882.9 1282.89   3
  -2  -6  -3 11456.7 998.142  18
   2   6   3 10585.5 955.696   3
  -2  -6  -4 15.7028 93.3351  18
  -2  -6  -5 1268.16 335.932  18
   2   6   6 2849.25 488.407  19
  -2  -6  -6 2529.91 465.294  18
   2   6   7 116.804 174.827  19
  -2  -6  -7 431.189 196.364  18
   2   6   8 435.537 198.755  19
  -2  -6  -8 238.629 137.430  18
   2   6   9 1156.11 248.680  19
  -2  -7  14 463.049 148.235  23
  -2  -7  13 196.270 160.900  23
  -2  -7  12 219.392 187.538  23
  -2  -7  11 20.8857 156.221  23
  -2  -7  10-52.9225 180.213  23
  -2  -7   9 184.309 191.200  23
  -2  -7   8 26336.6 1469.32   8
  -2  -7   8 25798.6 1529.39  23
  -2  -7   7 2662.49 471.814  23
  -2  -7   7 2926.03 493.798   8
  -2  -7   6 3242.47 511.375   8
  -2  -7   6 1919.37 395.986  25
  -2  -7   5 293.094 194.175   8
  -2  -7   4 1460.16 356.391   8
   2   7  -4 2213.26 485.825   3
   2   7  -3 3585.81 593.972   3
   2   7  -2 3280.68 554.763   3
   2   7  -1 7424.88 803.292   3
  -2  -7   0-60.9853 102.522  10
   2   7   0 185.028 160.726   3
  -2  -7  -1 25582.9 1268.36  25
  -2  -7  -1 24631.5 1416.72  18
  -2  -7  -2 1185.21 344.390  18
  -2  -7  -3 1329.10 348.500  10
  -2  -7  -3 1385.20 357.404  18
  -2  -7  -4 1922.03 428.461  18
  -2  -7  -5 258.467 151.251  18
   2   7   6 191.048 159.717  19
  -2  -7  -6-18.4918 101.436  18
   2   7   7 2203.71 363.562  19
  -2  -7  -7 2428.09 368.851  18
   2   7   8 2017.79 293.044  19
  -2  -7  -8 2301.87 290.504  18
  -2  -8  13 265.658 161.252  23
  -2  -8  12 1999.47 400.344  23
  -2  -8  11 316.972 217.396  23
  -2  -8  10 11916.2 1026.96  23
  -2  -8   9-30.7930 160.598  23
  -2  -8   8 22658.0 1376.24  23
  -2  -8   8 18391.6 1254.31  11
  -2  -8   7 4190.18 586.519   8
  -2  -8   7 4330.27 593.301  23
  -2  -8   6 966.454 283.191  25
  -2  -8   6 1104.22 281.745  23
  -2  -8   6 1757.85 375.497   8
  -2  -8   5 2815.72 478.444  25
  -2  -8   5 4411.00 596.423   8
  -2  -8   4 1045.13 303.687  25
  -2  -8   4 1146.23 344.680   8
  -2  -8   3 5840.34 635.734  25
  -2  -8   2 8525.24 763.877  25
  -2  -8   1-5.35165 115.631  25
  -2  -8   1-519.070 217.059  18
  -2  -8   0 1414.45 320.556  25
  -2  -8   0 900.229 296.101  18
  -2  -8  -1 1016.10 295.763  10
  -2  -8  -1 1256.17 337.348  18
  -2  -8  -2 462.351 232.924  18
  -2  -8  -3 148.783 157.067  18
  -2  -8  -4 10514.5 882.838  18
  -2  -8  -5 1785.45 346.239  18
  -2  -8  -6 376.435 172.604  18
  -2  -8  -7 167.558 99.8160  18
  -2  -9  13 1400.06 249.168  23
  -2  -9  12-22.4926 115.202  23
  -2  -9  11 811.036 251.080  23
  -2  -9  10 388.680 221.795  23
  -2  -9   9 2100.95 402.574  23
  -2  -9   8 4432.96 579.615  23
  -2  -9   8 3592.79 546.634  11
  -2  -9   7 375.853 231.828  11
  -2  -9   6 81.7590 162.715  11
  -2  -9   5 1035.06 294.976  25
  -2  -9   4 2236.02 422.057  25
  -2  -9   3 3096.61 472.808  25
  -2  -9   2 2395.97 415.516  25
  -2  -9   2 2219.53 393.924  18
  -2  -9   1 7987.02 728.931  25
  -2  -9   1 7017.36 771.789  11
  -2  -9   1 7315.18 746.309  18
  -2  -9   0 3812.36 473.250  25
  -2  -9   0 3314.67 524.706  18
  -2  -9  -1 916.565 284.100  18
  -2  -9  -2 719.953 263.194  18
  -2  -9  -3 187.476 147.394  18
  -2  -9  -4 659.373 221.784  18
  -2  -9  -5 256.691 130.476  18
  -2  -9  -6 3972.01 336.708  18
  -2 -10  11 1586.44 264.024  23
  -2 -10  10 973.973 232.612  23
  -2 -10   9 1081.42 271.527  11
  -2 -10   8 3655.42 516.017  11
  -2 -10   7-131.710 137.640  11
  -2 -10   6 1593.06 386.037  11
  -2 -10   5 908.260 332.665  11
  -2 -10   4 7898.43 831.350  11
  -2 -10   3 153.237 186.329  11
  -2 -10   2 184.461 128.665  25
  -2 -10   2 184.080 159.905  11
  -2 -10   2 44.8354 101.069  18
  -2 -10   1 200.103 113.782  25
  -2 -10   1 104.304 119.471  11
  -2 -10   1 115.470 130.934  18
  -2 -10   0 148.499 133.086  18
  -2 -10  -1 29.5032 116.695  18
  -2 -10  -2 1873.45 333.374  18
  -2 -10  -3 968.690 225.632  18
  -2 -10  -4 1101.08 203.904  18
  -2 -11   9 690.444 187.491  11
  -2 -11   8-25.3182 107.054  11
  -2 -11   7 42.0611 129.417  11
  -2 -11   6 6175.49 651.459  11
  -2 -11   5-38.7160 134.253  11
  -2 -11   4-106.957 117.448  11
  -2 -11   3 133.009 135.902  11
  -2 -11   2 59.9572 98.4894  11
  -2 -11   2-6.34624 77.3345  18
  -2 -11   1 4080.43 456.939  18
  -2 -11   0 112.129 96.1402  18
  -2 -11  -1-262.932 122.930  18
  -2 -11  -2 615.682 148.308  18
  -2 -12   8 141.683 83.3307  11
  -2 -12   7 165.135 115.725  11
  -2 -12   6 1855.45 303.960  11
  -2 -12   5 48.9711 96.9588  11
  -2 -12   4 220.181 117.355  11
  -2 -12   3 168.370 96.2513  11
   3 -11   1 2261.59 262.725  14
  -3  11  -3 155.980 123.329  21
  -3  11  -4 856.419 246.759  21
  -3  11  -5 249.509 174.265  21
  -3  11  -6 289.091 177.090  21
   3 -11   7 1072.35 254.330  24
  -3  11  -7 896.117 225.383  21
   3 -10  -3 1779.37 238.635  14
   3 -10  -2 3786.47 394.677  14
   3 -10  -1 166.223 91.0339  14
   3 -10   0 117.058 103.493  14
   3 -10   1 152.126 113.120  14
   3 -10   2 722.625 202.859  14
  -3  10  -2 997.371 284.744  21
   3 -10   2 805.880 222.272  13
   3 -10   3 2725.25 384.284  14
   3 -10   3 2872.76 449.608  13
  -3  10  -3 3084.25 507.503  21
  -3  10  -4 7001.85 775.717  21
   3 -10   4 7091.74 722.353  13
   3 -10   5 568.278 231.679  13
  -3  10  -5 834.546 317.930  21
  -3  10  -6 215.883 204.901  21
  -3  10  -7 2104.74 423.460  21
   3 -10   8 238.148 177.202  24
  -3  10  -8-102.709 124.954  21
   3 -10   9 96.9803 103.624  24
  -3  10  -9 515.592 172.090  21
   3  -9  -5 301.541 117.851  14
   3  -9  -4 1012.75 219.954  14
   3  -9  -3 186.160 134.021  14
   3  -9  -2-28.7933 113.182  14
   3  -9  -1 2073.19 377.727  14
   3  -9   0 2471.83 413.508  14
   3  -9   1 3040.57 470.518  14
   3  -9   1 2258.00 428.505  13
   3  -9   2 13457.7 974.738  14
   3  -9   2 14930.6 1135.74  13
  -3   9  -2 13479.0 1096.83  21
   3  -9   3 272.513 194.426  14
   3  -9   3 187.057 183.534  13
  -3   9  -3 187.773 262.534  21
   3  -9   4 937.737 271.107  14
   3  -9   4 1066.46 342.295  13
   3  -9   5 440.561 244.723  13
   3  -9   6 1168.19 348.524  13
  -3   9  -6 1375.68 407.043  21
  -3   9  -7-112.574 236.896  21
   3  -9   8 2.67761 176.141  24
  -3   9  -8-96.4623 185.884  21
  -3   9  -9 3142.70 459.312  21
   3  -9   9 2813.58 502.894  24
   3  -9  10 245.040 157.517  24
   3  -8  -6 187.437 105.877  14
  -3   8   6 202.259 131.784  20
   3  -8  -5 3029.62 419.115  14
  -3   8   5 3219.28 486.744  20
   3  -8  -4 4332.04 554.410  14
   3  -8  -3 146.484 147.175  14
   3  -8  -2 3686.66 545.115  14
   3  -8  -1 407.771 203.253  14
   3  -8   0 1609.26 372.577  14
   3  -8   1-19.2777 124.661  14
   3  -8   1 22.2691 174.559  13
  -3   8  -1-282.900 254.111  21
   3  -8   2 547.906 235.035  14
   3  -8   2 670.922 252.524  13
   3  -8   3 415.219 200.805  14
   3  -8   3 466.489 252.658  13
   3  -8   4 5887.64 708.465  14
   3  -8   4 6302.20 822.054  13
   3  -8   5 2205.35 515.105  13
   3  -8   6 732.546 293.308  13
  -3   8  -7 6439.85 839.186  21
   3  -8   8 951.557 378.538  24
  -3   8  -8 795.779 322.848  21
   3  -8   9 5868.55 771.571  24
  -3   8  -9 4787.16 623.855  21
   3  -8  10 359.546 195.693  24
   3  -8  11 781.019 219.456  17
   3  -7  -7 434.452 153.648  14
  -3   7   7 477.336 198.651  20
   3  -7  -6 1699.72 335.471  14
  -3   7   6 2244.47 466.746  20
   3  -7  -5 153.807 141.913  14
   3  -7  -4 3043.46 518.410  14
   3  -7  -3 8383.56 870.069  14
   3  -7  -2 4415.04 632.700  14
   3  -7  -1 1635.53 393.714  14
   3  -7   0 9457.09 908.074  14
   3  -7   1 7590.67 812.499  14
   3  -7   1 8751.97 974.143  13
  -3   7  -1 8063.03 903.354  21
   3  -7   2 1824.39 412.060  14
   3  -7   2 1451.33 415.542  13
   3  -7   3 966.731 320.495  14
   3  -7   3 692.341 268.033  13
   3  -7   4 8900.72 893.203  14
   3  -7   4 8730.53 960.011  13
   3  -7   5 5203.01 742.628  13
  -3   7  -6 255.762 228.752  21
   3  -7   6 177.126 162.839  13
  -3   7  -7 13343.1 1172.24  21
   3  -7   8 7211.91 940.660  24
  -3   7  -8 7918.28 859.792  21
   3  -7   9 1966.78 483.837  24
   3  -7  10 222.058 179.058  24
   3  -7  11 513.484 215.735  17
   3  -7  12 750.578 198.845  17
  -3   6   8 1683.78 384.362  20
   3  -6  -7 218.372 158.382  14
  -3   6   7 187.237 227.569  20
   3  -6  -6 2632.92 459.134  14
  -3   6   6 3481.80 668.955  20
   3  -6  -5 4123.74 606.919  14
   3  -6  -4 973.029 316.906  14
   3  -6  -3 7442.25 830.636  14
   3  -6  -2 12050.9 1049.11  14
   3  -6  -1 5911.10 722.589  14
   3  -6   0 1324.08 335.619  14
  -3   6   0 1391.30 393.394  21
   3  -6   1 3472.90 540.417  14
   3  -6   1 3008.68 565.668  13
  -3   6  -1 3517.27 599.094  21
   3  -6   2 4303.76 597.037  14
   3  -6   2 4633.30 702.411  13
   3  -6   2 3732.54 548.041   4
   3  -6   3 27146.8 1471.70  14
   3  -6   3 27994.4 1681.14  13
   3  -6   3 26580.7 1540.20   4
   3  -6   4 5782.14 693.761  14
   3  -6   4 6886.29 823.765  13
   3  -6   5 4028.22 625.014  13
  -3   6  -6 49757.6 2257.89  21
  -3   6  -7 8516.53 913.653  21
   3  -6   8 433.370 236.123  24
  -3   6  -8 546.970 212.095  21
   3  -6   9-4.62778 146.498  24
   3  -6  10 674.815 250.509  24
   3  -6  11 2021.62 418.419  17
   3  -6  12 262.302 152.633  17
  -3   5  10 1320.12 275.571  20
  -3   5   9-247.439 168.911  20
  -3   5   8 2397.38 537.741  20
   3  -5  -7 378.496 196.011  14
  -3   5   7 203.700 209.963  20
   3  -5  -6 369.339 197.355  14
  -3   5   6 301.427 288.589  20
   3  -5  -5 48383.7 2136.44  14
   3  -5  -4 586.029 262.731  14
   3  -5  -3 3514.69 553.756  14
   3  -5  -2 302.157 205.452  14
  -3   5   2-154.620 170.134   7
  -3   5   1 5621.36 745.620   7
  -3   5   0 7277.05 808.648   7
  -3   5  -1-51.7500 150.152   7
   3  -5   2 20714.7 1298.51   4
  -3   5  -2 23533.8 1353.07   7
   3  -5   3 22083.9 1408.87   4
   3  -5   4 3597.31 598.781   4
  -3   5  -5 10440.4 989.676  21
   3  -5   5 8318.37 922.508   4
  -3   5  -6 19916.7 1357.76  21
   3  -5   7 2074.88 526.621  24
  -3   5  -7 1971.93 471.864  21
   3  -5   8 1013.77 366.312  24
   3  -5   9 71.0858 148.775  24
   3  -5  10 1267.27 388.017  24
   3  -5  11 1684.92 381.725  17
   3  -5  12 75.3062 109.793  17
  -3   4  10 1356.64 332.709  20
  -3   4   9 7092.97 885.250  20
  -3   4   8 213.658 167.663  20
  -3   4   7 10055.5 1192.66  20
  -3   4   6 732.217 342.023  20
   3  -4  -5 10227.2 964.015  14
   3  -4  -4 13847.4 1090.81  14
  -3   4   3 10330.9 1026.64   7
  -3   4   2 3603.37 579.022   7
  -3   4   1 76.1284 116.343   7
  -3   4   0 5832.77 671.790   7
  -3   4  -1 1935.45 379.342   7
   3  -4   1 1518.97 344.264   4
  -3   4  -2 1260.49 320.332   7
   3  -4   2 631.894 278.985   4
  -3   4  -3 606.707 224.810   7
   3  -4   3 593.555 241.344   4
   3  -4   4 40530.2 1992.07   4
   3  -4   5 108.898 189.732   4
   3  -4   6 1389.71 411.474  24
   3  -4   6 1099.26 360.484   4
   3  -4   7 575.847 275.326  24
   3  -4   8 570.038 232.893   9
   3  -4   8 1062.59 369.582  24
   3  -4   9-22.3850 161.087  24
   3  -4  10 585.628 274.892  24
   3  -4  10 319.234 185.125  17
   3  -4  11 6566.83 747.135  17
   3  -4  12-128.381 131.040  17
   3  -4  13 1628.98 268.108  17
  -3   3  11-27.0550 115.705  20
  -3   3  10 70.1437 196.980  20
  -3   3   9 2648.63 576.717  20
  -3   3   8 738.441 362.245  20
  -3   3   7 8982.97 1178.19  20
  -3   3   6 9002.97 1134.02  20
  -3   3   5 3780.60 718.751  20
  -3   3   4 1868.51 440.142   7
  -3   3   3-5.99347 91.5040   7
  -3   3   2 1233.57 320.652   7
  -3   3   1 1208.15 300.115   7
  -3   3   0 25294.4 1279.86   7
  -3   3  -1 13525.2 943.890   7
   3  -3   2 2963.42 460.292   5
  -3   3  -2 2473.69 406.256   7
   3  -3   3 11831.4 932.339   5
  -3   3  -3 10660.9 842.168   7
   3  -3   4 2493.14 452.300   5
  -3   3  -4 2445.97 417.866   7
   3  -3   5 1500.64 387.376   5
   3  -3   6 2935.67 515.535   5
   3  -3   7-101.695 135.286   9
   3  -3   7 411.160 241.666  24
   3  -3   8 979.244 282.007   9
   3  -3   8 1673.72 441.723  24
   3  -3   9 4366.40 717.249  24
   3  -3   9 4351.70 685.468  17
   3  -3  10 4853.13 690.680  17
   3  -3  11 120.098 129.098  17
   3  -3  12 699.946 237.842  17
   3  -3  13-44.3051 102.562  17
  -3   2  12 101.107 104.809  20
  -3   2  11 3600.30 584.107  20
  -3   2  10 3531.41 660.598  20
  -3   2   9 5912.57 892.727  20
  -3   2   8 5193.19 866.814  20
  -3   2   7 3958.40 745.773  20
  -3   2   6 2122.62 568.108  20
  -3   2   5 2191.18 465.515   7
  -3   2   4 1328.20 363.187   7
  -3   2   3 193.347 153.232   7
  -3   2   2 5735.80 627.203   7
  -3   2   1 63733.9 1973.15   7
   3  -2   0 15241.3 903.988   5
  -3   2   0 15744.2 973.761   7
   3  -2   1 4511.15 527.489   5
  -3   2  -1 4218.72 510.653   7
   3  -2   2 1580.95 342.321   5
   3  -2   3-13.9828 134.737   5
   3  -2   4 16366.4 1160.01   5
   3  -2   5 7247.14 790.929   5
   3  -2   6 12136.4 1033.67   5
   3  -2   7 408.899 214.871   9
   3  -2   7 541.445 292.464  24
   3  -2   8 1968.34 432.694   9
   3  -2   8 2484.64 555.037  24
   3  -2   8 1844.29 444.249  17
   3  -2   9 8198.70 920.244  17
   3  -2  10 167.809 181.653  17
   3  -2  11 2249.75 468.872  17
   3  -2  12 974.858 272.621  17
   3  -2  13 1106.95 203.767  16
   3  -2  13 2190.33 309.283  17
  -3   1  12 2736.37 460.770  20
  -3   1  11 1709.86 447.443  20
  -3   1  10 338.795 284.880  20
  -3   1   9 284.035 243.555  20
  -3   1   8 1855.33 579.729  20
  -3   1   7 36318.3 2134.93  20
  -3   1   6 24200.7 1493.86   7
  -3   1   6 21294.7 1466.28   6
  -3   1   5 276.619 163.575   7
  -3   1   4 234.579 140.060   7
  -3   1   3 30502.1 1396.33   7
  -3   1   2 12199.1 864.064   7
   3  -1  -1 5823.88 537.100   5
  -3   1   1 6516.61 624.910   7
   3  -1   0 3014.89 417.657   5
  -3   1   0 3332.76 449.977   7
   3  -1   1 51721.4 1800.64   5
   3  -1   2 26265.5 1355.45   5
   3  -1   3 22509.7 1297.19   5
   3  -1   4 13777.0 1057.81   5
   3  -1   5 2869.22 507.898   5
   3  -1   6 203.555 197.609   9
   3  -1   6 306.418 232.158   5
   3  -1   7 458.532 212.347   9
   3  -1   7 420.238 324.382  24
   3  -1   7 469.092 219.069  17
   3  -1   8 22858.0 1464.90   9
   3  -1   8 22089.3 1538.91  17
   3  -1   9 157.852 155.877  17
   3  -1  10 3028.08 590.692  17
   3  -1  11 303.068 207.293  17
   3  -1  12 1628.45 328.671  17
  -3   0  13 178.377 145.588  20
  -3   0  12 3692.29 582.736  20
  -3   0  11 932.600 360.591  20
  -3   0  10 4345.74 755.109  20
  -3   0   9 1327.60 484.561  20
  -3   0   8 1313.41 429.118  20
  -3   0   7 10915.5 1132.23  20
  -3   0   6 2635.18 533.190   6
  -3   0   5 9670.89 819.441   7
  -3   0   4 8894.85 744.207   7
  -3   0   3 31807.1 1356.22   7
  -3   0   2 49633.6 1685.82   7
   3   0  -1 770.341 205.303   5
  -3   0   1 628.981 219.372   7
   3   0   0 435.381 188.656   5
   3   0   1 8949.08 770.552   5
   3   0   2 7280.83 729.937   5
   3   0   3 9143.11 839.128   5
   3   0   4 5543.25 679.674   5
   3   0   5 4189.95 589.302   9
   3   0   5 4013.74 597.158   5
   3   0   6 240.117 169.586   9
   3   0   6 30.7168 106.940   5
   3   0   7 512.315 279.352   9
   3   0   7 524.682 276.071  17
   3   0   8 6753.73 865.884  17
   3   0   9 2272.77 516.591  17
   3   0  10 1825.50 456.145  17
   3   0  11 1465.75 371.160  17
   3   0  12 2125.31 283.819  19
   3   0  12 2708.20 412.077  17
  -3  -1  13 6150.86 646.136  20
  -3  -1  12 3083.46 560.353  20
  -3  -1  11 239.348 242.792  20
  -3  -1  10 5440.39 851.815  20
  -3  -1   9 4667.01 808.177  20
  -3  -1   8 23279.0 1702.50  20
  -3  -1   7 1778.56 447.745   6
  -3  -1   7 3311.76 616.737  20
  -3  -1   6 440.740 250.406   6
  -3  -1   5 13979.2 1149.32   6
  -3  -1   4 255.508 140.139   7
  -3  -1   3 1366.60 295.619   7
  -3  -1   2 1795.38 328.646   7
   3   1  -1 8686.17 700.589   5
   3   1   0 9025.76 759.029   5
   3   1   1 59166.6 2019.45   5
   3   1   2 6768.69 714.219   5
   3   1   3 6053.63 699.666   5
   3   1   4 186.318 185.688   9
   3   1   4 192.683 185.157   5
   3   1   5 11022.7 966.798   9
   3   1   5 9618.65 918.170   5
   3   1   6 10118.7 985.296   9
   3   1   6 9647.92 951.736   5
   3   1   6 9224.43 948.932  17
   3   1   7-87.4871 175.754   9
   3   1   7-192.748 184.309  17
   3   1   8 7129.45 897.488  17
   3   1   9 387.643 253.062  17
   3   1  10 1907.30 446.539  17
   3   1  11 409.049 201.339  17
   3   1  12 2004.18 260.168  19
  -3  -2  13 123.036 149.540  20
  -3  -2  12 155.439 161.171  20
  -3  -2  11 191.829 249.620  20
  -3  -2  10 10426.0 1185.52  20
  -3  -2   9 1815.02 543.515  20
  -3  -2   8 2489.28 594.266  20
  -3  -2   7-15.3592 121.121   6
  -3  -2   7 103.030 234.112  20
  -3  -2   6-230.075 197.854   6
  -3  -2   5 34.7214 147.880   6
  -3  -2   5 99.7188 88.5987   8
  -3  -2   4 355.857 224.576   6
  -3  -2   4 750.182 201.483   8
  -3  -2   4 370.205 151.608   7
  -3  -2   3 5618.60 557.928   7
   3   2  -2 7835.57 642.036   3
   3   2  -1 5363.81 554.803   3
   3   2   0 8015.29 709.773   3
   3   2   1 3108.59 442.306   3
   3   2   2 9524.53 797.456   3
   3   2   3 221.006 139.944   9
   3   2   4 2352.30 468.207   5
   3   2   4 2492.70 483.058   9
   3   2   5 3441.22 575.371   9
   3   2   5 4119.31 625.374   5
  -3  -2  -6 25810.3 1279.95  25
   3   2   6 25699.7 1625.53  17
   3   2   6 25845.8 1580.21   9
  -3  -2  -7 188.758 175.427  25
   3   2   7 203.598 223.989  17
   3   2   8 120.086 180.807  17
   3   2   9 180.695 172.823  17
  -3  -2 -10 712.105 247.506  18
   3   2  10 117.575 189.642  17
   3   2  11 1143.15 243.884  19
  -3  -3  13 346.048 204.602  20
  -3  -3  12 810.129 303.013  20
  -3  -3  11 458.454 289.830  20
  -3  -3  10 56.7818 190.140  20
  -3  -3   9-253.303 164.855  23
  -3  -3   9 279.754 227.608  20
  -3  -3   8-57.9123 134.669  23
  -3  -3   8-123.376 138.090   8
  -3  -3   8 26.8900 140.495  20
  -3  -3   7 2887.07 597.620   6
  -3  -3   7 3566.49 483.652   8
  -3  -3   7 2844.74 603.392  20
  -3  -3   6 297.706 184.557   6
  -3  -3   6 451.005 186.607   8
  -3  -3   5 22502.0 1466.44   6
  -3  -3   5 26934.9 1251.60   8
  -3  -3   4 26992.3 1218.29   8
  -3  -3   4 23048.0 1395.05   6
  -3  -3   3 276.607 133.816   6
   3   3  -2 2240.99 380.819   3
   3   3  -1 23074.5 1204.74   3
   3   3   0 384.640 160.965   3
   3   3   1 17918.4 1102.96   3
   3   3   2 333.305 177.320   3
   3   3   3 3448.11 525.190   9
   3   3   3 4680.54 593.294   3
   3   3   4 354.019 196.174   9
  -3  -3  -5 20274.5 1142.55  25
   3   3   5 19928.9 1431.93  17
   3   3   5 18856.9 1314.24   9
  -3  -3  -6 30758.4 1410.97  25
   3   3   6 30471.8 1833.89  17
   3   3   7 561.703 297.993  17
   3   3   8 2307.12 538.015  17
  -3  -3  -9 1251.10 305.708  18
   3   3  10 2623.82 392.118  19
  -3  -3 -10 2236.64 333.209  18
   3   3  11-43.4482 78.3496  19
  -3  -4  13 650.682 242.539  20
  -3  -4  12 2036.78 335.037  23
  -3  -4  12 2240.63 514.697  20
  -3  -4  11 1721.80 364.231  23
  -3  -4  11 2603.28 597.104  20
  -3  -4  10 299.897 150.293  23
  -3  -4  10 217.327 234.103  20
  -3  -4   9 410.569 230.050  23
  -3  -4   9 315.212 228.656  20
  -3  -4   8 5763.36 646.098   8
  -3  -4   8 5488.71 684.425  23
  -3  -4   8 6471.88 923.514  20
  -3  -4   7 1682.32 450.637  12
  -3  -4   7 2085.02 396.476   8
  -3  -4   7 1544.78 455.670  20
  -3  -4   6 12476.7 907.059   8
  -3  -4   5 10688.2 1000.86   6
  -3  -4   5 11821.3 861.915   8
  -3  -4   4 23028.9 1176.55   8
   3   4  -3 2660.28 426.442   3
   3   4  -2 25480.6 1318.76   3
   3   4  -1 1683.88 374.883   3
   3   4   0 9162.93 830.258   3
   3   4   1 3378.94 515.808   3
   3   4   2 286.367 192.953   3
  -3  -4  -3 26723.2 1354.60  25
   3   4   3 24898.7 1428.40   3
  -3  -4  -4 11367.0 890.006  25
  -3  -4  -5 655.234 274.748  25
   3   4   5 1845.54 534.149  17
   3   4   6 501.896 278.107  17
  -3  -4  -7 452.357 224.217  18
  -3  -4  -8 354.213 195.332  18
   3   4   9 343.349 166.485  19
  -3  -4  -9 188.098 138.343  18
   3   4  10 207.740 116.892  19
  -3  -5  13 1131.27 222.886  23
  -3  -5  12 1143.02 268.056  23
  -3  -5  12 1645.17 413.316  20
  -3  -5  11 1470.33 348.167  23
  -3  -5  11 997.284 398.940  20
  -3  -5  10 178.315 168.843  23
  -3  -5  10-26.9711 239.237  20
  -3  -5   9 2611.39 492.762  23
  -3  -5   9 3216.80 658.656  20
  -3  -5   8 1490.94 384.370  23
  -3  -5   8 1567.69 333.913   8
  -3  -5   8 1646.43 490.052  20
  -3  -5   7 5028.50 625.946   8
  -3  -5   7 3978.44 718.063  12
  -3  -5   7 4113.00 726.338  20
  -3  -5   6 34576.0 1555.30   8
  -3  -5   6 33366.6 1972.83  20
  -3  -5   5 5050.15 590.862   8
  -3  -5   4 110.719 139.423   8
   3   5  -3 4153.61 574.630   3
   3   5  -2-70.3614 129.103   3
   3   5  -1 579.882 230.115   3
   3   5   0 1374.13 337.966   3
  -3  -5  -1 948.952 290.186  25
   3   5   1 1375.28 362.834   3
  -3  -5  -2 1265.43 317.105  25
  -3  -5  -3 68470.2 2210.87  25
  -3  -5  -4 7712.75 728.816  25
  -3  -5  -4 7186.20 827.144  18
  -3  -5  -5 645.241 269.685  18
  -3  -5  -6 1.56263 164.404  18
  -3  -5  -7 26.5303 126.198  18
   3   5   8 4069.60 480.001  19
  -3  -5  -8 4925.94 536.522  18
   3   5   9 119.874 122.698  19
  -3  -5  -9 104.833 82.3683  18
  -3  -6  13 241.485 110.243  23
  -3  -6  12 341.506 187.750  23
  -3  -6  11 397.637 176.943  23
  -3  -6  10 4488.34 640.987  23
  -3  -6  10 4768.78 805.176  20
  -3  -6   9 34.8430 154.544  23
  -3  -6   9 87.5844 188.975  20
  -3  -6   8 12793.3 1105.88  23
  -3  -6   8 11500.8 1245.41  20
  -3  -6   7 119.579 255.744  12
  -3  -6   7-339.478 175.944   8
  -3  -6   6 15162.1 1061.14   8
  -3  -6   6 12457.5 1288.39  12
  -3  -6   5 4863.22 599.974  25
  -3  -6   5 6768.26 704.787   8
  -3  -6   5 5665.02 870.156  12
  -3  -6   4 379.478 202.795  25
  -3  -6   4 678.719 302.617  12
  -3  -6   4 931.370 277.280   8
   3   6  -3 3316.18 542.866   3
  -3  -6   3 4002.31 547.699  25
  -3  -6   3 4186.69 732.064  12
  -3  -6   2 5884.94 660.140  25
  -3  -6   2 5723.42 847.101  12
   3   6  -2 4712.96 666.879   3
  -3  -6   1-38.3722 99.1475  25
  -3  -6   1 547.196 279.869  12
  -3  -6   0 14515.0 1041.61  25
  -3  -6   0 13642.4 1286.51  12
  -3  -6  -1 9015.02 838.768  25
  -3  -6  -1 8244.81 870.770  18
  -3  -6  -2-225.248 155.501  25
  -3  -6  -2 247.416 253.528  18
  -3  -6  -3 858.462 289.758  25
  -3  -6  -3 1267.42 406.729  18
  -3  -6  -4 2152.81 372.903  25
  -3  -6  -4 1996.66 443.822  18
  -3  -6  -5 3828.78 573.229  18
   3   6   6 1172.02 278.438  19
  -3  -6  -6 2530.94 447.839  18
   3   6   7 1384.02 276.746  19
  -3  -6  -7 1879.95 327.722  18
   3   6   8 1493.90 241.909  19
  -3  -6  -8 1931.33 273.869  18
  -3  -7  13 19.1274 76.1224  23
  -3  -7  12 140.569 134.874  23
  -3  -7  11 162.259 137.456  23
  -3  -7  10 78.3300 144.851  23
  -3  -7   9 779.543 303.373  23
  -3  -7   8 3362.75 594.828  23
  -3  -7   7 1035.91 269.830  25
  -3  -7   7 1587.19 425.475  23
  -3  -7   7 1071.16 399.782  12
  -3  -7   6 415.078 184.307  25
  -3  -7   6 176.011 187.305  12
  -3  -7   5 1323.15 320.598  25
  -3  -7   5 709.691 371.859  12
  -3  -7   5 1441.29 360.416   8
  -3  -7   4 956.425 312.391  25
  -3  -7   4 791.858 389.112  12
  -3  -7   4 1301.21 336.967   8
  -3  -7   3 3971.03 569.332  25
  -3  -7   3 5278.40 863.135  12
  -3  -7   2 1541.32 367.267  25
  -3  -7   2 2158.04 556.811  12
  -3  -7   1 3816.70 551.097  25
  -3  -7   0 84.5259 132.368  25
  -3  -7   0 254.507 154.878  18
  -3  -7  -1 13006.3 976.911  25
  -3  -7  -1 13616.2 1074.66  18
  -3  -7  -2 999.453 281.946  25
  -3  -7  -2 466.672 227.493  18
  -3  -7  -3 967.325 259.022  25
  -3  -7  -3 645.601 251.443  18
  -3  -7  -4-71.3507 152.090  18
  -3  -7  -5 2084.84 397.256  18
  -3  -7  -6 1475.90 281.116  18
  -3  -7  -7 253.434 108.261  18
  -3  -8  12 169.415 116.150  23
  -3  -8  11 315.793 180.654  23
  -3  -8  10 1059.42 275.744  23
  -3  -8   9 2106.10 429.772  23
  -3  -8   8 385.813 215.830  23
  -3  -8   8 499.432 250.092  11
  -3  -8   7 247.826 178.685  23
  -3  -8   6-318.970 177.601  25
  -3  -8   6-168.716 161.008  23
  -3  -8   5 538.842 232.868  25
  -3  -8   4 634.161 247.727  25
  -3  -8   3 287.759 194.120  25
  -3  -8   2 9772.53 879.210  25
  -3  -8   1 995.855 290.905  25
  -3  -8   0 8296.82 761.133  25
  -3  -8   0 8128.56 774.750  18
  -3  -8  -1-6.42795 94.0216  25
  -3  -8  -1 352.606 215.504  18
  -3  -8  -2 504.396 179.549  25
  -3  -8  -2 597.881 253.461  18
  -3  -8  -3 2245.26 391.848  18
  -3  -8  -4 122.004 120.177  18
  -3  -8  -5 1964.78 302.779  18
  -3  -8  -6 1510.01 219.137  18
  -3  -9  11 350.526 162.052  23
  -3  -9  10 130.939 131.169  23
  -3  -9   9-47.5069 110.999  23
  -3  -9   8 442.956 210.708  23
  -3  -9   8 321.282 154.594  11
  -3  -9   7 3223.23 484.860  23
  -3  -9   7 2682.99 480.861  11
  -3  -9   6 3512.09 495.317  23
  -3  -9   5 916.371 263.327  25
  -3  -9   4 907.910 273.428  25
  -3  -9   3 364.308 208.447  25
  -3  -9   2 1330.80 317.331  25
  -3  -9   1 224.153 125.195  25
  -3  -9   0 447.789 172.683  25
  -3  -9   0 584.498 208.848  11
  -3  -9   0 501.344 187.753  18
  -3  -9  -1 4149.15 442.185  25
  -3  -9  -1 4160.54 499.561  18
  -3  -9  -2 542.710 187.463  18
  -3  -9  -3 423.318 154.460  18
  -3  -9  -4 55.0842 70.0435  18
  -3 -10   9 1497.65 253.100  23
  -3 -10   8 2033.75 311.313  23
  -3 -10   8 1887.06 330.369  11
  -3 -10   7 43.2092 127.717  11
  -3 -10   6 3339.81 496.280  11
  -3 -10   5 38.7091 152.286  11
  -3 -10   4 7001.77 728.406  11
  -3 -10   3 1043.00 252.883  25
  -3 -10   3 749.946 249.259  11
  -3 -10   2 4334.99 471.949  25
  -3 -10   2 3917.10 487.562  11
  -3 -10   1-59.9770 85.9124  25
  -3 -10   1 218.389 120.429  11
  -3 -10   0 756.658 170.958  25
  -3 -10   0 672.207 176.153  18
  -3 -10  -1 1974.25 276.367  18
  -3 -10  -2 1748.33 235.351  18
  -3 -11   7 358.386 136.927  11
  -3 -11   6 827.757 204.256  11
  -3 -11   5 701.464 204.837  11
  -3 -11   4 381.783 163.796  11
  -3 -11   3 133.210 87.8635  11
  -3 -11   2 519.845 140.011  11
   4 -10   4 602.471 171.386  24
  -4  10  -4 557.535 183.223  21
   4 -10   5 1407.23 257.716  24
  -4  10  -5 1596.71 273.367  21
   4  -9  -2-23.3209 62.2294  14
   4  -9  -1 7253.07 537.529  14
   4  -9   0 1056.97 226.620  14
   4  -9   1 400.901 151.705  14
  -4   9  -2 8434.55 690.731  21
  -4   9  -3 276.730 175.230  21
  -4   9  -4 596.349 238.283  21
   4  -9   5 292.536 204.326  24
  -4   9  -5-201.452 194.440  21
   4  -9   6 2100.71 387.445  24
  -4   9  -6 1975.90 382.625  21
   4  -9   7-298.981 168.767  24
  -4   9  -7 144.081 152.900  21
   4  -9   8 208.762 111.808  24
  -4   8   4 496.329 164.984  15
  -4   8   3 1980.35 339.445  15
   4  -8  -3 1945.47 290.933  14
  -4   8   2 3961.99 507.976  15
   4  -8  -2 4830.25 511.138  14
  -4   8   1 4292.66 539.415  15
   4  -8  -1 5509.83 571.631  14
  -4   8   0 351.529 169.601  15
   4  -8   0 532.861 199.774  14
   4  -8   1 1199.35 311.173  14
  -4   8  -1 1309.65 317.142  21
   4  -8   2 260.362 175.050  14
  -4   8  -2 16.8009 164.952  21
  -4   8  -3 511.838 256.076  21
  -4   8  -4 418.938 271.608  21
   4  -8   5 4293.28 665.628  24
  -4   8  -5 3363.45 576.572  21
   4  -8   6 1750.64 420.293  24
  -4   8  -6 1788.18 432.784  21
  -4   8  -7 11208.5 927.717  21
   4  -8   7 13152.3 1048.55  24
   4  -8   8 5654.45 649.585  24
   4  -8   9 1058.80 256.713  24
  -4   7   5 64.3093 98.5276  15
   4  -7  -5-80.6697 74.0174  14
  -4   7   4-47.7593 119.339  15
   4  -7  -4 21.9689 88.1675  14
  -4   7   3 28819.4 1545.72  15
   4  -7  -3 28172.8 1316.94  14
  -4   7   2-16.8427 129.047  15
   4  -7  -2 234.730 173.691  14
  -4   7   1 1.75058 138.906  15
   4  -7  -1 76.5273 114.177  14
  -4   7   0 3164.50 529.209  15
   4  -7   0 5265.10 648.261  14
   4  -7   1 671.927 242.465  14
  -4   7  -1 857.707 334.220  21
   4  -7   2 9428.07 874.370  14
  -4   7  -2 7727.29 931.572  21
  -4   7  -3 588.236 288.114  21
  -4   7  -4 2620.54 586.690  21
   4  -7   5 898.982 363.116  24
  -4   7  -5 891.337 375.658  21
   4  -7   6 7309.10 902.576  24
  -4   7  -6 8289.09 927.893  21
   4  -7   7 4850.57 710.497  24
  -4   7  -7 5311.87 710.192  21
   4  -7   8 2650.67 524.586  24
   4  -7   9 306.690 171.464  24
   4  -7  10 371.968 165.328  17
  -4   6   6 1032.89 262.309  15
  -4   6   5 1900.35 411.243  15
   4  -6  -5 1965.35 340.665  14
  -4   6   4-57.2353 196.838  15
   4  -6  -4 54.9341 87.6852  14
  -4   6   3 17162.6 1325.79  15
   4  -6  -3 15512.5 1087.11  14
  -4   6   2 821.662 341.132  15
   4  -6  -2 579.244 255.492  14
  -4   6   1 2194.60 490.903  15
   4  -6  -1 1860.60 403.098  14
  -4   6   0 1536.61 403.290  15
   4  -6   0 1088.89 329.888  14
  -4   6   0 1773.01 459.969  21
  -4   6  -1 372.462 203.188  15
   4  -6   1 264.230 182.421  14
  -4   6  -1 342.382 317.623  21
   4  -6   2 5307.29 678.769  14
  -4   6  -2 4292.71 735.991  21
  -4   6  -3 883.899 411.978  21
  -4   6  -4 1131.52 441.927  21
   4  -6   5 15235.9 1353.23  24
  -4   6  -5 15216.6 1339.66  21
   4  -6   6 1484.15 436.885  24
  -4   6  -6 1561.98 438.424  21
   4  -6   7 78.3494 153.088  24
  -4   6  -7 293.756 261.576  21
   4  -6   8 537.321 272.612  24
   4  -6   9 315.429 178.376  24
   4  -6  10 19.5674 103.882  17
   4  -6  11 1926.02 287.530  17
  -4   5   7 2541.26 395.450  15
  -4   5   6 400.417 199.661  15
  -4   5   5 14930.3 1232.41  15
  -4   5   4 3400.53 624.751  15
   4  -5  -4 2979.43 494.164  14
  -4   5   3 3373.03 659.457  15
   4  -5  -3 3485.43 555.535  14
  -4   5   2 1578.93 442.360  15
   4  -5  -2 1830.04 407.208  14
  -4   5   1 207.990 217.911  15
   4  -5  -1 108.924 117.909  14
  -4   5   0 2965.96 554.037  15
   4  -5   0 2827.07 496.134  14
  -4   5   0 3392.26 629.101  21
  -4   5  -1 4542.96 660.009  15
   4  -5   1 4454.42 617.239  14
  -4   5  -1 4315.71 732.094  21
   4  -5   2 17897.7 1228.63  14
  -4   5  -2 18305.4 1486.14  21
  -4   5  -3 8678.07 1040.36  21
   4  -5   4 15206.4 1371.12  24
  -4   5  -4 15659.9 1355.40  21
   4  -5   5 5689.80 865.881  24
  -4   5  -5 7696.31 951.308  21
   4  -5   6 60.5071 186.919  24
  -4   5  -6 216.188 227.756  21
   4  -5   7 526.973 267.165  24
   4  -5   8 193.774 212.731  24
   4  -5   9 1193.61 349.248  24
   4  -5   9 906.585 320.607  17
   4  -5  10 770.262 243.796  17
   4  -5  11 190.970 128.953  17
  -4   4   8 7111.89 593.403  15
  -4   4   8 6574.00 677.656  20
  -4   4   7 673.175 253.113  15
  -4   4   6 3136.22 575.118  15
  -4   4   5 2688.13 587.271  15
  -4   4   4 909.572 418.309  15
  -4   4   3 265.209 259.565  15
   4  -4  -3 299.388 221.438  14
  -4   4   2 765.471 351.670  15
   4  -4  -2 556.510 221.476  14
  -4   4   1 5602.89 774.567  15
   4  -4  -1 4762.51 623.202  14
  -4   4   0 2441.36 512.571  15
   4  -4   0 1569.10 363.840  14
  -4   4   0 2300.53 528.968  21
  -4   4  -1 21845.3 1378.55  15
   4  -4   1 19777.5 1249.65  14
  -4   4  -1 22323.3 1583.13  21
  -4   4  -2 1363.90 486.690  21
   4  -4   3 14524.4 1339.77  24
  -4   4  -3 13459.4 1220.79  21
   4  -4   4 31.2241 191.066  24
  -4   4  -4 245.852 247.165  21
   4  -4   5 1447.68 466.901  24
  -4   4  -5 1590.55 433.764  21
   4  -4   6 3561.23 690.204  24
   4  -4   7 5510.75 804.441  24
   4  -4   8-132.903 181.025  24
   4  -4   9 4969.31 661.015  17
   4  -4  10 77.5729 128.459  17
   4  -4  11 3155.26 418.143  17
  -4   3   9 131.386 145.807  20
  -4   3   8-93.3946 112.116  15
  -4   3   8 320.550 197.498  20
  -4   3   7 383.538 202.003  15
  -4   3   6 96.6252 188.704  15
  -4   3   5 10407.2 1063.91  15
  -4   3   4 2873.78 593.554  15
  -4   3   3 1993.56 471.156  15
  -4   3   2-222.078 175.752  15
  -4   3   1 30859.2 1731.55  15
   4  -3  -1 33734.0 1584.24  14
  -4   3   0 18231.7 1277.65  15
   4  -3   0 15602.4 1084.84  14
  -4   3  -1 1017.92 295.573  15
   4  -3   1 425.947 236.077  14
  -4   3  -1 703.833 393.419  21
  -4   3  -2 7790.46 772.673  15
   4  -3   2 8040.83 1017.72  24
  -4   3  -2 8179.95 925.397  21
   4  -3   3 7124.72 933.216  24
  -4   3  -3 7464.34 888.961  21
   4  -3   4 18695.9 1522.33  24
  -4   3  -4 20061.0 1442.94  21
   4  -3   5 974.382 375.398  24
   4  -3   6 337.451 256.314  24
   4  -3   7 50.4381 158.381  24
   4  -3   8 533.116 275.732  17
   4  -3   9 111.498 166.339  17
   4  -3  10 2078.66 394.688  17
  -4   3 -11 79.8368 71.3932  25
   4  -3  11 26.3125 115.802  17
  -4   2  10 3443.02 482.343  20
  -4   2   9 2197.81 481.417  20
  -4   2   8 3926.07 663.672  20
  -4   2   7 3122.73 553.038  15
  -4   2   7 3100.72 631.263  20
  -4   2   6 13744.4 1154.17  15
  -4   2   5 1964.67 465.638  15
  -4   2   4-46.7458 147.155  15
  -4   2   3 7988.93 905.019  15
  -4   2   2 153.807 185.860  15
  -4   2   2 201.350 163.002  22
  -4   2   1 20432.0 1349.30  15
  -4   2   0 1122.40 339.329  15
  -4   2  -1 1149.10 327.400  15
  -4   2  -2 821.537 284.710  15
   4  -2   3 2042.07 536.180  24
   4  -2   4 4636.56 736.738  24
   4  -2   5 6313.09 889.276  24
   4  -2   6 79.2946 167.751  24
  -4   2  -6 40.1954 109.641  22
   4  -2   7 3900.73 646.217  17
   4  -2   8 140.449 143.323  17
   4  -2   9 143.873 162.254  17
  -4   2 -10 110.202 128.784  25
   4  -2  10-48.8809 129.070  17
   4  -2  11 73.0259 113.227  17
  -4   1  11 1702.81 318.939  20
  -4   1  10-17.2756 116.202  20
  -4   1   9 38.8264 189.914  20
  -4   1   8 738.292 320.634  20
  -4   1   7 429.345 220.461  15
  -4   1   7 66.0621 169.825  20
  -4   1   6 4203.12 627.867  15
  -4   1   5 11356.1 1030.37  15
  -4   1   4 2491.97 493.225  15
  -4   1   3 8284.10 863.236  15
  -4   1   2 2115.06 430.685  15
  -4   1   2 1847.23 361.910  22
  -4   1   1 3733.75 575.151  15
  -4   1   1 3538.61 522.476  22
  -4   1   1 3261.55 505.916   7
  -4   1   0 16143.4 1146.21  15
  -4   1   0 15525.8 1063.76  22
  -4   1   0 15848.7 1102.44   7
  -4   1  -1 1622.84 371.375  15
   4  -1   1 1747.19 386.851   5
  -4   1  -1 1437.75 342.036  22
  -4   1  -1 1407.56 342.460   7
  -4   1  -2 6664.20 717.683  15
   4  -1   2 6946.31 785.926   5
  -4   1  -2 8098.53 767.879  22
   4  -1   3 3751.73 683.902  24
  -4   1  -3 2853.13 455.954  22
   4  -1   4 226.099 219.251  24
  -4   1  -4 301.892 165.786  22
   4  -1   5-160.739 198.307  24
  -4   1  -5 486.114 253.379  22
   4  -1   5 658.133 274.628  17
   4  -1   6 1188.37 368.440  17
   4  -1   7 380.757 242.307  17
   4  -1   8-47.3843 172.771  17
  -4   1  -9 75.7891 115.931  25
   4  -1   9 81.8323 138.004  17
  -4   1 -10 2060.10 277.921  25
   4  -1  10 5471.12 614.725  17
   4  -1  11 51.6029 75.1634  17
  -4   0  11 1223.60 312.646  20
  -4   0  10 3263.99 580.757  20
  -4   0   9 224.150 203.777  20
  -4   0   8 23404.4 1690.25  20
  -4   0   7 2118.18 525.818  20
  -4   0   6 760.455 275.778  15
  -4   0   5 211.774 190.109  15
  -4   0   4 12597.4 1056.53  15
  -4   0   3 8683.60 881.303  15
  -4   0   3 9693.29 854.310  22
  -4   0   2 2974.09 510.596  15
  -4   0   2 2620.24 463.723  22
  -4   0   2 3158.02 498.475   7
  -4   0   1 21532.2 1351.12  15
  -4   0   1 20649.7 1268.24   7
  -4   0   0 9494.52 857.926   7
  -4   0  -1 6254.53 714.660  15
   4   0   1 5847.17 727.629   5
  -4   0  -1 5942.41 655.080  22
  -4   0  -2 2336.09 425.225  22
  -4   0  -3 32.5542 115.993  22
  -4   0  -4 3639.44 534.293  22
   4   0   5 2669.10 523.843  17
   4   0   6 871.825 299.784  17
   4   0   7 6253.75 788.147  17
  -4   0  -8 663.277 229.001  25
   4   0   8 833.319 311.877  17
  -4   0  -9 85.7215 86.0628  25
   4   0   9 4.12019 113.041  17
   4   0  10 70.1135 113.343  17
  -4  -1  11 2638.29 466.545  20
  -4  -1  10 2027.27 479.951  20
  -4  -1   9 1361.31 423.663  20
  -4  -1   8-333.530 220.360  12
  -4  -1   8-40.3648 143.569  20
  -4  -1   7 676.484 302.219  20
  -4  -1   6 13991.3 1061.63  15
  -4  -1   5 450.984 228.863  15
  -4  -1   4 8177.80 823.280  15
  -4  -1   3 31951.3 1622.03  15
  -4  -1   3 30938.6 1528.99  22
  -4  -1   2 1488.99 374.359  15
  -4  -1   2 1388.73 335.325  22
  -4  -1   2 1521.12 346.184   7
  -4  -1   1 209.607 183.375  15
  -4  -1   1 355.671 243.828  22
  -4  -1   1 353.105 194.440   7
  -4  -1   0 725.632 246.202  22
  -4  -1  -1 714.267 241.959  25
   4   1   1 749.222 276.057   5
  -4  -1  -1 852.637 287.110  22
  -4  -1  -2 12892.9 939.521  25
  -4  -1  -2 14996.1 1051.02  22
  -4  -1  -3-34.8076 109.457  25
  -4  -1  -3-53.3536 144.353  22
  -4  -1  -4 5313.85 640.166  25
  -4  -1  -4 5656.78 648.051  22
  -4  -1  -5 0.33812 95.3874  25
  -4  -1  -6 4921.49 597.849  25
   4   1   6 5271.07 737.309  17
  -4  -1  -7 1396.89 328.496  25
   4   1   7 1097.58 354.283  17
  -4  -1  -8 15864.2 949.598  25
   4   1   8 17209.8 1236.86  17
  -4  -1  -9 60.2608 81.7524  25
   4   1   9 59.8787 135.383  17
  -4  -1 -10 527.917 171.850  18
  -4  -2  12 593.412 190.832  20
  -4  -2  11 629.925 255.992  20
  -4  -2  10 1760.34 457.197  20
  -4  -2   9 341.847 240.627  20
  -4  -2   8-116.746 160.378  12
  -4  -2   8-80.9565 160.944  20
  -4  -2   7 261.465 217.853  12
  -4  -2   7 57.6222 153.604  20
  -4  -2   6 27463.5 1846.01  12
  -4  -2   5 870.487 268.973  15
  -4  -2   5 986.224 372.967  12
  -4  -2   4 10671.1 934.787  15
  -4  -2   3 21990.2 1363.21  15
  -4  -2   3 25997.9 1709.02  12
  -4  -2   2 5956.49 701.623  22
  -4  -2   2 5561.07 816.332  12
  -4  -2   2 4898.46 621.549   7
  -4  -2   1 5940.42 644.023  25
  -4  -2   1 6948.48 743.767  22
  -4  -2   1 7373.56 889.226  12
  -4  -2   1 7747.15 772.491   7
  -4  -2   0 426.539 201.746  25
  -4  -2   0 797.560 312.674  22
  -4  -2   0 1280.89 381.070  12
  -4  -2  -1 717.413 245.882  25
  -4  -2  -1 876.550 264.620  22
  -4  -2  -2 3008.97 483.773  25
  -4  -2  -2 3030.37 494.095  22
  -4  -2  -3 136.023 162.599  25
  -4  -2  -3 413.424 202.518  22
  -4  -2  -4 136.608 111.277  25
  -4  -2  -5 4511.73 575.848  25
  -4  -2  -6 1879.24 371.430  25
   4   2   6 2522.86 507.105  17
  -4  -2  -7 908.202 270.823  25
   4   2   7 986.570 318.873  17
  -4  -2  -8 953.330 239.689  25
   4   2   8 1031.67 296.398  17
  -4  -2  -9 2516.92 371.217  18
  -4  -3  12 1483.13 301.952  20
  -4  -3  11 3540.11 555.682  20
  -4  -3  10-25.1877 182.533  20
  -4  -3   9 433.456 227.297  20
  -4  -3   8 1397.45 317.582  23
  -4  -3   8 1390.71 410.906  12
  -4  -3   8 1322.29 421.498  20
  -4  -3   7 614.978 256.500  23
  -4  -3   7 798.780 328.768  12
  -4  -3   7 461.661 261.221  20
  -4  -3   6 1947.89 512.993  12
  -4  -3   5 5209.94 799.836  12
  -4  -3   4 26910.3 1778.58  12
  -4  -3   3 160.832 232.503  12
  -4  -3   2 858.866 253.685  25
  -4  -3   2 436.580 272.309  12
  -4  -3   1 2319.92 430.739  25
  -4  -3   1 3342.58 612.414  12
  -4  -3   0 5694.04 654.709  25
  -4  -3   0 5643.88 806.733  12
  -4  -3  -1 5.10793 112.460  25
  -4  -3  -2 5854.13 664.186  25
  -4  -3  -3 128.041 133.475  25
  -4  -3  -4 2342.06 433.703  25
  -4  -3  -5 4206.89 568.698  25
  -4  -3  -6 4564.05 547.611  25
  -4  -3  -7-339.713 153.799  25
  -4  -3  -8 1146.52 284.045  18
   4   3   9-35.1451 75.1030  19
  -4  -3  -9 216.831 110.988  18
  -4  -4  11 272.007 182.091  20
  -4  -4  10 1402.31 283.117  23
  -4  -4  10 1591.45 408.954  20
  -4  -4   9 27.0183 106.518  23
  -4  -4   9 211.491 191.007  20
  -4  -4   8 7346.40 737.974  23
  -4  -4   8 7583.30 938.316  12
  -4  -4   8 8468.88 980.474  20
  -4  -4   7 1153.23 397.268  12
  -4  -4   7 1038.48 381.766  20
  -4  -4   6 15332.9 1397.36  12
  -4  -4   5 4223.98 756.263  12
  -4  -4   4 2510.92 580.768  12
  -4  -4   4 2060.69 375.478   8
  -4  -4   3 650.681 233.958  25
  -4  -4   3 968.470 374.342  12
  -4  -4   3 482.380 199.658   8
  -4  -4   2 1329.61 343.579  25
  -4  -4   2 2277.21 551.947  12
  -4  -4   1 2159.81 426.913  25
  -4  -4   1 2906.44 610.324  12
  -4  -4   0 485.085 222.026  25
  -4  -4   0 233.307 200.291  12
  -4  -4  -1 4276.30 582.656  25
  -4  -4  -2 1120.93 313.679  25
  -4  -4  -3 29.5057 128.962  25
  -4  -4  -4 67.3077 127.673  25
  -4  -4  -5 9705.28 788.416  25
  -4  -4  -5 8758.92 865.397  18
  -4  -4  -6 592.194 187.991  25
  -4  -4  -6 914.369 271.924  18
  -4  -4  -7 2393.79 402.616  18
   4   4   8 116.832 107.438  19
  -4  -4  -8 224.909 122.479  18
  -4  -5  11-50.3992 96.6948  23
  -4  -5  10 92.2779 122.201  23
  -4  -5   9 4171.00 534.014  23
  -4  -5   8 748.310 246.170  23
  -4  -5   8 309.532 199.340  12
  -4  -5   7 142.571 274.882  12
  -4  -5   6 5798.90 899.256  12
  -4  -5   5-291.789 208.873  12
  -4  -5   4 261.680 175.744  25
  -4  -5   4 74.8089 170.274  12
  -4  -5   3 5343.61 636.595  25
  -4  -5   3 6679.78 948.599  12
  -4  -5   2 547.948 226.066  25
  -4  -5   2 462.826 306.417  12
  -4  -5   1 821.575 274.500  25
  -4  -5   1 892.484 372.505  12
  -4  -5   0 338.109 195.885  25
  -4  -5   0-102.954 173.531  12
  -4  -5  -1 381.819 227.576  25
  -4  -5  -2 2249.97 416.453  25
  -4  -5  -2 2305.07 446.113  18
  -4  -5  -3 159.126 159.915  25
  -4  -5  -3-138.439 148.422  18
  -4  -5  -4 87.8460 111.154  25
  -4  -5  -4 91.8653 151.315  18
  -4  -5  -5 3031.24 406.133  25
  -4  -5  -5 2732.29 457.242  18
  -4  -5  -6 1830.98 351.209  18
   4   5   7-4.92582 64.5810  19
  -4  -5  -7 210.297 127.043  18
  -4  -6  11 771.029 177.531  23
  -4  -6  10 721.473 206.862  23
  -4  -6   9 771.779 239.085  23
  -4  -6   8 5248.23 633.224  23
  -4  -6   8 5606.67 818.709  12
  -4  -6   7 838.959 307.117  23
  -4  -6   7 605.289 334.841  12
  -4  -6   6 1258.59 471.900  12
  -4  -6   5 138.980 136.137  25
  -4  -6   5 103.074 200.602  12
  -4  -6   4 1612.50 363.159  25
  -4  -6   4 1077.61 421.416  12
  -4  -6   3 509.061 239.114  25
  -4  -6   3 262.475 284.062  12
  -4  -6   2 685.139 270.405  25
  -4  -6   2 491.853 296.830  12
  -4  -6   1 12819.4 992.180  25
  -4  -6   1 13299.6 1309.91  12
  -4  -6   0 3803.44 536.612  25
  -4  -6  -1 4.66575 96.9656  25
  -4  -6  -2 4806.50 572.720  25
  -4  -6  -2 4066.93 535.930  18
  -4  -6  -3 3021.27 439.625  25
  -4  -6  -3 3158.96 470.977  18
  -4  -6  -4 775.590 202.802  25
  -4  -6  -4 596.001 192.199  18
  -4  -6  -5 48.7776 75.3057  25
  -4  -6  -5-41.1142 96.6885  18
  -4  -6  -6 555.112 156.953  18
  -4  -7  11 8665.89 525.728  23
  -4  -7  10 22.0919 90.5154  23
  -4  -7   9 158.428 145.427  23
  -4  -7   8 37.1900 144.107  23
  -4  -7   7 889.195 299.237  23
  -4  -7   7 986.323 359.006  12
  -4  -7   6 1657.50 471.670  12
  -4  -7   5 1554.90 324.645  25
  -4  -7   5 1838.36 522.352  12
  -4  -7   4 1840.33 371.134  25
  -4  -7   4 2320.07 577.985  12
  -4  -7   3 568.488 239.802  25
  -4  -7   3 98.8947 157.155  12
  -4  -7   2 230.696 164.348  25
  -4  -7   1 756.583 283.760  25
  -4  -7   0 1724.84 359.675  25
  -4  -7  -1 212.164 158.072  25
  -4  -7  -2 122.496 137.298  25
  -4  -7  -2 88.6086 99.8507  18
  -4  -7  -3 4419.10 439.457  25
  -4  -7  -3 3976.19 457.046  18
  -4  -7  -4 4202.51 353.997  25
  -4  -7  -4 4600.76 445.148  18
  -4  -7  -5 1396.19 210.651  18
  -4  -8  10 204.245 114.314  23
  -4  -8   9 92.0662 100.526  23
  -4  -8   8 3408.22 461.004  23
  -4  -8   7 274.853 150.406  23
  -4  -8   6 11.0970 145.683  23
  -4  -8   5 227.160 152.777  25
  -4  -8   4 2740.11 424.284  25
  -4  -8   3 2609.22 409.244  25
  -4  -8   2 2091.68 372.304  25
  -4  -8   1 107.961 124.905  25
  -4  -8   0 1002.15 242.988  25
  -4  -8  -1 451.057 168.439  25
  -4  -8  -2 16.8946 57.5190  25
  -4  -8  -2 86.8860 75.1092  18
  -4  -8  -3 232.006 95.7269  18
  -4  -9   8 1555.83 249.089  23
  -4  -9   7 76.3260 105.036  23
  -4  -9   7 68.2755 90.0662  11
  -4  -9   6 72.0942 89.9723  23
  -4  -9   6-25.3571 106.968  11
  -4  -9   5 0.22614 115.896  23
  -4  -9   4 687.325 197.164  25
  -4  -9   4 780.624 195.254  23
  -4  -9   3 909.515 226.522  25
  -4  -9   2 178.065 112.242  25
  -4  -9   1 375.608 146.510  25
  -4  -9   1 313.141 134.985  11
  -4  -9   0 30.6098 72.2669  25
  -4 -10   5 59.1663 61.7126  11
  -4 -10   4 1578.29 243.596  11
  -5   7  -1 1104.12 212.371  22
  -5   7  -2 296.603 139.645  22
  -5   7  -3 624.352 193.375  22
   5  -7   4 3471.54 407.758  24
  -5   7  -4 3418.84 426.377  22
   5  -7   5-97.6969 96.2851  24
  -5   7  -5 371.178 155.567  22
  -5   7  -6 2313.34 306.591  22
  -5   6   3 251.164 131.685  15
  -5   6   2 248.215 142.533  15
  -5   6   1 980.255 259.596  15
  -5   6   0 51.1213 84.2659  15
  -5   6   0 359.544 166.067  22
  -5   6  -1 1046.90 269.472  22
  -5   6  -2 520.592 225.920  22
  -5   6  -3 5641.44 608.011  22
   5  -6   4 851.514 235.368  24
  -5   6  -4 994.304 283.917  22
   5  -6   5 652.147 217.314  24
  -5   6  -5 381.521 195.645  22
   5  -6   6 1357.01 293.956  24
  -5   6  -6 1042.67 238.199  22
   5  -6   6 1025.75 225.469  17
  -5   5   5 14.4423 69.7997  15
  -5   5   4 579.684 209.632  15
  -5   5   3 386.580 197.018  15
  -5   5   2 6825.98 737.887  15
  -5   5   1 26.7978 120.340  15
  -5   5   0 650.337 253.172  15
  -5   5   0 499.956 229.286  22
  -5   5  -1 941.729 276.208  15
  -5   5  -1 965.477 295.430  22
  -5   5  -2 3252.52 515.163  22
  -5   5  -3 1813.26 382.969  22
   5  -5   4 1190.57 330.094  24
  -5   5  -4 898.481 307.137  22
   5  -5   5 449.718 201.168  24
  -5   5  -5 330.390 185.529  22
  -5   5  -6 4229.83 483.100  22
   5  -5   6 3288.56 422.124  17
  -5   5  -7 114.448 98.5224  25
  -5   5  -7 179.877 96.3281  22
   5  -5   7 116.791 87.0314  17
  -5   4   6 779.740 191.199  15
  -5   4   5 6222.53 619.027  15
  -5   4   4 858.476 279.742  15
  -5   4   3 729.158 298.290  15
  -5   4   2 4.93902 161.521  15
  -5   4   1 401.441 183.705  15
  -5   4   1 202.802 171.089  22
  -5   4   0 279.287 190.520  15
  -5   4   0 651.705 271.556  22
  -5   4  -1 15198.0 1081.45  15
  -5   4  -1 15364.5 1113.63  22
  -5   4  -2 1473.31 403.319  22
  -5   4  -3 5925.30 695.202  22
   5  -4   4 352.071 201.292  24
  -5   4  -4 707.229 255.368  22
   5  -4   5 444.062 232.067  24
  -5   4  -5 120.850 133.295  22
  -5   4  -6 7775.38 652.312  22
   5  -4   6 8190.13 694.651  17
  -5   4  -7 1493.10 243.089  22
   5  -4   7 1641.13 298.614  17
  -5   4  -8 75.0028 80.2713  25
   5  -4   8 135.640 94.1923  17
  -5   3   6 708.316 219.623  15
  -5   3   5 452.438 209.138  15
  -5   3   4 10089.0 937.664  15
  -5   3   3 485.761 279.972  15
  -5   3   2 3374.84 572.249  15
  -5   3   1 1135.83 353.803  15
  -5   3   1 1022.57 296.310  22
  -5   3   0 63.6071 170.191  15
  -5   3   0-70.0719 163.046  22
  -5   3  -1 141.306 144.331  15
  -5   3  -1 455.462 257.028  22
  -5   3  -2 1246.41 350.105  22
  -5   3  -3 623.862 231.882  22
  -5   3  -4 39.6245 107.394  25
  -5   3  -4 340.570 233.371  22
  -5   3  -5 9548.01 790.502  22
  -5   3  -6 177.537 126.826  25
  -5   3  -6 346.766 180.031  22
  -5   3  -7 1019.75 243.573  25
   5  -3   7 1772.87 313.988  17
  -5   3  -8 413.783 163.536  25
   5  -3   8 1036.48 212.058  17
  -5   2   7 3982.65 427.268  15
  -5   2   7 4133.57 525.375  12
  -5   2   6 2717.00 429.577  15
  -5   2   5-5.63121 145.433  15
  -5   2   4 650.611 264.818  15
  -5   2   3 45.6245 164.650  15
  -5   2   2 1240.42 387.059  15
  -5   2   2 1074.91 318.467  22
  -5   2   1 5882.69 747.938  15
  -5   2   1 5269.31 664.141  22
  -5   2   0 1666.71 426.818  15
  -5   2   0 1337.91 374.199  22
  -5   2  -1 10829.5 950.444  22
  -5   2  -2 59.1855 212.356  22
  -5   2  -3 3056.16 471.971  25
  -5   2  -3 3126.13 534.132  22
  -5   2  -4 6177.57 656.519  25
  -5   2  -4 6132.42 672.536  22
  -5   2  -5 4933.50 584.216  25
  -5   2  -5 4955.39 570.056  22
  -5   2  -6 146.819 151.902  25
  -5   2  -6-9.45036 86.0768  22
  -5   2  -7 451.511 178.258  25
  -5   2  -8 133.888 106.361  25
   5  -2   8 826.942 197.608  17
  -5   1   8 1060.54 234.702  12
  -5   1   7 1027.46 296.071  12
  -5   1   6 2303.85 413.909  15
  -5   1   5 746.206 294.769  15
  -5   1   4 2834.89 522.183  15
  -5   1   3 254.579 219.625  15
  -5   1   2 716.306 293.292  15
  -5   1   2 668.308 268.353  22
  -5   1   1 11334.0 1013.54  15
  -5   1   1 9877.08 922.124  22
  -5   1   0 6521.77 757.421  22
  -5   1  -1 5334.04 693.269  22
  -5   1  -2 886.053 287.610  25
  -5   1  -2 713.766 275.066  22
  -5   1  -3 5485.26 647.165  25
  -5   1  -3 5830.08 682.252  22
  -5   1  -4 1440.23 344.514  25
  -5   1  -4 1199.92 327.903  22
  -5   1  -5 213.129 165.849  25
  -5   1  -5 561.851 233.622  22
  -5   1  -6 868.295 240.705  25
  -5   1  -7-119.269 120.671  25
  -5   1  -8 431.934 139.794  25
  -5   0   8 405.284 171.291  12
  -5   0   7 4229.63 615.896  12
  -5   0   6 106.564 191.127  12
  -5   0   5 1350.15 367.788  15
  -5   0   5 1008.43 387.832  12
  -5   0   4 266.336 216.086  15
  -5   0   3 279.906 247.974  15
  -5   0   2 8880.63 888.999  22
  -5   0   2 9286.91 1044.88  12
  -5   0   1 19139.0 1287.75  22
  -5   0   1 21695.1 1563.07  12
  -5   0   0 2816.88 514.157  22
  -5   0   0 1333.07 411.356  12
  -5   0  -1 4254.63 619.404  22
  -5   0  -2 7.06968 143.020  25
  -5   0  -2 98.2952 148.731  22
  -5   0  -3 3867.79 537.127  25
  -5   0  -3 3825.92 548.408  22
  -5   0  -4 322.516 185.221  25
  -5   0  -4 422.583 222.931  22
  -5   0  -5 561.530 227.287  25
  -5   0  -6 1371.62 300.914  25
  -5   0  -7 18.7475 108.262  25
  -5   0  -8 2654.35 302.143  25
  -5  -1   8-59.1742 107.489  12
  -5  -1   7 702.519 274.792  12
  -5  -1   6-76.4324 202.417  12
  -5  -1   5 0.52336 218.264  12
  -5  -1   4 5572.79 810.880  12
  -5  -1   3 2203.61 516.775  12
  -5  -1   2 18344.3 1448.63  12
  -5  -1   1 6074.19 829.654  12
  -5  -1   0 1272.01 377.725  22
  -5  -1   0 703.177 294.762  12
  -5  -1  -1 1200.42 309.205  25
  -5  -1  -1 1838.47 409.121  22
  -5  -1  -2 1150.47 314.463  25
  -5  -1  -3 247.202 191.894  25
  -5  -1  -4 2147.24 386.107  25
  -5  -1  -5 583.321 218.872  25
  -5  -1  -6 280.032 142.986  25
  -5  -1  -7 512.406 152.149  25
  -5  -2   8-28.4611 98.6998  12
  -5  -2   7 1276.98 361.167  12
  -5  -2   6 613.502 293.501  12
  -5  -2   5-194.051 188.718  12
  -5  -2   4 21708.8 1588.38  12
  -5  -2   3 2156.74 517.247  12
  -5  -2   2 7045.58 910.767  12
  -5  -2   1 178.861 174.630  12
  -5  -2   0 552.675 214.229  25
  -5  -2   0 31.3587 135.540  12
  -5  -2  -1 5794.18 646.358  25
  -5  -2  -2 2438.58 428.071  25
  -5  -2  -3 3798.33 525.418  25
  -5  -2  -4 63.5790 126.728  25
  -5  -2  -5 418.644 173.354  25
  -5  -2  -6 1437.19 256.013  25
  -5  -2  -6 1696.00 307.885  18
  -5  -2  -7 615.678 140.955  25
  -5  -2  -7 799.315 190.518  18
  -5  -3   8 600.159 240.382  12
  -5  -3   7 2634.83 507.761  12
  -5  -3   6 3614.17 461.502  23
  -5  -3   6 5946.64 790.666  12
  -5  -3   5 17.3892 187.690  12
  -5  -3   4 1934.88 496.487  12
  -5  -3   3 2727.98 588.133  12
  -5  -3   2 4440.59 727.857  12
  -5  -3   1 225.026 137.610  25
  -5  -3   1 27.6373 145.849  12
  -5  -3   0 4888.84 577.686  25
  -5  -3   0 6393.30 819.743  12
  -5  -3  -1 628.601 236.476  25
  -5  -3  -2 111.317 136.477  25
  -5  -3  -3 5379.91 579.648  25
  -5  -3  -4 166.973 132.899  25
  -5  -3  -4 202.353 116.717  18
  -5  -3  -5 1059.24 227.450  25
  -5  -3  -5 992.411 228.444  18
  -5  -3  -6-0.31849 64.0064  25
  -5  -3  -6 133.741 97.4105  18
  -5  -4   8 166.339 131.278  12
  -5  -4   7 135.631 113.079  23
  -5  -4   7-88.2858 152.390  12
  -5  -4   6 4220.69 507.738  23
  -5  -4   6 5040.79 731.457  12
  -5  -4   5 4120.73 703.773  12
  -5  -4   4 809.648 347.094  12
  -5  -4   3 108.300 171.868  12
  -5  -4   2 1376.98 311.137  25
  -5  -4   2 1118.64 422.461  12
  -5  -4   1 2055.15 364.225  25
  -5  -4   1 1786.18 461.176  12
  -5  -4   0 378.570 179.479  25
  -5  -4  -1 3501.96 492.509  25
  -5  -4  -2 979.468 258.111  25
  -5  -4  -3 260.759 138.559  25
  -5  -4  -4 163.240 122.630  25
  -5  -4  -4-0.42702 69.6977  18
  -5  -4  -5-47.1805 68.3918  25
  -5  -4  -5-109.240 82.4645  18
  -5  -5   8 4.67760 80.7259  23
  -5  -5   8 415.349 178.547  12
  -5  -5   7 409.310 164.469  23
  -5  -5   7 303.951 205.998  12
  -5  -5   6 100.849 125.534  23
  -5  -5   6-127.217 193.071  12
  -5  -5   5 1383.82 403.103  12
  -5  -5   4 6453.92 837.797  12
  -5  -5   3 416.223 271.229  12
  -5  -5   2 3009.46 406.742  25
  -5  -5   2 2962.25 572.800  12
  -5  -5   1 301.830 159.081  25
  -5  -5   1 237.965 197.230  12
  -5  -5   0 2495.45 377.055  25
  -5  -5  -1 3695.63 447.046  25
  -5  -5  -2 83.4583 105.449  25
  -5  -5  -3 324.412 139.213  25
  -5  -5  -4-41.4265 75.9944  25
  -5  -6   7 207.857 119.565  23
  -5  -6   6 723.208 219.943  23
  -5  -6   6 899.622 308.267  12
  -5  -6   5 1273.28 365.665  12
  -5  -6   4 245.862 240.036  12
  -5  -6   3 49.5407 89.2123  25
  -5  -6   3-48.0679 174.451  12
  -5  -6   2 329.273 128.402  25
  -5  -6   1 180.659 127.641  25
  -5  -6   0 566.973 181.767  25
  -5  -6  -1 99.4332 112.142  25
  -5  -6  -2 246.488 110.341  25
  -5  -7   6 3020.30 352.870  23
  -5  -7   5 347.900 151.904  23
  -5  -7   4 434.477 130.618  25
  -5  -7   3 86.7592 82.4754  25
  -5  -7   2 2972.58 328.886  25
  -5  -7   1 131.579 78.6168  25
  -5  -7   0 15.4388 79.0074  25
  -6   1   3 1953.69 347.297  12
  -6   1   2-68.8104 108.003  12
  -6   0   3 20.7771 106.765  12
  -6   0   2 5748.03 592.648  12
  -6  -1   4 170.419 136.788  12
  -6  -1   3 256.157 175.494  12
  -6  -1   2 1097.56 274.545  12
  -6  -2   3 124.744 114.753  12
   0   0   0    0.00    0.00   0
TITL YBN-175-B in P-1
REM P-1 (#2 in standard setting)
CELL 1.54184   5.003897  10.752488  12.617658 108.6153  91.7706  90.1671
ZERR    2.00   0.000742   0.001183   0.001249   0.0096   0.0106   0.0105
LATT  1
SFAC C H N O Cl
UNIT 28.00 28.00 2.00 2.00 2.00
TREF
HKLF 4
END
;
_shelx_hkl_checksum              61527
_shelx_res_file
;
TITL cg175
CELL 1.54184 5.0039 10.7525 12.6177 108.615 91.771 90.167
ZERR 2 0.0007 0.0012 0.0012 0.010 0.011 0.011
LATT 1
SFAC C H N O Cl
UNIT 30 28 2 2 2
TEMP -100
SIZE 0.28 0.16 0.08
OMIT -2 180.0
L.S. 50
PLAN  10
ACTA
BOND $H
CONF
HTAB
fmap 2
WGHT    0.093000    0.099700
FVAR       9.25768
C1    1    0.296452    0.765717    0.549782    11.00000    0.03235    0.03697 =
         0.04425    0.01166    0.00395    0.00639
O1    4    0.059810    0.737099    0.529408    11.00000    0.02774    0.04704 =
         0.05799    0.00310    0.00498    0.00481
N1    3    0.492864    0.703225    0.482612    11.00000    0.02472    0.04144 =
         0.04833    0.01405    0.00393    0.00394
AFIX  43
H1    2    0.657209    0.733053    0.501818    11.00000   -1.20000
AFIX   0
C2    1    0.395070    0.873460    0.654097    11.00000    0.03453    0.04720 =
         0.05365    0.00611   -0.00306    0.00585
AFIX  23
H2A   2    0.467312    0.832635    0.708867    11.00000   -1.20000
H2B   2    0.543597    0.921858    0.634092    11.00000   -1.20000
AFIX   0
C11   1    0.457953    0.593669    0.383745    11.00000    0.02925    0.03793 =
         0.04070    0.01524    0.00414    0.01267
C12   1    0.622318    0.585383    0.294910    11.00000    0.03231    0.04658 =
         0.05039    0.02296    0.00680    0.00666
AFIX  43
H12   2    0.748904    0.653874    0.302193    11.00000   -1.20000
AFIX   0
C13   1    0.608189    0.480841    0.196128    11.00000    0.03468    0.05162 =
         0.04065    0.02115    0.00724    0.01555
C14   1    0.419701    0.383148    0.189974    11.00000    0.04273    0.04154 =
         0.03892    0.01247    0.00625    0.01545
CL14  5    0.385685    0.247326    0.068534    11.00000    0.06597    0.05030 =
         0.04888    0.00332    0.00993    0.01148
C15   1    0.255512    0.389199    0.277442    11.00000    0.04321    0.03737 =
         0.05309    0.01600    0.00834    0.00485
AFIX  43
H15   2    0.129805    0.320452    0.270545    11.00000   -1.20000
AFIX   0
C16   1    0.273129    0.494917    0.375127    11.00000    0.03588    0.04043 =
         0.04577    0.01807    0.01026    0.00907
AFIX  43
H16   2    0.159901    0.499477    0.435282    11.00000   -1.20000
AFIX   0
C17   1    0.788353    0.476544    0.101640    11.00000    0.04971    0.07496 =
         0.05267    0.02483    0.01434    0.01205
AFIX 137
H17A  2    0.681199    0.486238    0.038480    11.00000   -1.50000
H17B  2    0.880624    0.392341    0.078037    11.00000   -1.50000
H17C  2    0.920480    0.548256    0.126912    11.00000   -1.50000
AFIX   0
C21   1    0.183530    0.969725    0.708857    11.00000    0.03400    0.03470 =
         0.04555    0.00591   -0.00021    0.00015
C22   1    0.082439    0.971810    0.810175    11.00000    0.04823    0.04373 =
         0.04408    0.01591   -0.00149    0.00573
AFIX  43
H22   2    0.147535    0.911896    0.845939    11.00000   -1.20000
AFIX   0
C23   1   -0.113064    1.060528    0.860077    11.00000    0.05562    0.05526 =
         0.04023    0.00655    0.00836    0.00234
AFIX  43
H23   2   -0.181460    1.060296    0.929417    11.00000   -1.20000
AFIX   0
C24   1   -0.208874    1.148704    0.810368    11.00000    0.04385    0.03935 =
         0.05559   -0.00021    0.00527    0.00857
AFIX  43
H24   2   -0.342411    1.209460    0.844990    11.00000   -1.20000
AFIX   0
C25   1   -0.108760    1.147936    0.709538    11.00000    0.04661    0.03831 =
         0.06411    0.01800   -0.00111    0.00722
AFIX  43
H25   2   -0.174244    1.208204    0.674219    11.00000   -1.20000
AFIX   0
C26   1    0.086812    1.059672    0.659583    11.00000    0.04547    0.04604 =
         0.04800    0.01737    0.00538    0.00169
AFIX  43
H26   2    0.155754    1.060732    0.590560    11.00000   -1.20000
AFIX   0
HKLF 4
REM  cg175
REM R1 =  0.0630 for    1865 Fo > 4sig(Fo)  and  0.0796 for all    2447 data
REM    164 parameters refined using      0 restraints
END
WGHT      0.0930      0.0997
REM Instructions for potential hydrogen bonds
EQIV $1 x+1, y, z
HTAB N1 O1_$1
REM Highest difference peak  0.367,  deepest hole -0.295,  1-sigma level  0.064
Q1    1   0.3777  0.2948  0.1416  11.00000  0.05    0.37
Q2    1   0.3240  0.2697  0.1426  11.00000  0.05    0.36
Q3    1   0.4810  0.2429  0.0014  11.00000  0.05    0.28
Q4    1   0.4115  0.3150  0.2400  11.00000  0.05    0.26
Q5    1   0.3689  0.4081  0.2381  11.00000  0.05    0.26
Q6    1   0.5149  0.5952  0.3347  11.00000  0.05    0.25
Q7    1   0.0829  0.6938  0.4595  11.00000  0.05    0.24
Q8    1   0.6533  0.4797  0.1354  11.00000  0.05    0.23
Q9    1  -0.0172  0.7645  0.6025  11.00000  0.05    0.22
Q10   1   0.2658  1.1421  0.8255  11.00000  0.05    0.22
;
_shelx_res_checksum              2679
_shelxl_version_number           2.014
loop_
_space_group_symop_operation_xyz
'x, y, z'
'-x, -y, -z'
loop_
_atom_site_type_symbol
_atom_site_label
_atom_site_fract_x
_atom_site_fract_y
_atom_site_fract_z
_atom_site_U_iso_or_equiv
_atom_site_adp_type
_atom_site_calc_flag
_atom_site_occupancy
C C1 0.2965(6) 0.7657(3) 0.5498(3) 0.0381(7) Uani d 1
O O1 0.0598(4) 0.7371(2) 0.5294(2) 0.0474(6) Uani d 1
N N1 0.4929(5) 0.7032(2) 0.4826(2) 0.0382(6) Uani d 1
H H1 0.6572 0.7331 0.5018 0.046 Uiso calc 1
C C2 0.3951(6) 0.8735(3) 0.6541(3) 0.0476(8) Uani d 1
H H2A 0.4673 0.8326 0.7089 0.057 Uiso calc 1
H H2B 0.5436 0.9219 0.6341 0.057 Uiso calc 1
C C11 0.4580(6) 0.5937(3) 0.3837(2) 0.0352(6) Uani d 1
C C12 0.6223(6) 0.5854(3) 0.2949(3) 0.0412(7) Uani d 1
H H12 0.7489 0.6539 0.3022 0.049 Uiso calc 1
C C13 0.6082(6) 0.4808(3) 0.1961(3) 0.0406(7) Uani d 1
C C14 0.4197(6) 0.3831(3) 0.1900(3) 0.0410(7) Uani d 1
Cl Cl14 0.38569(19) 0.24733(8) 0.06853(7) 0.0578(3) Uani d 1
C C15 0.2555(7) 0.3892(3) 0.2774(3) 0.0440(7) Uani d 1
H H15 0.1298 0.3205 0.2705 0.053 Uiso calc 1
C C16 0.2731(6) 0.4949(3) 0.3751(3) 0.0395(7) Uani d 1
H H16 0.1599 0.4995 0.4353 0.047 Uiso calc 1
C C17 0.7884(7) 0.4765(4) 0.1016(3) 0.0578(9) Uani d 1
H H17A 0.6812 0.4862 0.0385 0.087 Uiso calc 1
H H17B 0.8806 0.3923 0.0780 0.087 Uiso calc 1
H H17C 0.9205 0.5483 0.1269 0.087 Uiso calc 1
C C21 0.1835(6) 0.9697(3) 0.7089(3) 0.0398(7) Uani d 1
C C22 0.0824(7) 0.9718(3) 0.8102(3) 0.0450(7) Uani d 1
H H22 0.1475 0.9119 0.8459 0.054 Uiso calc 1
C C23 -0.1131(7) 1.0605(3) 0.8601(3) 0.0523(9) Uani d 1
H H23 -0.1815 1.0603 0.9294 0.063 Uiso calc 1
C C24 -0.2089(7) 1.1487(3) 0.8104(3) 0.0498(8) Uani d 1
H H24 -0.3424 1.2095 0.8450 0.060 Uiso calc 1
C C25 -0.1088(7) 1.1479(3) 0.7095(3) 0.0493(8) Uani d 1
H H25 -0.1742 1.2082 0.6742 0.059 Uiso calc 1
C C26 0.0868(7) 1.0597(3) 0.6596(3) 0.0459(8) Uani d 1
H H26 0.1558 1.0607 0.5906 0.055 Uiso calc 1
loop_
_atom_site_aniso_label
_atom_site_aniso_U_11
_atom_site_aniso_U_22
_atom_site_aniso_U_33
_atom_site_aniso_U_12
_atom_site_aniso_U_13
_atom_site_aniso_U_23
C1 0.0324(16) 0.0370(14) 0.0442(17) 0.0064(12) 0.0039(12) 0.0117(13)
O1 0.0277(11) 0.0470(12) 0.0580(14) 0.0048(9) 0.0050(9) 0.0031(10)
N1 0.0247(12) 0.0414(13) 0.0483(15) 0.0039(10) 0.0039(10) 0.0140(11)
C2 0.0345(17) 0.0472(17) 0.054(2) 0.0058(13) -0.0031(14) 0.0061(15)
C11 0.0292(14) 0.0379(14) 0.0407(15) 0.0127(11) 0.0041(11) 0.0152(12)
C12 0.0323(16) 0.0466(17) 0.0504(18) 0.0067(12) 0.0068(13) 0.0230(15)
C13 0.0347(16) 0.0516(17) 0.0406(16) 0.0156(13) 0.0072(12) 0.0211(14)
C14 0.0427(17) 0.0415(16) 0.0389(16) 0.0155(13) 0.0063(13) 0.0125(13)
Cl14 0.0660(6) 0.0503(5) 0.0489(5) 0.0115(4) 0.0099(4) 0.0033(4)
C15 0.0432(18) 0.0374(15) 0.0531(19) 0.0048(13) 0.0083(14) 0.0160(14)
C16 0.0359(16) 0.0404(15) 0.0458(17) 0.0091(12) 0.0103(13) 0.0181(14)
C17 0.050(2) 0.075(2) 0.053(2) 0.0121(18) 0.0143(16) 0.0248(19)
C21 0.0340(16) 0.0347(14) 0.0456(17) 0.0002(12) -0.0002(13) 0.0059(13)
C22 0.0482(19) 0.0437(17) 0.0441(18) 0.0057(14) -0.0015(14) 0.0159(14)
C23 0.056(2) 0.055(2) 0.0402(18) 0.0023(16) 0.0084(15) 0.0066(15)
C24 0.0439(19) 0.0393(16) 0.056(2) 0.0086(14) 0.0053(15) -0.0002(15)
C25 0.0466(19) 0.0383(16) 0.064(2) 0.0072(14) -0.0011(16) 0.0180(15)
C26 0.0455(18) 0.0460(17) 0.0480(18) 0.0017(14) 0.0054(14) 0.0174(15)
loop_
_atom_type_symbol
_atom_type_description
_atom_type_scat_dispersion_real
_atom_type_scat_dispersion_imag
_atom_type_scat_source
C C 0.0181 0.0091 'International Tables Vol C Tables 4.2.6.8 and 6.1.1.4'
H H 0.0000 0.0000 'International Tables Vol C Tables 4.2.6.8 and 6.1.1.4'
N N 0.0311 0.0180 'International Tables Vol C Tables 4.2.6.8 and 6.1.1.4'
O O 0.0492 0.0322 'International Tables Vol C Tables 4.2.6.8 and 6.1.1.4'
Cl Cl 0.3639 0.7018 'International Tables Vol C Tables 4.2.6.8 and 6.1.1.4'
loop_
_geom_angle_atom_site_label_1
_geom_angle_atom_site_label_2
_geom_angle_atom_site_label_3
_geom_angle
O1 C1 N1 123.1(3)
O1 C1 C2 122.6(3)
N1 C1 C2 114.3(3)
C1 N1 C11 125.9(2)
C1 N1 H1 117.0
C11 N1 H1 117.0
C21 C2 C1 114.1(3)
C21 C2 H2A 108.7
C1 C2 H2A 108.7
C21 C2 H2B 108.7
C1 C2 H2B 108.7
H2A C2 H2B 107.6
C16 C11 C12 119.8(3)
C16 C11 N1 122.1(3)
C12 C11 N1 118.1(3)
C13 C12 C11 122.4(3)
C13 C12 H12 118.8
C11 C12 H12 118.8
C12 C13 C14 116.4(3)
C12 C13 C17 120.6(3)
C14 C13 C17 123.0(3)
C15 C14 C13 122.1(3)
C15 C14 Cl14 118.0(3)
C13 C14 Cl14 119.9(2)
C14 C15 C16 120.4(3)
C14 C15 H15 119.8
C16 C15 H15 119.8
C11 C16 C15 119.0(3)
C11 C16 H16 120.5
C15 C16 H16 120.5
C13 C17 H17A 109.5
C13 C17 H17B 109.5
H17A C17 H17B 109.5
C13 C17 H17C 109.5
H17A C17 H17C 109.5
H17B C17 H17C 109.5
C22 C21 C26 118.2(3)
C22 C21 C2 120.9(3)
C26 C21 C2 120.8(3)
C21 C22 C23 120.6(3)
C21 C22 H22 119.7
C23 C22 H22 119.7
C24 C23 C22 120.7(3)
C24 C23 H23 119.6
C22 C23 H23 119.6
C23 C24 C25 119.2(3)
C23 C24 H24 120.4
C25 C24 H24 120.4
C24 C25 C26 120.3(3)
C24 C25 H25 119.9
C26 C25 H25 119.9
C25 C26 C21 121.0(3)
C25 C26 H26 119.5
C21 C26 H26 119.5
loop_
_geom_bond_atom_site_label_1
_geom_bond_atom_site_label_2
_geom_bond_distance
C1 O1 1.221(4)
C1 N1 1.352(4)
C1 C2 1.517(4)
N1 C11 1.422(4)
N1 H1 0.8800
C2 C21 1.505(4)
C2 H2A 0.9900
C2 H2B 0.9900
C11 C16 1.382(4)
C11 C12 1.391(4)
C12 C13 1.386(4)
C12 H12 0.9500
C13 C14 1.392(5)
C13 C17 1.506(4)
C14 C15 1.381(4)
C14 Cl14 1.750(3)
C15 C16 1.385(4)
C15 H15 0.9500
C16 H16 0.9500
C17 H17A 0.9800
C17 H17B 0.9800
C17 H17C 0.9800
C21 C22 1.383(5)
C21 C26 1.387(5)
C22 C23 1.387(4)
C22 H22 0.9500
C23 C24 1.373(5)
C23 H23 0.9500
C24 C25 1.379(5)
C24 H24 0.9500
C25 C26 1.385(5)
C25 H25 0.9500
C26 H26 0.9500
loop_
_geom_hbond_atom_site_label_D
_geom_hbond_atom_site_label_H
_geom_hbond_atom_site_label_A
_geom_hbond_site_symmetry_A
_geom_hbond_distance_DH
_geom_hbond_distance_HA
_geom_hbond_distance_DA
_geom_hbond_angle_DHA
_geom_hbond_publ_flag
N1 H1 O1 1_655 0.88 2.03 2.878(3) 161 no
C2 H2B Cg1 1_655 0.99 2.81 3.546(4) 132 no
loop_
_geom_torsion_atom_site_label_1
_geom_torsion_atom_site_label_2
_geom_torsion_atom_site_label_3
_geom_torsion_atom_site_label_4
_geom_torsion
O1 C1 N1 C11 -3.2(5)
C2 C1 N1 C11 175.8(3)
O1 C1 C2 C21 -19.4(5)
N1 C1 C2 C21 161.5(3)
C1 N1 C11 C16 -37.5(4)
C1 N1 C11 C12 144.4(3)
C16 C11 C12 C13 0.2(4)
N1 C11 C12 C13 178.4(3)
C11 C12 C13 C14 -0.1(4)
C11 C12 C13 C17 179.4(3)
C12 C13 C14 C15 -0.2(4)
C17 C13 C14 C15 -179.7(3)
C12 C13 C14 Cl14 179.8(2)
C17 C13 C14 Cl14 0.3(4)
C13 C14 C15 C16 0.4(5)
Cl14 C14 C15 C16 -179.6(2)
C12 C11 C16 C15 -0.1(4)
N1 C11 C16 C15 -178.1(3)
C14 C15 C16 C11 -0.3(5)
C1 C2 C21 C22 109.2(4)
C1 C2 C21 C26 -71.5(4)
C26 C21 C22 C23 0.9(5)
C2 C21 C22 C23 -179.8(3)
C21 C22 C23 C24 -0.5(5)
C22 C23 C24 C25 0.2(5)
C23 C24 C25 C26 -0.3(5)
C24 C25 C26 C21 0.7(5)
C22 C21 C26 C25 -1.0(5)
C2 C21 C26 C25 179.7(3)
