#------------------------------------------------------------------------------
#$Date: 2019-12-26 20:54:23 +0200 (Thu, 26 Dec 2019) $
#$Revision: 246090 $
#$URL: file:///home/coder/svn-repositories/cod/cif/2/31/17/2311703.cif $
#------------------------------------------------------------------------------
#
# This file is available in the Crystallography Open Database (COD),
# http://www.crystallography.net/. The original data for this entry
# were provided by IUCr Journals, http://journals.iucr.org/.
#
# The file may be used within the scientific community so long as
# proper attribution is given to the journal article from which the
# data were obtained.
#
data_2311703
loop_
_publ_author_name
'Tsubomoto, Yutaka'
'Hayashi, Satoko'
'Nakanishi, Waro'
'Sasamori, Takahiro'
'Tokitoh, Norihiro'
_publ_section_title
;
 Nature of E<sub>2</sub>X<sub>2</sub> \s(4c-6e) of the X---E-E---X type at
 naphthalene 1,8-positions and model, elucidated by X-ray crystallographic
 analysis and QC calculations with the QTAIM approach.
;
_journal_issue                   'Pt 2'
_journal_name_full
'Acta crystallographica Section B, Structural science, crystal engineering and materials'
_journal_page_first              265
_journal_page_last               275
_journal_paper_doi               10.1107/S205252061700364X
_journal_volume                  73
_journal_year                    2017
_chemical_formula_moiety         'C20 H12 Br2 Se2'
_chemical_formula_sum            'C20 H12 Br2 Se2'
_chemical_formula_weight         570.04
_chemical_name_common            Compound_4
_space_group_crystal_system      triclinic
_space_group_IT_number           2
_space_group_name_Hall           '-P 1'
_space_group_name_H-M_alt        'P -1'
_atom_sites_solution_hydrogens   geom
_audit_creation_method           SHELXL-2014/7
_cell_angle_alpha                90.9410(10)
_cell_angle_beta                 101.8880(10)
_cell_angle_gamma                111.0930(10)
_cell_formula_units_Z            2
_cell_length_a                   7.83940(10)
_cell_length_b                   8.0986(2)
_cell_length_c                   15.0650(4)
_cell_measurement_reflns_used    19136
_cell_measurement_temperature    103(2)
_cell_measurement_theta_max      27.103
_cell_measurement_theta_min      2.860
_cell_volume                     868.92(3)
_computing_cell_refinement       HKL2000
_computing_data_collection       CrystalClear
_computing_data_reduction        HKL2000
_computing_molecular_graphics
'Yadokari-XG 2011 (Wakita Nemoto et al., 2011)'
_computing_publication_material
'Yadokari-XG 2011 (Wakita,Nemoto et al., 2011)'
_computing_structure_refinement  'SHELXL-2014/7 (Sheldrick, 2014)'
_computing_structure_solution    'SHELXT-2014/7 (Sheldrick, 2014)'
_diffrn_ambient_temperature      103(2)
_diffrn_detector_area_resol_mean 28.5714
_diffrn_measured_fraction_theta_full 0.998
_diffrn_measured_fraction_theta_max 0.995
_diffrn_measurement_device_type  'Rigaku VariMax Saturn'
_diffrn_measurement_method       \w
_diffrn_radiation_type           MoK\a
_diffrn_radiation_wavelength     0.71075
_diffrn_reflns_av_R_equivalents  0.0353
_diffrn_reflns_limit_h_max       10
_diffrn_reflns_limit_h_min       -10
_diffrn_reflns_limit_k_max       10
_diffrn_reflns_limit_k_min       -10
_diffrn_reflns_limit_l_max       19
_diffrn_reflns_limit_l_min       -19
_diffrn_reflns_number            19136
_diffrn_reflns_theta_full        25.242
_diffrn_reflns_theta_max         27.103
_diffrn_reflns_theta_min         2.860
_exptl_absorpt_coefficient_mu    8.852
_exptl_absorpt_correction_T_max  0.915
_exptl_absorpt_correction_T_min  0.734
_exptl_absorpt_correction_type   multi-scan
_exptl_absorpt_process_details
;
 MULABS - Empirical Correction for Absorption Anisotropy.
 Blessing, R. H., Acta Cryst., A51, 33-38 (1995).
;
_exptl_crystal_colour            colorless
_exptl_crystal_density_diffrn    2.179
_exptl_crystal_description       platelet
_exptl_crystal_F_000             540
_exptl_crystal_size_max          0.040
_exptl_crystal_size_mid          0.030
_exptl_crystal_size_min          0.010
_refine_diff_density_max         1.684
_refine_diff_density_min         -1.276
_refine_ls_extinction_method     none
_refine_ls_goodness_of_fit_ref   1.198
_refine_ls_hydrogen_treatment    constr
_refine_ls_matrix_type           full
_refine_ls_number_parameters     217
_refine_ls_number_reflns         3813
_refine_ls_number_restraints     0
_refine_ls_restrained_S_all      1.198
_refine_ls_R_factor_all          0.0432
_refine_ls_R_factor_gt           0.0391
_refine_ls_shift/su_max          0.000
_refine_ls_shift/su_mean         0.000
_refine_ls_structure_factor_coef Fsqd
_refine_ls_weighting_details
'w=1/[\s^2^(Fo^2^)+(0.0128P)^2^+4.9343P] where P=(Fo^2^+2Fc^2^)/3'
_refine_ls_weighting_scheme      calc
_refine_ls_wR_factor_gt          0.0788
_refine_ls_wR_factor_ref         0.0805
_reflns_number_gt                3566
_reflns_number_total             3813
_reflns_threshold_expression     'I > 2\s(I)'
_cod_data_source_file            xm5002sup1.cif
_cod_data_source_block           Compound_4
_cod_database_code               2311703
_shelx_space_group_comment
;
The symmetry employed for this shelxl refinement is uniquely defined
by the following loop, which should always be used as a source of
symmetry information in preference to the above space-group names.
They are only intended as comments.
;
_shelx_estimated_absorpt_t_min   0.718
_shelx_estimated_absorpt_t_max   0.917
_shelx_hkl_file
;
 -10   0   1  956.43   55.97
  10   0  -1  969.48   58.38
 -10   0   2 1024.96   70.42
  10   0  -2 1352.84   71.65
 -10   0   3 1896.61   86.56
  10   0  -3 1935.41   91.61
  10   0  -4  161.84   34.79
 -10   0   4  133.19   33.02
  10   0  -5  780.97   50.52
 -10   0   5  950.53   49.82
  10   0  -5  784.23   42.73
  10   0  -6  -19.67   24.97
 -10   0   6   19.62   29.13
  10   0  -6  -30.38   25.28
  10   0  -7   51.52   27.22
 -10   0   7   84.16   24.82
  10   0  -7   47.66   26.08
  10   0  -8  103.41   27.18
 -10   0   8   23.49   28.68
  10  -1   0  245.72   22.86
  10  -1   0  311.25   35.67
  10  -1  -1  210.18   28.91
 -10   1   1  413.37   34.53
  10  -1  -2  410.13   37.69
 -10   1   2  457.28   40.94
 -10   1   3   89.54   32.13
  10  -1  -4  368.46   38.41
  10  -1  -4  499.60   38.73
 -10   1   4  401.38   37.89
 -10   1   5  121.85   34.90
  10  -1  -5   66.36   27.95
  10  -1  -5  103.29   29.73
  10  -1  -6 1197.50   64.07
  10  -1  -6 1160.83   62.60
 -10   1   6 1093.74   63.89
 -10   1   7   30.94   24.35
  10  -1  -7   91.18   31.14
 -10   1   8 3219.06  126.32
  10  -1  -8 3004.97  125.98
  10  -1  -8 3325.39  135.97
  10  -1  -9   -5.25   35.50
 -10   1   9   98.91   24.85
  10  -1  -9  -65.04   34.70
  10  -1 -10 1954.90   94.11
 -10   1  10 1976.85   83.11
  10  -2   0  139.24   21.85
 -10   2   1   15.70   25.04
  10  -2  -1  118.39   22.58
  10  -2  -2  104.38   26.08
 -10   2   2   63.08   19.77
  10  -2  -3  766.17   44.16
 -10   2   3  791.44   37.80
  10  -2  -3  742.30   43.81
  10  -2  -4   64.62   29.13
 -10   2   4   66.38   22.93
  10  -2  -5 1253.87   66.44
 -10   2   5  967.97   59.26
  10  -2  -5 1084.64   54.63
 -10   2   6   25.21   20.16
  10  -2  -6   35.73   26.90
  10  -2  -6  -44.27   22.60
  10  -2  -7  -34.63   29.85
  10  -2  -7   92.47   29.33
 -10   2   7   67.43   25.16
 -10   2   8  585.60   39.55
  10  -2  -8  473.89   47.12
  10  -2  -9  184.14   38.14
 -10   2   9   -6.40   25.74
  10  -2 -10   56.84   29.22
  10  -2 -10   79.24   34.76
 -10   2  10  -31.90   24.43
 -10   2  11  207.10   31.28
  10  -2 -11  302.91   35.42
  10  -3  -1  472.21   35.13
 -10   3   2 1786.55   80.19
  10  -3  -2 2208.49   98.19
  10  -3  -2 1862.78   88.61
 -10   3   3   41.44   25.50
  10  -3  -3   52.02   27.50
  10  -3  -4 1987.03   90.42
  10  -3  -4 1635.19   80.50
 -10   3   4 2091.44   83.24
  10  -3  -5   67.11   26.49
 -10   3   5  217.39   24.22
  10  -3  -6  193.37   38.15
 -10   3   6  231.43   24.71
  10  -3  -6  101.39   32.15
  10  -3  -7  485.10   40.76
 -10   3   7  319.57   31.86
  10  -3  -7  216.60   34.64
 -10   3   8  257.25   23.48
  10  -3  -8  139.13   37.89
 -10   3   9  264.29   30.45
  10  -3  -9  343.12   25.41
  10  -3  -9  256.06   42.83
  10  -3 -10  159.64   26.38
 -10   3  10  101.66   22.26
  10  -3 -11  150.10   32.43
  10  -3 -11  198.10   44.30
  10  -3 -11  145.11   28.03
 -10   3  11  216.76   25.45
  10  -3 -12   21.58   18.65
  10  -4   0  142.75   29.12
  10  -4  -1  848.55   60.12
  10  -4  -2   69.71   19.20
  10  -4  -2   47.27   28.73
  10  -4  -3  110.49   28.04
  10  -4  -3  133.51   32.01
  10  -4  -4   53.76   24.77
  10  -4  -5  339.38   36.44
  10  -4  -5  537.91   46.83
  10  -4  -6   10.62   23.35
  10  -4  -7 2785.82  124.48
  10  -4  -7 2401.08  104.80
  10  -4  -7 2844.17  122.28
  10  -4  -8  308.55   38.23
  10  -4  -8  366.38   36.97
  10  -4  -9 1592.61   79.74
  10  -4  -9 1742.45   89.93
  10  -4  -9 1695.38   90.28
  10  -4 -10  809.17   58.66
  10  -4 -10  856.40   50.77
  10  -4 -11  780.23   58.45
  10  -4 -11  980.91   61.83
  10  -4 -11  703.51   48.12
  10  -4 -12  257.26   29.22
  10  -5  -1   92.85   19.54
  10  -5  -1  140.74   27.98
  10  -5  -2 1690.23   77.10
  10  -5  -2 1757.84   79.01
  10  -5  -3   88.13   29.66
  10  -5  -3  -18.74   26.35
  10  -5  -3   71.32   28.23
  10  -5  -4 1190.16   69.11
  10  -5  -4 1081.96   57.99
  10  -5  -4 1323.10   62.76
  10  -5  -5  580.46   49.17
  10  -5  -5  462.32   37.71
  10  -5  -5  419.56   41.61
  10  -5  -6 1222.25   64.29
  10  -5  -6 1216.26   76.26
  10  -5  -6 1025.41   72.31
  10  -5  -7  491.84   41.52
  10  -5  -7  357.04   39.74
  10  -5  -8   45.03   32.24
 -10   5   8   40.42   36.66
 -10   5   9  226.72   35.77
  10  -5  -9  355.60   47.08
  10  -5  -9   85.44   29.23
  10  -5 -10  264.94   42.93
  10  -5 -10  446.51   49.50
 -10   5  10  415.80   36.54
  10  -5 -11   -9.58   26.04
  10  -6   0   11.25   25.09
  10  -6  -1  807.53   44.15
  10  -6  -1  810.47   46.53
  10  -6  -1  762.17   47.41
  10  -6  -2   50.18   25.58
  10  -6  -2   89.23   21.95
  10  -6  -3  744.91   47.76
  10  -6  -3  743.78   47.75
  10  -6  -3  674.95   48.45
 -10   6   4   72.88   26.67
  10  -6  -4  109.16   27.67
  10  -6  -4   48.41   32.01
  10  -6  -5 1091.63   59.03
  10  -6  -5  923.97   61.73
  10  -6  -6  206.31   41.19
 -10   6   6  156.80   27.02
  10  -6  -6  329.29   34.79
  10  -6  -7  -31.90   36.79
 -10   6   7  126.18   23.80
  10  -6  -7  161.20   36.83
  10  -6  -8  154.76   36.04
  10  -6  -9  467.57   40.92
  10  -6  -9  348.62   34.18
 -10   6   9  201.19   38.34
  10  -6 -10  640.08   39.00
  10  -7   0 1694.32   79.48
  10  -7   0 1888.28   84.23
  10  -7  -1  585.06   49.62
  10  -7  -1  424.54   42.20
 -10   7   2  249.69   23.28
  10  -7  -2  260.11   36.10
  10  -7  -2  232.44   29.41
  10  -7  -3  366.04   42.34
 -10   7   3  374.41   37.68
  10  -7  -4   50.22   30.34
 -10   7   4  165.99   25.98
  10  -7  -5  109.13   39.38
  10  -7  -5  -11.68   28.57
 -10   7   5  -44.10   21.35
  10  -7  -6  194.89   26.20
 -10   7   6  255.25   35.01
  10  -7  -6   74.11   35.04
  10  -7  -7   92.30   30.08
 -10   7   7  -37.61   22.71
 -10   7   8 1116.96   58.91
  10  -7  -8 1162.84   58.56
  -9  -2   1   77.14   27.33
   9   2  -1    4.60   27.71
  -9  -2   2   18.40   29.42
   9   2  -2   22.45   26.85
   9   2  -3  206.86   32.84
  -9  -2   3   89.75   29.12
  -9  -2   4  -19.23   26.81
   9   2  -4   12.71   33.74
  -9  -2   5  166.47   30.36
   9   2  -5   11.20   21.74
  -9  -2   6   60.78   33.75
   9   2  -6  110.68   31.94
   9   2  -6  -37.68   29.73
  -9  -2   7  -17.64   29.29
   9   2  -7  -33.43   33.56
   9   2  -7  -19.79   23.30
   9   2  -8  932.26   63.15
  -9  -2   8 1446.56   71.73
   9   2  -8 1174.94   52.07
   9   2  -9  -50.98   24.50
   9   1  -1  872.33   49.73
  -9  -1   1  758.54   59.10
  -9  -1   2   58.46   22.72
   9   1  -2   76.96   25.99
  -9  -1   3   65.09   35.50
   9   1  -4  153.70   24.38
  -9  -1   4  206.50   28.81
   9   1  -4   87.96   32.20
   9   1  -5  260.11   25.90
   9   1  -5  289.96   38.76
  -9  -1   5  244.63   32.35
   9   1  -6  137.75   27.49
   9   1  -6  152.44   30.52
  -9  -1   6   91.78   26.96
  -9  -1   7   -2.60   22.43
   9   1  -7   21.19   25.56
  -9  -1   9  719.07   50.60
   9   1  -9  569.71   49.69
   9   1  -9  463.92   36.93
  -9  -1  10  124.29   32.10
   9   1 -10  252.58   29.30
   9   1 -10  278.47   39.42
   9   1 -11  115.07   30.29
   9   1 -11  -37.38   26.23
  -9  -1  11   65.02   26.44
   9   1 -12   82.50   21.06
  -9  -1  12    6.77   20.44
  -9   0   1   53.42   24.75
   9   0  -1   55.96   24.12
  -9   0   2 3109.18  123.01
   9   0  -2 2986.43  119.72
  -9   0   3  410.97   35.12
   9   0  -3  316.52   29.75
   9   0  -3  357.77   33.03
   9   0  -4 4535.75  172.45
   9   0  -4 4820.14  173.29
  -9   0   4 4784.20  187.22
  -9   0   5   70.45   26.94
   9   0  -5   23.17   25.43
   9   0  -5  -17.48   26.76
   9   0  -6 3129.18  133.64
  -9   0   6 3361.91  136.72
   9   0  -6 3189.83  126.72
   9   0  -7  293.86   40.54
  -9   0   7  229.83   33.67
   9   0  -7  190.62   36.53
   9   0  -8  431.58   43.91
   9   0  -8  622.89   39.47
  -9   0   8  609.02   40.10
   9   0  -9  -26.57   30.21
  -9   0   9   49.48   22.95
   9   0  -9   93.96   32.83
   9   0 -10  339.96   37.92
  -9   0  10  199.29   26.54
  -9   0  11   16.49   21.54
   9   0 -11   66.65   36.65
   9   0 -12  -14.50   28.41
   9   0 -12  -89.45   29.80
   9   0 -13  -35.93   25.64
  -9   0  13  100.66   24.85
  -9   1   0  488.10   37.22
   9  -1   0  405.34   33.24
   9  -1  -1  943.95   48.35
  -9   1   1  790.54   52.16
   9  -1  -2   37.88   22.12
  -9   1   2  101.78   28.70
   9  -1  -2  -27.08   27.81
  -9   1   3  297.14   37.24
   9  -1  -3  341.96   33.25
   9  -1  -4  111.99   31.14
   9  -1  -4  -12.47   27.59
  -9   1   4   91.76   23.34
   9  -1  -5  201.92   35.68
   9  -1  -5  157.14   26.76
  -9   1   5  160.87   25.14
  -9   1   6  464.99   30.89
   9  -1  -6  295.48   33.41
  -9   1   7  621.51   43.28
   9  -1  -7  733.20   42.32
   9  -1  -7  578.05   41.90
   9  -1  -8  375.92   39.64
  -9   1   8  281.44   29.22
   9  -1  -9 4147.40  162.91
   9  -1  -9 4383.28  179.38
  -9   1   9 4676.91  179.88
  -9   1  10  792.14   47.69
   9  -1 -10  726.63   44.54
   9  -1 -10  777.36   55.11
   9  -1 -10  878.71   52.20
   9  -1 -11 2811.83  123.91
   9  -1 -11 2210.50   98.82
   9  -1 -11 2360.21  115.44
  -9   1  11 2393.21  107.66
  -9   1  12 1778.57   80.76
   9  -1 -12 1755.95   84.34
   9  -1 -12 1696.90   80.67
   9  -1 -12 1501.40   77.46
   9  -1 -13 1059.35   69.58
  -9   1  13 1066.56   61.35
   9  -1 -13 1042.14   63.22
  -9   1  14 1008.39   55.57
   9  -1 -14  908.60   60.09
   9  -2   0 2625.19  107.59
  -9   2   0 2769.80  111.25
   9  -2  -1   95.35   21.27
  -9   2   1   21.38   18.26
   9  -2  -2  184.91   25.21
   9  -2  -2  307.90   28.12
  -9   2   2  217.45   24.80
   9  -2  -4  906.42   58.24
   9  -2  -4  992.07   51.41
  -9   2   4  839.63   45.23
   9  -2  -5  213.62   33.28
  -9   2   5  167.26   26.08
   9  -2  -5  152.66   34.03
   9  -2  -6  841.60   48.73
  -9   2   6  930.32   46.38
   9  -2  -6  960.30   58.84
   9  -2  -7  200.13   29.11
   9  -2  -7  230.73   24.77
   9  -2  -7  412.77   37.75
  -9   2   7  387.44   29.62
   9  -2  -8  197.92   24.69
  -9   2   8  181.93   24.30
   9  -2  -8   47.47   34.07
   9  -2  -9   75.97   31.63
   9  -2  -9   88.95   26.07
   9  -2  -9  239.85   42.15
  -9   2  10  181.50   21.61
   9  -2 -10   85.84   23.06
   9  -2 -10  217.60   39.34
   9  -2 -11   85.50   31.12
  -9   2  11   -2.07   23.69
   9  -2 -11   59.54   20.18
   9  -2 -12  418.77   39.22
  -9   2  12  456.83   35.66
   9  -2 -12  419.11   48.77
   9  -2 -12  488.63   42.81
   9  -2 -13  127.29   27.53
   9  -2 -13  -13.24   34.01
  -9   2  14  390.49   40.24
   9  -2 -14  460.03   47.16
   9  -2 -14  497.55   46.80
   9  -2 -15 1029.47   52.41
  -9   2  15  695.53   47.82
   9  -3   0   -4.24   17.68
   9  -3   0    7.84   20.73
   9  -3   0   33.76   20.43
  -9   3   1 1220.00   53.91
   9  -3  -1 1246.74   59.23
   9  -3  -1 1022.36   53.40
   9  -3  -2  143.24   27.62
   9  -3  -3 4506.18  156.58
  -9   3   3 4094.38  142.42
   9  -3  -3 3836.79  149.73
   9  -3  -3 4398.32  155.57
   9  -3  -4  344.19   28.83
   9  -3  -4  334.64   35.73
   9  -3  -4  469.33   33.19
   9  -3  -5 4309.67  155.38
   9  -3  -5 4568.12  179.14
   9  -3  -5 4036.42  156.32
  -9   3   5 3938.35  149.88
   9  -3  -6 1618.08   82.81
  -9   3   6 1413.56   65.81
   9  -3  -6 1529.48   71.19
   9  -3  -6 1775.66   80.99
   9  -3  -7 1503.24   86.45
  -9   3   7 1673.68   70.87
   9  -3  -7 1778.11   77.51
   9  -3  -7 1900.32   70.00
   9  -3  -8  689.69   53.78
   9  -3  -8  841.09   48.02
   9  -3  -8  825.61   45.90
  -9   3   8  640.24   41.27
  -9   3   9  108.25   27.26
   9  -3  -9  156.69   26.76
   9  -3  -9    9.46   35.19
   9  -3 -10   82.40   33.96
   9  -3 -10  -10.98   27.88
   9  -3 -11  349.80   43.20
  -9   3  11  207.78   31.64
   9  -3 -11  217.04   33.90
   9  -3 -12  852.65   48.91
  -9   3  12 1045.86   56.73
   9  -3 -12  838.95   50.84
   9  -3 -12 1141.04   58.07
   9  -3 -13  -67.50   27.12
   9  -3 -13   46.24   32.62
  -9   3  13   74.80   23.82
   9  -3 -14  240.60   39.73
   9  -3 -14  239.39   33.14
  -9   3  14  239.01   26.15
   9  -3 -14  128.97   30.93
   9  -3 -15   17.99   17.12
  -9   3  15   11.02   21.30
   9  -4   0 3466.54  138.57
   9  -4   0 3436.41  130.16
   9  -4   0 3758.18  130.65
   9  -4  -1  367.85   33.43
   9  -4  -1  208.75   32.81
   9  -4  -1  279.90   27.29
   9  -4  -2 2734.64  109.60
   9  -4  -2 2732.08  108.26
   9  -4  -2 2785.07  112.09
  -9   4   2 2434.67   98.63
   9  -4  -3  686.52   42.79
   9  -4  -3  517.75   38.13
  -9   4   3  726.20   39.51
   9  -4  -4  236.94   26.11
   9  -4  -4  136.54   34.39
  -9   4   4  191.80   21.44
   9  -4  -4  207.14   27.30
   9  -4  -5  184.50   26.32
   9  -4  -5   62.13   29.12
  -9   4   5  131.30   18.98
   9  -4  -6  437.75   37.67
   9  -4  -6  329.22   37.72
  -9   4   6  497.89   30.79
   9  -4  -7  -31.39   27.14
  -9   4   7   61.76   28.73
  -9   4   8 1562.95   71.15
   9  -4  -8 1841.89   87.02
   9  -4  -8 1646.95   68.72
  -9   4   8 1456.79   64.86
  -9   4   9  667.70   48.28
   9  -4  -9  876.48   52.24
   9  -4  -9  875.07   48.57
  -9   4  10 2296.36   98.69
   9  -4 -10 2450.19   94.22
  -9   4  10 2198.88   89.68
   9  -4 -10 2447.95  107.32
   9  -4 -11 3080.57  128.10
  -9   4  11 3414.83  128.29
  -9   4  11 2873.03  119.51
   9  -4 -11 3017.90  128.67
  -9   4  12  149.63   23.85
   9  -4 -12  114.02   30.18
   9  -4 -12  131.62   30.47
   9  -4 -13 1831.76   98.85
  -9   4  13 1971.27   90.41
   9  -4 -13 1851.90   94.40
   9  -4 -14   15.62   30.92
   9  -4 -14   22.63   27.34
  -9   4  14  -61.01   30.27
   9  -5   0  147.56   23.01
   9  -5   0  201.03   28.04
   9  -5   0   68.83   26.04
   9  -5  -1  748.39   42.13
   9  -5  -1  754.52   51.42
   9  -5  -1  874.84   45.71
   9  -5  -2  906.87   46.02
   9  -5  -2 1080.55   54.49
  -9   5   3  790.36   47.58
   9  -5  -3  976.88   50.22
   9  -5  -3  731.31   50.09
   9  -5  -4  -66.94   25.26
  -9   5   4   85.76   25.55
   9  -5  -5 2616.76  108.37
   9  -5  -5 2689.01  112.68
  -9   5   5 2467.61  107.63
   9  -5  -6 2138.02  100.40
  -9   5   6 2205.10   87.78
   9  -5  -6 1997.27   85.25
  -9   5   7 1114.58   56.14
   9  -5  -7 1120.35   69.43
   9  -5  -7  978.56   57.36
  -9   5   8 1595.59   69.77
   9  -5  -8 1458.41   77.60
   9  -5  -8 1272.34   67.84
   9  -5  -9  166.10   34.16
   9  -5  -9  243.11   33.91
  -9   5   9  176.64   27.68
   9  -5 -10  415.60   39.97
  -9   5  10  425.44   40.57
   9  -5 -10  558.02   48.18
   9  -5 -11  274.16   38.31
   9  -5 -11  298.79   33.44
   9  -5 -12   35.12   26.48
   9  -5 -12  -30.80   28.15
  -9   5  12   17.63   33.33
  -9   5  13  591.32   37.42
   9  -5 -13  574.16   45.53
   9  -5 -13  395.60   40.99
   9  -5 -14  610.60   53.76
   9  -6   0  234.33   26.51
  -9   6   0   92.96   19.80
   9  -6   0  171.37   25.18
   9  -6   0   93.38   24.85
   9  -6  -1    0.79   28.28
  -9   6   1   49.66   20.24
   9  -6  -1   85.61   23.43
   9  -6  -2  580.62   42.46
   9  -6  -2  627.28   38.20
   9  -6  -2  770.05   51.42
  -9   6   2  623.81   37.13
   9  -6  -3  417.88   29.64
  -9   6   3  410.73   26.92
   9  -6  -3  334.50   28.92
   9  -6  -3  484.08   43.46
  -9   6   4 2106.51   87.71
   9  -6  -4 2003.44   88.07
   9  -6  -4 2169.88   88.48
   9  -6  -4 2401.56  103.41
   9  -6  -5 1202.33   61.63
   9  -6  -5 1401.05   77.89
  -9   6   5 1497.59   68.95
   9  -6  -5 1433.31   69.39
   9  -6  -6  266.76   39.68
  -9   6   6  324.28   34.16
   9  -6  -6  327.75   27.97
   9  -6  -6  226.93   35.09
   9  -6  -7  946.77   58.74
  -9   6   7  982.32   51.04
   9  -6  -7  854.85   43.29
   9  -6  -7 1041.17   58.22
   9  -6  -8  -10.96   18.66
  -9   6   8   33.27   24.33
   9  -6  -8   97.34   28.44
   9  -6  -8    5.95   25.83
   9  -6  -9   72.90   33.91
  -9   6   9   14.66   21.75
   9  -6  -9  111.39   30.27
   9  -6 -10  156.55   31.51
   9  -6 -10  258.89   34.20
  -9   6  10  128.25   25.94
   9  -6 -11  454.46   40.22
  -9   6  11  369.57   35.52
   9  -6 -11  511.09   43.84
   9  -6 -12   -7.22   32.38
   9  -6 -13  723.57   59.48
   9  -7   0  598.93   43.14
  -9   7   0  497.93   33.65
   9  -7  -1 3257.70  130.41
   9  -7  -1 3389.74  140.62
   9  -7  -1 3752.89  138.51
  -9   7   1 3493.24  132.31
   9  -7  -2 1640.45   73.15
   9  -7  -2 1657.37   83.57
  -9   7   2 1866.00   77.22
   9  -7  -2 1647.93   94.76
   9  -7  -3  447.54   42.37
   9  -7  -3  588.39   49.25
   9  -7  -3  524.38   35.80
  -9   7   4  824.20   42.52
   9  -7  -4  979.72   61.50
   9  -7  -4  743.12   42.05
   9  -7  -4  931.21   56.13
   9  -7  -5  173.11   29.54
   9  -7  -5  250.00   23.31
  -9   7   5   87.25   28.42
   9  -7  -5  132.57   36.11
  -9   7   6  378.19   33.84
   9  -7  -6  291.53   36.80
   9  -7  -6  238.44   38.20
   9  -7  -7  539.99   49.99
   9  -7  -7  263.83   33.86
   9  -7  -7  270.66   30.45
  -9   7   7  343.41   34.93
  -9   7   8   35.13   26.90
   9  -7  -8   19.80   27.71
   9  -7  -8   74.43   31.49
   9  -7  -9  489.91   46.53
   9  -7  -9  390.17   33.34
  -9   7   9  480.91   43.35
   9  -7 -10  575.53   40.95
   9  -7 -10  623.04   52.57
   9  -7 -10  569.88   35.70
  -9   7  10  491.31   37.58
   9  -7 -11  111.10   30.71
  -9   7  11  284.66   34.89
   9  -7 -11  276.07   32.82
   9  -7 -11  278.05   38.00
  -9   8   0  355.98   35.65
   9  -8   0  499.40   41.54
   9  -8   0  326.33   41.18
  -9   8   1  633.69   42.24
  -9   8   1  848.07   44.81
   9  -8  -1  749.41   42.47
   9  -8  -1  674.23   55.67
   9  -8  -2  139.84   29.79
   9  -8  -2  249.00   38.80
  -9   8   2   76.12   30.70
  -9   8   2  226.13   27.43
  -9   8   3   42.29   17.37
  -9   8   3   19.02   22.02
   9  -8  -3   46.82   33.22
  -9   8   4 1408.35   68.88
   9  -8  -4 1410.50   67.60
  -9   8   4 1477.94   73.02
   9  -8  -4 1419.18   70.25
   9  -8  -5 1297.23   72.43
   9  -8  -5 1013.30   53.81
  -9   8   5 1170.54   63.91
   9  -8  -5  916.75   62.12
   9  -8  -6  579.89   47.37
  -9   8   6  764.07   43.10
   9  -8  -6  840.96   64.99
   9  -8  -6  558.80   46.03
   9  -8  -7 2410.31  107.79
  -9   8   7 2599.87  105.46
   9  -8  -7 2300.87  101.62
   9  -8  -7 2174.77   96.97
   9  -8  -8   39.41   27.35
  -9   8   8   65.05   22.22
   9  -8  -8   81.17   25.11
  -9   8   9 1284.59   69.41
   9  -8  -9 1312.57   73.10
  -9   9   0   34.90   23.09
   9  -9   0   14.30   32.77
  -9   9   1  -12.20   23.07
   9  -9  -1    4.37   25.83
  -9   9   2   65.87   23.38
   9  -9  -2    0.27   22.14
   9  -9  -2  100.82   31.49
   9  -9  -3   72.44   25.54
   9  -9  -3  177.91   33.61
  -9   9   3  180.52   25.34
  -9   9   4  269.90   34.84
   9  -9  -4  221.41   34.28
   9  -9  -4  206.89   37.18
  -9   9   4  197.21   31.01
  -9   9   5  411.55   35.78
   9  -9  -5  367.12   38.06
   8   4  -2  220.50   33.50
   8   4  -5  186.49   21.17
   8   4  -7   28.12   21.83
  -8  -3   1   -5.64   24.49
   8   3  -1   72.40   31.73
  -8  -3   2  353.58   36.56
   8   3  -2  262.51   37.07
   8   3  -3  127.03   21.83
   8   3  -3  110.33   29.65
  -8  -3   3  261.14   29.81
   8   3  -4 2372.92   98.42
  -8  -3   4 2182.21  103.03
  -8  -3   5  112.20   29.63
   8   3  -6 4493.05  185.76
  -8  -3   6 4363.80  173.08
   8   3  -6 4597.23  167.82
   8   3  -7  127.29   30.63
  -8  -3   7   26.03   33.09
  -8  -3   8 2081.30  102.62
   8   3  -8 2385.13  110.67
   8   3  -8 2876.16  116.48
  -8  -3   9  224.44   30.99
   8   3  -9  394.23   35.50
   8   3  -9  225.78   36.71
   8   3 -10  804.79   53.19
   8   3 -10  767.35   43.32
   8   3 -11  316.52   45.14
   8   3 -11  152.61   37.73
  -8  -2   1  306.56   31.90
   8   2  -1  223.59   32.17
   8   2  -2  -13.61   25.82
  -8  -2   3   28.55   27.22
   8   2  -3   79.67   35.87
  -8  -2   4   64.51   26.23
   8   2  -4   19.30   18.30
   8   2  -4  133.60   30.70
   8   2  -5  212.51   33.13
  -8  -2   5  288.80   31.77
   8   2  -5  172.63   30.93
   8   2  -6  245.07   31.50
   8   2  -6  235.89   40.20
  -8  -2   6  363.29   30.78
   8   2  -7  178.56   34.04
  -8  -2   7  -24.76   28.49
   8   2  -7   81.43   30.16
  -8  -2   8  160.93   33.73
   8   2  -9  874.41   50.89
   8   2  -9  747.84   55.71
   8   2 -10  127.47   31.54
   8   2 -10  291.05   37.36
  -8  -2  10  143.65   27.56
  -8  -2  11 1980.95   83.32
   8   2 -11 1797.21   85.45
   8   2 -11 1730.98   81.73
   8   2 -12 1100.87   76.77
   8   2 -12 1281.95   68.85
  -8  -2  12 1181.92   63.94
  -8  -2  13  627.06   43.14
   8   2 -13  790.44   62.11
   8   2 -13  657.62   50.92
   8   2 -14 1701.43  102.43
   8   1  -1  562.67   44.03
  -8  -1   1  496.71   34.99
   8   1  -1  465.62   32.63
   8   1  -2 3452.60  126.18
   8   1  -2 3051.25  129.04
  -8  -1   2 3169.72  134.25
  -8  -1   3  126.85   31.01
   8   1  -3  115.50   25.38
   8   1  -4  645.17   40.49
   8   1  -4  646.96   38.61
  -8  -1   4  681.44   42.05
   8   1  -5  -34.01   26.47
  -8  -1   5   96.12   30.62
   8   1  -6  -34.41   24.78
   8   1  -6   66.84   29.52
   8   1  -7  329.88   31.67
  -8  -1   7  381.29   35.28
   8   1  -7  196.37   31.20
   8   1  -8  126.55   29.62
   8   1  -9  264.49   35.82
   8   1  -9  248.93   33.23
  -8  -1  10  106.74   24.64
   8   1 -10  125.28   39.73
   8   1 -10   61.83   29.13
   8   1 -11  226.73   24.70
  -8  -1  11  298.86   36.39
   8   1 -12   84.72   32.67
  -8  -1  12   91.52   26.99
   8   1 -12  126.42   19.59
   8   1 -12   27.68   29.81
   8   1 -13  483.90   36.49
  -8  -1  13  608.37   43.80
   8   1 -13  537.72   51.26
  -8  -1  14  193.43   33.38
   8   1 -14   78.75   33.07
   8   1 -14  263.36   35.52
   8   1 -14  240.63   38.04
  -8  -1  15   -3.97   23.63
   8   1 -15  108.18   27.21
   8   1 -15   19.58   21.44
   8   0  -1  248.28   31.70
   8   0  -1   89.66   21.22
  -8   0   1  142.72   19.15
   8   0  -2  299.97   33.83
  -8   0   2  251.10   27.95
  -8   0   3 1942.43   85.51
   8   0  -3 2234.80   90.01
   8   0  -3 1972.87   86.23
  -8   0   4   19.83   18.43
   8   0  -4  119.38   26.89
   8   0  -5 4818.47  169.65
  -8   0   5 4309.00  165.26
   8   0  -5 4524.88  170.25
   8   0  -6 2826.46  109.11
   8   0  -6 2849.03  107.69
  -8   0   6 2714.02  109.10
   8   0  -7 9706.82  347.21
   8   0  -711529.02  370.62
   8   0  -710096.41  359.57
  -8   0   710620.23  338.82
   8   0  -8 1294.41   66.75
   8   0  -8 1319.27   69.51
  -8   0   8 1383.39   60.15
   8   0  -8 1376.25   72.40
   8   0  -9 1048.12   66.75
  -8   0   9  788.85   46.68
   8   0  -9 1047.07   54.46
   8   0 -10  872.73   47.60
   8   0 -10  740.71   40.13
   8   0 -10  603.61   50.87
   8   0 -11  141.06   36.27
   8   0 -11   65.66   17.96
   8   0 -12  128.21   27.27
   8   0 -12   44.24   33.93
   8   0 -12  219.08   38.36
   8   0 -13  896.95   60.24
  -8   0  13 1004.43   56.93
   8   0 -13  989.52   52.06
   8   0 -13  981.97   64.09
  -8   0  14  116.80   31.93
   8   0 -14    5.59   33.89
   8   0 -14   19.73   28.96
   8   0 -15  503.83   39.59
  -8   0  15  360.34   40.90
   8   0 -15  279.38   31.35
   8   0 -15  520.20   46.13
   8   0 -16   82.48   37.58
   8   0 -16   55.18   29.98
   8  -1   0 1286.15   57.76
   8  -1   0 1336.88   59.08
  -8   1   0 1426.41   66.75
  -8   1   0 1315.47   56.19
   8  -1  -1  212.05   25.34
   8  -1  -1  273.04   31.94
  -8   1   1  285.50   28.40
   8  -1  -2 1399.01   62.83
   8  -1  -2 1272.05   55.62
  -8   1   2 1273.65   58.60
   8  -1  -3   74.78   22.09
   8  -1  -3   83.07   19.66
  -8   1   3   43.78   20.76
   8  -1  -4  446.01   24.18
  -8   1   4  475.17   31.03
   8  -1  -4  512.71   32.61
   8  -1  -4  485.72   36.38
   8  -1  -5    9.38   25.09
  -8   1   5    7.11   16.42
   8  -1  -5  107.47   24.80
   8  -1  -5   92.06   21.04
   8  -1  -6  220.28   52.43
  -8   1   6   17.08   19.61
   8  -1  -6    8.56   28.98
   8  -1  -6   56.60   19.11
   8  -1  -7  -24.73   34.46
   8  -1  -7   14.65   30.70
   8  -1  -7   25.72   23.58
  -8   1   7   47.32   24.19
   8  -1  -8 1877.84   81.16
   8  -1  -8 1960.89   80.93
  -8   1   8 1712.09   75.69
   8  -1  -9   41.89   25.88
   8  -1  -9   56.78   25.87
   8  -1  -9   -4.34   22.28
  -8   1   9  -59.17   26.06
   8  -1 -10 2664.12  108.20
   8  -1 -10 2102.21  105.21
   8  -1 -10 2485.04   94.74
  -8   1  10 2659.92  104.52
   8  -1 -11 1880.98   84.84
  -8   1  11 1938.10   87.75
   8  -1 -11 2044.34   87.32
   8  -1 -11 2145.66   94.37
  -8   1  12  490.30   41.85
   8  -1 -12  571.47   38.58
   8  -1 -12  639.74   50.88
   8  -1 -12  430.67   40.78
   8  -1 -13 4570.87  183.48
  -8   1  13 4901.56  184.97
   8  -1 -13 4798.85  184.54
   8  -1 -13 4753.83  183.95
   8  -1 -14  558.26   41.56
   8  -1 -14  546.45   53.17
   8  -1 -14  739.68   53.92
  -8   1  14  626.30   47.82
  -8   1  15 1058.20   60.46
   8  -1 -15 1043.05   60.98
  -8   1  16  113.09   33.29
   8  -1 -16   87.59   34.11
  -8   2   0  -32.09   16.15
  -8   2   0   76.68   21.86
   8  -2   0   68.07   24.84
   8  -2  -1 5143.18  187.42
   8  -2  -1 5266.09  175.24
  -8   2   1 4771.11  177.30
   8  -2  -1 5382.49  188.52
   8  -2  -2  782.02   42.48
  -8   2   2  774.49   42.65
   8  -2  -2  758.10   37.77
   8  -2  -2  812.95   44.49
   8  -2  -3 2558.91  107.10
   8  -2  -3 2404.58   98.89
  -8   2   3 2540.56   98.44
   8  -2  -3 2656.32   91.91
  -8   2   4  834.36   43.90
   8  -2  -4  686.51   46.67
   8  -2  -4  695.35   40.45
   8  -2  -4  775.58   36.76
   8  -2  -5   35.55   20.88
   8  -2  -5  163.44   26.51
   8  -2  -5   45.12   32.73
  -8   2   5   90.08   22.14
   8  -2  -6   72.11   28.34
  -8   2   6  103.93   19.94
   8  -2  -6  210.09   34.11
  -8   2   7  940.94   47.67
   8  -2  -7  955.51   48.71
   8  -2  -8 1551.63   73.17
   8  -2  -8 1343.05   75.24
  -8   2   8 1584.03   70.30
   8  -2  -8 1522.42   70.67
   8  -2  -9    1.99   26.05
   8  -2  -9  -16.95   32.04
  -8   2   9  -22.82   20.16
   8  -2 -10  612.03   36.42
  -8   2  10  697.20   40.80
   8  -2 -10  599.58   41.41
   8  -2 -10  565.00   47.27
   8  -2 -11  152.49   32.54
   8  -2 -11  106.04   29.95
   8  -2 -11   77.38   27.70
  -8   2  11   12.34   22.74
   8  -2 -12   41.93   30.43
   8  -2 -12  109.81   29.02
  -8   2  12  127.04   19.84
  -8   2  13  673.99   48.61
   8  -2 -13  424.19   43.19
   8  -2 -13  547.55   43.10
   8  -2 -13  548.18   46.77
  -8   2  14    7.69   22.66
   8  -2 -14  113.71   36.95
   8  -2 -14   65.04   30.53
   8  -2 -15 1054.63   60.22
   8  -2 -15 1047.00   64.44
  -8   2  15 1019.45   55.12
   8  -2 -15 1072.28   62.29
  -8   2  16  422.50   38.29
   8  -2 -16  396.78   49.16
   8  -2 -16  570.28   48.01
   8  -2 -16  487.91   45.43
  -8   2  17  347.58   40.92
   8  -2 -17  262.54   41.15
   8  -2 -17  426.48   38.41
   8  -3   0 1102.72   45.71
   8  -3   0 1214.44   54.32
   8  -3   0  883.32   41.75
  -8   3   0  890.77   45.40
   8  -3   0 1107.61   51.35
   8  -3   0 1005.45   45.62
   8  -3  -1  403.08   30.51
  -8   3   1  357.71   25.64
   8  -3  -1  475.57   37.17
   8  -3  -1  272.24   25.98
   8  -3  -2  481.08   34.46
   8  -3  -2  406.87   23.73
   8  -3  -2  451.27   33.29
  -8   3   3   70.52   18.58
   8  -3  -4 4190.05  165.29
  -8   3   4 4502.60  151.62
   8  -3  -4 4656.53  160.54
   8  -3  -4 4408.79  160.29
   8  -3  -5  974.33   47.96
  -8   3   5  958.81   41.65
   8  -3  -5  899.93   48.92
   8  -3  -5  809.03   48.69
   8  -3  -6 6040.13  219.92
   8  -3  -6 5622.38  220.87
   8  -3  -6 5744.13  213.77
  -8   3   6 5885.27  208.04
   8  -3  -7 6445.73  229.95
   8  -3  -7 6337.24  221.68
  -8   3   7 6592.27  224.46
  -8   3   7 6069.08  216.17
   8  -3  -8 1363.66   62.37
   8  -3  -8 1160.72   55.48
  -8   3   8 1168.57   61.29
  -8   3   8 1365.46   56.01
  -8   3   9 3904.65  134.98
  -8   3   9 3395.44  128.83
   8  -3  -9 3388.97  140.84
   8  -3  -9 3413.32  138.60
  -8   3  10  -50.59   18.16
   8  -3 -10   45.86   25.05
  -8   3  10    2.59   29.10
   8  -3 -11  240.12   28.66
  -8   3  11  226.05   27.64
  -8   3  11  214.60   27.34
   8  -3 -12  262.09   33.32
  -8   3  12  104.64   22.11
  -8   3  12  179.79   27.35
   8  -3 -13  155.37   32.45
   8  -3 -13   39.01   34.16
  -8   3  13  251.59   29.62
  -8   3  13  230.35   30.21
  -8   3  14  177.70   32.84
  -8   3  14  238.43   27.82
   8  -3 -14  177.19   42.01
   8  -3 -14  188.76   27.97
  -8   3  15  167.29   32.19
  -8   3  15  131.68   23.38
   8  -3 -15   23.98   30.03
   8  -3 -16  121.31   34.73
  -8   3  16  194.85   28.13
  -8   3  16  160.84   27.27
   8  -3 -16    8.43   28.53
   8  -4   0   16.28   20.97
   8  -4   0   54.32   19.60
   8  -4   0  150.87   21.51
   8  -4   0  132.20   27.54
   8  -4   0   26.01   22.76
  -8   4   1 5935.96  196.55
   8  -4  -1 5608.17  191.77
   8  -4  -1 5803.20  194.01
   8  -4  -1 5560.88  194.99
   8  -4  -1 5940.61  200.24
   8  -4  -1 5721.35  192.13
   8  -4  -2 1569.95   68.29
  -8   4   2 1603.85   58.78
   8  -4  -2 1258.79   58.12
   8  -4  -2 1512.25   64.27
   8  -4  -3 2249.73   83.28
   8  -4  -3 2104.24   92.11
   8  -4  -3 2330.42   93.14
  -8   4   3 2269.35   81.29
  -8   4   3 2107.25   84.59
  -8   4   4 2049.11   84.41
   8  -4  -4 1851.33   80.65
   8  -4  -4 2078.07   85.88
   8  -4  -4 2017.11   78.96
  -8   4   4 1884.83   84.15
   8  -4  -5  988.95   55.27
   8  -4  -5  918.39   45.22
  -8   4   5  820.25   40.27
   8  -4  -5 1002.44   51.37
  -8   4   5  887.34   45.78
   8  -4  -6  -36.90   28.01
  -8   4   6  101.35   16.83
   8  -4  -6   94.53   18.55
  -8   4   6   53.21   17.98
   8  -4  -6  118.05   27.43
   8  -4  -7  354.83   32.16
   8  -4  -7  394.93   24.33
  -8   4   7  368.36   28.08
   8  -4  -8  320.71   33.64
  -8   4   8  234.00   36.68
  -8   4   8  234.59   24.24
   8  -4  -8  328.64   35.83
  -8   4   9 3501.16  131.90
   8  -4  -9 3526.46  138.01
   8  -4  -9 3358.86  129.96
   8  -4  -9 3288.58  126.45
  -8   4   9 3385.93  128.45
   8  -4 -10  501.89   30.03
   8  -4 -10  461.09   48.36
  -8   4  10  718.94   36.82
  -8   4  10  604.37   40.62
   8  -4 -10  644.92   40.88
   8  -4 -11 1099.67   59.71
   8  -4 -11  913.21   42.26
  -8   4  11 1018.47   55.01
  -8   4  11 1006.11   45.88
   8  -4 -11  989.09   60.45
  -8   4  12 3268.11  128.91
  -8   4  12 3212.85  119.34
   8  -4 -12 3221.79  138.09
   8  -4 -12 3160.81  128.54
  -8   4  13   99.05   27.98
   8  -4 -13   71.89   30.48
   8  -4 -13   91.54   31.69
  -8   4  13   67.96   20.75
   8  -4 -14 4600.26  176.77
  -8   4  14 5035.73  185.15
  -8   4  14 4412.79  173.40
   8  -4 -14 4978.24  194.45
   8  -4 -15  110.19   40.49
  -8   4  15  185.02   29.29
   8  -4 -16  409.90   48.64
  -8   4  16  549.08   41.03
   8  -4 -16  451.60   47.66
  -8   4  16  495.82   43.11
   8  -5   0 3312.17  124.94
   8  -5   0 3376.59  120.85
   8  -5   0 3528.60  132.34
  -8   5   0 3298.91  113.99
   8  -5   0 3217.11  127.87
  -8   5   1 1726.86   71.44
   8  -5  -1 1916.37   74.73
   8  -5  -1 1765.18   76.85
   8  -5  -1 1890.75   72.89
   8  -5  -1 1839.04   73.46
   8  -5  -2 1582.06   65.59
   8  -5  -2 1371.13   73.56
  -8   5   2 1516.29   60.26
   8  -5  -2 1528.88   67.49
   8  -5  -3 1642.64   68.73
   8  -5  -3 1500.98   68.09
   8  -5  -3 1428.16   71.00
  -8   5   3 1547.53   63.21
   8  -5  -4   59.05   24.69
  -8   5   4   55.50   24.65
   8  -5  -5  172.02   21.86
  -8   5   5  230.09   23.29
  -8   5   6 1041.43   52.00
   8  -5  -6 1037.16   53.95
   8  -5  -6 1061.03   63.70
   8  -5  -6 1203.79   54.70
   8  -5  -7 2223.34   88.33
   8  -5  -7 2049.26   88.36
  -8   5   7 1871.59   86.93
   8  -5  -7 2165.64   82.84
   8  -5  -8  367.40   36.57
   8  -5  -8  286.27   38.38
   8  -5  -9 3760.27  148.78
   8  -5  -9 3895.03  151.90
   8  -5  -9 3765.68  155.09
  -8   5   9 4170.08  156.65
   8  -5 -10  137.23   30.93
  -8   5  10   52.28   28.99
   8  -5 -10   69.57   24.01
  -8   5  11 1113.63   59.48
   8  -5 -11 1230.42   63.93
   8  -5 -11  896.27   51.85
   8  -5 -12   20.42   33.56
   8  -5 -12  110.12   21.17
   8  -5 -12  263.17   37.22
   8  -5 -13  111.56   23.36
   8  -5 -13   88.49   36.55
   8  -5 -14   50.91   28.63
   8  -5 -14  130.32   28.62
   8  -5 -15 1797.43  100.38
  -8   5  15 2075.55   93.05
   8  -5 -15 1994.73   92.46
  -8   6   0  603.95   35.38
  -8   6   0  861.43   48.25
   8  -6   0  623.53   48.66
   8  -6   0  786.47   43.64
   8  -6   0  674.97   35.99
   8  -6  -1  346.40   29.90
  -8   6   1  315.24   30.97
   8  -6  -1  258.37   31.77
   8  -6  -1  475.50   32.50
  -8   6   1  330.68   28.05
   8  -6  -2  174.39   25.87
  -8   6   2  189.27   32.13
  -8   6   3  258.62   29.45
   8  -6  -3  342.91   31.50
   8  -6  -3  266.35   33.81
  -8   6   4  241.82   22.79
   8  -6  -4  213.84   31.73
   8  -6  -4  295.80   32.85
   8  -6  -4  266.48   28.58
   8  -6  -5 2859.44  117.71
   8  -6  -5 2587.38  111.72
   8  -6  -5 2994.60  119.95
  -8   6   5 3033.12  120.94
   8  -6  -6 2566.39  106.75
  -8   6   6 2107.42   97.61
   8  -6  -6 2438.84  104.62
   8  -6  -6 2846.54  120.95
   8  -6  -7  625.21   37.43
  -8   6   7  521.80   36.68
   8  -6  -7  666.60   43.02
   8  -6  -7  654.07   41.06
  -8   6   8 3603.01  137.45
   8  -6  -8 3493.05  139.46
   8  -6  -8 3851.86  150.33
   8  -6  -8 3456.80  151.06
   8  -6  -9  491.20   42.01
   8  -6  -9  482.85   52.83
   8  -6  -9  628.41   36.16
  -8   6   9  501.85   44.55
   8  -6 -10  510.99   44.84
  -8   6  10  541.82   36.25
   8  -6 -10  465.30   41.35
  -8   6  11  239.88   28.37
   8  -6 -11  247.17   27.92
   8  -6 -11  393.37   36.39
   8  -6 -11  315.81   41.58
   8  -6 -12  246.88   38.18
   8  -6 -12   98.12   24.20
   8  -6 -13  105.03   33.09
   8  -6 -13  152.35   35.38
   8  -6 -13  154.18   32.43
  -8   6  13  143.95   29.57
   8  -6 -14  335.07   41.68
   8  -6 -14  516.43   37.38
  -8   6  14  332.86   43.26
   8  -6 -15  474.77   33.87
  -8   7   0 2063.28   91.21
  -8   7   0 2379.37   84.75
   8  -7   0 1861.92   86.96
   8  -7   0 2183.13   88.30
   8  -7   0 2210.97   86.59
   8  -7  -1 2909.26  122.58
  -8   7   1 3571.27  117.71
   8  -7  -1 3076.20  124.50
  -8   7   1 3011.92  125.12
   8  -7  -1 3092.05  114.28
   8  -7  -2 4051.61  166.82
  -8   7   2 4396.14  150.03
   8  -7  -2 4871.77  168.48
  -8   7   2 4382.38  161.32
  -8   7   3 1966.29   84.61
  -8   7   3 1722.90   77.82
   8  -7  -3 1845.10   83.53
   8  -7  -3 1852.50   82.14
   8  -7  -4    1.33   20.49
  -8   7   4   69.76   27.35
   8  -7  -4  -33.77   31.77
  -8   7   4   62.85   27.64
   8  -7  -5 4093.09  144.33
  -8   7   5 3415.37  151.01
  -8   7   5 3577.79  140.43
   8  -7  -5 4023.24  159.25
  -8   7   6  626.16   39.89
   8  -7  -6  397.98   32.83
  -8   7   7  323.97   24.98
   8  -7  -7  289.15   34.71
   8  -7  -7  270.37   25.95
   8  -7  -7  201.59   34.43
   8  -7  -8 1330.13   60.64
   8  -7  -8 1361.74   68.55
  -8   7   8 1203.22   66.08
   8  -7  -8 1189.25   77.14
   8  -7  -9  271.44   34.77
   8  -7  -9  349.79   37.52
  -8   7   9  212.69   29.36
   8  -7  -9  258.62   25.97
  -8   7  10  256.25   29.75
   8  -7 -10  339.47   37.14
   8  -7 -10  227.09   32.17
   8  -7 -10  329.47   37.78
   8  -7 -11 1207.24   72.10
   8  -7 -11 1400.67   67.80
   8  -7 -11 1206.20   70.02
  -8   7  11 1396.98   73.66
   8  -7 -12   53.55   30.77
   8  -7 -12  115.21   36.31
   8  -7 -12  103.89   26.50
  -8   7  12   35.73   25.70
   8  -7 -13 1181.53   66.92
  -8   7  13 1149.68   77.03
   8  -7 -13 1128.79   67.21
   8  -7 -13 1396.04   67.45
   8  -8   0   66.67   21.01
  -8   8   0   56.67   35.18
  -8   8   0   53.71   18.30
  -8   8   1  663.91   42.41
   8  -8  -1  535.76   44.41
   8  -8  -1  469.90   30.23
  -8   8   1  505.01   35.83
   8  -8  -1  476.08   36.77
  -8   8   2  557.90   35.17
   8  -8  -2  477.43   40.38
   8  -8  -2  565.56   48.22
   8  -8  -3  109.06   28.50
   8  -8  -3  206.96   30.12
  -8   8   3  102.40   19.49
  -8   8   3  212.31   32.23
   8  -8  -4  738.91   52.50
  -8   8   4  615.33   48.39
  -8   8   4  585.24   49.17
   8  -8  -5  550.11   42.38
   8  -8  -5  732.45   44.01
  -8   8   5  440.05   47.05
  -8   8   6  961.59   53.92
  -8   8   6  717.76   51.85
   8  -8  -6  811.17   58.06
   8  -8  -6 1003.94   58.04
  -8   8   7  248.68   28.66
  -8   8   7  214.34   31.59
   8  -8  -7  227.07   30.31
   8  -8  -7  146.27   27.69
   8  -8  -8 3158.35  135.16
  -8   8   8 3246.58  126.73
   8  -8  -8 3010.19  120.15
  -8   8   9  169.67   39.63
   8  -8  -9   28.67   39.59
   8  -8  -9   47.41   28.58
   8  -8  -9   40.87   21.76
  -8   8  10 1397.82   71.38
   8  -8 -10 1122.75   58.34
   8  -8 -10 1372.37   71.61
   8  -8 -10 1574.91   78.81
   8  -8 -11  313.58   41.81
   8  -8 -11  307.83   40.22
  -8   8  11  513.56   43.05
   8  -8 -12  797.12   51.82
   8  -9   0  120.26   32.21
   8  -9   0   81.40   23.57
  -8   9   0   63.66   24.87
  -8   9   1   13.06   33.05
  -8   9   1   23.17   20.84
   8  -9  -1   93.50   32.45
   8  -9  -1   63.58   22.68
   8  -9  -1   67.01   32.48
  -8   9   2  -10.19   20.72
   8  -9  -2   18.90   28.05
  -8   9   3   78.54   28.40
   8  -9  -3   89.74   31.35
   8  -9  -4  985.62   56.46
   8  -9  -4  830.86   61.85
  -8   9   4  903.91   50.65
   8  -9  -5  155.39   30.83
  -8   9   5  105.78   30.82
  -8   9   5   63.93   33.69
  -8   9   6  166.96   32.22
   8  -9  -6  449.08   44.65
  -8   9   6  244.46   27.76
   8  -9  -6  330.68   36.20
  -8   9   7  830.24   55.55
   8  -9  -7  915.17   63.37
  -8   9   7  985.24   52.16
   8  -9  -7  934.06   58.42
  -8   9   8  108.19   29.39
   8  -9  -8  134.24   29.72
   8  -9  -9  417.41   42.23
  -8   9   9  190.85   35.29
   8 -10   0  172.04   31.98
   8 -10   0  128.86   30.08
  -8  10   1  957.75   54.17
  -8  10   1  722.03   44.57
   8 -10  -1  872.23   48.39
  -8  10   2 2491.86  105.76
   8 -10  -2 2506.43  127.27
  -8  10   2 2750.05  111.71
  -8  10   3  257.97   33.57
   8 -10  -3   67.22   29.23
   8 -10  -4 1921.70   96.30
   7   5  -1  110.08   28.74
  -7  -5   1   58.88   25.30
  -7  -5   2  118.05   35.95
   7   5  -2   84.36   29.05
   7   5  -3   25.92   19.81
   7   5  -3   91.73   33.68
  -7  -5   4   25.25   34.09
   7   5  -4   69.80   29.00
   7   5  -4  111.92   24.10
   7   5  -5 1026.42   55.95
  -7  -5   5  951.08   60.38
   7   5  -6   57.05   25.68
   7   5  -6   29.79   34.88
  -7  -5   6   58.80   29.14
  -7  -5   7  786.41   49.20
   7   5  -7  607.76   44.07
   7   5  -7  596.09   47.03
  -7  -5   8  773.03   48.98
   7   5  -8  768.72   54.48
   7   5  -9   93.34   32.41
  -7  -4   1  148.53   24.50
   7   4  -1  145.21   34.37
  -7  -4   2 4662.80  172.00
   7   4  -2 4919.84  175.18
   7   4  -2 4307.48  158.89
  -7  -4   3    9.37   21.21
   7   4  -3  133.42   22.68
   7   4  -3   69.33   24.69
   7   4  -4 2460.43  100.16
  -7  -4   4 2027.56   93.66
   7   4  -4 2554.44  109.04
   7   4  -5   57.61   24.07
   7   4  -5  -24.36   26.75
   7   4  -6  945.33   57.53
   7   4  -6  866.88   52.04
  -7  -4   6  981.71   58.43
  -7  -4   7  906.42   53.35
   7   4  -7  719.85   49.38
   7   4  -7  689.35   47.60
   7   4  -8  436.99   40.54
  -7  -4   8  532.89   41.32
   7   4  -8  471.73   42.23
  -7  -4   9   64.05   25.12
   7   4  -9  242.90   40.38
   7   4 -10  797.48   47.83
  -7  -4  10  814.99   47.57
   7   4 -10  728.98   49.81
   7   4 -11  -40.90   34.75
  -7  -4  11   19.55   27.17
   7   4 -11   95.26   41.65
   7   4 -12   35.68   27.42
  -7  -4  12   28.72   24.28
   7   4 -13  430.48   41.33
  -7  -3   1  229.12   35.55
  -7  -3   1  345.77   27.67
   7   3  -1  362.46   27.57
   7   3  -2  647.89   41.13
  -7  -3   2  541.98   39.60
  -7  -3   2  567.85   29.88
   7   3  -2  517.51   34.87
   7   3  -3   72.99   24.27
   7   3  -3   60.77   30.78
  -7  -3   3   48.64   25.48
   7   3  -4   32.38   26.67
  -7  -3   4   25.96   23.76
   7   3  -5 1143.82   63.16
  -7  -3   5 1527.40   71.16
   7   3  -5 1271.50   63.99
   7   3  -6  331.66   40.96
   7   3  -6  291.70   27.27
   7   3  -7 2946.86  118.77
   7   3  -7 2693.88  111.85
   7   3  -8 2003.41   99.68
  -7  -3   8 2355.63   98.50
   7   3  -8 2134.70   91.73
  -7  -3   9 2845.29  118.09
   7   3  -9 2803.28  115.17
   7   3  -9 2725.61  112.51
   7   3 -10 1390.27   70.76
   7   3 -10 1333.95   70.83
  -7  -3  10 1530.75   69.38
   7   3 -11 3049.45  119.93
   7   3 -11 2239.95  104.22
  -7  -3  11 2683.85  115.96
   7   3 -12  335.96   36.14
   7   3 -12  297.11   35.75
   7   3 -12  223.86   28.86
  -7  -3  12  173.80   35.61
  -7  -3  13  652.49   44.93
   7   3 -13  607.43   49.48
   7   3 -13  509.37   50.93
   7   3 -13  659.38   35.73
   7   3 -14   49.47   32.45
   7   3 -14   82.12   24.50
  -7  -3  14  194.42   28.86
   7   3 -15  781.39   48.15
   7   3 -15  948.52   58.96
  -7  -2   1 1173.06   60.74
   7   2  -1 1354.66   57.53
   7   2  -1 1073.32   60.27
  -7  -2   1 1392.07   57.09
   7   2  -2  105.23   22.94
   7   2  -2   -7.68   26.16
  -7  -2   2   15.90   21.03
  -7  -2   2  -13.05   16.05
  -7  -2   3  144.05   23.10
   7   2  -3   98.43   23.41
   7   2  -3   62.28   23.42
   7   2  -4  291.88   28.16
   7   2  -4  293.64   31.25
   7   2  -5   31.35   21.03
   7   2  -5   36.31   24.61
  -7  -2   5  -23.57   19.57
  -7  -2   6  -55.24   26.29
   7   2  -6   47.75   25.57
   7   2  -6   18.84   21.95
   7   2  -7  366.47   35.18
   7   2  -7  418.01   34.14
  -7  -2   7  571.38   34.96
   7   2  -8   26.78   31.35
   7   2  -8  -48.37   16.48
   7   2  -9  691.90   47.08
  -7  -2   9  616.01   43.49
   7   2  -9  703.59   33.41
   7   2  -9  790.79   53.57
   7   2 -10  813.55   43.29
   7   2 -10  683.48   42.51
  -7  -2  10  925.54   45.04
   7   2 -10  729.52   39.24
  -7  -2  11    2.65   23.87
   7   2 -11  120.12   24.83
   7   2 -11  -12.52   24.90
   7   2 -11  121.06   28.49
   7   2 -12 1006.32   65.04
   7   2 -12 1297.31   59.46
  -7  -2  12 1034.21   51.84
   7   2 -12  973.81   48.45
   7   2 -13 1272.32   64.00
   7   2 -13 1653.40   73.67
  -7  -2  13 1260.59   63.32
   7   2 -13 1454.66   76.55
  -7  -2  14  340.38   48.26
   7   2 -14  198.13   28.24
   7   2 -14  312.90   32.53
   7   2 -15 2698.39   97.94
  -7  -2  15 2515.95   96.85
   7   2 -15 2305.20  103.24
   7   2 -15 2336.89  113.80
   7   2 -16   37.26   26.50
  -7  -2  16   37.77   32.75
  -7  -1   110043.11  318.37
  -7  -1   1 8723.02  307.85
   7   1  -1 9236.97  309.83
   7   1  -1 9385.22  325.24
  -7  -1   2  816.55   37.99
   7   1  -2  766.02   41.94
   7   1  -2  886.71   45.20
  -7  -1   2  750.43   44.25
  -7  -1   3 7996.81  259.01
   7   1  -3 7533.75  257.03
   7   1  -3 7676.83  262.48
  -7  -1   3 7189.12  244.01
   7   1  -4  812.68   53.28
  -7  -1   4 1042.80   51.00
   7   1  -4 1088.28   48.65
   7   1  -5 1921.19   71.92
   7   1  -5 2096.09   85.09
  -7  -1   5 1957.02   83.15
  -7  -1   6 1047.90   49.71
   7   1  -6  860.28   51.08
   7   1  -6 1123.74   42.87
   7   1  -6 1023.84   56.79
   7   1  -7 1479.43   76.34
   7   1  -7 1321.89   62.84
  -7  -1   7 1674.01   73.65
   7   1  -8 1349.06   66.44
  -7  -1   8 1241.78   64.27
   7   1  -8 1160.18   68.42
   7   1  -8 1266.59   55.52
   7   1  -9  393.90   31.13
   7   1  -9  457.39   40.53
   7   1  -9  325.29   24.75
  -7  -1   9  336.74   33.10
   7   1 -10  106.03   34.64
   7   1 -10  195.89   33.89
  -7  -1  10  256.11   30.68
   7   1 -11  176.10   34.10
   7   1 -11   91.28   29.74
   7   1 -11  216.96   26.67
  -7  -1  11  116.48   23.55
   7   1 -12   -8.82   23.61
   7   1 -12  166.74   29.98
   7   1 -13   11.77   22.00
   7   1 -13    5.04   19.83
   7   1 -13   20.16   28.31
   7   1 -14  355.62   28.26
   7   1 -14  247.88   41.43
   7   1 -15  687.00   52.10
  -7  -1  15  686.42   51.04
   7   1 -15  523.70   48.05
   7   1 -15  768.62   44.26
   7   1 -16   96.58   36.14
  -7  -1  16  -55.53   32.43
   7   1 -16  -46.59   24.50
   7   1 -16   16.89   23.65
   7   1 -17  513.89   48.64
   7   1 -17  406.38   41.53
   7   1 -17  424.62   42.68
  -7  -1  17  458.86   46.11
   7   0  -1  128.24   21.38
  -7   0   1  208.88   26.62
  -7   0   1   76.31   15.98
   7   0  -1  117.75   20.08
  -7   0   2  371.46   18.06
   7   0  -2  344.78   16.43
   7   0  -2  274.62   25.65
  -7   0   2  365.74   28.11
   7   0  -3  367.45   18.38
   7   0  -3  358.04   29.04
   7   0  -3  459.49   27.03
  -7   0   3  412.64   20.17
  -7   0   3  257.21   26.90
   7   0  -4 1258.26   64.15
   7   0  -4 1476.98   60.55
   7   0  -4 1389.55   51.07
  -7   0   4 1358.84   56.54
   7   0  -5  -31.72   21.90
   7   0  -5  -19.08   23.34
  -7   0   6 3010.07  106.44
   7   0  -6 2804.55  107.07
   7   0  -6 3005.90  115.71
   7   0  -6 2930.60  109.23
   7   0  -7 4116.35  139.94
   7   0  -7 3856.93  146.06
   7   0  -7 3839.14  136.91
  -7   0   7 3783.63  139.49
   7   0  -8 4758.70  179.84
  -7   0   8 4904.47  167.15
   7   0  -8 4951.91  171.05
   7   0  -8 4849.42  167.91
   7   0  -9 6034.41  206.67
   7   0  -9 5717.77  205.25
  -7   0   9 5866.01  204.94
   7   0  -9 6141.46  212.11
   7   0 -10 1167.01   52.58
   7   0 -10 1119.60   56.12
  -7   0  10 1048.44   47.13
  -7   0  11 3919.63  144.67
   7   0 -11 3816.82  143.87
   7   0 -11 4384.47  152.54
   7   0 -11 3869.41  142.39
  -7   0  12  211.78   25.24
   7   0 -12  125.08   29.11
   7   0 -12  189.40   28.36
   7   0 -13  887.78   53.38
   7   0 -13  927.20   60.57
  -7   0  13  942.09   52.85
   7   0 -14  797.67   50.65
  -7   0  14  821.97   50.50
   7   0 -14  908.05   54.02
   7   0 -14  896.44   57.27
   7   0 -15  113.05   28.23
  -7   0  15   41.28   26.54
   7   0 -15  242.02   42.81
   7   0 -16 1093.43   66.85
   7   0 -16 1181.41   66.47
   7   0 -16 1281.27   70.83
  -7   0  17  222.24   36.32
   7   0 -17  183.85   42.27
   7   0 -17  185.88   35.60
   7   0 -18  206.19   31.32
  -7   0  18  474.66   43.40
   7   0 -18  326.82   28.98
  -7   1   0   51.82   21.82
   7  -1   0   96.41   22.64
   7  -1   0    3.94   12.87
   7  -1   0   61.61    9.72
   7  -1   0   24.09   19.11
  -7   1   1  456.83   24.18
   7  -1  -1  437.69   23.93
   7  -1  -1  574.34   35.94
   7  -1  -1  559.12   29.85
  -7   1   1  498.50   33.64
   7  -1  -2 1383.81   57.51
  -7   1   2 1421.43   52.40
   7  -1  -2 1351.18   60.54
  -7   1   2 1563.88   62.47
   7  -1  -2 1522.75   65.01
   7  -1  -3 1091.17   52.86
   7  -1  -3  931.09   42.23
  -7   1   3 1032.44   36.73
  -7   1   3 1110.47   51.13
   7  -1  -3 1037.50   43.90
   7  -1  -4 2194.92  101.59
   7  -1  -4 2609.46   98.35
   7  -1  -4 2718.75   91.15
  -7   1   4 2915.78  107.94
   7  -1  -5  119.35   23.11
  -7   1   5  121.87   23.53
   7  -1  -6  633.27   36.30
  -7   1   6  549.55   37.83
   7  -1  -6  668.01   40.07
   7  -1  -6  518.33   33.46
   7  -1  -7  283.18   27.17
  -7   1   7  258.07   28.51
   7  -1  -7  215.70   30.27
   7  -1  -8  315.23   27.37
   7  -1  -8  316.84   30.49
  -7   1   8  323.93   25.21
   7  -1  -8  454.90   33.20
   7  -1  -9 1583.37   74.95
   7  -1  -9 1395.20   64.32
  -7   1   9 1581.68   73.32
   7  -1  -9 1563.26   74.62
   7  -1 -10  -18.31   17.12
   7  -1 -10   83.51   23.07
   7  -1 -10  100.57   30.81
  -7   1  10   89.32   23.81
   7  -1 -11 3604.65  139.70
   7  -1 -11 4026.50  156.70
  -7   1  11 3750.93  145.70
   7  -1 -11 4146.39  143.67
   7  -1 -12 1100.05   62.41
   7  -1 -12 1362.76   65.44
  -7   1  12 1293.98   61.90
   7  -1 -12 1405.21   67.03
   7  -1 -13 1057.91   55.31
   7  -1 -13 1160.73   59.38
   7  -1 -13  957.64   56.95
  -7   1  13  948.02   49.39
  -7   1  14 6139.22  224.10
   7  -1 -14 6027.03  222.66
   7  -1 -14 5823.02  210.92
   7  -1 -14 5767.28  216.24
  -7   1  15  145.01   27.44
   7  -1 -15  144.09   29.64
   7  -1 -15  269.13   35.79
   7  -1 -15   98.97   33.35
  -7   1  16 1955.71   97.72
   7  -1 -16 2241.60  103.29
   7  -1 -16 2307.25  107.71
   7  -1 -16 1836.44   97.00
   7  -1 -17  111.69   36.77
   7  -1 -17  130.36   33.50
   7  -1 -17  312.79   36.54
   7  -1 -18  893.21   56.57
  -7   1  18  665.14   50.16
   7  -1 -18  679.59   59.47
   7  -1 -18  611.58   50.79
  -7   2   0 5215.04  175.08
   7  -2   0 5186.41  187.71
  -7   2   0 5362.74  180.29
   7  -2   0 5329.61  169.52
   7  -2   0 5067.58  176.76
   7  -2   0 5343.27  177.90
   7  -2  -1  817.83   34.69
   7  -2  -1  814.53   41.68
  -7   2   1  800.93   35.50
   7  -2  -1  693.35   35.48
   7  -2  -1  736.91   30.04
   7  -2  -2 6439.35  215.86
   7  -2  -2 6323.04  203.34
  -7   2   2 6224.44  216.59
   7  -2  -2 6400.46  219.26
   7  -2  -2 6236.51  204.83
   7  -2  -2 6570.73  223.69
   7  -2  -3 6636.99  211.05
  -7   2   3 6582.65  234.70
   7  -2  -3 6562.26  222.13
   7  -2  -3 6624.00  222.96
   7  -2  -3 6586.56  214.13
   7  -2  -3 6827.45  227.80
   7  -2  -4 2145.59   98.58
   7  -2  -4 2269.21   78.79
   7  -2  -4 2505.28   88.77
   7  -2  -4 2328.88   86.46
  -7   2   4 2316.68   85.05
   7  -2  -5 3012.42   97.57
  -7   2   5 3041.15  106.91
   7  -2  -5 3077.37  113.29
   7  -2  -5 2839.24  115.17
   7  -2  -5 2933.29  105.53
   7  -2  -6  602.07   35.05
   7  -2  -6  514.00   35.43
  -7   2   6  447.49   26.46
   7  -2  -6  468.96   25.15
   7  -2  -6  428.14   31.69
   7  -2  -7   51.11   21.29
   7  -2  -7   54.70   24.40
  -7   2   7  141.46   21.99
  -7   2   8  363.61   26.56
  -7   2   8  245.41   23.03
   7  -2  -8  312.34   16.81
   7  -2  -8  344.54   36.94
   7  -2  -8  343.34   28.64
   7  -2  -9  897.64   57.06
   7  -2  -9  833.53   32.75
   7  -2  -9  653.28   45.98
  -7   2   9  824.05   41.53
  -7   2   9  726.82   45.47
   7  -2 -10  333.86   31.77
  -7   2  10  363.29   30.16
   7  -2 -10  457.40   35.11
   7  -2 -10  324.56   20.02
   7  -2 -11  873.76   47.07
  -7   2  11  687.98   41.68
  -7   2  11  722.02   44.42
   7  -2 -11  781.79   44.19
   7  -2 -11  646.17   33.11
   7  -2 -12  184.76   18.19
   7  -2 -12  160.19   36.39
   7  -2 -12  286.41   40.11
  -7   2  12  195.45   26.29
   7  -2 -13  108.38   27.59
  -7   2  13   24.96   28.43
  -7   2  13   34.01   27.26
  -7   2  14  638.59   42.16
   7  -2 -14  644.31   44.53
  -7   2  14  619.39   38.15
   7  -2 -15  105.96   34.35
   7  -2 -15  282.78   35.20
  -7   2  15  123.89   24.77
  -7   2  15  105.01   32.36
   7  -2 -16 1109.49   65.65
   7  -2 -16 1098.57   67.53
  -7   2  16 1193.25   63.82
   7  -2 -17  825.77   51.82
   7  -2 -17  843.62   64.98
  -7   2  17 1061.88   59.87
   7  -2 -17 1151.72   61.57
  -7   2  18  193.74   32.40
   7  -2 -18  122.68   35.11
   7  -2 -18  193.80   31.88
  -7   3   0 1224.39   47.05
   7  -3   0 1080.95   48.19
   7  -3   0 1109.80   46.65
   7  -3   0  989.99   46.20
   7  -3   0 1162.40   46.74
   7  -3   0 1153.02   52.41
   7  -3  -1 1366.66   56.03
   7  -3  -1 1454.64   57.17
   7  -3  -1 1294.60   52.39
   7  -3  -1 1347.89   54.07
  -7   3   1 1502.29   53.66
   7  -3  -1 1271.53   56.23
   7  -3  -2   71.27   19.12
  -7   3   2   22.73   14.40
   7  -3  -2  -11.53   20.42
   7  -3  -2   73.48   14.13
  -7   3   3 1763.27   66.84
   7  -3  -3 1962.43   78.53
   7  -3  -3 1695.75   60.25
   7  -3  -3 1603.34   65.92
  -7   3   3 1666.68   73.12
   7  -3  -4   56.63   13.19
  -7   3   4   86.33   16.16
   7  -3  -4  106.08   26.45
  -7   3   4   85.36   21.64
   7  -3  -5 4492.23  148.07
  -7   3   5 4668.51  149.74
   7  -3  -5 4091.87  152.48
  -7   3   5 4464.10  152.77
   7  -3  -5 4124.14  153.47
   7  -3  -6  782.75   34.46
  -7   3   6  764.73   38.94
  -7   3   6  836.39   36.00
   7  -3  -6  764.13   40.97
   7  -3  -6  864.21   41.31
   7  -3  -7 2682.55  110.70
   7  -3  -7 2613.03  103.89
  -7   3   7 3019.01  102.88
  -7   3   7 2648.35   96.00
   7  -3  -7 2538.08  110.30
   7  -3  -8 6853.15  241.51
   7  -3  -8 6076.07  211.68
   7  -3  -8 6167.94  220.08
  -7   3   8 6023.72  208.12
  -7   3   8 6656.60  219.76
   7  -3  -9  788.53   37.48
   7  -3  -9  898.63   50.96
  -7   3   9  926.46   40.38
   7  -3  -9  841.67   49.45
  -7   3  10 8090.79  270.85
  -7   3  10 8554.48  272.07
   7  -3 -10 8264.87  281.64
   7  -3 -10 7793.91  266.87
   7  -3 -10 7657.76  277.76
  -7   3  11  474.31   31.35
   7  -3 -11  400.35   42.31
   7  -3 -11  411.30   37.00
  -7   3  11  367.36   30.44
   7  -3 -12 2255.73   98.51
  -7   3  12 2315.98   97.76
   7  -3 -12 2360.00   93.15
   7  -3 -12 2037.64   91.56
  -7   3  13    7.97   20.26
   7  -3 -13  102.36   22.28
   7  -3 -13   98.96   34.65
   7  -3 -13   18.68   28.45
  -7   3  13   52.83   25.91
  -7   3  14   68.13   24.17
   7  -3 -14   59.46   31.49
  -7   3  14   92.26   25.65
   7  -3 -15  619.60   35.40
  -7   3  15  792.78   43.30
  -7   3  15  881.84   46.33
   7  -3 -15  662.99   47.59
   7  -3 -15  593.10   49.16
   7  -3 -16  -31.99   33.05
  -7   3  16   82.40   27.45
   7  -3 -16  -22.44   17.92
   7  -3 -16   42.92   28.37
  -7   3  16   -8.36   22.55
  -7   3  17  369.87   39.06
  -7   3  17  459.13   40.75
   7  -3 -17  467.57   39.00
   7  -3 -18   12.07   28.58
  -7   3  18   -7.23   30.88
   7  -4   0   68.12   14.36
   7  -4   0   43.90   18.07
   7  -4   0   90.71   22.89
  -7   4   0   11.47   15.44
  -7   4   1   26.10   14.65
   7  -4  -1   98.39   19.92
   7  -4  -1   -4.27   14.89
   7  -4  -1   54.41   18.36
   7  -4  -1   45.77   23.22
   7  -4  -2 1140.58   52.24
   7  -4  -2 1141.44   58.16
   7  -4  -2 1281.17   49.04
  -7   4   2 1129.54   45.52
  -7   4   2 1283.13   52.32
   7  -4  -2 1221.29   51.55
  -7   4   3 4167.05  148.64
   7  -4  -3 4450.43  161.37
  -7   4   3 4161.75  153.51
   7  -4  -3 4670.52  152.49
   7  -4  -3 4197.00  141.16
   7  -4  -3 4319.81  150.06
   7  -4  -4 1075.40   45.58
   7  -4  -4  913.82   39.93
  -7   4   4  826.10   44.92
  -7   4   4  866.14   38.43
  -7   4   5 5209.20  172.21
   7  -4  -5 5269.34  179.25
  -7   4   5 4889.30  174.20
   7  -4  -5 5407.26  175.82
   7  -4  -5 5454.74  188.79
  -7   4   6  415.51   28.96
   7  -4  -6  223.37   35.84
   7  -4  -6  281.69   26.64
  -7   4   6  240.59   20.73
   7  -4  -6  309.91   25.57
  -7   4   7 1614.09   57.33
   7  -4  -7 1380.24   55.26
  -7   4   7 1536.18   65.72
   7  -4  -7 1192.71   62.99
   7  -4  -7 1578.82   68.36
   7  -4  -8  767.35   41.10
   7  -4  -8  852.35   43.18
   7  -4  -8  624.54   35.58
  -7   4   8  712.97   35.92
  -7   4   8  751.85   43.37
   7  -4  -9  105.68   19.52
   7  -4  -9    5.50   28.91
   7  -4  -9  113.79   21.42
  -7   4   9  122.28   21.23
  -7   4   9  170.24   20.85
  -7   4  10 3536.38  128.26
   7  -4 -10 3343.83  131.79
  -7   4  10 3033.44  120.29
   7  -4 -10 2976.72  119.99
   7  -4 -10 3075.85  125.10
  -7   4  11 1218.38   62.37
   7  -4 -11 1454.86   63.99
  -7   4  11 1340.83   56.10
   7  -4 -11 1265.13   57.39
   7  -4 -11 1228.55   61.22
   7  -4 -12 2275.58   89.58
   7  -4 -12 2065.25   92.60
   7  -4 -12 2261.76   90.93
  -7   4  12 2121.15   87.11
  -7   4  12 2158.12   90.77
  -7   4  13 3873.97  156.53
  -7   4  13 4295.09  160.57
   7  -4 -13 4344.97  163.57
   7  -4 -13 4408.82  203.57
   7  -4 -13 4041.98  153.18
   7  -4 -14   90.12   31.23
  -7   4  14   44.53   22.67
   7  -4 -14   56.91   23.07
   7  -4 -14  110.57   40.69
  -7   4  15 2958.19  114.76
   7  -4 -15 2638.04  110.86
   7  -4 -15 2953.57  132.14
   7  -4 -15 2672.86  119.04
  -7   4  15 2540.55  112.82
   7  -4 -16  500.71   47.55
   7  -4 -16  584.02   52.30
  -7   4  16  719.64   43.59
   7  -4 -16  537.85   43.88
  -7   4  16  511.73   40.05
   7  -4 -17  733.13   52.33
   7  -4 -17  440.25   37.27
  -7   4  17  473.03   38.88
   7  -4 -17  456.98   37.50
  -7   4  17  555.82   33.10
   7  -5   0  115.64   21.51
   7  -5   0  141.02   15.25
   7  -5   0  166.50   23.31
   7  -5  -1 2729.90   98.03
  -7   5   1 3102.03  108.49
   7  -5  -1 2766.92  110.40
  -7   5   1 3129.56  118.00
   7  -5  -1 2864.00  104.13
   7  -5  -1 3078.67  117.38
  -7   5   2 2525.03  104.02
   7  -5  -2 2646.26   99.11
   7  -5  -2 2705.82   98.09
   7  -5  -2 2761.25  107.08
  -7   5   2 2805.33   99.29
  -7   5   2 2668.94   94.15
  -7   5   3 1870.66   85.42
  -7   5   3 1931.37   72.54
   7  -5  -3 1895.28   74.90
   7  -5  -3 2300.01   93.47
   7  -5  -3 2270.24   83.56
  -7   5   3 1895.88   77.27
  -7   5   4 7360.32  247.51
   7  -5  -4 7840.56  259.98
   7  -5  -4 7388.82  240.21
   7  -5  -4 7405.53  262.99
   7  -5  -4 7822.80  253.40
  -7   5   4 7128.81  264.57
   7  -5  -5  225.88   15.49
   7  -5  -5  198.18   32.56
   7  -5  -5  194.36   25.78
   7  -5  -5  293.30   32.34
  -7   5   5  227.60   14.33
  -7   5   6  651.35   30.75
   7  -5  -6  872.79   50.61
  -7   5   6  763.46   37.16
   7  -5  -6  873.36   41.74
   7  -5  -7  578.78   42.93
  -7   5   7  505.24   36.81
  -7   5   7  461.18   25.23
   7  -5  -7  620.39   36.22
   7  -5  -7  518.49   38.75
  -7   5   8  673.85   41.43
   7  -5  -8  694.43   40.82
  -7   5   8  632.66   35.70
   7  -5  -8  560.08   36.23
   7  -5  -8  646.17   34.93
   7  -5  -9   36.84   25.99
   7  -5  -9  131.69   21.38
   7  -5  -9   68.86   29.69
  -7   5  10 2170.85   87.97
   7  -5 -10 1884.04   90.16
   7  -5 -10 2286.10   88.64
  -7   5  10 1923.29   80.96
   7  -5 -10 2136.22   98.41
  -7   5  11  858.90   48.26
  -7   5  11  859.84   40.34
   7  -5 -11  877.66   50.60
   7  -5 -11  882.68   44.47
   7  -5 -11  739.74   49.27
   7  -5 -12 1123.47   58.31
   7  -5 -12  876.13   47.79
   7  -5 -12 1134.11   65.53
  -7   5  12 1182.95   56.76
  -7   5  12  853.47   46.22
   7  -5 -13   84.66   31.34
  -7   5  13   73.82   19.10
   7  -5 -13   93.24   32.96
  -7   5  14  489.75   34.25
   7  -5 -14  493.55   43.60
  -7   5  14  565.38   38.50
   7  -5 -14  478.27   40.55
   7  -5 -14  673.11   48.51
   7  -5 -15  242.98   31.10
  -7   5  15  198.96   26.46
   7  -5 -15  167.48   33.78
   7  -5 -15  221.71   42.73
   7  -5 -16  782.32   59.38
   7  -5 -16  669.70   51.19
  -7   5  16  996.15   55.24
   7  -5 -17  282.75   40.83
   7  -5 -17  239.22   30.23
  -7   5  17  322.55   37.36
  -7   6   0 1498.92   65.27
   7  -6   0 1388.44   67.43
   7  -6   0 1547.00   65.65
   7  -6   0 1436.67   58.39
  -7   6   0 1526.13   55.92
  -7   6   1 2749.22  104.84
   7  -6  -1 2724.51  106.05
   7  -6  -1 2886.52  111.77
  -7   6   1 3006.70  107.59
   7  -6  -1 2994.44  119.28
   7  -6  -2  441.47   36.13
   7  -6  -2  580.80   27.93
  -7   6   2  444.48   31.04
   7  -6  -2  490.42   36.00
  -7   6   3   98.57   22.15
   7  -6  -3  -29.84   20.52
   7  -6  -3   -9.45   21.62
  -7   6   4 2308.56   90.55
   7  -6  -4 2273.31   90.08
  -7   6   4 2345.82   90.23
   7  -6  -4 2053.85   82.74
   7  -6  -4 2037.08   82.15
  -7   6   5  273.02   24.74
  -7   6   5  384.71   36.05
   7  -6  -5  223.73   30.08
   7  -6  -6 2545.66  103.02
   7  -6  -6 2690.01   96.91
  -7   6   6 2687.59  103.58
  -7   6   6 2296.28  104.51
   7  -6  -7 2069.78   80.76
   7  -6  -7 2012.86   76.57
  -7   6   7 1771.21   79.07
   7  -6  -8  286.76   26.25
   7  -6  -8  161.78   27.67
   7  -6  -8  201.52   30.19
  -7   6   8  115.95   27.49
  -7   6   9 3829.15  133.87
   7  -6  -9 4125.09  151.50
   7  -6  -9 3848.04  154.30
   7  -6  -9 3908.87  151.94
   7  -6 -10  619.94   40.76
  -7   6  10  651.75   45.13
   7  -6 -10  756.14   50.91
   7  -6 -10  750.05   47.11
   7  -6 -11 1699.13   71.50
   7  -6 -11 1379.55   69.99
   7  -6 -11 1838.58   78.03
  -7   6  11 1354.43   77.06
   7  -6 -12  937.49   49.07
   7  -6 -12 1029.87   57.16
   7  -6 -12  975.48   56.89
   7  -6 -13   44.96   21.95
   7  -6 -13   10.71   32.08
   7  -6 -13   89.13   33.22
  -7   6  13  -85.85   23.14
  -7   6  14   37.21   27.28
   7  -6 -14   33.37   22.75
   7  -6 -14  -28.12   24.94
   7  -6 -14   74.17   39.21
  -7   6  15  186.73   24.67
   7  -6 -15   21.63   30.19
   7  -6 -15   93.84   36.27
   7  -6 -15  134.04   31.52
   7  -6 -16  483.25   43.19
  -7   6  16  261.38   32.30
  -7   7   0  279.61   22.70
   7  -7   0  279.25   29.66
  -7   7   0  356.91   29.24
   7  -7   0  394.10   35.40
   7  -7   0  346.66   28.25
   7  -7  -1 1612.40   74.66
   7  -7  -1 1553.99   74.38
  -7   7   1 1612.41   70.29
   7  -7  -1 1769.68   66.38
  -7   7   1 1440.04   65.09
   7  -7  -2 1657.86   72.30
   7  -7  -2 1698.90   70.77
   7  -7  -2 1716.39   72.42
  -7   7   2 1884.22   73.91
  -7   7   2 1456.08   65.65
   7  -7  -3  793.04   49.98
   7  -7  -3  806.91   46.80
  -7   7   3  705.94   45.86
  -7   7   3  898.58   46.42
   7  -7  -3  797.39   40.48
   7  -7  -4 8107.48  272.69
  -7   7   4 7778.37  279.63
   7  -7  -4 7622.91  266.19
   7  -7  -4 7781.27  273.32
  -7   7   4 8095.23  275.35
  -7   7   5   16.79   19.93
  -7   7   5   53.97   22.80
   7  -7  -5   29.93   15.66
   7  -7  -5   21.15   28.87
  -7   7   6 3691.74  148.83
  -7   7   6 4156.22  145.59
   7  -7  -6 4336.72  171.18
   7  -7  -6 4099.74  154.13
  -7   7   7  258.81   33.32
   7  -7  -7  149.02   26.92
   7  -7  -7   61.34   29.57
  -7   7   7  260.32   33.48
   7  -7  -8 1125.19   64.08
  -7   7   8 1276.76   62.85
  -7   7   8 1085.98   63.43
  -7   7   9  169.45   31.31
   7  -7  -9  357.39   35.43
   7  -7  -9  218.92   31.42
   7  -7  -9  206.21   29.72
   7  -7 -10  722.47   54.65
   7  -7 -10  754.64   54.45
   7  -7 -10  955.50   54.53
  -7   7  10  710.53   46.78
   7  -7 -11 1385.90   72.91
  -7   7  11 1521.94   80.14
   7  -7 -11 1431.68   72.64
   7  -7 -11 1514.78   74.59
   7  -7 -12 2330.70  100.24
  -7   7  12 2394.75   94.62
   7  -7 -12 2040.99   97.06
   7  -7 -12 2094.21   92.87
   7  -7 -13  184.01   33.38
   7  -7 -13   82.15   36.74
   7  -7 -13   48.95   31.00
  -7   7  14 1496.59   70.30
   7  -7 -14 1203.81   69.80
   7  -7 -14 1111.11   66.98
   7  -7 -14 1474.71   72.55
   7  -7 -15  626.83   50.06
   7  -8   0  411.12   39.88
   7  -8   0  351.28   30.25
   7  -8   0  296.55   28.27
  -7   8   0  403.14   30.79
  -7   8   1  213.75   23.98
  -7   8   1  181.23   22.79
   7  -8  -1  318.23   27.68
   7  -8  -2  150.36   36.90
   7  -8  -2  131.26   31.89
  -7   8   2    1.47   26.93
   7  -8  -2  109.53   22.25
  -7   8   2  150.31   22.57
  -7   8   3 1061.07   59.61
  -7   8   3 1127.34   61.67
   7  -8  -3 1207.39   63.46
   7  -8  -3 1008.24   55.64
   7  -8  -3 1121.27   50.88
   7  -8  -4  133.46   19.61
  -7   8   4   99.26   25.48
  -7   8   4  176.55   27.63
   7  -8  -4   68.01   29.51
   7  -8  -4  117.36   28.89
  -7   8   5  276.32   28.25
  -7   8   5  260.70   34.19
   7  -8  -5  296.67   29.91
   7  -8  -5  300.68   24.42
   7  -8  -5  307.93   34.31
  -7   8   6 1281.09   63.16
   7  -8  -6 1255.42   67.46
  -7   8   6 1240.77   69.71
   7  -8  -6 1097.07   62.11
  -7   8   7  159.43   35.56
   7  -8  -7  179.90   30.05
   7  -8  -7  377.09   39.31
  -7   8   7  213.74   32.76
   7  -8  -8  117.69   28.79
  -7   8   8  205.27   39.20
  -7   8   9 1857.41   81.61
   7  -8  -9 1664.26   75.42
  -7   8   9 1810.68   82.20
   7  -8 -10  847.15   50.15
  -7   8  10  623.15   46.89
   7  -8 -11  917.76   47.21
   7  -8 -11  702.26   46.10
  -7   8  11  722.45   40.29
   7  -8 -11  796.36   52.53
  -7   8  12  369.17   45.69
   7  -8 -12  319.08   38.27
   7  -8 -13  435.46   38.07
   7  -8 -13  421.82   45.25
  -7   9   0 4112.00  146.58
   7  -9   0 3861.24  161.38
   7  -9   0 3293.05  144.22
  -7   9   0 3521.32  143.78
   7  -9   0 3737.18  153.58
  -7   9   1   38.95   23.05
  -7   9   1  -23.86   22.60
   7  -9  -1  -32.15   34.14
   7  -9  -1   26.77   26.64
  -7   9   2 1156.70   67.44
  -7   9   2 1376.37   65.65
   7  -9  -2 1408.57   67.02
   7  -9  -2 1272.25   69.33
   7  -9  -3   54.61   30.80
   7  -9  -3   55.97   26.93
   7  -9  -3  101.26   25.68
   7  -9  -4   90.18   21.59
   7  -9  -4   21.96   29.39
   7  -9  -4  113.38   35.73
  -7   9   4  119.35   29.53
  -7   9   5  365.93   44.22
  -7   9   5  538.79   41.79
   7  -9  -5  438.16   45.99
   7  -9  -5  458.54   31.12
   7  -9  -5  504.15   43.15
   7  -9  -6  125.02   32.50
  -7   9   6   71.93   28.32
  -7   9   6  -20.28   29.28
   7  -9  -7  745.58   50.01
  -7   9   7  513.74   43.58
   7  -9  -7  711.21   48.97
  -7   9   7  642.51   45.67
  -7   9   8  582.45   40.73
   7  -9  -8  564.74   47.15
   7  -9  -8  868.62   48.81
  -7   9   8  763.85   50.04
  -7   9   9   90.81   29.14
  -7   9   9   78.89   34.89
   7  -9  -9   84.67   34.36
   7  -9  -9   54.83   31.36
  -7   9  10  433.97   39.51
  -7   9  10  205.13   35.16
   7  -9 -10  418.42   42.60
   7  -9 -10  267.97   36.19
   7  -9 -11  604.60   41.67
   7 -10   0  309.18   39.68
  -7  10   0  397.79   35.97
   7 -10   0  517.47   40.45
   7 -10   0  509.53   48.42
  -7  10   1  345.68   32.54
   7 -10  -1  453.62   40.66
   7 -10  -1  530.88   46.82
  -7  10   1  642.50   49.62
   7 -10  -2  205.71   35.60
   7 -10  -2  231.80   28.88
  -7  10   2  383.69   30.98
  -7  10   3 1590.83   76.56
   7 -10  -3 1340.78   77.17
   7 -10  -3 1501.42   83.39
   7 -10  -3 1962.07   80.59
  -7  10   3 1849.75   83.30
   7 -10  -4   40.31   19.33
   7 -10  -4   -6.16   29.15
   7 -10  -4   52.55   30.36
  -7  10   4  -27.02   32.93
  -7  10   4   90.69   31.61
  -7  10   5 2780.28  114.59
  -7  10   5 2745.34  126.35
   7 -10  -5 3286.88  132.88
   7 -10  -5 3252.78  134.67
   7 -10  -6  621.28   49.04
  -7  10   6  544.91   44.73
  -7  10   6  749.31   57.18
   7 -10  -6  788.31   54.29
   7 -10  -7  601.40   45.11
  -7  10   7  409.14   42.19
   6   6  -1  304.63   40.77
  -6  -6   1  428.74   39.48
  -6  -6   1  276.16   27.08
   6   6  -2  223.81   34.43
  -6  -6   2   87.85   26.53
  -6  -6   2  186.51   25.26
   6   6  -2  144.30   22.19
  -6  -6   3  358.98   32.07
  -6  -6   3  533.02   37.02
   6   6  -3  447.73   42.24
   6   6  -3  483.38   42.04
   6   6  -4  105.20   29.66
  -6  -6   4  132.70   28.83
  -6  -6   5   23.53   25.79
   6   6  -5   -8.27   25.40
   6   6  -5  -16.68   20.39
   6   6  -6   55.27   27.04
   6   6  -6    6.48   30.59
  -6  -6   7   60.63   23.80
   6   6  -7  189.87   29.45
   6   6  -7   93.11   29.78
   6   6  -8  651.69   46.10
  -6  -6   8  480.95   36.18
   6   6  -9  241.32   30.22
   6   6  -9  202.55   30.68
  -6  -6   9  135.07   28.03
   6   5  -1  485.89   31.87
  -6  -5   1  293.85   33.32
   6   5  -1  389.12   32.01
   6   5  -2   88.03   20.68
   6   5  -2  214.87   33.03
  -6  -5   2   45.13   21.25
  -6  -5   3  975.75   55.81
   6   5  -3  736.76   45.09
   6   5  -3  946.67   50.86
  -6  -5   3  877.39   44.73
  -6  -5   4  307.16   25.66
   6   5  -4  198.08   27.93
  -6  -5   4  383.46   35.51
   6   5  -4  306.26   33.11
   6   5  -5  758.06   49.80
   6   5  -5  929.84   52.01
  -6  -5   5  917.91   51.74
   6   5  -6  275.69   38.66
   6   5  -6   75.49   33.41
  -6  -5   6  129.27   26.27
   6   5  -8  441.46   41.25
  -6  -5   8  519.48   41.36
   6   5  -8  653.20   39.56
  -6  -5   9  772.07   44.34
   6   5  -9  712.47   50.38
   6   5  -9  739.79   47.20
  -6  -5  10   72.49   23.34
   6   5 -10   25.75   27.07
   6   5 -11  863.28   57.30
   6   5 -11 1007.87   56.58
  -6  -5  11 1040.58   53.68
   6   5 -12   45.22   29.42
  -6  -5  12   29.75   32.99
   6   5 -12   23.77   23.18
   6   5 -13  -48.22   28.53
   6   4  -1 1123.41   59.62
   6   4  -1 1465.92   58.23
  -6  -4   1 1423.92   71.22
  -6  -4   1 1358.91   62.73
   6   4  -2  416.96   41.75
  -6  -4   2  497.61   31.84
  -6  -4   2  519.05   39.23
   6   4  -2  400.12   32.23
   6   4  -3 3402.66  130.29
  -6  -4   3 3685.05  130.05
  -6  -4   3 3181.76  138.68
   6   4  -3 3952.54  137.16
  -6  -4   4 1506.80   65.72
   6   4  -4 1456.14   69.75
  -6  -4   4 1403.70   64.93
   6   4  -4 1542.63   60.48
  -6  -4   5 3656.68  138.79
  -6  -4   5 3509.20  131.58
   6   4  -5 3496.62  137.93
   6   4  -5 3364.52  136.65
   6   4  -6  824.62   48.51
   6   4  -6 1014.67   48.47
  -6  -4   6  986.88   41.81
  -6  -4   6 1031.38   54.08
   6   4  -7 3266.76  121.60
  -6  -4   7 3197.43  122.29
   6   4  -7 2884.87  123.60
  -6  -4   9 2584.24  109.48
   6   4  -9 2133.56  100.74
   6   4  -9 2468.71   98.16
   6   4 -10  893.49   50.95
  -6  -4  10  817.69   51.92
   6   4 -10  748.57   50.12
   6   4 -11 2434.89   88.71
  -6  -4  11 2446.00  104.87
   6   4 -11 2114.92   90.58
   6   4 -11 1988.16   92.36
  -6  -4  12  215.15   33.86
   6   4 -12  307.80   37.80
   6   4 -12  121.53   28.75
   6   4 -12  137.17   21.74
   6   4 -13 1263.98   66.37
   6   4 -13 1247.68   67.19
  -6  -4  13 1306.97   64.13
  -6  -4  14  526.38   47.11
   6   4 -14  542.60   42.68
   6   4 -14  458.23   46.03
   6   4 -14  459.17   41.46
   6   4 -15   58.86   28.70
  -6  -4  15   74.44   31.29
   6   3  -1  251.34   26.22
  -6  -3   1  304.47   31.58
   6   3  -1  391.75   25.08
  -6  -3   1  350.01   27.27
  -6  -3   2  761.13   35.93
  -6  -3   2  747.10   40.09
   6   3  -2  678.43   40.10
   6   3  -3 1687.98   66.05
   6   3  -3 1471.54   62.76
  -6  -3   3 1632.68   68.41
  -6  -3   3 1502.31   61.31
   6   3  -4   35.79   20.48
  -6  -3   4   49.16   22.35
   6   3  -4   42.70   23.88
  -6  -3   4   97.34   19.11
  -6  -3   5 1509.54   78.54
  -6  -3   5 1598.43   60.38
   6   3  -5 1319.76   60.56
   6   3  -5 1358.74   65.41
  -6  -3   6  527.34   43.26
   6   3  -6  713.02   28.56
   6   3  -6  731.03   37.37
  -6  -3   6  577.04   29.76
   6   3  -6  682.01   39.05
   6   3  -7   49.50   15.13
   6   3  -7   60.96   25.26
   6   3  -8 1790.04   70.90
   6   3  -8 1760.36   66.55
   6   3  -8 1491.03   69.11
   6   3  -9 2205.40   96.86
   6   3  -9 2277.84   97.20
  -6  -3   9 2409.00   90.01
   6   3  -9 2440.75   97.43
   6   3 -10  362.01   37.46
   6   3 -10  590.32   40.38
  -6  -3  10  537.22   36.72
   6   3 -10  443.37   32.89
  -6  -3  11 4262.10  152.23
   6   3 -11 3420.20  138.85
   6   3 -11 3836.41  157.73
   6   3 -11 3570.69  141.51
   6   3 -12  158.17   25.47
  -6  -3  12   80.23   20.97
   6   3 -12  261.90   28.79
   6   3 -12  163.64   34.82
  -6  -3  13 1820.76   85.37
   6   3 -13 1907.18   78.34
   6   3 -13 1716.60   81.52
   6   3 -13 1502.77   84.88
   6   3 -14 1543.23   73.88
   6   3 -14 1298.16   67.15
   6   3 -14 1512.52   78.90
  -6  -3  14 1402.91   61.69
   6   3 -15 1256.52   61.13
   6   3 -15 1090.66   63.05
   6   3 -15  822.75   56.59
   6   3 -16 1459.91   82.94
   6   3 -16 1772.61   80.41
   6   3 -16 1623.12   77.52
  -6  -2   1 1003.23   55.81
  -6  -2   1 1064.36   44.14
   6   2  -1 1039.62   49.71
   6   2  -1 1079.78   45.87
  -6  -2   2  537.66   28.22
  -6  -2   2  545.75   30.38
  -6  -2   3  567.73   34.44
   6   2  -3  509.43   29.38
  -6  -2   3  492.97   29.02
   6   2  -3  659.20   42.77
  -6  -2   4 1952.93   85.52
   6   2  -4 2385.32   93.84
   6   2  -4 2169.82   75.19
  -6  -2   4 2012.55   76.85
   6   2  -4 2248.91   79.45
   6   2  -5 4396.05  150.25
   6   2  -5 4271.83  141.12
  -6  -2   5 3810.71  140.84
  -6  -2   5 4277.85  145.76
   6   2  -5 4374.12  153.82
  -6  -2   6 1061.68   43.92
   6   2  -6  962.82   45.80
   6   2  -6 1106.41   60.81
   6   2  -6 1152.52   52.52
  -6  -2   6  917.03   39.62
   6   2  -7  135.28   16.14
  -6  -2   7  167.77   13.20
   6   2  -7  133.80   25.26
  -6  -2   8  477.97   29.01
   6   2  -8  399.53   39.56
   6   2  -8  545.59   33.56
   6   2  -8  535.87   29.79
  -6  -2   9   77.63   21.05
   6   2  -9   41.53   19.78
   6   2  -9  216.76   31.27
   6   2  -9   77.80   26.79
  -6  -2  10 1068.38   49.67
   6   2 -10 1106.43   52.35
   6   2 -10 1158.18   55.15
   6   2 -10 1017.20   53.29
   6   2 -11 1504.56   68.78
   6   2 -11 1647.11   71.05
  -6  -2  11 1863.46   78.62
   6   2 -11 1510.52   70.89
   6   2 -12   19.15   30.55
   6   2 -12   92.50   24.76
   6   2 -12  138.43   27.61
   6   2 -13 1124.11   60.24
   6   2 -13 1312.90   65.06
   6   2 -13 1276.84   60.68
  -6  -2  13 1563.50   69.12
   6   2 -14  644.03   41.24
  -6  -2  14  596.26   41.63
   6   2 -14  592.39   45.50
   6   2 -14  471.88   40.94
  -6  -2  15  131.85   31.20
   6   2 -15  304.56   36.82
   6   2 -15  347.75   35.78
   6   2 -16 1243.67   68.52
   6   2 -16 1589.87   74.92
   6   2 -16 1301.24   70.91
  -6  -2  16 1647.64   74.52
   6   2 -17   86.54   29.84
   6   2 -17  166.33   34.56
  -6  -2  17  245.50   32.87
   6   2 -18 1265.85   65.62
   6   2 -18 1157.63   68.39
  -6  -1   1   26.18   15.35
   6   1  -1   36.85   19.49
  -6  -1   1   31.88   19.37
  -6  -1   2 6272.45  211.93
   6   1  -2 6291.33  208.74
  -6  -1   2 6005.32  210.78
   6   1  -2 5993.70  194.21
   6   1  -2 6417.80  208.09
   6   1  -3 5125.83  166.42
   6   1  -3 4453.44  158.92
  -6  -1   3 4704.15  169.22
   6   1  -3 4969.54  153.25
  -6  -1   3 4895.89  161.85
  -6  -1   4 2532.34   95.01
   6   1  -4 2713.21   98.87
   6   1  -4 2832.54  103.90
   6   1  -4 2918.99   97.80
  -6  -1   4 2708.30  104.34
  -6  -1   5 8123.35  295.34
   6   1  -5 8535.77  289.28
   6   1  -5 9234.55  304.23
  -6  -1   5 8756.30  275.65
   6   1  -5 9304.40  299.26
   6   1  -6 7357.12  230.65
   6   1  -6 6878.09  238.34
   6   1  -6 7370.75  257.66
  -6  -1   6 7007.99  251.67
   6   1  -7 2081.60   74.40
   6   1  -7 1853.18   79.55
  -6  -1   7 1880.39   79.51
  -6  -1   7 2049.22   66.14
   6   1  -7 2036.22   77.38
   6   1  -8 1313.30   53.66
  -6  -1   8 1273.94   57.23
   6   1  -8 1266.33   62.37
   6   1  -8 1347.71   56.57
   6   1  -9 1073.44   49.79
  -6  -1   9  965.09   49.72
   6   1  -9  985.50   46.86
   6   1 -10 1741.75   69.87
   6   1 -10 1593.84   76.01
  -6  -1  10 1666.19   71.64
   6   1 -10 1470.02   64.81
   6   1 -11  132.34   25.17
   6   1 -11  114.72   27.77
  -6  -1  12 4309.81  158.58
   6   1 -12 4228.73  146.61
   6   1 -12 4113.90  155.91
   6   1 -12 3999.49  161.05
   6   1 -13  -20.28   20.88
   6   1 -13   30.73   37.29
   6   1 -13   17.35   21.13
  -6  -1  13  181.53   41.81
   6   1 -14   -8.51   23.95
   6   1 -14  -96.64   36.08
   6   1 -14  -19.59   24.82
   6   1 -15  180.96   39.24
  -6  -1  15  222.47   30.29
   6   1 -15  232.65   31.43
   6   1 -15  400.04   43.14
   6   1 -16  416.13   45.50
  -6  -1  16  358.14   40.19
   6   1 -16  541.16   41.82
   6   1 -16  383.33   43.40
   6   1 -17  170.08   30.80
   6   1 -17   31.73   23.86
  -6  -1  17  -73.27   33.22
   6   1 -17   40.23   38.84
  -6  -1  18  881.03   50.99
   6   1 -18  892.75   59.28
   6   1 -18  749.09   44.46
   6   1 -18  847.82   45.58
   6   0  -1 1117.08   46.86
  -6   0   1 1140.92   51.76
  -6   0   1 1042.44   45.38
   6   0  -1 1173.45   50.44
   6   0  -1 1139.40   39.99
   6   0  -2   96.66    9.00
   6   0  -2   74.03   15.65
   6   0  -2   89.30   21.20
  -6   0   2   66.29   21.37
  -6   0   2   95.78   15.00
  -6   0   3  964.13   33.53
   6   0  -3  828.20   40.30
   6   0  -3  788.94   39.13
  -6   0   3  934.73   46.17
   6   0  -4  639.49   33.08
   6   0  -4  751.50   36.40
   6   0  -4  636.08   24.12
   6   0  -5 5209.96  181.03
   6   0  -5 5275.48  177.17
  -6   0   5 4933.82  173.83
   6   0  -5 5122.93  180.17
  -6   0   5 5248.54  159.64
   6   0  -5 4654.34  156.58
  -6   0   6   40.20   17.41
   6   0  -6   29.10   22.39
   6   0  -6  -29.83   19.47
   6   0  -7 4128.13  147.36
  -6   0   7 4508.22  153.08
   6   0  -7 4408.38  163.49
   6   0  -8 2003.83   63.21
   6   0  -8 1963.45   84.68
   6   0  -8 1807.90   75.63
   6   0  -8 1991.23   74.35
  -6   0   8 1906.62   68.63
   6   0  -9 2276.54   89.02
  -6   0   9 2486.35   85.18
   6   0  -9 2387.13   81.82
   6   0  -9 2580.62   99.58
   6   0  -9 2452.78   93.51
  -6   0  10 7663.09  241.80
   6   0 -10 7295.51  256.40
   6   0 -10 7424.86  240.61
   6   0 -10 7718.85  255.23
   6   0 -10 7434.80  258.29
   6   0 -11  315.02   32.60
  -6   0  11  100.24   24.71
   6   0 -11  185.20   17.51
   6   0 -11  168.49   32.36
   6   0 -11  124.82   28.23
  -6   0  12 7100.25  231.72
   6   0 -12 6791.31  227.94
   6   0 -12 6547.60  222.60
   6   0 -12 6922.91  236.72
   6   0 -12 6223.86  238.00
   6   0 -13  -18.44   33.10
   6   0 -13   -4.31   25.51
   6   0 -13   43.67   23.20
  -6   0  13    0.80   22.58
   6   0 -14 1800.93   77.68
   6   0 -14 1728.54   76.06
   6   0 -15  109.20   29.75
   6   0 -15  242.95   33.62
  -6   0  15   82.19   26.65
   6   0 -15  209.14   33.24
   6   0 -16 1360.29   74.10
   6   0 -16 1500.80   75.08
   6   0 -16 1696.63   78.39
  -6   0  16 1566.99   72.35
  -6   0  17 1097.64   54.12
   6   0 -17 1035.62   62.87
   6   0 -17  844.78   58.60
   6   0 -17 1029.77   59.62
   6   0 -18  798.68   49.35
   6   0 -18  654.08   47.07
  -6   0  18  633.39   60.00
   6   0 -19  110.79   35.27
  -6   0  19  144.93   30.88
   6   0 -19  107.15   36.25
   6   0 -19  128.33   34.79
   6  -1   0 2161.81   70.25
   6  -1   0 1919.79   75.40
  -6   1   0 1815.39   69.86
   6  -1   0 1699.24   61.35
   6  -1   0 1930.11   70.46
  -6   1   0 2093.18   76.33
   6  -1   0 1739.00   62.58
   6  -1   0 2057.21   67.45
   6  -1  -1 5241.53  195.39
   6  -1  -1 5554.94  181.16
   6  -1  -1 5593.63  174.39
  -6   1   1 5453.10  182.36
   6  -1  -1 4778.26  167.07
   6  -1  -1 5355.38  170.00
  -6   1   1 5607.32  187.85
   6  -1  -2  939.62   31.95
  -6   1   2  836.94   44.26
   6  -1  -2 1021.00   38.52
   6  -1  -2  809.96   29.32
   6  -1  -2  764.02   40.72
   6  -1  -2  877.98   39.82
  -6   1   2  886.11   36.10
   6  -1  -3  570.31   20.25
  -6   1   3  510.17   27.90
   6  -1  -3  569.41   27.90
   6  -1  -3  590.33   29.88
   6  -1  -3  496.42   18.15
   6  -1  -3  463.13   32.84
   6  -1  -3  508.36   20.58
   6  -1  -4  142.37    8.71
   6  -1  -4  134.15   19.45
   6  -1  -4  104.63    8.17
   6  -1  -4  191.88   19.75
   6  -1  -4  131.96   24.21
  -6   1   4  165.56   19.07
   6  -1  -5 4101.31  141.82
  -6   1   5 4216.85  144.44
   6  -1  -5 3629.77  127.38
   6  -1  -5 4146.97  143.26
   6  -1  -5 4167.26  129.01
   6  -1  -5 4242.18  136.77
   6  -1  -6  220.29   23.99
   6  -1  -6  159.08   26.10
   6  -1  -6  219.43   10.85
   6  -1  -6  239.39   13.02
   6  -1  -6  207.50   28.90
  -6   1   6  309.27   25.85
   6  -1  -7 2102.05   80.23
  -6   1   7 1718.95   67.82
  -6   1   7 1867.82   83.83
   6  -1  -7 2117.42   75.35
   6  -1  -7 2048.37   71.65
   6  -1  -7 2310.76   92.95
   6  -1  -8  -44.61   19.88
   6  -1  -8  -36.36   23.62
   6  -1  -8   -2.74    9.81
  -6   1   9  320.59   28.76
   6  -1  -9  202.29   29.61
   6  -1  -9  373.92   35.21
   6  -1  -9  301.90   33.88
   6  -1 -10 1539.14   61.65
   6  -1 -10 1563.71   71.52
  -6   1  10 1660.42   68.21
   6  -1 -10 1829.86   71.34
   6  -1 -10 1771.78   67.47
   6  -1 -11  223.35   30.24
   6  -1 -11  229.82   29.87
   6  -1 -11  154.48   17.25
   6  -1 -11  230.68   26.50
  -6   1  11  135.11   21.98
   6  -1 -12 3848.21  156.69
  -6   1  12 3872.76  144.77
   6  -1 -12 4276.95  152.66
   6  -1 -12 3756.49  141.30
   6  -1 -12 3855.05  134.95
   6  -1 -13 1292.39   69.92
   6  -1 -13 1514.68   60.42
   6  -1 -13 1394.76   55.62
  -6   1  13 1347.82   59.02
   6  -1 -13 1394.72   68.70
   6  -1 -14  783.33   48.94
   6  -1 -14  839.02   50.26
   6  -1 -14  960.49   42.77
   6  -1 -14 1022.42   49.88
  -6   1  15 3456.27  134.94
   6  -1 -15 3261.05  132.10
   6  -1 -15 3904.69  145.66
   6  -1 -15 3548.99  131.85
   6  -1 -15 3543.48  137.11
   6  -1 -16    3.85   18.39
   6  -1 -16  -58.16   30.47
   6  -1 -17 2063.69   91.32
   6  -1 -17 1685.93   85.06
  -6   1  17 2218.73   90.48
   6  -1 -17 2027.54   82.53
   6  -1 -17 1838.76   88.81
   6  -1 -18 1080.86   58.95
   6  -1 -18  995.95   60.24
   6  -1 -18 1190.51   60.20
  -6   1  18  852.09   62.60
   6  -1 -19  242.53   33.58
   6  -1 -19  210.79   33.97
  -6   1  19  160.56   31.95
   6  -2   0  478.54   31.22
  -6   2   0  477.45   26.62
   6  -2   0  567.11   30.32
  -6   2   0  448.78   23.37
   6  -2   0  576.02   31.30
   6  -2  -1 3297.31  116.72
  -6   2   1 3508.14  111.92
   6  -2  -1 3667.00  117.21
   6  -2  -1 3363.63  115.81
   6  -2  -1 2979.16  119.77
   6  -2  -2 2513.83   91.02
   6  -2  -2 2844.45   93.53
   6  -2  -2 2799.06  101.06
   6  -2  -2 2892.26   98.32
  -6   2   2 3039.57   97.33
   6  -2  -2 3015.30   99.99
   6  -2  -2 2741.93  104.10
   6  -2  -3 6128.09  189.58
   6  -2  -3 6136.02  201.10
   6  -2  -3 5600.20  181.91
  -6   2   3 5871.67  190.76
   6  -2  -3 5879.82  189.85
   6  -2  -3 5122.98  180.06
   6  -2  -3 6019.18  194.46
   6  -2  -4 9849.16  296.54
   6  -2  -4 9619.84  319.22
   6  -2  -4 9886.27  325.96
   6  -2  -4 8545.66  295.50
  -6   2   4 9722.28  315.63
  -6   2   4 9962.49  313.66
   6  -2  -4 9761.92  309.70
   6  -2  -4 9518.17  293.75
   6  -2  -5  129.36   11.36
   6  -2  -5  180.68   16.44
  -6   2   5  110.75   24.94
  -6   2   5  131.06   15.40
   6  -2  -5  114.36   22.11
   6  -2  -5  176.95   22.32
   6  -2  -613230.96  432.60
  -6   2   613565.97  429.98
  -6   2   613383.86  449.11
   6  -2  -613618.16  433.64
   6  -2  -614324.57  439.41
  -6   2   7  -27.11   15.42
   6  -2  -7  -60.68   19.48
   6  -2  -8  588.11   41.46
  -6   2   8  588.11   34.92
  -6   2   8  660.05   33.50
   6  -2  -8  615.56   30.30
   6  -2  -9   55.41   15.17
   6  -2  -9  -21.41   24.74
  -6   2   9   -3.39   18.16
  -6   2   9   93.53   17.47
  -6   2  10   61.08   18.89
   6  -2 -10  143.90   29.66
  -6   2  10  132.65   29.42
   6  -2 -10   58.23   17.57
  -6   2  11 2291.35  107.14
   6  -2 -11 2424.04   97.39
   6  -2 -11 2520.33   90.83
  -6   2  11 2601.34   99.74
   6  -2 -11 2497.55  100.69
   6  -2 -12  106.77   29.52
  -6   2  12  114.73   23.67
   6  -2 -12    1.66   17.43
  -6   2  12  -37.91   20.99
   6  -2 -13 2594.52  101.93
   6  -2 -13 2224.24   97.53
   6  -2 -13 2257.09   92.16
  -6   2  13 2459.48   97.74
  -6   2  13 2426.38   98.90
  -6   2  14    1.07   26.56
   6  -2 -14  102.19   35.02
  -6   2  14   -8.33   20.05
   6  -2 -14  -12.55   31.55
   6  -2 -14   48.44   21.53
  -6   2  15  -19.91   27.04
  -6   2  15   73.11   23.55
   6  -2 -16  -16.25   33.96
   6  -2 -16   75.09   21.69
  -6   2  16  240.70   31.25
  -6   2  16  161.35   27.70
   6  -2 -16   69.91   38.20
  -6   2  17 1099.53   59.18
   6  -2 -17 1109.76   59.63
   6  -2 -17 1199.13   63.14
  -6   2  17 1257.78   69.56
   6  -2 -17  911.12   52.65
   6  -2 -18 1655.78   78.51
  -6   2  18 1305.57   69.32
   6  -2 -18 1344.04   67.42
  -6   2  18 1603.03   77.32
   6  -2 -19  117.48   23.30
   6  -2 -19  189.42   33.36
   6  -2 -19  194.65   30.32
  -6   2  19  143.00   31.62
  -6   3   0 2039.63   75.57
   6  -3   0 2020.27   79.55
   6  -3   0 1776.29   66.59
   6  -3   0 2031.06   72.65
   6  -3   0 1942.42   77.00
  -6   3   0 1916.73   72.94
   6  -3  -1 9348.15  295.81
  -6   3   1 9399.42  315.82
   6  -3  -1 9434.03  303.66
   6  -3  -1 8979.92  307.04
  -6   3   1 9574.74  301.32
   6  -3  -1 9147.39  316.10
   6  -3  -2 1582.45   55.13
  -6   3   2 1412.25   50.63
   6  -3  -2 1380.74   59.58
   6  -3  -2 1208.92   48.25
   6  -3  -2 1461.84   57.43
  -6   3   2 1462.26   64.82
   6  -3  -2 1589.61   63.28
  -6   3   3 1326.86   51.57
   6  -3  -3 1367.70   57.76
   6  -3  -3 1355.76   54.07
  -6   3   3 1277.35   53.72
   6  -3  -3 1379.66   56.80
   6  -3  -3 1437.93   46.77
   6  -3  -4 1976.16   78.00
  -6   3   4 2010.72   76.94
   6  -3  -4 2112.99   67.43
  -6   3   4 2022.71   69.99
   6  -3  -4 2050.27   74.78
   6  -3  -4 1910.24   77.92
   6  -3  -4 1899.24   64.63
   6  -3  -5   88.63    5.53
  -6   3   5   88.95   23.05
   6  -3  -5  126.66   20.78
   6  -3  -5   99.88    6.47
  -6   3   6 6596.64  227.24
   6  -3  -6 6457.48  224.50
   6  -3  -6 6834.47  237.83
   6  -3  -6 6681.37  230.61
  -6   3   6 6827.24  231.97
   6  -3  -7 2789.98  121.20
  -6   3   7 2816.40  109.26
   6  -3  -7 2742.08  101.54
  -6   3   7 2688.40  108.43
   6  -3  -7 2828.73   98.00
  -6   3   8 5057.74  174.92
   6  -3  -8 4750.16  165.28
   6  -3  -8 5290.20  183.97
   6  -3  -8 4830.84  167.79
  -6   3   8 4910.77  188.31
   6  -3  -9 3943.14  135.56
   6  -3  -9 3741.55  134.99
  -6   3   9 4157.70  146.26
  -6   3   9 3751.48  141.41
  -6   3  10    6.38   21.67
   6  -3 -10  103.29   31.90
   6  -3 -10  105.21   19.94
   6  -3 -10   80.48   30.60
   6  -3 -11 4092.99  149.94
   6  -3 -11 4138.28  144.97
   6  -3 -11 4207.72  152.41
  -6   3  11 4141.66  150.17
  -6   3  11 4249.93  154.91
   6  -3 -12 1814.78   80.54
   6  -3 -12 2015.18   79.74
  -6   3  12 2112.71   79.98
   6  -3 -12 1784.21   81.79
  -6   3  12 1851.98   80.70
   6  -3 -13 4633.16  178.30
   6  -3 -13 4572.99  173.78
  -6   3  13 4843.54  176.38
  -6   3  13 4624.93  169.80
   6  -3 -13 4949.06  181.01
  -6   3  14  144.72   25.46
   6  -3 -14   95.26   28.43
   6  -3 -14  196.31   32.86
   6  -3 -14  108.32   24.81
   6  -3 -15  252.08   42.02
  -6   3  15   54.75   23.82
   6  -3 -15   29.68   24.57
  -6   3  16  110.15   30.38
  -6   3  16  245.89   31.34
   6  -3 -16   82.81   23.91
   6  -3 -16  110.36   40.99
   6  -3 -17  695.00   53.39
   6  -3 -17  703.04   53.16
   6  -3 -17  721.55   44.64
  -6   3  17  649.82   45.73
   6  -3 -18  230.18   31.76
   6  -3 -18  240.98   34.42
  -6   3  18  104.32   28.02
   6  -3 -18  268.42   32.72
   6  -3 -19  700.42   45.64
  -6   3  19  772.43   41.64
   6  -3 -19  453.37   41.34
  -6   3  19  598.54   43.14
   6  -4   0 4430.97  153.86
   6  -4   0 4770.56  155.90
  -6   4   0 4338.33  157.93
  -6   4   0 4987.36  164.08
   6  -4   0 4583.26  150.60
   6  -4   0 4469.46  153.96
   6  -4  -1 1629.71   64.15
  -6   4   1 1690.90   66.28
   6  -4  -1 1491.75   62.11
   6  -4  -1 1707.49   64.91
  -6   4   1 1470.01   54.74
  -6   4   1 1417.10   61.77
   6  -4  -2  136.32   27.77
   6  -4  -2   89.26   15.23
  -6   4   2  113.82   13.56
  -6   4   2   44.34   19.84
   6  -4  -2   80.98   16.04
  -6   4   3   34.19   19.29
   6  -4  -3   69.83   19.37
   6  -4  -3   64.88   21.89
   6  -4  -3   26.79   14.19
   6  -4  -4 2601.06   98.34
  -6   4   4 2701.13   92.54
   6  -4  -4 2875.72  106.45
  -6   4   4 2743.97   99.66
   6  -4  -4 2739.54  100.40
   6  -4  -4 2705.46   89.67
  -6   4   5  543.75   25.19
   6  -4  -5  495.86   25.60
   6  -4  -5  342.07   28.18
   6  -4  -5  413.04   30.32
   6  -4  -5  445.06   20.23
  -6   4   5  481.15   32.72
   6  -4  -6 6410.61  192.53
  -6   4   6 6037.12  203.89
   6  -4  -6 5958.52  214.93
   6  -4  -6 6130.72  202.83
  -6   4   6 6090.50  195.43
   6  -4  -6 5281.02  193.64
   6  -4  -6 6490.36  214.52
   6  -4  -7  905.63   47.64
  -6   4   7  940.06   38.82
   6  -4  -7  866.30   30.89
  -6   4   7  908.83   42.64
   6  -4  -7  802.03   49.49
   6  -4  -7  757.65   37.76
  -6   4   8 2446.46   87.66
   6  -4  -8 2270.43   81.11
   6  -4  -8 2292.47   86.47
  -6   4   8 2160.03   81.94
   6  -4  -8 2209.98   86.49
   6  -4  -8 2189.57   74.17
   6  -4  -9   33.64   26.94
   6  -4  -9   84.60   21.78
  -6   4   9  124.58   17.99
   6  -4  -9  127.17   27.73
  -6   4  10 1445.77   59.23
   6  -4 -10 1526.19   62.64
  -6   4  10 1441.78   65.16
   6  -4 -10 1295.46   55.45
   6  -4 -10 1171.69   63.63
  -6   4  11 1229.83   55.31
  -6   4  11 1139.08   57.60
   6  -4 -11 1224.57   59.81
   6  -4 -11 1177.76   57.37
   6  -4 -12 1713.58   68.91
  -6   4  12 1438.19   70.80
   6  -4 -12 1786.29   79.15
  -6   4  12 1589.82   68.83
   6  -4 -12 1652.89   74.34
   6  -4 -13 1346.52   65.35
   6  -4 -13 1312.75   63.03
  -6   4  13 1154.91   55.68
   6  -4 -13  980.34   51.12
  -6   4  13 1269.67   58.42
   6  -4 -14 5868.88  205.98
   6  -4 -14 5857.34  217.67
  -6   4  14 5787.33  202.21
   6  -4 -14 6322.84  217.93
  -6   4  14 6224.39  226.20
   6  -4 -15  375.26   31.08
   6  -4 -15  318.40   28.82
  -6   4  15  555.63   40.54
  -6   4  15  437.59   33.87
   6  -4 -15  397.88   38.32
  -6   4  16 2055.38   93.19
  -6   4  16 1814.34   86.82
   6  -4 -16 2097.09   97.07
   6  -4 -16 2240.80   99.43
   6  -4 -16 2012.78   90.07
   6  -4 -17  989.41   56.43
  -6   4  17  872.10   56.09
   6  -4 -17  942.91   54.23
  -6   4  17  974.99   50.28
   6  -4 -17 1042.57   52.97
   6  -4 -18  355.33   40.50
  -6   4  18  185.92   33.35
  -6   4  18  275.42   35.75
   6  -4 -18  400.46   35.01
  -6   5   0 5852.80  202.39
   6  -5   0 5915.40  193.67
   6  -5   0 5828.38  180.90
   6  -5   0 5793.78  194.35
   6  -5   0 5556.62  206.07
  -6   5   0 5755.80  186.14
   6  -5  -1   65.73   19.31
   6  -5  -1  100.50   10.22
   6  -5  -1  105.98   26.61
   6  -5  -1   85.50   21.26
  -6   5   1   11.26   16.69
  -6   5   1   19.78   17.32
   6  -5  -2  192.33   26.56
  -6   5   2  138.10   22.70
   6  -5  -2  120.72   20.91
  -6   5   2  241.99   18.77
   6  -5  -3 4379.62  150.83
  -6   5   3 4463.20  169.75
  -6   5   3 4309.33  136.58
  -6   5   3 4036.02  146.27
   6  -5  -3 4182.35  140.86
   6  -5  -3 4324.94  145.54
  -6   5   4 2487.31   98.32
  -6   5   4 2341.99   92.74
  -6   5   4 2374.01   79.55
   6  -5  -4 2454.47   88.59
   6  -5  -4 2469.69   86.41
   6  -5  -4 2609.91   90.78
   6  -5  -5 2761.43   95.07
  -6   5   5 2769.57  104.45
   6  -5  -5 2717.45  101.03
   6  -5  -5 2804.40  108.50
  -6   5   5 2965.12   95.68
  -6   5   5 3004.87  103.57
  -6   5   6  502.81   25.40
   6  -5  -6  581.56   37.33
  -6   5   6  569.66   33.68
  -6   5   6  644.95   34.25
   6  -5  -6  572.94   24.85
   6  -5  -6  586.53   26.65
  -6   5   7 1932.04   70.06
   6  -5  -7 2029.26   83.79
   6  -5  -7 1800.59   66.71
   6  -5  -7 1923.43   74.31
  -6   5   7 1722.43   75.89
  -6   5   8 2097.53   86.64
   6  -5  -8 2205.51   88.56
   6  -5  -8 2405.61   89.47
   6  -5  -8 2257.48   76.96
  -6   5   8 2216.66   79.93
   6  -5  -8 2277.20   91.32
  -6   5   9   74.76   20.42
   6  -5  -9   30.43    9.28
   6  -5  -9   77.53   27.13
  -6   5   9   40.64   13.59
   6  -5 -10  181.42   33.93
   6  -5 -10  106.54   27.80
   6  -5 -10  189.15   25.21
  -6   5  10   31.97   23.06
  -6   5  10   58.11   18.52
   6  -5 -11  246.60   30.66
   6  -5 -11  345.73   40.63
  -6   5  11  161.68   24.33
  -6   5  11  329.29   36.20
   6  -5 -11  232.13   31.25
   6  -5 -12 1621.31   82.40
   6  -5 -12 1928.12   85.94
  -6   5  12 2014.53   75.08
  -6   5  12 1966.44   79.10
   6  -5 -12 1899.51   81.10
   6  -5 -13   97.55   29.82
  -6   5  13  237.72   24.69
   6  -5 -13  193.69   24.18
  -6   5  13  169.53   27.83
  -6   5  14  629.92   40.37
  -6   5  14  704.65   43.14
   6  -5 -14  526.02   40.54
   6  -5 -14  603.28   44.61
   6  -5 -14  706.18   46.15
   6  -5 -15  -96.75   25.92
   6  -5 -15   12.43   27.58
  -6   5  15   63.14   21.34
   6  -5 -16  -86.71   35.95
  -6   5  16  118.25   25.62
   6  -5 -16   78.28   33.43
  -6   5  17 1113.07   53.87
   6  -5 -17  808.43   60.83
   6  -5 -17 1032.31   59.54
  -6   5  17  920.21   51.95
   6  -5 -17 1240.29   64.45
   6  -6   012635.46  409.93
   6  -6   011831.40  406.71
  -6   6   012869.52  399.57
   6  -6   011067.98  406.56
  -6   6   012126.07  384.18
  -6   6   1  234.84   19.39
  -6   6   1  229.01   23.00
   6  -6  -1  317.18   26.66
   6  -6  -1  377.06   29.36
   6  -6  -1  438.80   34.22
   6  -6  -2 4204.32  166.87
   6  -6  -2 4555.43  156.66
   6  -6  -2 4521.19  172.60
  -6   6   2 4652.29  161.97
  -6   6   2 4558.30  156.36
   6  -6  -3  397.76   34.40
  -6   6   3  488.55   32.27
   6  -6  -3  352.84   34.04
   6  -6  -3  462.62   26.65
   6  -6  -4 3523.12  126.34
  -6   6   4 3643.05  132.38
   6  -6  -4 3508.73  133.78
  -6   6   4 3401.87  121.67
   6  -6  -4 3188.34  141.67
   6  -6  -5 1627.42   72.33
  -6   6   5 1518.18   64.47
   6  -6  -5 1673.98   65.55
  -6   6   5 1468.47   56.25
   6  -6  -5 1381.28   56.99
   6  -6  -6  207.68   28.96
  -6   6   6  302.14   31.04
   6  -6  -6  294.67   19.08
   6  -6  -6  419.87   28.07
  -6   6   7 6677.44  217.21
  -6   6   7 6759.63  225.99
   6  -6  -7 6463.16  225.21
   6  -6  -7 6335.97  230.63
   6  -6  -7 6956.07  232.89
   6  -6  -8 1991.21   77.45
   6  -6  -8 1866.22   73.45
   6  -6  -8 1710.85   79.40
  -6   6   8 2029.63   79.96
  -6   6   8 2029.09   83.10
   6  -6  -9   66.91   14.39
   6  -6  -9  158.03   33.69
   6  -6  -9  196.75   27.79
  -6   6   9  144.29   26.17
   6  -6 -10 4792.01  189.97
  -6   6  10 5615.76  188.22
   6  -6 -10 5306.55  194.85
   6  -6 -10 5480.54  187.40
  -6   6  11  470.88   34.38
   6  -6 -11  491.65   37.89
   6  -6 -11  399.11   42.03
   6  -6 -12  569.89   44.04
  -6   6  12  602.88   43.31
   6  -6 -12  461.24   42.12
   6  -6 -12  622.04   41.99
   6  -6 -13 1588.18   73.08
   6  -6 -13 1533.05   67.45
  -6   6  13 1518.14   74.26
   6  -6 -13 1277.02   68.80
  -6   6  14  122.05   26.81
   6  -6 -14   83.96   37.11
   6  -6 -14  226.35   34.63
  -6   6  15  157.21   27.77
   6  -6 -15  192.79   41.67
   6  -6 -15  186.56   40.61
   6  -6 -15   43.74   24.59
   6  -6 -16  -48.77   33.04
  -6   6  16   52.90   22.59
   6  -6 -16  130.15   35.46
   6  -6 -16  -12.54   28.40
   6  -6 -17   -6.44   32.25
  -6   6  17   48.10   24.15
   6  -6 -17   19.95   30.42
  -6   7   0 1084.32   48.79
  -6   7   0  954.58   46.63
   6  -7   0  966.91   53.03
   6  -7   0  977.80   52.31
   6  -7  -1  783.15   49.70
  -6   7   1  689.74   35.11
  -6   7   1  718.98   38.90
   6  -7  -1  605.64   38.45
   6  -7  -1  726.99   39.74
   6  -7  -2 1008.48   55.91
   6  -7  -2  872.35   44.37
  -6   7   2  966.17   49.63
   6  -7  -2  932.09   43.98
  -6   7   3  992.42   48.21
   6  -7  -3 1030.96   57.14
   6  -7  -3 1077.86   57.34
   6  -7  -3 1180.90   51.02
  -6   7   4  277.10   24.99
  -6   7   4  320.60   30.68
   6  -7  -4  209.39   24.31
   6  -7  -4  332.24   33.98
   6  -7  -5 3286.37  139.05
  -6   7   5 3588.91  136.93
   6  -7  -5 3737.03  126.38
   6  -7  -5 3457.51  125.01
  -6   7   5 3497.91  139.23
   6  -7  -6 1290.46   55.68
  -6   7   6 1054.46   50.92
  -6   7   6 1093.82   56.94
   6  -7  -6 1135.36   60.50
   6  -7  -6 1322.55   55.06
  -6   7   7 3491.75  118.73
   6  -7  -7 3078.97  122.48
  -6   7   7 3438.72  127.54
   6  -7  -7 2990.55  122.48
  -6   7   8 1099.20   53.66
   6  -7  -8 1149.07   54.99
  -6   7   8 1076.29   55.62
   6  -7  -8  896.49   44.63
   6  -7  -8  807.91   48.39
  -6   7   9  653.28   44.65
   6  -7  -9  607.19   33.38
   6  -7  -9  673.18   39.30
  -6   7   9  601.32   42.80
   6  -7  -9  633.68   39.20
  -6   7  10  166.35   27.72
   6  -7 -10  107.59   24.70
   6  -7 -10   89.83   29.48
   6  -7 -11 1675.01   76.56
   6  -7 -11 1517.08   70.90
   6  -7 -12  309.83   39.26
   6  -7 -12  396.50   35.34
  -6   7  12  295.54   34.19
   6  -7 -12  466.80   41.71
   6  -7 -13 2483.68  104.60
  -6   7  13 2365.77  104.84
   6  -7 -13 2179.12  100.17
   6  -7 -13 1950.93   96.27
   6  -7 -14   -4.70   35.29
  -6   7  14  135.14   34.24
   6  -7 -14   45.10   35.02
   6  -7 -14   47.40   30.52
   6  -7 -15 2794.38  126.15
   6  -7 -15 2841.18  120.90
   6  -7 -15 2755.72  109.50
  -6   7  15 2375.20  112.89
  -6   8   0  -34.91   29.33
   6  -8   0   59.21   26.39
  -6   8   0   -2.20   21.51
   6  -8   0  -73.32   20.85
   6  -8  -1 1898.48   77.03
   6  -8  -1 1917.09   77.69
  -6   8   1 1992.91   78.20
  -6   8   1 1986.65   75.73
   6  -8  -1 1959.71   87.59
  -6   8   2  244.03   35.07
   6  -8  -2  301.62   33.96
  -6   8   2  363.50   29.24
   6  -8  -2  299.08   30.06
   6  -8  -2  202.61   36.25
   6  -8  -3  761.21   48.66
  -6   8   3  584.56   41.96
  -6   8   3  706.40   41.71
   6  -8  -3  562.49   39.97
   6  -8  -4 1269.64   62.03
   6  -8  -4 1074.43   59.57
   6  -8  -4 1142.17   61.22
  -6   8   4 1332.69   58.04
  -6   8   4 1031.41   62.57
   6  -8  -5  130.78   23.49
  -6   8   5  136.67   24.61
   6  -8  -5  116.57   32.73
   6  -8  -6  394.32   34.51
   6  -8  -6  271.95   25.34
  -6   8   6  361.43   31.49
  -6   8   6  217.71   22.83
  -6   8   7 2217.12   94.30
   6  -8  -7 2061.62   98.07
  -6   8   7 2117.14   93.71
   6  -8  -7 2191.04   90.68
   6  -8  -7 2351.57   97.35
  -6   8   8   54.06   29.96
  -6   8   8    2.33   20.71
   6  -8  -8   60.96   24.38
   6  -8  -8  170.44   31.28
   6  -8  -9  458.72   36.56
   6  -8  -9  407.63   26.05
  -6   8   9  390.05   35.16
  -6   8   9  298.16   33.30
   6  -8  -9  414.77   44.03
  -6   8  10  991.08   55.01
   6  -8 -10 1225.00   63.66
  -6   8  10  983.17   52.08
  -6   8  11  229.99   33.74
  -6   8  11  214.53   36.07
   6  -8 -11  302.39   35.47
   6  -8 -11  321.90   35.45
   6  -8 -12   69.92   35.76
  -6   8  12  269.55   29.26
   6  -8 -12  232.54   36.17
   6  -8 -12  226.70   34.79
   6  -8 -13  983.86   49.85
  -6   8  13  950.77   55.69
   6  -8 -13  698.33   53.70
   6  -8 -13  915.96   65.63
   6  -8 -14  123.93   26.57
   6  -8 -14  108.09   36.98
  -6   9   0  133.70   27.96
   6  -9   0  138.25   29.63
   6  -9   0  101.44   23.62
   6  -9   0  -73.59   35.73
  -6   9   0   45.94   25.38
   6  -9  -1 5399.27  191.94
  -6   9   1 5703.93  193.96
  -6   9   1 5779.80  220.64
   6  -9  -1 5319.94  223.59
   6  -9  -1 6148.22  213.11
   6  -9  -2  189.51   30.22
  -6   9   2  199.34   29.51
  -6   9   2  235.03   35.48
   6  -9  -2  188.96   28.13
   6  -9  -2  289.49   33.41
   6  -9  -3  872.11   54.08
   6  -9  -3 1088.34   57.90
  -6   9   3 1075.90   58.07
  -6   9   3 1091.72   56.96
  -6   9   4  275.90   31.48
  -6   9   4  207.58   29.79
   6  -9  -4  259.25   31.44
   6  -9  -4  300.56   31.49
  -6   9   5 1383.37   65.69
   6  -9  -5 1390.18   76.02
   6  -9  -5 1277.62   62.04
  -6   9   5 1406.10   67.86
   6  -9  -5 1433.15   76.80
  -6   9   6  716.65   45.48
   6  -9  -6  406.06   38.31
   6  -9  -6  567.59   32.57
  -6   9   6  487.28   43.36
   6  -9  -7  590.15   46.67
   6  -9  -7  577.25   34.15
  -6   9   7  594.21   42.70
  -6   9   7  678.35   48.66
  -6   9   8  500.59   38.55
  -6   9   8  508.87   41.58
   6  -9  -8  472.49   38.76
   6  -9  -8  587.84   42.18
   6  -9  -9  719.06   46.79
  -6   9   9  696.08   48.48
  -6   9   9  744.10   42.21
   6  -9  -9  542.82   50.23
  -6   9  10  139.57   32.86
   6  -9 -10  156.07   37.91
  -6   9  10   49.16   21.78
   6  -9 -10   29.60   31.58
   6  -9 -11  439.35   49.41
   6  -9 -11  635.75   50.98
  -6   9  11  593.64   46.19
  -6   9  11  662.32   43.16
   6 -10   0  -57.81   24.73
   6 -10   0   -2.46   24.30
   6 -10  -1 1068.22   61.69
  -6  10   1  856.02   51.70
   6 -10  -1 1233.54   73.69
   6 -10  -1  978.75   58.19
  -6  10   1 1230.94   62.01
   6 -10  -2  407.29   38.14
   6 -10  -2  504.41   42.96
   6 -10  -2  523.93   50.56
  -6  10   2  520.56   37.25
  -6  10   2  398.23   37.74
   6 -10  -3  546.73   39.76
   6 -10  -3  695.10   47.92
  -6  10   3  654.67   49.40
  -6  10   3  531.59   42.58
   6 -10  -3  551.23   43.10
  -6  10   4 1521.22   73.76
   6 -10  -4 1220.87   67.70
   6 -10  -4 1293.44   70.43
   6 -10  -4 1275.07   69.14
  -6  10   4 1577.13   72.34
  -6  10   5  224.88   35.51
   6 -10  -5  262.11   31.96
  -6  10   5  195.37   35.47
   6 -10  -5  337.45   36.97
   6 -10  -6 1481.18   67.63
   6 -10  -6 1552.57   78.91
  -6  10   6 1657.08   80.10
  -6  10   6 1283.36   72.85
  -6  10   7 1306.53   66.69
   6 -10  -7 1410.56   76.01
  -6  10   7 1346.21   75.38
   6 -10  -7 1174.30   71.32
   6 -10  -8 1193.23   56.66
  -6  10   8 1050.34   63.87
  -6  10   8  860.77   49.91
  -5  -7   1   95.89   26.96
  -5  -7   1  278.01   39.81
   5   7  -2  -52.57   26.28
   5   7  -2   35.51   20.31
  -5  -7   2  124.72   26.98
  -5  -7   2  103.04   27.06
   5   7  -3   22.21   24.86
  -5  -7   3    1.00   23.04
   5   7  -3   89.17   32.94
  -5  -7   4  834.45   47.88
  -5  -7   4  999.98   54.13
   5   7  -4  983.09   48.20
   5   7  -4  826.40   52.50
   5   7  -5  924.20   53.70
  -5  -7   5  685.51   46.40
   5   7  -5  882.86   47.02
   5   7  -6  939.21   50.59
  -5  -7   6  807.11   45.69
   5   7  -6  910.42   52.87
  -5  -7   6 1175.18   60.10
   5   7  -7  900.61   57.33
   5   7  -7  844.10   65.57
  -5  -7   7 1019.78   55.61
  -5  -7   8  355.90   35.65
   5   7  -8  411.84   34.31
   5   7  -8  330.02   42.17
   5   7  -9  782.60   55.87
  -5  -7   9  811.65   53.52
  -5  -6   1 1001.29   54.52
   5   6  -1 1037.66   59.38
   5   6  -1  797.50   45.82
  -5  -6   1  916.00   49.59
   5   6  -2  170.50   30.23
  -5  -6   2    6.70   22.69
   5   6  -2   96.45   26.42
  -5  -6   2  130.08   28.14
  -5  -6   3  351.85   36.60
   5   6  -3  404.77   34.04
  -5  -6   3  482.62   34.86
   5   6  -3  365.72   32.08
  -5  -6   4  448.78   37.43
  -5  -6   4  324.02   32.83
   5   6  -4  515.35   37.89
   5   6  -4  324.61   30.82
   5   6  -5  921.55   49.10
  -5  -6   5 1085.96   58.45
  -5  -6   5  889.67   51.52
   5   6  -5 1014.05   52.93
  -5  -6   6   68.92   20.34
   5   6  -6  153.88   33.85
   5   6  -6   18.71   23.73
   5   6  -7 1047.89   62.71
  -5  -6   7 1047.69   49.46
   5   6  -7 1087.30   57.36
  -5  -6   7  915.16   47.60
  -5  -6   8   62.58   29.30
   5   6  -8   57.27   35.34
  -5  -6   9  112.65   25.09
   5   6  -9   29.92   27.74
   5   6  -9    7.07   25.29
   5   6 -10  119.56   23.85
  -5  -6  10  183.47   28.91
   5   6 -10   92.81   26.82
   5   6 -11  569.93   37.63
   5   6 -11  496.05   40.80
  -5  -6  11  577.21   45.19
   5   6 -12  182.48   34.64
   5   6 -12   64.32   31.66
  -5  -6  12  132.13   28.16
   5   6 -13  520.78   36.39
   5   6 -13  499.67   36.85
  -5  -6  13  727.61   45.61
  -5  -5   1 5130.48  181.66
   5   5  -1 4683.34  180.33
  -5  -5   1 5226.38  173.81
   5   5  -1 5016.76  179.24
  -5  -5   2  479.32   34.95
   5   5  -2  337.00   39.12
   5   5  -2  382.69   24.40
  -5  -5   2  351.29   30.46
   5   5  -3 2109.88   87.04
  -5  -5   3 2607.22   91.58
   5   5  -3 2278.66   85.32
  -5  -5   3 2113.84   89.52
  -5  -5   4  357.26   37.29
   5   5  -4  293.56   28.59
   5   5  -4  353.46   29.38
  -5  -5   4  329.73   28.44
  -5  -5   5 2742.69  103.91
  -5  -5   5 2947.34  101.16
   5   5  -5 2440.08   97.80
   5   5  -5 2489.88  107.79
  -5  -5   6  883.05   47.58
   5   5  -6  645.61   48.94
  -5  -5   6  648.68   41.22
  -5  -5   7 2115.16   96.50
   5   5  -7 2434.59  101.07
  -5  -5   7 2490.20   96.96
   5   5  -7 2394.96   93.85
   5   5  -8  177.71   35.37
  -5  -5   8   89.93   18.60
   5   5  -8  119.66   20.09
   5   5  -8   81.15   28.18
  -5  -5   9  919.59   48.52
  -5  -5   9  654.06   35.60
   5   5  -9  797.38   37.45
   5   5  -9  730.31   42.29
   5   5  -9  586.27   36.53
   5   5 -10  162.99   29.72
   5   5 -10  219.46   28.14
   5   5 -10  143.69   25.45
  -5  -5  10  178.22   27.05
   5   5 -11  382.96   35.39
   5   5 -11  281.89   24.20
  -5  -5  11  209.53   32.50
   5   5 -11  179.86   37.87
   5   5 -12  935.09   48.49
  -5  -5  12  870.61   51.37
   5   5 -12  683.50   41.71
  -5  -5  13  382.06   36.58
   5   5 -13  271.91   30.75
   5   5 -13  344.41   34.74
   5   5 -14   25.08   23.36
   5   5 -14   33.87   23.22
  -5  -5  14  -10.02   26.69
   5   5 -14  154.21   29.81
  -5  -5  15   96.17   32.19
   5   5 -15   20.58   27.79
   5   5 -15   81.13   31.06
   5   4  -1 1632.44   67.41
  -5  -4   1 1696.44   67.54
   5   4  -1 1803.49   70.82
  -5  -4   1 1377.04   70.25
  -5  -4   2 1279.29   50.03
  -5  -4   2  936.95   49.77
   5   4  -2  983.06   46.41
   5   4  -2 1180.92   55.22
   5   4  -3  256.88   29.64
   5   4  -3  316.21   25.98
  -5  -4   3  288.27   25.33
  -5  -4   4 1910.55   77.61
  -5  -4   4 1831.37   76.25
   5   4  -4 2066.00   72.71
   5   4  -4 1902.22   76.51
  -5  -4   5 4952.50  166.23
   5   4  -5 4748.84  162.61
   5   4  -5 4717.26  153.60
  -5  -4   5 4738.99  161.46
   5   4  -5 4294.83  164.09
   5   4  -6  582.80   35.46
   5   4  -6  421.51   24.70
  -5  -4   6  493.38   29.97
   5   4  -6  415.71   27.98
  -5  -4   7 5502.56  190.62
   5   4  -7 5466.78  186.52
  -5  -4   7 5649.35  191.61
   5   4  -7 5057.62  182.80
   5   4  -7 5641.35  192.51
  -5  -4   8 1223.83   52.15
   5   4  -8 1084.67   56.58
   5   4  -8 1348.95   61.83
   5   4  -8 1140.81   52.29
  -5  -4   8 1048.49   54.87
   5   4  -9 1610.60   71.24
  -5  -4   9 1649.14   76.08
  -5  -4   9 1537.44   66.42
   5   4  -9 1248.07   72.40
   5   4  -9 1767.82   67.12
  -5  -4  10 1972.68   86.40
   5   4 -10 2179.47   90.16
  -5  -4  10 1784.14   81.02
   5   4 -10 2001.46   83.98
   5   4 -10 2222.37   87.63
   5   4 -11  147.90   23.20
   5   4 -11   92.83   24.66
   5   4 -11  260.81   38.18
  -5  -4  12 3973.66  152.42
   5   4 -12 3829.00  146.27
   5   4 -12 3475.24  138.78
   5   4 -12 3532.10  152.00
  -5  -4  13  550.78   37.41
   5   4 -13  383.16   41.36
   5   4 -13  414.69   40.79
   5   4 -13  354.86   33.93
   5   4 -14 2626.79  117.78
  -5  -4  14 3022.71  122.26
   5   4 -14 2918.44  106.26
   5   4 -14 2695.31  110.84
   5   4 -15  663.58   43.06
   5   4 -15  782.51   53.52
  -5  -4  15  623.66   47.37
   5   4 -15  870.11   56.61
   5   4 -16  388.98   36.88
   5   4 -16  382.44   39.09
  -5  -4  16  439.71   40.61
   5   4 -16  384.66   36.86
   5   4 -17  210.80   37.24
   5   3  -1  160.24   21.73
  -5  -3   1  113.39   20.63
   5   3  -2 1259.89   54.53
  -5  -3   2 1372.03   56.75
   5   3  -2 1574.14   70.38
   5   3  -2 1379.32   47.45
  -5  -3   2 1429.15   59.63
   5   3  -3  261.56   13.57
   5   3  -3  327.27   28.09
   5   3  -3  223.01   20.31
  -5  -3   3  260.22   25.67
  -5  -3   3  241.20   20.86
  -5  -3   4  179.19   21.47
   5   3  -4  243.76   26.79
   5   3  -4  148.37   24.39
  -5  -3   4  100.80   18.33
   5   3  -5  109.92   12.12
   5   3  -5  123.58   20.51
  -5  -3   5   56.30   23.60
   5   3  -5  116.32   22.38
  -5  -3   5  116.10   15.48
   5   3  -6  338.56   25.30
   5   3  -6  296.52   28.05
   5   3  -6  378.24   20.74
  -5  -3   6  348.91   23.34
   5   3  -7 3801.11  134.54
  -5  -3   7 4200.69  137.79
   5   3  -7 4086.97  144.80
   5   3  -7 3947.36  141.42
  -5  -3   7 3870.27  144.00
   5   3  -8  160.31   25.82
  -5  -3   8  115.58   20.20
   5   3  -8   60.14   18.53
   5   3  -8  184.55   28.86
   5   3  -9 1189.85   57.12
   5   3  -9 1335.38   60.38
  -5  -3   9 1417.29   57.64
   5   3  -9 1220.97   59.75
  -5  -3   9 1407.27   54.00
   5   3 -10  764.43   38.49
   5   3 -10  636.05   38.07
  -5  -3  10  686.35   33.50
   5   3 -10  660.18   38.40
   5   3 -11   84.00   27.78
   5   3 -11   94.87   24.74
   5   3 -12 2893.16  107.68
   5   3 -12 3019.45  113.82
  -5  -3  12 2853.60  116.42
   5   3 -12 2723.90  109.11
   5   3 -13  449.71   35.67
   5   3 -13  421.68   36.02
   5   3 -13  327.03   29.94
  -5  -3  13  265.73   36.15
   5   3 -14 1380.89   70.01
   5   3 -14 1677.53   81.63
  -5  -3  14 1673.77   72.26
   5   3 -14 1297.17   62.94
   5   3 -15   74.48   30.32
   5   3 -15  -81.85   28.41
   5   3 -15  -14.04   26.42
  -5  -3  15  132.31   27.34
   5   3 -16 1372.09   71.54
   5   3 -16 1206.19   67.07
  -5  -3  16 1187.51   60.82
   5   3 -16 1088.10   59.92
   5   3 -17  702.31   45.91
   5   3 -17  764.33   49.46
   5   3 -17  492.17   43.30
  -5  -3  18 1747.71   93.46
   5   3 -18 2018.16   94.87
   5   3 -18 1702.00   94.25
   5   2  -1 7760.65  252.33
  -5  -2   1 7573.93  258.28
  -5  -2   1 7790.00  272.25
   5   2  -1 7098.17  231.06
   5   2  -1 7512.90  230.28
   5   2  -1 7927.47  251.93
  -5  -2   2 3856.25  132.29
   5   2  -2 3818.30  125.28
   5   2  -2 3925.70  138.98
   5   2  -2 3725.70  129.04
  -5  -2   2 3874.42  140.03
   5   2  -3 4148.02  125.15
  -5  -2   3 3783.65  130.24
   5   2  -3 3841.79  140.46
  -5  -2   3 3381.34  125.11
  -5  -2   3 4028.53  159.17
   5   2  -3 3927.83  132.01
   5   2  -4  328.37   30.17
   5   2  -4  338.58   17.73
  -5  -2   4  225.88   23.07
  -5  -2   4  313.65   20.60
   5   2  -5  240.46   25.00
  -5  -2   5  285.46   23.68
   5   2  -5  287.94   31.49
   5   2  -5  314.23   17.29
  -5  -2   5  267.32   17.64
   5   2  -6 8061.50  272.36
  -5  -2   6 7969.58  290.35
   5   2  -6 7887.88  284.93
   5   2  -6 8559.33  269.37
  -5  -2   6 8942.48  272.90
   5   2  -7 2752.51   99.39
   5   2  -7 2841.44  106.84
   5   2  -7 2814.03  110.57
  -5  -2   7 2916.22  109.53
  -5  -2   7 2992.70  101.67
   5   2  -8 4929.27  179.49
   5   2  -8 5067.11  165.66
  -5  -2   8 5039.08  161.16
  -5  -2   8 4779.50  182.40
   5   2  -8 4438.60  165.59
  -5  -2   8 4458.34  148.37
   5   2  -9  114.93   18.60
   5   2  -9   48.99   26.61
  -5  -2   9   83.40   11.96
   5   2  -9   -8.01   23.63
  -5  -2   9   80.60   22.64
  -5  -2  10   95.69   12.21
   5   2 -10  116.63   18.80
   5   2 -10   48.06   19.20
   5   2 -10   77.27   33.77
   5   2 -11  407.72   30.48
   5   2 -11  234.27   16.86
   5   2 -11  362.29   30.01
   5   2 -11  300.65   30.74
  -5  -2  11  224.76   29.76
   5   2 -12 1175.85   64.16
   5   2 -12  960.23   48.61
  -5  -2  12 1045.04   50.17
   5   2 -12  927.79   49.33
   5   2 -13  183.32   29.43
   5   2 -13  130.17   26.09
  -5  -2  13  284.24   27.41
   5   2 -13  207.94   34.83
  -5  -2  14 2696.46  114.18
   5   2 -14 2713.99  107.70
   5   2 -14 2796.92  107.11
   5   2 -14 2772.21  107.52
   5   2 -15  883.16   61.72
   5   2 -15  826.22   58.98
  -5  -2  15  967.54   54.90
   5   2 -15  939.86   49.94
   5   2 -16  191.28   28.45
  -5  -2  16  133.37   26.43
   5   2 -16  200.56   32.28
   5   2 -16   33.25   28.43
  -5  -2  17  637.79   41.21
   5   2 -17  620.67   48.62
   5   2 -18   16.97   29.45
  -5  -2  18   38.59   28.51
   5   2 -18   30.73   25.70
   5   2 -18  -11.13   22.98
   5   2 -19  369.70   39.70
   5   2 -19  257.44   34.73
  -5  -1   1 5201.12  179.21
  -5  -1   1 5314.60  171.25
   5   1  -1 5031.23  161.70
   5   1  -1 5392.61  165.19
   5   1  -1 5252.06  176.20
   5   1  -1 4882.00  173.26
   5   1  -2  547.83   21.74
   5   1  -2  553.75   29.66
  -5  -1   2  483.70   23.04
   5   1  -2  612.23   29.21
  -5  -1   2  425.04   27.69
  -5  -1   3 6424.45  211.04
   5   1  -3 6759.07  228.22
  -5  -1   3 7141.41  212.98
  -5  -1   3 6569.34  215.99
   5   1  -3 6818.61  239.54
   5   1  -3 6927.36  216.59
   5   1  -3 5749.44  206.09
   5   1  -4 4573.17  151.55
  -5  -1   4 4812.72  154.03
   5   1  -4 4424.04  154.79
  -5  -1   4 4655.28  155.51
   5   1  -4 4564.69  150.63
   5   1  -4 3952.84  145.04
   5   1  -5 1597.73   61.27
  -5  -1   5 1579.77   63.28
   5   1  -5 1620.63   58.81
  -5  -1   5 1703.99   60.40
   5   1  -5 1341.43   53.68
   5   1  -612716.80  400.50
   5   1  -612418.55  420.55
   5   1  -612070.04  396.53
  -5  -1   613968.46  401.68
   5   1  -613119.89  408.87
  -5  -1   612773.64  418.25
   5   1  -7  688.71   33.22
   5   1  -7  617.47   21.17
   5   1  -7  591.24   35.46
   5   1  -7  514.49   28.52
  -5  -1   7  693.39   36.82
   5   1  -8 3668.31  132.09
  -5  -1   8 2949.98  105.94
   5   1  -8 3124.41  118.90
  -5  -1   8 3177.65  110.75
   5   1  -8 3380.55  105.07
   5   1  -8 3499.72  117.22
  -5  -1   8 2928.58  103.02
   5   1  -9 1075.43   49.57
   5   1  -9 1056.98   50.50
  -5  -1   9 1037.45   47.07
   5   1  -9  924.06   36.60
  -5  -1  10 2815.26  111.56
   5   1 -10 3559.85  122.58
   5   1 -10 3382.28  112.99
   5   1 -10 3186.96  130.79
   5   1 -10 3197.95  110.40
  -5  -1  11 2403.61   87.29
   5   1 -11 2344.98   83.32
   5   1 -11 2021.40   89.98
   5   1 -11 2221.33   83.46
   5   1 -11 2528.41   90.06
   5   1 -12 3345.17  119.86
  -5  -1  12 3106.69  118.69
   5   1 -12 3445.46  113.20
   5   1 -12 3127.75  127.13
   5   1 -12 3400.92  129.30
   5   1 -13 3426.06  139.40
   5   1 -13 3755.13  138.56
  -5  -1  13 3674.27  137.84
   5   1 -13 3937.95  137.05
   5   1 -13 3995.59  145.86
  -5  -1  14 1929.32   73.70
   5   1 -14 1430.65   70.70
   5   1 -14 1543.76   71.84
   5   1 -14 1521.42   76.38
   5   1 -14 1850.30   83.23
   5   1 -15 1201.13   55.50
   5   1 -15  864.28   51.55
  -5  -1  15 1078.44   57.35
   5   1 -15  937.60   47.67
   5   1 -15 1109.90   61.48
   5   1 -16  781.42   43.14
   5   1 -16  766.95   44.47
  -5  -1  16  854.42   50.77
   5   1 -16  593.05   39.69
   5   1 -16  636.19   39.61
   5   1 -17   -3.00   20.63
   5   1 -17  117.09   27.31
   5   1 -17   21.20   25.49
   5   1 -17   76.98   31.62
  -5  -1  17  -75.24   28.72
   5   1 -18   35.77   29.76
   5   1 -18  -22.91   24.04
   5   1 -19  491.72   49.38
   5   1 -19  367.74   37.88
   5   0  -1 6065.40  212.38
  -5   0   1 6223.59  203.20
   5   0  -1 6022.88  187.51
   5   0  -1 5875.66  191.26
   5   0  -1 6437.83  186.89
   5   0  -1 6336.46  197.09
   5   0  -1 5511.29  188.03
   5   0  -1 6046.81  207.17
  -5   0   1 6111.67  198.84
  -5   0   2  378.11   19.63
   5   0  -2  367.48   18.73
   5   0  -2  350.53   22.64
  -5   0   2  362.37   23.17
   5   0  -2  309.95   15.76
   5   0  -3 3337.01  108.69
   5   0  -3 3422.05  126.61
  -5   0   3 3374.86  124.80
  -5   0   3 3149.21  109.26
   5   0  -3 3544.95  115.29
   5   0  -3 3757.11  129.98
  -5   0   3 3682.20  111.57
  -5   0   4  143.70   18.14
   5   0  -4  233.20   19.98
   5   0  -4  217.16   10.51
   5   0  -5    9.18   15.50
   5   0  -5   88.41   15.42
  -5   0   5   63.39   14.88
   5   0  -5  140.60   27.76
   5   0  -6 7169.97  244.46
   5   0  -6 7300.87  250.41
  -5   0   6 6981.34  230.66
  -5   0   6 7327.84  249.92
   5   0  -6 8015.50  230.03
  -5   0   7  376.36   25.36
   5   0  -7  357.00   20.10
   5   0  -7  290.72   27.45
  -5   0   7  274.63   14.21
   5   0  -8 8446.05  255.92
   5   0  -8 8023.22  263.81
   5   0  -8 8408.97  266.74
  -5   0   8 7332.87  258.16
  -5   0   8 8298.04  277.13
   5   0  -8 8243.87  271.53
   5   0  -9 2699.79   98.12
   5   0  -9 2226.46   81.77
   5   0  -9 2447.85   94.72
   5   0  -9 2513.33   98.76
  -5   0   9 2413.25   99.17
   5   0 -10 1852.92   67.94
   5   0 -10 2196.67   86.91
   5   0 -10 2030.65   80.57
  -5   0  10 2123.27   83.73
   5   0 -10 2010.74   83.14
   5   0 -11 3108.79  108.12
  -5   0  11 2974.16  108.42
   5   0 -11 2838.37  109.00
   5   0 -11 3037.95  109.55
   5   0 -11 3095.10  111.28
  -5   0  12   20.95   16.42
   5   0 -12  -56.21   28.47
   5   0 -12   68.23   15.81
   5   0 -12   78.88   23.65
   5   0 -13 5157.36  194.85
  -5   0  13 5637.53  185.44
   5   0 -13 4752.27  182.66
   5   0 -13 5127.87  173.05
   5   0 -13 4704.55  183.81
   5   0 -14 1199.10   65.23
  -5   0  14 1452.71   72.55
   5   0 -14 1217.75   58.94
   5   0 -14 1397.05   62.79
   5   0 -14 1346.23   59.26
   5   0 -15 1530.64   74.68
  -5   0  15 1856.48   80.48
   5   0 -15 1597.21   67.01
   5   0 -15 1550.93   68.30
   5   0 -15 1512.30   75.27
   5   0 -16  234.64   38.85
   5   0 -16  130.50   24.38
  -5   0  16  200.40   33.92
   5   0 -16  328.45   33.35
   5   0 -16  152.03   24.26
  -5   0  17 1888.24   84.37
   5   0 -17 1554.04   74.36
   5   0 -17 1874.60   86.61
   5   0 -17 1377.39   68.85
   5   0 -17 1640.40   73.19
   5   0 -18    9.44   33.40
  -5   0  18   -0.93   28.27
   5   0 -18   78.01   27.25
   5   0 -18  106.30   25.16
   5   0 -18   77.49   26.53
   5   0 -19 1758.75   78.87
   5   0 -19 1745.42   80.38
   5   0 -19 1735.40   85.71
  -5   0  19 1858.56   83.99
   5   0 -19 1945.91   93.20
   5  -1   011194.94  369.41
   5  -1   011541.57  355.31
   5  -1   010789.74  345.48
   5  -1   011463.39  359.25
   5  -1   011585.91  352.86
  -5   1   011565.93  361.96
  -5   1   011224.03  358.89
   5  -1   010842.22  352.53
   5  -1   010055.52  348.49
   5  -1  -1  184.57   16.63
  -5   1   1  202.90   14.72
   5  -1  -1  187.83   21.38
   5  -1  -1  237.65   16.10
  -5   1   1  237.83   20.39
   5  -1  -2 9666.66  306.40
   5  -1  -2 9609.01  317.66
   5  -1  -2 9666.26  299.96
   5  -1  -210031.17  301.89
   5  -1  -210139.73  319.76
   5  -1  -2 8927.95  302.98
  -5   1   2 9713.28  308.63
   5  -1  -2 9418.09  325.04
  -5   1   2 9825.39  318.23
   5  -1  -3  287.56   18.96
   5  -1  -3  257.32   18.91
  -5   1   3  196.43   21.66
   5  -1  -3  303.40   20.02
   5  -1  -3  263.84   11.62
   5  -1  -4 2021.12   75.57
   5  -1  -4 1686.37   66.14
   5  -1  -4 1842.48   62.05
   5  -1  -4 1687.11   61.79
   5  -1  -4 1872.87   67.47
  -5   1   4 1853.43   69.18
   5  -1  -4 1850.42   56.53
   5  -1  -4 1885.14   56.15
   5  -1  -5  717.00   27.37
   5  -1  -5  657.66   36.94
  -5   1   5  657.97   33.13
  -5   1   5  585.67   25.17
   5  -1  -5  770.90   38.88
  -5   1   5  635.82   27.49
  -5   1   6  173.81   16.16
   5  -1  -6  181.82   27.68
   5  -1  -6  252.27   16.50
  -5   1   6  166.63   18.09
  -5   1   6  214.93   12.45
   5  -1  -6  203.28   22.74
  -5   1   7 6703.01  214.43
   5  -1  -7 6606.99  216.81
  -5   1   7 6282.62  226.54
   5  -1  -7 6825.83  215.34
   5  -1  -7 6803.58  218.19
  -5   1   7 6065.99  201.20
  -5   1   8  299.91   18.87
   5  -1  -8  241.52   29.65
  -5   1   8  374.06   26.74
  -5   1   8  250.23   19.85
   5  -1  -8  326.24   18.06
   5  -1  -9 1699.62   64.91
   5  -1  -9 1753.59   70.68
   5  -1  -9 1639.24   66.72
  -5   1   9 1583.88   83.28
  -5   1   9 1629.65   66.20
  -5   1  10  205.24   22.41
   5  -1 -10  224.16   30.08
  -5   1  10  243.28   21.55
   5  -1 -10  303.77   21.23
   5  -1 -10  174.46   23.65
  -5   1  11   34.50   15.48
   5  -1 -11  -18.58   20.04
   5  -1 -11   27.85   29.65
   5  -1 -11   83.62   16.62
  -5   1  11   16.00   23.94
   5  -1 -12 1006.14   49.64
  -5   1  12  906.98   46.77
   5  -1 -12  892.57   50.73
  -5   1  12  910.47   46.77
   5  -1 -12  855.48   42.31
  -5   1  13 2310.57   93.37
   5  -1 -13 2358.96   89.67
   5  -1 -13 2396.15   97.30
   5  -1 -13 2335.33   92.48
  -5   1  13 1961.14   89.97
  -5   1  14 3894.17  148.64
   5  -1 -14 4063.39  147.85
  -5   1  14 4364.44  146.61
   5  -1 -14 4261.92  157.93
   5  -1 -14 4097.08  157.12
   5  -1 -15 1224.25   59.12
  -5   1  15 1213.91   59.42
  -5   1  15 1200.28   55.44
   5  -1 -15 1126.90   55.93
   5  -1 -15 1449.61   65.01
   5  -1 -16 4318.57  173.94
  -5   1  16 4000.81  164.35
   5  -1 -16 4630.95  155.20
   5  -1 -16 4411.35  167.35
  -5   1  16 4433.86  174.27
   5  -1 -17   47.55   18.35
  -5   1  17  124.13   25.00
   5  -1 -17  -32.00   35.64
   5  -1 -17    3.57   30.08
   5  -1 -18 1076.85   60.81
   5  -1 -18 1272.59   69.61
   5  -1 -18 1087.86   68.35
   5  -1 -18 1381.85   64.36
   5  -1 -19  403.04   46.58
   5  -1 -19  362.53   33.68
   5  -1 -19  364.34   34.43
  -5   1  19  386.19   36.42
   5  -1 -20  180.03   28.93
   5  -1 -20  363.83   36.33
   5  -2   0 7233.71  248.45
   5  -2   0 8260.65  272.74
   5  -2   0 7919.11  258.39
  -5   2   0 8243.07  264.41
   5  -2   0 8262.62  260.60
   5  -2   0 7657.49  251.79
   5  -2   0 8515.36  264.95
  -5   2   0 7529.62  261.89
   5  -2  -1  -14.57   20.39
  -5   2   1   23.47   12.00
  -5   2   1   32.12   13.57
   5  -2  -1   16.11    7.55
   5  -2  -1   40.08   10.51
  -5   2   215905.87  504.95
   5  -2  -216341.98  499.05
   5  -2  -214934.61  492.52
  -5   2   216337.92  499.31
   5  -2  -215556.83  495.80
   5  -2  -215447.33  485.39
   5  -2  -215694.92  494.38
   5  -2  -215099.90  500.72
   5  -2  -3 1360.78   44.66
  -5   2   3 1331.74   52.50
   5  -2  -3 1274.08   51.13
   5  -2  -3 1371.09   46.35
  -5   2   3 1309.06   50.47
   5  -2  -3 1305.93   50.69
   5  -2  -3 1373.57   53.60
   5  -2  -3 1354.48   48.12
  -5   2   4 6903.54  240.60
   5  -2  -4 7415.76  216.95
  -5   2   4 6730.98  246.51
   5  -2  -4 7212.25  217.69
   5  -2  -4 7156.11  234.23
  -5   2   4 6725.61  228.14
   5  -2  -4 7281.70  238.94
   5  -2  -4 7112.72  242.31
  -5   2   5 8930.00  290.63
  -5   2   5 8355.44  276.91
   5  -2  -5 8611.71  277.24
  -5   2   5 7755.29  277.30
   5  -2  -5 8845.05  279.53
   5  -2  -5 8992.64  284.26
   5  -2  -6  -36.18   16.29
   5  -2  -6    8.77   11.23
   5  -2  -710338.73  351.13
  -5   2   711070.01  353.92
  -5   2   710713.17  343.45
   5  -2  -710429.04  339.07
   5  -2  -710994.36  344.60
  -5   2   8 2460.30   88.78
   5  -2  -8 2357.01   97.23
   5  -2  -8 2450.92   83.64
   5  -2  -8 2401.99   98.46
  -5   2   8 2487.43   92.29
   5  -2  -9 2937.89  108.37
  -5   2   9 3140.44  111.93
   5  -2  -9 2957.89  110.33
   5  -2  -9 3218.01  103.93
  -5   2   9 2954.12  114.66
   5  -2 -10  497.76   25.90
  -5   2  10  510.27   34.95
   5  -2 -10  530.00   37.64
   5  -2 -10  587.20   33.94
  -5   2  10  674.86   34.31
  -5   2  11 1007.20   50.98
  -5   2  11 1068.69   34.75
   5  -2 -11 1031.66   58.62
   5  -2 -11 1007.92   49.21
   5  -2 -11 1095.43   50.99
  -5   2  11  965.73   50.22
  -5   2  12  356.48   21.76
   5  -2 -12  379.25   27.01
   5  -2 -12  257.81   30.64
   5  -2 -12  291.31   30.46
   5  -2 -13 1189.46   47.03
  -5   2  13  949.50   55.84
   5  -2 -13 1205.97   51.95
   5  -2 -13  974.22   54.47
  -5   2  13 1235.90   52.35
  -5   2  14 1742.52   72.53
   5  -2 -14 1636.54   74.19
   5  -2 -14 1747.80   76.38
   5  -2 -14 1758.45   68.26
  -5   2  14 1492.88   74.44
   5  -2 -15  775.22   46.76
   5  -2 -15 1072.48   57.01
  -5   2  15  994.99   62.86
  -5   2  16  256.24   29.83
   5  -2 -16  369.15   35.61
   5  -2 -16  231.90   34.48
  -5   2  16  286.77   36.49
   5  -2 -17   40.74   27.69
  -5   2  17   56.80   24.48
   5  -2 -17  172.51   24.97
   5  -2 -17   87.65   31.21
  -5   2  17  136.63   34.38
   5  -2 -18   94.94   32.57
  -5   2  18    0.33   24.13
  -5   2  18   13.57   33.35
   5  -2 -18  -26.74   30.05
   5  -2 -18  -50.56   27.73
  -5   2  19  314.70   36.89
   5  -2 -19  470.90   39.26
  -5   2  19  494.01   39.02
   5  -2 -19  387.55   36.99
   5  -2 -19  418.52   33.43
  -5   2  20   93.31   22.04
   5  -2 -20   46.93   26.77
   5  -2 -20   10.71   23.61
   5  -3   0 4258.20  141.84
   5  -3   0 4321.92  161.07
  -5   3   0 4840.10  154.42
   5  -3   0 4818.68  161.10
   5  -3   0 4476.47  164.01
  -5   3   0 4409.34  154.81
  -5   3   0 4657.31  154.71
   5  -3  -1  179.83   12.66
   5  -3  -1  244.58   22.48
   5  -3  -1  198.89   16.34
   5  -3  -1  173.53   10.29
   5  -3  -1  211.96   17.56
   5  -3  -2 9659.79  318.76
   5  -3  -210457.28  336.96
   5  -3  -210708.91  326.26
  -5   3   210386.44  327.80
   5  -3  -2 9752.41  328.52
   5  -3  -210709.49  327.42
  -5   3   210083.74  323.14
  -5   3   210527.89  334.18
   5  -3  -3  177.34   12.66
   5  -3  -3  259.57   20.25
   5  -3  -3  190.83   13.81
  -5   3   3  194.02   15.09
   5  -3  -3  213.13   11.55
   5  -3  -4 5334.71  188.50
  -5   3   4 6180.72  209.64
   5  -3  -4 6378.65  192.26
   5  -3  -4 6440.95  231.09
  -5   3   4 6200.37  198.81
   5  -3  -4 6068.51  202.84
   5  -3  -4 6027.36  186.95
   5  -3  -4 5940.55  202.49
   5  -3  -5 1177.62   41.29
   5  -3  -5  975.93   45.90
   5  -3  -5 1177.80   51.35
   5  -3  -5 1108.89   47.95
  -5   3   5 1098.70   45.46
  -5   3   5 1063.87   48.54
   5  -3  -5 1096.82   37.62
  -5   3   6 3563.30  130.70
   5  -3  -6 3629.73  134.75
  -5   3   6 3430.86  127.50
   5  -3  -6 3453.09  116.13
   5  -3  -6 3443.36  111.00
   5  -3  -6 3642.97  120.91
   5  -3  -6 3393.15  111.64
  -5   3   7 6494.76  243.45
   5  -3  -7 6763.76  223.15
  -5   3   7 7575.45  236.88
   5  -3  -7 6815.24  226.13
   5  -3  -7 6435.96  228.95
  -5   3   7 6491.68  211.56
   5  -3  -7 6930.96  212.20
   5  -3  -8 6106.54  196.55
  -5   3   8 5698.92  186.18
  -5   3   8 5398.53  195.06
  -5   3   8 6018.76  205.94
   5  -3  -8 5834.92  204.00
   5  -3  -8 6060.56  197.73
   5  -3  -8 6086.08  185.49
  -5   3   9 5321.23  180.61
  -5   3   9 4737.74  161.72
   5  -3  -9 5177.80  182.48
   5  -3  -9 5229.18  162.64
  -5   3   9 5059.16  176.81
   5  -3  -9 5604.87  172.21
   5  -3  -9 4849.10  166.41
   5  -3 -10 9797.63  326.28
  -5   3  1010930.02  332.22
  -5   3  1010187.99  342.50
   5  -3 -10 9741.07  330.43
   5  -3 -1010176.73  316.10
   5  -3 -1010050.47  333.16
   5  -3 -11   49.66   23.14
  -5   3  11    5.37   19.48
   5  -3 -11   43.22   19.81
  -5   3  12 4048.02  142.45
   5  -3 -12 3840.21  128.10
   5  -3 -12 3909.32  141.56
   5  -3 -12 3771.54  133.81
  -5   3  12 4024.16  142.16
   5  -3 -12 4120.37  148.30
   5  -3 -13 1869.30   72.82
   5  -3 -13 1490.45   77.60
   5  -3 -13 1559.75   70.06
  -5   3  13 1822.86   71.31
  -5   3  13 1636.59   74.60
   5  -3 -14  640.46   37.94
   5  -3 -14  505.74   36.54
  -5   3  14  498.97   37.67
   5  -3 -15 1356.03   62.48
  -5   3  15 1409.88   70.28
   5  -3 -15 1285.56   62.41
  -5   3  15 1381.89   59.47
   5  -3 -15 1175.30   57.38
   5  -3 -16   88.81   32.68
   5  -3 -16  137.98   28.08
  -5   3  16   91.57   34.10
  -5   3  16   74.77   21.94
   5  -3 -16   79.88   30.41
   5  -3 -17   82.92   31.18
   5  -3 -17  155.11   27.93
  -5   3  18  479.54   36.59
  -5   3  18  388.25   36.87
   5  -3 -18  406.43   33.77
   5  -3 -18  416.09   35.15
   5  -3 -19   50.19   29.73
  -5   3  19   -0.07   33.72
   5  -3 -19   -7.82   28.82
  -5   3  19  -73.88   23.24
   5  -3 -19   90.66   38.37
   5  -4   0  975.22   42.66
   5  -4   0  855.43   34.35
   5  -4   0  782.53   34.94
  -5   4   0  756.59   36.35
  -5   4   0  996.42   36.94
  -5   4   0  738.37   37.35
   5  -4  -113510.56  439.11
   5  -4  -113903.31  463.78
  -5   4   113878.75  431.66
  -5   4   114343.34  441.59
   5  -4  -113388.40  430.76
  -5   4   114090.92  435.28
   5  -4  -114234.03  462.42
   5  -4  -2 5041.11  159.39
  -5   4   2 4761.44  167.35
  -5   4   2 5273.52  166.18
  -5   4   2 5255.32  169.73
   5  -4  -2 5074.09  173.17
   5  -4  -2 5087.68  178.89
   5  -4  -2 4723.26  174.68
  -5   4   3 2172.05   78.29
  -5   4   3 2272.26   75.85
   5  -4  -3 2138.44   80.19
  -5   4   3 2080.57   92.67
   5  -4  -3 2269.89   84.16
   5  -4  -3 2325.29   75.32
   5  -4  -3 2015.80   73.60
   5  -4  -3 2013.43   72.32
  -5   4   4 2832.65   93.32
   5  -4  -4 2800.07   93.68
   5  -4  -4 2527.89   94.96
   5  -4  -4 2848.17  101.47
  -5   4   4 2839.20   95.86
  -5   4   4 2584.51   94.39
  -5   4   4 2505.81   88.13
   5  -4  -4 2467.33   87.44
  -5   4   5  608.70   35.49
   5  -4  -5  701.54   35.52
   5  -4  -5  623.25   28.16
  -5   4   5  568.65   29.37
   5  -4  -5  585.73   31.98
   5  -4  -5  542.64   23.57
  -5   4   5  625.73   25.89
  -5   4   6  158.89   12.21
  -5   4   6   97.40   11.21
   5  -4  -6  138.99   20.75
   5  -4  -6   99.43   11.91
  -5   4   6  150.39   19.75
   5  -4  -6  136.78   20.41
  -5   4   7 1074.41   42.08
  -5   4   7 1180.19   49.94
   5  -4  -7 1354.00   45.17
   5  -4  -7 1239.53   55.48
   5  -4  -7 1181.34   60.69
   5  -4  -7 1213.32   55.41
  -5   4   7 1321.76   45.60
  -5   4   8 4195.28  148.36
   5  -4  -8 3774.17  146.35
   5  -4  -8 3906.45  133.68
   5  -4  -8 3958.92  139.67
   5  -4  -8 4456.92  141.09
  -5   4   8 4130.73  146.92
   5  -4  -9  618.11   36.38
  -5   4   9  617.90   37.21
   5  -4  -9  576.59   31.52
  -5   4   9  556.83   34.01
   5  -4  -9  638.86   43.51
   5  -4  -9  512.99   23.16
   5  -4 -10 1785.70   67.45
  -5   4  10 1896.77   74.77
   5  -4 -10 1635.61   76.86
  -5   4  10 1770.79   73.99
   5  -4 -10 1854.21   67.12
   5  -4 -10 1805.64   73.86
  -5   4  11 1267.80   51.60
   5  -4 -11 1322.91   60.36
  -5   4  11 1162.56   55.94
   5  -4 -11 1182.80   43.95
   5  -4 -11 1145.87   55.63
  -5   4  12   11.80   17.97
   5  -4 -12   95.05   24.06
   5  -4 -12  -64.47   25.23
   5  -4 -13 3888.19  142.37
  -5   4  13 3767.20  138.41
   5  -4 -13 3725.08  145.31
   5  -4 -13 3990.89  148.56
  -5   4  13 3880.11  140.69
   5  -4 -14   11.37   34.25
  -5   4  14   15.86   25.68
   5  -4 -14   87.26   22.75
   5  -4 -14  118.10   26.23
   5  -4 -15 4857.90  166.57
   5  -4 -15 4176.22  156.12
  -5   4  15 4452.80  169.20
  -5   4  15 4376.13  163.34
   5  -4 -15 4705.63  167.84
   5  -4 -16  181.55   36.83
  -5   4  16   54.79   20.49
  -5   4  16  200.73   29.97
   5  -4 -17 2309.31  101.12
   5  -4 -17 2438.88  102.76
   5  -4 -17 2678.66  109.55
  -5   4  17 2565.56  120.17
  -5   4  17 2557.27  100.13
   5  -4 -18  463.89   48.28
   5  -4 -18  259.92   37.04
   5  -4 -18  263.53   31.19
  -5   4  18  315.96   34.98
   5  -4 -19  349.66   32.84
   5  -4 -19  465.67   43.58
   5  -4 -19  271.98   43.58
  -5   4  19  374.34   31.64
  -5   4  19  472.40   44.29
  -5   5   0 1209.58   56.86
  -5   5   0 1397.74   58.12
   5  -5   0 1236.12   55.49
   5  -5   0 1368.62   58.68
   5  -5   0 1213.67   42.30
  -5   5   0 1320.98   50.65
   5  -5  -1 8660.17  271.03
  -5   5   1 8390.71  296.54
   5  -5  -1 9156.65  274.84
   5  -5  -1 8844.66  293.88
  -5   5   1 9094.03  285.63
   5  -5  -1 8485.70  291.33
   5  -5  -1 9339.16  302.05
   5  -5  -2 3363.06  118.09
   5  -5  -2 3437.65  107.42
   5  -5  -2 3207.60  122.22
  -5   5   2 3316.47  129.46
   5  -5  -2 3577.99  128.40
   5  -5  -2 3499.89  107.48
  -5   5   2 3684.30  129.21
   5  -5  -3 9060.77  288.85
   5  -5  -3 8884.51  281.14
  -5   5   3 8776.66  269.82
  -5   5   3 8313.37  278.81
   5  -5  -3 9045.71  292.20
   5  -5  -3 8353.53  273.28
  -5   5   3 8409.28  291.35
  -5   5   4 6804.08  243.36
   5  -5  -4 7024.53  229.55
   5  -5  -4 6820.67  247.23
   5  -5  -4 8016.01  254.58
  -5   5   4 7921.30  250.49
   5  -5  -4 7517.18  256.11
   5  -5  -5  101.88   11.41
  -5   5   5   73.73   19.68
   5  -5  -5  142.01   15.41
  -5   5   6 2133.06   83.16
   5  -5  -6 2274.36   92.21
  -5   5   6 2284.64   79.80
   5  -5  -6 2461.08   96.46
   5  -5  -6 2162.49   82.94
  -5   5   6 2243.83   91.53
  -5   5   7 2027.83   81.74
   5  -5  -7 2018.51   69.24
  -5   5   7 1856.35   75.70
   5  -5  -7 1922.36   80.49
   5  -5  -7 2144.48   84.10
  -5   5   7 1983.29   83.09
   5  -5  -8  691.53   37.67
  -5   5   8  574.57   32.67
   5  -5  -8  585.28   28.44
   5  -5  -8  567.64   32.83
  -5   5   8  708.74   43.84
   5  -5  -9 2364.35   96.11
   5  -5  -9 2563.05   99.68
  -5   5   9 2615.75  103.60
  -5   5   9 2715.38  100.80
   5  -5  -9 2537.83   88.42
   5  -5  -9 2772.64   97.20
   5  -5 -10  204.20   30.12
   5  -5 -10   92.26   28.43
  -5   5  10  125.68   22.23
   5  -5 -10  150.67   20.96
  -5   5  10   48.45   26.65
   5  -5 -11   59.77   25.67
  -5   5  11  145.30   29.21
   5  -5 -11  151.70   31.71
   5  -5 -11  205.60   17.54
   5  -5 -11  151.13   29.62
  -5   5  11  236.57   23.72
  -5   5  12   55.56   20.09
   5  -5 -12   61.92   29.60
   5  -5 -12   -4.18   16.07
  -5   5  12  147.65   22.99
   5  -5 -13  276.55   31.55
   5  -5 -13  220.65   31.15
  -5   5  13  220.33   28.48
  -5   5  13  187.46   26.69
  -5   5  14  172.84   25.59
   5  -5 -14  134.19   38.93
  -5   5  14  186.40   31.62
   5  -5 -14  210.65   29.44
   5  -5 -15  806.35   51.29
  -5   5  15 1045.69   55.15
   5  -5 -15  880.72   53.17
   5  -5 -15  907.83   49.25
  -5   5  15  949.25   50.37
   5  -5 -16  122.78   36.14
  -5   5  16  212.62   29.98
   5  -5 -16  241.48   28.78
   5  -5 -16  296.48   32.06
   5  -5 -17  185.87   28.04
  -5   5  17  152.64   30.25
   5  -5 -17  149.12   25.34
   5  -5 -17  211.65   40.05
  -5   5  17  179.82   32.34
   5  -5 -18   33.05   31.66
   5  -5 -18    5.70   26.66
   5  -5 -18   80.59   28.08
  -5   5  18  100.60   26.32
   5  -6   0  283.87   22.90
  -5   6   0  329.48   25.10
  -5   6   0  390.80   22.17
  -5   6   0  293.58   23.74
   5  -6   0  290.13   25.10
  -5   6   1 9106.77  306.91
   5  -6  -1 9889.47  320.25
  -5   6   1 9695.74  328.30
   5  -6  -1 9661.09  331.05
   5  -6  -1 9588.27  317.42
   5  -6  -2 1948.21   78.85
  -5   6   2 2107.10   83.08
  -5   6   2 2087.87   83.15
   5  -6  -2 1986.35   81.10
  -5   6   3 6629.69  245.24
   5  -6  -3 7350.01  249.73
  -5   6   3 6643.89  237.80
   5  -6  -3 7023.35  226.49
   5  -6  -3 6796.79  222.24
   5  -6  -4  598.98   26.82
   5  -6  -4  407.58   35.48
  -5   6   4  531.77   34.13
   5  -6  -4  494.02   38.35
   5  -6  -5 5520.15  187.73
   5  -6  -5 5508.09  228.96
   5  -6  -5 5740.84  193.60
  -5   6   5 5682.12  199.54
  -5   6   5 5924.67  201.14
  -5   6   5 5654.89  174.72
   5  -6  -6  166.05   18.73
   5  -6  -6  117.08   20.19
  -5   6   6  105.48   19.95
   5  -6  -6  239.73   25.98
   5  -6  -7 4295.56  151.57
  -5   6   7 4233.85  142.52
   5  -6  -7 4044.53  142.04
  -5   6   7 4166.82  138.14
  -5   6   7 4068.31  158.29
   5  -6  -7 3936.73  147.25
   5  -6  -8  371.10   33.44
  -5   6   8  255.47   23.73
   5  -6  -8  243.91   25.63
  -5   6   8  263.26   30.50
  -5   6   8  316.47   18.50
   5  -6  -8  294.58   22.23
   5  -6  -9 3580.98  128.59
  -5   6   9 3670.36  133.54
  -5   6   9 3792.65  134.92
   5  -6  -9 3704.97  134.61
  -5   6   9 3425.00  138.53
   5  -6  -9 3991.52  132.24
   5  -6 -10  988.35   42.64
  -5   6  10  928.38   52.50
   5  -6 -10  892.79   56.97
   5  -6 -10 1068.53   52.89
  -5   6  10 1155.05   48.87
   5  -6 -11 3725.16  138.97
   5  -6 -11 3666.03  147.93
  -5   6  11 3973.38  150.42
   5  -6 -11 4367.57  153.54
   5  -6 -11 4057.32  151.61
  -5   6  11 4200.48  141.86
   5  -6 -12  175.12   20.18
   5  -6 -12  372.01   32.61
  -5   6  12  335.18   31.06
  -5   6  12  233.32   21.71
   5  -6 -12  183.83   29.48
   5  -6 -13  855.48   44.88
  -5   6  13  593.84   36.46
   5  -6 -13  593.23   46.63
   5  -6 -13  901.44   52.14
  -5   6  13  777.32   39.17
  -5   6  14  776.37   43.28
  -5   6  14  720.75   45.08
   5  -6 -14  675.05   51.81
   5  -6 -14  815.47   48.08
   5  -6 -14  732.49   48.73
   5  -6 -15  135.85   33.17
  -5   6  15  175.86   32.33
   5  -6 -15  188.32   33.17
   5  -6 -16  237.69   31.30
   5  -6 -16  255.64   38.09
   5  -6 -16  245.26   42.53
  -5   6  16  326.82   31.46
   5  -6 -17   38.15   29.19
   5  -6 -17   43.88   24.52
   5  -6 -17   18.64   27.53
  -5   6  17   41.86   27.47
  -5   7   0  823.13   46.76
   5  -7   0  994.24   54.37
   5  -7   0 1099.76   47.08
  -5   7   0  892.31   41.23
  -5   7   1 1167.59   52.87
   5  -7  -1 1324.60   65.40
   5  -7  -1 1118.00   51.78
   5  -7  -1 1172.39   54.10
   5  -7  -2  173.11   28.83
   5  -7  -2  125.89   20.78
  -5   7   2   89.99   26.33
  -5   7   2  151.88   27.94
  -5   7   3 3471.24  130.22
   5  -7  -3 4019.54  143.37
   5  -7  -3 3604.18  126.65
   5  -7  -3 3534.89  146.64
  -5   7   3 3759.79  129.36
   5  -7  -4 1214.72   58.45
  -5   7   4 1189.27   50.54
   5  -7  -4 1514.99   61.06
   5  -7  -4 1207.90   54.29
  -5   7   5  352.32   40.46
   5  -7  -5  594.83   33.66
   5  -7  -5  455.63   36.52
   5  -7  -5  484.22   34.84
  -5   7   5  483.45   29.63
   5  -7  -6 1759.53   75.65
   5  -7  -6 1969.66   80.56
   5  -7  -6 1810.13   80.35
  -5   7   6 1886.02   82.08
  -5   7   6 1939.15   76.91
   5  -7  -7  598.48   41.41
   5  -7  -7  696.15   39.39
   5  -7  -7  690.07   36.91
  -5   7   7  738.60   37.20
  -5   7   8 1219.31   61.70
   5  -7  -8 1378.41   60.23
  -5   7   8 1199.12   58.39
   5  -7  -8 1277.94   52.45
   5  -7  -8 1157.28   58.00
   5  -7  -9 3850.11  151.80
   5  -7  -9 4500.24  167.22
   5  -7  -9 4671.26  173.02
  -5   7   9 4260.54  158.52
   5  -7 -10   -8.87   17.54
  -5   7  10  -18.80   22.26
   5  -7 -10   50.37   35.48
  -5   7  10   47.24   22.32
  -5   7  11  865.50   51.89
   5  -7 -11 1007.77   45.26
  -5   7  11  995.29   55.86
   5  -7 -11 1089.19   66.70
   5  -7 -11 1114.56   56.79
   5  -7 -12  250.21   34.80
  -5   7  12  250.79   29.72
   5  -7 -12  228.39   30.90
   5  -7 -12  320.65   24.74
   5  -7 -12  274.48   34.89
   5  -7 -13  137.36   37.57
   5  -7 -13  121.66   32.75
  -5   7  13   74.73   30.48
   5  -7 -14 2419.60   95.65
  -5   7  14 2292.83   93.77
   5  -7 -14 2018.92   90.44
   5  -7 -14 2395.58  106.17
   5  -7 -15   70.84   37.34
  -5   7  15   96.58   25.53
   5  -7 -15   54.69   29.40
   5  -7 -16 1633.42   65.46
   5  -7 -16 1649.91   78.99
  -5   7  16 1580.96   68.33
   5  -8   0  -43.21   22.07
   5  -8   0   64.00   25.93
  -5   8   0  -30.27   23.82
  -5   8   0   62.17   29.70
   5  -8  -1  603.71   43.56
   5  -8  -1  504.94   41.01
  -5   8   1  704.80   38.96
  -5   8   1  714.32   37.65
   5  -8  -1  597.02   37.87
  -5   8   2 1241.28   54.99
   5  -8  -2 1190.29   60.32
  -5   8   2 1188.66   60.50
   5  -8  -2  959.07   54.59
   5  -8  -2 1188.52   55.97
   5  -8  -3 1256.55   62.60
  -5   8   3 1196.31   58.23
   5  -8  -3 1337.31   57.04
   5  -8  -3 1477.91   62.22
   5  -8  -4 1453.64   61.13
   5  -8  -4 1855.27   78.67
   5  -8  -4 1693.76   70.41
  -5   8   4 1315.02   66.36
  -5   8   4 1451.13   67.76
   5  -8  -5  948.42   46.32
   5  -8  -5 1095.50   54.34
   5  -8  -5 1078.57   52.79
  -5   8   5  997.40   54.19
  -5   8   5  931.77   51.25
   5  -8  -6   56.86   26.31
  -5   8   6   71.52   26.95
   5  -8  -6  129.52   37.27
   5  -8  -6  -14.84   22.20
  -5   8   6   15.12   25.64
   5  -8  -7  -43.26   25.25
  -5   8   7   33.53   32.07
  -5   8   7  107.05   24.52
   5  -8  -7   49.28   27.62
   5  -8  -8 1038.58   46.61
  -5   8   8  770.74   48.47
  -5   8   8  900.89   48.76
   5  -8  -8  938.88   57.48
   5  -8  -8  752.26   54.19
   5  -8  -9  235.82   30.90
  -5   8   9  275.01   29.77
  -5   8   9  409.78   31.98
   5  -8  -9  319.21   25.35
   5  -8 -10   91.03   30.48
   5  -8 -10  156.28   29.24
  -5   8  10  310.47   32.78
  -5   8  10  277.98   31.47
   5  -8 -10  213.00   21.83
  -5   8  11  909.71   51.62
   5  -8 -11 1063.63   53.34
   5  -8 -11 1020.33   56.51
  -5   8  11  732.09   52.01
  -5   8  12  174.25   34.06
   5  -8 -12  207.29   26.60
  -5   8  12  117.43   32.79
   5  -8 -12  191.43   37.85
   5  -8 -12  196.67   31.12
  -5   8  13   89.91   28.14
   5  -8 -13   92.68   31.51
   5  -8 -13   24.10   34.15
   5  -8 -14  239.56   34.84
   5  -8 -14  198.97   35.95
  -5   8  14   62.07   28.78
  -5   9   0 3049.14  124.02
   5  -9   0 3055.47  113.23
   5  -9   0 3279.17  133.26
  -5   9   0 3050.32  123.74
   5  -9  -1  205.20   29.47
   5  -9  -1  327.10   33.71
  -5   9   1  218.32   26.58
  -5   9   2 2723.72  124.57
   5  -9  -2 3268.70  120.96
   5  -9  -2 2658.64  118.85
   5  -9  -2 3261.15  120.08
  -5   9   2 3164.75  125.41
  -5   9   3 2684.83  111.91
   5  -9  -3 2372.44   99.18
   5  -9  -3 2711.44  109.43
   5  -9  -3 2881.81  111.96
  -5   9   3 2678.18  106.53
   5  -9  -4 1046.94   58.08
  -5   9   4  830.40   51.56
   5  -9  -4  930.84   52.76
  -5   9   4  895.89   44.35
   5  -9  -5 1006.37   54.83
  -5   9   5  706.78   47.97
  -5   9   5  861.19   45.87
   5  -9  -6  397.32   29.67
  -5   9   6  378.11   42.66
   5  -9  -6  326.44   40.76
   5  -9  -6  542.31   46.55
  -5   9   6  327.89   26.81
   5  -9  -7  150.20   30.93
  -5   9   7   72.34   21.16
  -5   9   7   -9.63   32.82
   5  -9  -8 1254.82   59.84
  -5   9   8  988.18   55.14
   5  -9  -8 1101.24   60.18
  -5   9   8 1354.72   66.53
  -5   9   9   54.52   35.22
   5  -9  -9  145.84   27.10
   5  -9  -9   12.95   29.33
   5  -9  -9   92.69   29.24
  -5   9   9  127.85   31.08
   5  -9 -10 2554.89   96.35
  -5   9  10 2905.30  108.88
   5  -9 -10 2287.26  105.91
  -5   9  10 2371.65  107.53
   5  -9 -10 2194.48   97.76
  -5   9  11   73.24   34.70
   5  -9 -11  -45.84   23.18
  -5   9  11  -71.19   32.89
   5  -9 -11  -47.79   30.10
  -5   9  12  556.01   40.84
   5 -10   0   10.56   28.10
   5 -10   0   83.29   29.55
  -5  10   0   28.14   22.39
   5 -10   0   96.50   27.44
   5 -10  -1   89.10   31.91
  -5  10   1   -6.96   18.21
   5 -10  -1    5.36   31.51
   5 -10  -1  -30.64   26.65
  -5  10   1  -37.92   30.92
   5 -10  -2  407.05   41.44
   5 -10  -2  370.95   40.65
   5 -10  -2  272.79   35.33
   5 -10  -3  867.70   52.02
  -5  10   3  811.79   53.63
   5 -10  -3  907.16   58.40
  -5  10   3  692.20   54.61
   5 -10  -4  560.12   40.04
  -5  10   4  657.58   38.74
   5 -10  -4  666.74   43.87
   5 -10  -4  750.63   46.15
  -5  10   4  513.15   43.99
   5 -10  -5 1648.28   71.58
  -5  10   5 1785.14   81.75
  -5  10   5 1638.88   77.72
   5 -10  -5 1460.58   73.05
   5 -10  -6   66.54   20.82
  -5  10   6   29.37   25.98
   5 -10  -6  -20.48   27.02
   5 -10  -6   -9.02   37.42
  -5  10   7  703.82   47.71
   5 -10  -7  454.62   37.01
   5 -10  -7  443.51   34.34
  -5  10   7  591.87   44.00
   5 -10  -7  635.34   40.60
   5 -10  -8  548.29   47.22
   5 -10  -8  591.80   39.39
  -5  10   8  604.05   46.89
   5 -10  -8  472.60   33.03
   5 -10  -9  101.74   23.62
  -5  10   9  108.45   24.58
   5 -11   0  374.21   42.31
   5 -11   0  418.91   45.70
  -5  11   0  410.14   45.33
   5 -11  -1   59.53   34.30
  -5  11   1  201.17   33.22
   5 -11  -1  -56.84   31.67
   5 -11  -1   67.34   30.19
   5 -11  -2  352.04   53.40
  -5  11   2  331.64   33.04
   5 -11  -2  286.45   36.93
  -5  11   3  518.37   39.88
   5 -11  -3  355.47   40.45
   4   8  -1  581.78   46.50
   4   8  -1  437.90   37.37
  -4  -8   1  633.12   41.64
  -4  -8   1  630.27   42.09
   4   8  -2  852.73   48.88
  -4  -8   2  893.46   46.43
   4   8  -2  766.17   51.24
  -4  -8   2  778.07   48.53
   4   8  -3 1078.41   55.81
  -4  -8   3 1030.20   54.41
  -4  -8   3  807.47   49.60
   4   8  -4  127.90   27.26
  -4  -8   4  134.75   24.69
  -4  -8   5  906.40   51.74
   4   8  -5 1170.02   62.67
  -4  -8   5  947.86   49.78
   4   8  -5 1192.83   63.69
   4   8  -6   48.91   23.57
   4   8  -6  -17.89   27.93
  -4  -8   6   61.35   25.25
   4   8  -7 1543.18   84.41
  -4  -8   7 2117.08   85.31
   4   8  -7 1922.14   94.51
  -4  -7   1  806.91   44.63
  -4  -7   1  698.57   49.13
   4   7  -1  660.52   38.87
  -4  -7   2    6.24   23.50
   4   7  -2  -44.55   23.30
  -4  -7   2   -9.39   26.23
   4   7  -3  442.32   34.03
  -4  -7   3  262.66   33.03
  -4  -7   3  359.14   31.75
   4   7  -3  303.50   34.13
  -4  -7   4  116.56   25.93
   4   7  -4  258.17   32.77
   4   7  -4  115.78   27.91
  -4  -7   4  243.86   26.54
  -4  -7   5   -8.73   16.93
  -4  -7   5   70.30   23.08
  -4  -7   6  118.16   25.06
   4   7  -6   28.94   30.53
   4   7  -6   18.89   23.98
   4   7  -7 1321.96   68.58
  -4  -7   7 1205.82   61.54
  -4  -7   7 1298.17   64.29
   4   7  -7 1338.71   60.92
   4   7  -8  -29.94   31.92
   4   7  -8  -20.13   27.79
  -4  -7   8   53.52   19.57
  -4  -7   8  100.00   29.32
   4   7  -9 1160.37   61.37
   4   7  -9 1108.03   61.35
  -4  -7   9  926.37   56.75
  -4  -7   9 1156.23   59.07
   4   7 -10   54.02   30.84
  -4  -7  10  -16.79   26.41
  -4  -7  10    0.40   24.91
   4   7 -10   -5.62   28.30
   4   7 -11  369.95   34.89
   4   7 -11  326.73   44.00
   4   7 -11  411.56   39.52
  -4  -7  11  412.00   33.15
   4   7 -12  894.60   46.57
   4   7 -12  795.75   52.13
  -4  -7  12  951.90   55.32
  -4  -6   1 1413.23   68.15
   4   6  -1 1467.16   61.02
   4   6  -1 1392.75   56.10
  -4  -6   1 1454.08   67.12
  -4  -6   2 1647.32   70.20
  -4  -6   2 1586.83   65.72
   4   6  -2 1403.27   70.43
   4   6  -2 1705.22   70.21
  -4  -6   3 1665.16   74.74
   4   6  -3 1252.43   64.92
  -4  -6   3 1539.24   72.64
   4   6  -3 1464.05   72.18
   4   6  -4  706.57   40.58
  -4  -6   4  564.29   40.43
   4   6  -4  541.70   41.80
  -4  -6   4  649.49   41.77
   4   6  -5  637.81   42.92
  -4  -6   5  571.23   41.43
  -4  -6   5  665.55   39.27
  -4  -6   6  392.22   30.92
   4   6  -6  547.40   40.70
   4   6  -6  379.67   29.18
   4   6  -6  455.38   34.82
  -4  -6   6  437.08   28.46
  -4  -6   7  216.79   25.52
   4   6  -7  282.20   33.07
  -4  -6   8  631.34   37.46
   4   6  -8  775.62   45.23
   4   6  -8  539.19   33.89
  -4  -6   8  601.56   42.33
   4   6  -9 1295.39   54.96
   4   6  -9 1113.26   55.93
  -4  -6   9 1428.85   63.04
   4   6  -9 1074.58   59.94
  -4  -6   9 1270.81   66.87
  -4  -6  10  209.95   23.50
   4   6 -10  194.09   38.91
   4   6 -10  181.99   20.15
   4   6 -10  218.93   34.82
   4   6 -11   61.57   24.89
  -4  -6  11   73.54   19.67
   4   6 -11  128.25   22.02
  -4  -6  11  220.93   29.66
  -4  -6  12  427.73   36.11
   4   6 -12  258.69   31.67
   4   6 -12  326.32   31.97
   4   6 -12  352.03   36.31
   4   6 -13  205.08   30.75
   4   6 -13   95.13   28.82
  -4  -6  13  186.45   26.00
   4   6 -13  206.90   28.76
   4   6 -14   99.05   28.82
   4   6 -14   34.52   24.71
   4   5  -1 4047.45  135.80
  -4  -5   1 4002.76  147.22
   4   5  -1 4128.35  143.98
  -4  -5   1 3636.78  144.86
  -4  -5   2 2093.81   77.68
   4   5  -2 1885.52   80.98
   4   5  -2 2084.55   78.53
  -4  -5   2 2181.22   82.10
   4   5  -3 4627.12  161.73
  -4  -5   3 4721.09  155.08
   4   5  -3 4389.47  149.07
  -4  -5   3 4417.43  162.46
   4   5  -3 4176.88  159.90
  -4  -5   4 1030.14   56.59
   4   5  -4 1282.63   48.71
   4   5  -4 1134.65   47.67
   4   5  -4 1181.13   53.52
  -4  -5   4 1258.29   52.38
  -4  -5   5 1321.32   58.95
   4   5  -5 1400.21   57.10
   4   5  -5 1262.20   55.87
   4   5  -5 1346.42   57.56
  -4  -5   5 1304.16   55.29
   4   5  -6 5857.79  202.26
  -4  -5   6 5449.10  193.75
   4   5  -6 5498.86  188.94
   4   5  -6 5287.86  195.24
  -4  -5   6 5633.75  198.34
  -4  -5   7  -57.57   24.17
   4   5  -7   -1.00   16.17
  -4  -5   7   30.30   16.26
   4   5  -7   28.93   21.85
   4   5  -8 7759.47  267.73
  -4  -5   8 8006.46  260.12
   4   5  -8 7639.22  252.21
  -4  -5   8 7729.84  272.39
   4   5  -8 7519.70  262.02
  -4  -5   9  381.77   29.40
   4   5  -9  529.60   33.75
   4   5  -9  575.39   33.47
  -4  -5   9  488.95   36.91
   4   5  -9  411.85   33.82
   4   5 -10 3440.64  132.08
   4   5 -10 3399.03  128.79
  -4  -5  10 3515.64  137.31
   4   5 -10 3240.95  128.39
  -4  -5  10 3235.15  129.50
   4   5 -11  950.36   49.42
  -4  -5  11  744.56   42.75
   4   5 -11  620.21   43.02
   4   5 -11  834.09   42.10
  -4  -5  11  870.16   49.05
   4   5 -12  260.69   31.52
  -4  -5  12  287.97   25.06
  -4  -5  12  210.65   26.37
   4   5 -12  176.17   29.42
   4   5 -12  335.11   21.75
  -4  -5  13   98.62   26.79
   4   5 -13  286.63   28.71
   4   5 -13  138.70   24.90
   4   5 -13  240.21   30.66
   4   5 -14  549.64   47.93
   4   5 -14  546.50   40.59
  -4  -5  14  646.90   44.82
   4   5 -14  723.34   44.85
   4   5 -15  298.25   36.46
  -4  -5  15  368.84   38.69
   4   5 -15  185.89   36.35
   4   5 -15  175.56   39.80
   4   5 -16  455.64   29.78
  -4  -5  16  371.74   36.84
   4   5 -17   13.22   27.43
  -4  -4   1 1071.57   45.99
  -4  -4   1 1136.06   50.19
  -4  -4   1 1315.67   42.64
   4   4  -1 1166.96   40.38
   4   4  -1 1174.55   57.05
   4   4  -1 1194.77   49.22
   4   4  -2 2632.98   89.82
   4   4  -2 2372.09   78.82
   4   4  -2 2358.50   95.19
  -4  -4   2 2318.16   86.32
  -4  -4   2 2266.69   83.39
   4   4  -3 3497.52  118.56
   4   4  -3 3414.15  124.64
  -4  -4   3 3336.87  123.36
  -4  -4   3 3596.82  125.30
   4   4  -4  -14.89   10.08
   4   4  -4   22.49   19.97
   4   4  -4  -42.47   21.50
  -4  -4   4   60.47   18.39
  -4  -4   5 5834.71  196.59
   4   4  -5 5540.88  187.66
   4   4  -5 5511.53  181.97
   4   4  -5 5176.38  183.96
  -4  -4   5 5880.56  188.86
   4   4  -6  781.13   40.80
   4   4  -6  690.83   40.81
  -4  -4   6  750.90   42.95
   4   4  -6  774.94   36.45
  -4  -4   6  901.86   35.18
   4   4  -7  -17.22   17.82
  -4  -4   7  -20.72   18.26
   4   4  -7   70.80   17.85
   4   4  -7  -37.72   24.00
  -4  -4   8 4201.80  153.19
   4   4  -8 4515.41  154.28
  -4  -4   8 4285.64  143.88
   4   4  -8 4434.03  148.21
  -4  -4   8 4448.02  156.74
   4   4  -8 4296.72  158.24
   4   4  -9  235.04   28.07
  -4  -4   9  190.21   21.25
   4   4  -9  337.02   30.20
  -4  -4   9  110.10   24.41
   4   4  -9  186.92   19.13
  -4  -4   9  213.91   16.13
   4   4 -10 3215.69  126.44
   4   4 -10 3265.37  119.96
  -4  -4  10 3046.43  111.14
   4   4 -10 3430.09  127.46
  -4  -4  10 3479.10  122.55
  -4  -4  10 3014.55  114.38
  -4  -4  11  269.96   23.24
   4   4 -11  270.30   32.79
   4   4 -11  269.28   23.83
   4   4 -11  159.00   27.09
  -4  -4  11  291.37   33.69
  -4  -4  12 2982.82  125.00
   4   4 -12 3267.94  119.49
  -4  -4  12 2885.22  117.68
   4   4 -12 3127.63  125.89
   4   4 -12 3255.91  123.17
   4   4 -13 1908.80   82.26
  -4  -4  13 1956.30   80.59
   4   4 -13 1805.79   78.47
   4   4 -13 1812.96   79.98
  -4  -4  13 1770.31   81.93
  -4  -4  14 3134.11  118.60
   4   4 -14 2734.10  111.30
   4   4 -14 2857.34  122.39
   4   4 -14 3310.55  123.32
   4   4 -15 1454.09   80.22
   4   4 -15 1726.37   74.39
   4   4 -15 1635.69   77.45
  -4  -4  15 1849.13   85.51
   4   4 -16 2811.83  112.45
  -4  -4  16 3083.88  124.70
   4   4 -16 2654.37  125.04
   4   4 -16 2976.54  126.88
   4   4 -17  114.98   29.13
   4   4 -17  319.98   38.30
  -4  -4  17  241.83   37.84
   4   4 -18  874.93   53.38
   4   4 -18  875.63   51.56
  -4  -4  18  671.96   57.32
   4   3  -1  753.60   35.26
  -4  -3   1  623.69   25.90
   4   3  -1  739.14   24.50
  -4  -3   1  617.95   31.75
   4   3  -1  698.20   33.17
  -4  -3   1  767.91   31.41
  -4  -3   1  594.30   23.47
  -4  -3   2 5810.58  170.09
  -4  -3   2 5467.21  181.77
   4   3  -2 5479.32  172.37
  -4  -3   2 4958.38  173.07
   4   3  -2 5292.03  176.09
   4   3  -2 5332.94  176.80
  -4  -3   2 5784.71  183.52
  -4  -3   2 5056.99  167.21
   4   3  -3  508.04   31.74
   4   3  -3  606.87   25.55
  -4  -3   3  620.49   20.50
  -4  -3   3  584.88   35.12
   4   3  -3  577.60   30.21
  -4  -3   3  553.21   18.71
  -4  -3   4 6044.98  210.78
   4   3  -4 6372.23  211.34
  -4  -3   4 6359.91  197.07
  -4  -3   4 6007.22  189.98
   4   3  -4 6143.03  209.96
   4   3  -4 6241.92  202.58
  -4  -3   4 6565.29  213.82
  -4  -3   5 1380.32   48.67
  -4  -3   5 1257.94   60.59
   4   3  -5 1612.42   61.09
  -4  -3   5 1528.72   56.81
   4   3  -5 1769.78   60.63
   4   3  -5 1491.28   57.72
  -4  -3   5 1606.04   50.61
   4   3  -6 1816.95   62.76
   4   3  -6 1651.63   77.39
  -4  -3   6 1537.22   55.40
  -4  -3   6 1899.02   64.87
   4   3  -6 1599.71   65.41
  -4  -3   6 1699.26   71.23
  -4  -3   7  747.60   26.93
   4   3  -7  640.02   28.99
  -4  -3   7  693.46   37.79
   4   3  -7  650.66   37.46
   4   3  -7  712.02   40.81
  -4  -3   7  558.64   24.63
   4   3  -8 4653.60  155.72
   4   3  -8 4711.76  153.16
  -4  -3   8 4612.21  171.28
   4   3  -8 4326.63  163.40
  -4  -3   8 4553.08  161.49
   4   3  -9  556.58   27.71
  -4  -3   9  672.35   33.74
   4   3  -9  620.72   25.03
  -4  -3   9  709.66   41.26
   4   3 -10 3705.31  136.98
  -4  -3  10 3828.72  134.07
   4   3 -10 3734.66  125.95
   4   3 -10 3590.14  131.68
   4   3 -10 3493.43  130.79
  -4  -3  10 3911.11  141.29
  -4  -3  11 2858.74  114.04
  -4  -3  11 2907.51  113.01
   4   3 -11 3366.17  114.01
   4   3 -11 3282.30  108.69
   4   3 -11 3004.15  112.52
   4   3 -11 3001.57  118.51
   4   3 -12  797.79   38.00
  -4  -3  12  811.79   36.83
   4   3 -12  839.21   44.33
   4   3 -12  878.57   48.66
   4   3 -12  862.98   47.24
  -4  -3  12  930.01   49.71
   4   3 -13  830.41   49.92
  -4  -3  13  812.06   37.50
   4   3 -13  989.31   49.45
   4   3 -13  820.94   39.94
   4   3 -13  758.75   47.82
   4   3 -14  326.27   31.10
   4   3 -14  284.01   34.52
  -4  -3  14  338.91   27.50
   4   3 -14  400.05   26.99
   4   3 -14  450.50   39.49
  -4  -3  14  435.45   31.31
   4   3 -15  517.68   44.84
   4   3 -15  584.72   31.83
  -4  -3  15  704.77   45.63
   4   3 -15  404.12   40.83
   4   3 -16  543.51   39.77
   4   3 -16  550.21   39.90
  -4  -3  16  446.10   45.49
   4   3 -16  682.21   39.92
   4   3 -16  699.75   48.87
  -4  -3  17  498.19   46.12
   4   3 -17  475.76   44.31
   4   3 -17  689.59   48.50
   4   3 -18    3.97   28.45
   4   3 -18  -45.85   25.34
  -4  -3  18  -84.36   34.33
   4   3 -19 1126.89   65.34
   4   3 -19 1130.79   69.55
  -4  -2   1 2227.99   65.89
  -4  -2   1 2092.68   76.37
  -4  -2   1 2052.69   86.07
  -4  -2   1 2017.60   71.05
   4   2  -1 2308.81   89.34
   4   2  -1 2143.56   68.63
   4   2  -1 2059.85   80.49
  -4  -2   1 2136.53   65.68
   4   2  -213994.32  448.12
  -4  -2   213172.23  435.40
  -4  -2   213202.32  429.77
   4   2  -213452.52  435.32
   4   2  -214036.00  429.65
  -4  -2   214663.59  446.00
  -4  -2   3  255.81   23.25
  -4  -2   3  257.21   18.25
  -4  -2   3  281.44   17.03
   4   2  -3  308.32   25.95
   4   2  -3  321.34   17.03
   4   2  -410157.15  344.63
  -4  -2   411610.47  354.27
  -4  -2   4 9896.76  338.09
  -4  -2   410859.94  351.54
   4   2  -411998.86  352.46
   4   2  -411281.80  344.47
   4   2  -410689.62  362.15
   4   2  -5  881.01   43.65
  -4  -2   5  947.74   38.08
   4   2  -5  955.81   42.83
  -4  -2   5  827.23   39.80
   4   2  -5  903.06   37.26
   4   2  -6 4124.76  149.99
   4   2  -6 4926.30  172.89
  -4  -2   6 5045.09  164.48
   4   2  -6 4537.69  155.26
  -4  -2   6 4520.44  147.94
  -4  -2   6 4874.91  146.44
   4   2  -6 4709.62  161.92
  -4  -2   6 4535.60  158.57
  -4  -2   7 2120.66   78.47
   4   2  -7 2559.11   86.22
   4   2  -7 2104.99   80.20
   4   2  -7 2301.21   92.79
   4   2  -7 2480.95   80.54
  -4  -2   7 2302.27   90.84
   4   2  -7 2635.02   88.83
  -4  -2   7 2520.50   84.13
  -4  -2   8  706.50   27.16
   4   2  -8  715.61   35.83
  -4  -2   8  664.82   40.38
   4   2  -8  696.73   26.25
   4   2  -8  708.51   37.06
   4   2  -8  602.69   38.10
  -4  -2   8  825.83   35.12
   4   2  -9 6665.47  225.78
  -4  -2   9 5919.31  224.41
   4   2  -9 6411.48  218.51
  -4  -2   9 6846.68  225.15
   4   2  -9 6518.79  232.28
   4   2  -9 7088.33  220.39
   4   2 -10 1747.96   77.63
   4   2 -10 2151.14   86.13
  -4  -2  10 2076.04   86.00
   4   2 -10 2090.06   77.53
  -4  -2  10 2203.82   75.61
   4   2 -10 2093.92   79.98
   4   2 -11 3147.41  123.87
   4   2 -11 3348.34  116.77
   4   2 -11 3522.19  123.47
  -4  -2  11 3394.50  121.15
  -4  -2  11 3237.14  128.78
   4   2 -11 3102.38  112.52
   4   2 -12   64.88   23.53
  -4  -2  12  104.24   23.20
   4   2 -12  152.71   24.99
   4   2 -13  269.69   28.11
   4   2 -13  123.03   26.50
   4   2 -13  196.32   22.54
   4   2 -13  193.07   31.34
  -4  -2  13  191.90   19.80
  -4  -2  13  115.31   24.92
   4   2 -14  111.73   28.68
  -4  -2  14  210.32   21.05
   4   2 -14  289.34   28.42
   4   2 -14  285.25   25.20
  -4  -2  14  164.42   29.91
   4   2 -15  441.95   38.61
   4   2 -15  594.54   39.81
  -4  -2  15  535.90   43.49
   4   2 -15  543.13   35.76
   4   2 -15  563.67   44.71
   4   2 -16 2139.05   92.50
   4   2 -16 2328.37   98.53
   4   2 -16 2300.52   94.90
   4   2 -16 2674.37  103.48
   4   2 -17  216.88   45.30
   4   2 -17  291.87   26.31
   4   2 -17  240.63   32.47
   4   2 -17  317.25   28.93
  -4  -2  18  584.07   56.07
   4   2 -18  798.95   48.63
   4   2 -18  787.66   48.42
   4   2 -19  346.43   36.55
   4   2 -19  420.58   40.24
   4   1  -1  343.08   17.62
  -4  -1   1  304.43   14.22
  -4  -1   1  395.72   22.64
  -4  -1   1  259.18   16.74
   4   1  -1  327.02   21.30
   4   1  -1  286.15   12.93
   4   1  -1  329.15   21.52
  -4  -1   217843.22  548.19
   4   1  -217547.82  538.12
   4   1  -217204.10  561.99
  -4  -1   217657.24  544.42
   4   1  -217685.34  568.08
   4   1  -216087.99  530.36
  -4  -1   217195.44  551.22
   4   1  -3  191.31   11.18
   4   1  -3  180.50   16.05
  -4  -1   3  172.57   12.93
  -4  -1   3  260.68   21.13
   4   1  -3  273.26   19.99
   4   1  -3  273.06   13.92
  -4  -1   3  233.36   15.85
   4   1  -419616.11  634.68
  -4  -1   421700.76  624.21
   4   1  -419327.18  649.74
   4   1  -419881.47  617.87
   4   1  -419414.69  642.99
  -4  -1   419299.25  643.99
  -4  -1   420236.22  638.47
   4   1  -5 2151.63   71.66
  -4  -1   5 2311.51   74.41
  -4  -1   5 2222.47   68.30
   4   1  -5 2192.38   83.83
   4   1  -5 2175.87   77.24
   4   1  -5 2281.53   86.87
  -4  -1   5 2113.23   81.32
   4   1  -6 5710.88  182.31
   4   1  -6 5622.07  188.14
  -4  -1   6 5625.18  205.25
  -4  -1   6 6157.00  185.79
   4   1  -6 5630.76  192.38
   4   1  -6 5873.33  182.10
   4   1  -6 5251.76  194.42
  -4  -1   6 5951.27  185.48
   4   1  -712763.58  421.33
   4   1  -713542.74  441.24
   4   1  -713962.29  424.34
  -4  -1   713132.56  415.57
  -4  -1   713124.77  454.15
   4   1  -713328.29  445.27
  -4  -1   714273.14  429.78
  -4  -1   712967.73  421.16
   4   1  -8  762.10   37.76
   4   1  -8  834.36   37.39
  -4  -1   8  970.32   34.56
   4   1  -8  899.59   40.25
   4   1  -8 1030.92   37.00
  -4  -1   8  825.58   30.02
  -4  -1   8  672.50   38.56
   4   1  -9 5490.44  189.46
   4   1  -9 5276.20  180.63
  -4  -1   9 4515.28  164.54
  -4  -1   9 5725.71  177.83
   4   1  -9 5231.24  175.37
   4   1  -9 5517.60  174.44
  -4  -1   9 5011.85  169.16
  -4  -1   9 5382.54  186.89
  -4  -1  10 4092.95  150.24
  -4  -1  10 4583.72  155.51
   4   1 -10 4915.09  164.55
   4   1 -10 4499.94  157.36
   4   1 -10 4993.99  165.58
  -4  -1  10 4939.42  160.32
   4   1 -10 4616.62  166.82
  -4  -1  11  501.34   37.76
   4   1 -11  666.27   34.42
   4   1 -11  769.10   41.78
   4   1 -11  619.30   39.74
  -4  -1  11  723.00   31.61
   4   1 -11  684.95   34.71
   4   1 -12   39.00   25.96
   4   1 -12  159.17   34.17
   4   1 -12   -8.50   23.45
  -4  -1  12   81.41   14.08
  -4  -1  12   10.96   24.84
   4   1 -12   80.52   18.07
   4   1 -13 4312.74  148.64
   4   1 -13 4461.02  166.86
   4   1 -13 4038.14  143.75
  -4  -1  13 4452.88  150.46
  -4  -1  13 3743.82  140.02
   4   1 -13 4379.25  156.79
   4   1 -14 1000.59   57.80
   4   1 -14 1056.52   49.55
  -4  -1  14 1136.19   52.93
   4   1 -14 1288.03   58.33
  -4  -1  14  966.88   41.98
   4   1 -14 1020.31   48.02
  -4  -1  15 4685.85  168.37
   4   1 -15 4756.65  177.52
   4   1 -15 4632.50  177.94
   4   1 -15 4413.29  167.22
   4   1 -15 4744.39  168.93
   4   1 -16  414.46   34.49
   4   1 -16  477.39   35.22
  -4  -1  16  374.03   40.97
   4   1 -16  568.13   37.56
   4   1 -17 3277.44  133.11
   4   1 -17 3426.23  139.07
   4   1 -17 2911.54  133.52
  -4  -1  17 3469.29  133.89
   4   1 -17 3118.86  140.74
   4   1 -18   86.34   29.64
   4   1 -18   17.56   24.30
   4   1 -18  102.28   22.29
   4   1 -18   75.99   16.31
   4   1 -19  477.73   40.43
   4   1 -19  706.43   46.17
   4   1 -19  465.55   40.15
  -4  -1  19  500.55   48.21
   4   1 -20    8.72   22.09
  -4  -1  20   16.12   29.31
   4   1 -20  149.10   31.21
   4   1 -20    0.86   27.14
  -4   0   1 1931.75   84.36
   4   0  -1 2317.20   90.03
   4   0  -1 2316.76   71.75
  -4   0   1 2339.75   80.60
   4   0  -1 2246.61   78.06
   4   0  -1 2341.15   77.02
   4   0  -1 2256.19   76.12
   4   0  -1 2185.98   75.67
   4   0  -1 2245.40   70.97
  -4   0   1 2303.28   88.98
   4   0  -2 5364.21  171.41
   4   0  -2 5444.79  172.10
   4   0  -2 5381.64  181.39
  -4   0   2 5178.02  177.53
   4   0  -2 5273.51  186.63
  -4   0   2 5079.23  173.33
  -4   0   2 5310.64  170.45
   4   0  -3 5951.92  188.48
  -4   0   3 5967.35  202.64
   4   0  -3 5412.99  199.49
   4   0  -3 6405.46  204.75
   4   0  -3 6001.51  201.70
  -4   0   3 5988.02  208.64
   4   0  -4 1546.30   57.27
   4   0  -4 1579.40   62.09
  -4   0   4 1439.33   47.28
   4   0  -4 1540.35   64.64
  -4   0   4 1387.13   63.90
   4   0  -4 1453.24   47.88
  -4   0   4 1426.90   63.05
   4   0  -4 1440.64   48.00
  -4   0   5 3590.89  111.04
   4   0  -5 3577.63  115.49
   4   0  -5 3318.52  107.22
   4   0  -5 3169.41  120.03
  -4   0   5 3507.28  105.81
   4   0  -5 3386.52  123.01
  -4   0   5 3214.42  118.25
   4   0  -6 3400.59  118.01
   4   0  -6 3419.09  107.76
  -4   0   6 3446.42  111.34
  -4   0   6 3112.25  114.25
   4   0  -6 3306.45  111.91
   4   0  -6 3441.74  118.32
   4   0  -7 3286.18  115.59
  -4   0   7 3471.89  111.81
  -4   0   7 3175.96  124.10
   4   0  -7 3355.06  127.59
   4   0  -7 3571.21  111.94
  -4   0   7 3590.77  107.86
  -4   0   7 3388.86  105.77
  -4   0   8 1579.86   58.05
   4   0  -8 1564.58   65.46
   4   0  -8 1682.36   68.19
   4   0  -8 1835.51   60.43
  -4   0   8 1643.76   65.10
  -4   0   8 1798.26   55.89
   4   0  -8 1531.83   71.27
   4   0  -9 7524.98  254.60
   4   0  -9 8123.42  252.85
  -4   0   9 7539.39  260.40
   4   0  -9 7814.18  249.41
  -4   0   9 7190.02  239.33
  -4   0  1013701.04  477.44
   4   0 -1015848.82  502.38
  -4   0  1015898.14  511.61
   4   0 -1015781.59  488.97
   4   0 -1015374.35  502.18
  -4   0  1016092.98  488.36
   4   0 -11  948.44   49.64
  -4   0  11  856.81   46.23
   4   0 -11  785.50   47.15
   4   0 -11  745.99   33.14
  -4   0  11  846.93   33.74
   4   0 -12 5672.50  204.99
  -4   0  12 6450.91  216.85
   4   0 -12 5496.08  193.92
   4   0 -12 6095.57  197.19
  -4   0  12 6029.30  195.90
   4   0 -13  145.93   27.19
  -4   0  13  150.14   27.53
   4   0 -14  836.59   44.46
   4   0 -14  929.99   46.15
  -4   0  14  880.32   47.05
   4   0 -14  893.78   45.98
  -4   0  14  813.82   39.28
   4   0 -14  948.31   45.04
   4   0 -15  -30.66   22.40
   4   0 -15  132.91   23.79
   4   0 -15   83.68   27.34
  -4   0  15   70.16   16.94
  -4   0  15   -3.14   30.36
   4   0 -15  191.68   35.22
  -4   0  16  552.43   40.77
   4   0 -16  384.56   30.36
   4   0 -16  509.73   38.07
   4   0 -16  318.56   31.66
   4   0 -16  408.29   32.32
  -4   0  17  558.12   44.38
   4   0 -17  651.14   41.65
   4   0 -17  567.89   34.09
   4   0 -17  491.05   43.86
   4   0 -17  411.22   42.40
   4   0 -18  452.37   32.61
  -4   0  18  311.69   44.53
   4   0 -18  471.66   34.87
   4   0 -18  584.56   36.34
   4   0 -18  591.56   48.93
   4   0 -19  201.39   29.77
   4   0 -19  218.20   34.58
  -4   0  19   72.19   28.49
   4   0 -19  235.75   33.07
   4   0 -20 1885.26   78.66
   4   0 -20 1668.36   78.33
  -4   0  20 1736.02   85.50
   4   0 -20 1874.81   87.51
   4  -1   012710.24  400.06
  -4   1   012817.20  400.27
   4  -1   013417.39  416.11
  -4   1   012662.76  406.98
   4  -1   013142.50  414.36
  -4   1   012669.33  419.93
   4  -1   012320.80  401.22
   4  -1   012625.40  407.09
   4  -1   012301.53  399.06
   4  -1   012756.63  409.38
   4  -1  -119114.37  619.97
   4  -1  -119044.42  602.23
   4  -1  -119781.96  613.25
   4  -1  -119472.13  604.98
  -4   1   118530.44  611.32
   4  -1  -119812.07  616.54
   4  -1  -119299.60  601.16
   4  -1  -119678.72  600.93
  -4   1   119479.20  600.85
   4  -1  -118097.43  612.47
   4  -1  -2 2132.17   75.07
   4  -1  -2 2192.42   83.53
  -4   1   2 2196.28   75.91
   4  -1  -2 2070.65   71.52
  -4   1   2 1887.33   78.52
   4  -1  -2 2175.84   76.44
   4  -1  -2 2180.07   70.52
  -4   1   2 2010.99   78.17
   4  -1  -313576.64  411.80
  -4   1   312632.78  415.67
  -4   1   312774.19  442.69
   4  -1  -313387.01  409.82
   4  -1  -313913.18  431.07
   4  -1  -312968.04  418.28
   4  -1  -313984.16  449.06
   4  -1  -313047.30  401.81
  -4   1   312241.69  434.90
   4  -1  -4 6227.71  205.98
   4  -1  -4 6054.42  204.93
  -4   1   4 6319.40  222.47
  -4   1   4 6196.64  207.09
   4  -1  -4 6334.01  203.30
  -4   1   4 6266.92  197.83
   4  -1  -5 3745.40  120.66
  -4   1   5 3415.42  123.80
  -4   1   5 3607.46  119.48
   4  -1  -5 3881.64  128.04
   4  -1  -5 3462.56  118.70
  -4   1   6  124.97   10.85
  -4   1   6  101.41   15.51
   4  -1  -6  121.27   12.08
   4  -1  -6   83.35   15.93
   4  -1  -6  108.07   16.79
  -4   1   6   50.84   14.53
  -4   1   7   90.32   16.72
   4  -1  -7   89.63   15.07
  -4   1   7   84.92   11.62
  -4   1   7   34.15   11.67
   4  -1  -7   56.42   15.86
   4  -1  -7   64.32   23.70
   4  -1  -8  833.32   40.44
  -4   1   8 1042.41   33.00
  -4   1   8 1026.14   45.57
   4  -1  -8 1010.74   39.82
  -4   1   8 1030.76   32.98
  -4   1   8  998.71   38.62
   4  -1  -8 1057.88   49.34
   4  -1  -9 2261.29   86.48
   4  -1  -9 2369.33   85.59
  -4   1   9 2566.81   89.24
  -4   1   9 2530.74   88.29
  -4   1   9 2423.62   79.69
   4  -1  -9 2480.75   92.57
  -4   1  10 4547.90  153.59
   4  -1 -10 4172.98  151.03
  -4   1  10 4507.90  139.73
   4  -1 -10 3952.73  161.94
  -4   1  10 4113.57  137.38
  -4   1  10 4303.48  147.09
   4  -1 -10 4433.18  151.59
   4  -1 -11 2378.49   87.31
  -4   1  11 2019.32   81.27
  -4   1  11 2358.75   88.83
  -4   1  11 2661.91   92.46
   4  -1 -11 2408.50   90.55
   4  -1 -11 2583.67   91.19
  -4   1  11 2368.83   83.19
   4  -1 -12 2138.03   82.77
  -4   1  12 2259.94   92.88
  -4   1  12 2149.81   88.88
   4  -1 -12 2376.31   87.53
   4  -1 -12 2131.83   93.48
   4  -1 -13 2177.60   90.88
   4  -1 -13 2337.85   89.95
   4  -1 -13 2248.95   88.50
  -4   1  13 2240.26   92.62
  -4   1  13 2252.99   82.49
   4  -1 -14  171.93   30.66
   4  -1 -14  105.72   24.56
  -4   1  14  114.27   21.91
   4  -1 -15  909.52   53.12
   4  -1 -15  694.49   42.45
   4  -1 -15  801.26   43.68
  -4   1  15  779.55   42.86
  -4   1  15  806.81   46.23
  -4   1  16   17.87   21.54
   4  -1 -16  -16.33   25.40
   4  -1 -16   11.24   31.67
  -4   1  16    1.94   30.54
  -4   1  17 4502.97  174.74
   4  -1 -17 4605.75  175.21
   4  -1 -17 4549.13  168.08
   4  -1 -17 4447.92  171.98
  -4   1  17 4580.06  167.66
  -4   1  18  234.25   30.00
  -4   1  18  173.06   23.83
   4  -1 -18  215.54   29.67
  -4   1  19 2212.78  107.07
   4  -1 -19 2429.13  101.46
   4  -1 -19 2419.77  103.98
   4  -1 -19 2832.69  117.45
  -4   1  19 2929.05  108.55
  -4   1  20  152.40   37.47
   4  -1 -20  240.24   31.18
   4  -1 -20  415.56   39.20
   4  -1 -20  322.27   29.27
   4  -2   0 8358.70  269.80
   4  -2   0 7898.16  260.43
  -4   2   0 8125.43  262.57
   4  -2   0 8077.25  264.18
   4  -2   0 8283.03  262.67
   4  -2   0 8119.30  270.54
   4  -2   0 8018.11  265.79
  -4   2   0 8073.89  272.96
  -4   2   0 8495.13  265.09
   4  -2   0 7813.45  260.34
   4  -2   0 8030.72  270.93
   4  -2  -1 4888.55  163.55
   4  -2  -1 4717.64  155.25
  -4   2   1 4666.51  160.17
   4  -2  -1 4871.02  158.24
   4  -2  -1 4739.25  160.07
   4  -2  -1 4643.96  157.05
  -4   2   1 4703.39  156.80
   4  -2  -1 5128.20  167.30
   4  -2  -1 4798.94  155.07
   4  -2  -2 3813.57  133.90
   4  -2  -2 3865.02  131.45
   4  -2  -2 3879.33  132.85
  -4   2   2 3770.29  128.61
   4  -2  -2 4059.31  140.65
  -4   2   2 4225.53  130.63
   4  -2  -2 3702.47  128.63
   4  -2  -2 3958.27  127.72
   4  -2  -2 4026.36  130.23
   4  -2  -318395.48  561.63
  -4   2   317693.46  569.33
   4  -2  -318419.68  580.53
   4  -2  -318510.58  572.40
   4  -2  -319139.25  563.52
   4  -2  -316725.27  601.83
  -4   2   318090.34  591.75
  -4   2   317399.92  569.17
   4  -2  -319066.71  582.74
   4  -2  -415299.75  501.02
   4  -2  -416023.59  511.43
   4  -2  -416118.43  550.24
   4  -2  -415517.81  520.65
   4  -2  -415981.05  484.14
  -4   2   415395.09  502.13
  -4   2   415693.13  487.88
  -4   2   415336.96  490.45
   4  -2  -416393.87  484.15
  -4   2   510159.82  333.94
   4  -2  -510433.50  353.12
   4  -2  -510631.26  349.43
   4  -2  -510449.93  350.30
   4  -2  -510643.08  316.76
   4  -2  -510876.71  317.24
   4  -2  -5 9442.50  332.15
  -4   2   510554.17  329.14
  -4   2   5 9928.92  336.89
  -4   2   6 9545.67  336.89
   4  -2  -6 9304.50  319.95
   4  -2  -610204.48  302.63
  -4   2   6 9455.77  317.69
  -4   2   610286.67  301.34
   4  -2  -610182.41  325.54
   4  -2  -7  687.82   38.74
  -4   2   7  685.55   35.22
   4  -2  -7  655.37   23.30
   4  -2  -7  668.33   32.51
  -4   2   7  644.92   23.77
   4  -2  -7  534.17   31.38
   4  -2  -8 5306.75  162.63
   4  -2  -8 5177.62  165.28
   4  -2  -8 4884.20  182.77
   4  -2  -8 5000.34  174.91
  -4   2   8 5310.17  177.01
  -4   2   8 5037.25  165.02
  -4   2   8 4801.58  172.35
  -4   2   9 3295.44  110.02
  -4   2   9 3369.64  116.90
   4  -2  -9 3111.96  101.87
   4  -2  -9 2983.77  118.33
  -4   2   9 2942.89  100.82
   4  -2  -9 3154.03  109.43
   4  -2  -9 3081.77  109.21
  -4   2  10  616.48   26.67
   4  -2 -10  574.51   24.61
   4  -2 -10  637.11   36.21
  -4   2  10  553.41   34.60
   4  -2 -11 2972.42   97.30
   4  -2 -11 2745.59  103.75
   4  -2 -11 2917.46   95.52
  -4   2  11 2424.98   90.23
  -4   2  11 2714.31  108.24
   4  -2 -11 3197.19  113.37
  -4   2  11 2678.27   99.08
  -4   2  12  974.63   53.41
   4  -2 -12 1105.14   47.11
   4  -2 -12 1366.28   54.12
   4  -2 -12 1170.22   56.67
   4  -2 -12 1281.01   53.70
  -4   2  12 1095.06   54.10
   4  -2 -13  136.70   16.33
   4  -2 -13  132.48   27.81
   4  -2 -13  311.73   34.25
  -4   2  13  201.17   31.25
   4  -2 -13  313.28   34.93
  -4   2  13  198.55   25.86
   4  -2 -14  258.15   30.98
  -4   2  14  416.17   30.73
  -4   2  14  256.38   34.40
   4  -2 -14  318.16   30.07
   4  -2 -15  194.58   28.37
   4  -2 -15  142.90   30.51
  -4   2  15  185.31   23.84
   4  -2 -15  156.91   18.71
   4  -2 -15  270.34   32.09
   4  -2 -16 3783.51  134.45
  -4   2  16 3852.45  135.80
   4  -2 -16 3383.68  128.01
  -4   2  16 3684.99  131.08
   4  -2 -16 3303.02  135.66
   4  -2 -17  173.78   33.91
  -4   2  17   37.40   24.65
   4  -2 -17  -16.42   27.01
   4  -2 -18 1492.63   72.95
  -4   2  18 1539.36   65.82
  -4   2  18 1961.33   81.27
   4  -2 -18 1702.59   80.44
   4  -2 -18 1670.05   75.45
  -4   2  19  -30.00   34.54
   4  -2 -19   46.70   31.75
   4  -2 -20  202.85   29.86
  -4   2  20  277.28   35.12
   4  -2 -20  279.02   35.18
   4  -3   0 9893.81  315.96
  -4   3   0 9396.11  298.80
  -4   3   0 8998.01  313.88
  -4   3   0 9241.70  301.33
   4  -3   0 9653.52  316.01
  -4   3   0 9705.49  323.25
   4  -3   0 9265.17  295.96
   4  -3   0 9675.82  296.68
   4  -3  -1  583.98   26.42
   4  -3  -1  417.84   22.88
  -4   3   1  429.65   24.71
  -4   3   1  518.18   21.29
   4  -3  -1  518.56   23.80
   4  -3  -1  490.32   20.08
  -4   3   1  508.83   23.04
   4  -3  -1  467.21   26.88
  -4   3   2 8732.37  320.85
   4  -3  -2 9848.88  312.70
   4  -3  -2 9635.00  313.57
   4  -3  -2 9759.04  309.72
   4  -3  -2 9438.55  307.70
  -4   3   2 9768.36  305.86
   4  -3  -2 9551.33  304.20
  -4   3   2 9833.55  315.16
  -4   3   3 9808.86  323.64
   4  -3  -3 9316.61  324.95
   4  -3  -3 9697.87  305.77
  -4   3   3 9689.91  313.95
   4  -3  -310067.21  304.50
   4  -3  -3 9565.84  315.38
  -4   3   3 9983.76  322.84
  -4   3   3 9819.32  309.55
   4  -3  -4 4596.22  164.80
  -4   3   4 4925.97  161.88
  -4   3   4 4761.05  181.85
   4  -3  -4 5021.97  155.10
  -4   3   4 4711.14  151.98
   4  -3  -4 4789.74  167.39
  -4   3   4 4435.16  160.32
   4  -3  -4 4659.68  152.25
   4  -3  -5 1319.57   46.17
  -4   3   5 1178.96   55.26
   4  -3  -5 1425.96   56.43
   4  -3  -5 1343.84   54.24
  -4   3   5 1313.94   52.35
  -4   3   5 1397.07   48.64
   4  -3  -5 1204.41   57.43
   4  -3  -6  703.84   34.19
   4  -3  -6  813.52   30.79
  -4   3   6  592.75   33.05
  -4   3   6  784.38   32.32
   4  -3  -6  677.60   33.78
  -4   3   6  830.69   32.74
   4  -3  -6  870.75   42.06
   4  -3  -7 2846.95   91.91
  -4   3   7 2854.62   99.65
   4  -3  -7 2644.28   92.96
   4  -3  -7 2534.05   95.87
   4  -3  -7 2533.94   96.25
  -4   3   7 2874.22   98.71
  -4   3   7 2762.78   89.99
   4  -3  -8  319.89   16.92
  -4   3   8  271.62   20.44
   4  -3  -8  216.60   23.58
   4  -3  -8  258.66   21.87
  -4   3   8  233.53   13.26
   4  -3  -8  324.98   27.19
  -4   3   9 9864.05  338.60
   4  -3  -9 9944.25  336.74
   4  -3  -9 9603.60  317.44
   4  -3  -910038.82  326.78
  -4   3   910361.06  337.37
   4  -3  -910320.25  319.03
  -4   3   9 9006.90  311.44
   4  -3 -10 1318.53   67.07
   4  -3 -10 1392.10   60.85
  -4   3  10 1206.46   51.36
  -4   3  10 1306.55   52.09
   4  -3 -10 1479.21   59.34
  -4   3  10 1402.55   53.02
   4  -3 -1117534.66  568.45
   4  -3 -1117654.37  572.12
   4  -3 -1117392.41  571.58
   4  -3 -1117072.86  546.30
  -4   3  1117494.92  554.63
  -4   3  1117379.92  544.84
   4  -3 -12  188.69   24.14
  -4   3  12  156.82   21.52
   4  -3 -12   78.10   14.76
  -4   3  12   19.49   23.85
   4  -3 -12   73.28   22.85
   4  -3 -13 6446.69  220.07
   4  -3 -13 6208.97  229.06
   4  -3 -13 6511.47  223.66
  -4   3  13 6573.27  239.14
  -4   3  13 6661.58  242.25
   4  -3 -13 6755.24  236.98
  -4   3  14  486.25   39.19
   4  -3 -14  676.43   33.18
   4  -3 -14  607.96   45.38
  -4   3  14  692.86   38.46
   4  -3 -14  686.94   42.39
   4  -3 -14  736.88   44.64
  -4   3  15  847.94   54.40
   4  -3 -15  912.30   42.00
   4  -3 -15  953.26   50.05
  -4   3  15  958.39   49.41
   4  -3 -15  872.23   53.26
   4  -3 -15 1018.82   56.36
   4  -3 -16  969.80   52.84
   4  -3 -16  848.66   55.30
   4  -3 -17   83.60   30.99
  -4   3  17   31.27   18.88
   4  -3 -18  252.92   37.99
  -4   3  18  311.42   43.81
   4  -3 -18  462.92   38.85
   4  -3 -18  480.32   37.87
  -4   3  18  305.50   25.05
   4  -3 -19  148.54   37.67
  -4   3  19  216.47   31.97
   4  -3 -19  245.62   43.46
   4  -3 -19  144.60   27.36
  -4   3  19  145.28   21.13
  -4   3  20   20.29   28.00
   4  -4   0 1602.27   55.67
   4  -4   0 1581.60   50.92
  -4   4   0 1389.03   57.36
   4  -4   0 1644.02   64.28
   4  -4   0 1602.88   52.36
  -4   4   0 1645.69   62.68
  -4   4   0 1543.25   58.73
  -4   4   1  145.38   16.46
   4  -4  -1  186.74   15.36
  -4   4   1  135.35   15.91
   4  -4  -216639.45  496.64
   4  -4  -215762.89  510.25
   4  -4  -215788.67  519.08
  -4   4   215785.64  517.05
  -4   4   214840.50  496.66
  -4   4   216316.25  521.80
   4  -4  -216359.49  498.58
   4  -4  -3  367.77   15.70
   4  -4  -3  344.25   25.47
   4  -4  -3  394.04   21.44
  -4   4   3  311.08   18.92
  -4   4   3  318.64   24.47
  -4   4   4   50.97   10.62
   4  -4  -4  111.94   13.67
  -4   4   4  126.82   17.73
  -4   4   4   65.77   14.23
   4  -4  -4  140.18   17.42
   4  -4  -4   74.38   16.21
   4  -4  -5 5924.48  189.69
   4  -4  -5 6155.18  198.79
  -4   4   5 5742.68  190.12
   4  -4  -5 6117.67  204.43
  -4   4   5 5551.54  192.49
   4  -4  -5 5878.83  197.59
  -4   4   5 6006.87  194.67
  -4   4   5 6493.00  199.67
  -4   4   6  520.26   24.21
   4  -4  -6  490.16   30.74
  -4   4   6  586.23   28.21
   4  -4  -6  596.73   26.72
   4  -4  -6  578.06   27.39
   4  -4  -6  504.60   29.22
   4  -4  -7 1230.72   58.14
   4  -4  -7 1378.30   57.61
  -4   4   7 1387.25   61.39
   4  -4  -7 1408.90   50.68
  -4   4   7 1408.25   49.62
   4  -4  -8  393.36   31.01
  -4   4   8  463.57   23.54
  -4   4   8  384.23   28.58
  -4   4   8  465.18   24.52
   4  -4  -9 2483.33   88.21
   4  -4  -9 2621.16   97.93
  -4   4   9 2352.56   98.93
   4  -4  -9 2303.64   87.07
  -4   4   9 2352.95   96.87
   4  -4  -9 2448.67   94.53
   4  -4 -10  155.56   22.78
   4  -4 -10  124.33   15.82
   4  -4 -10  115.48   20.26
  -4   4  10  110.34   22.38
  -4   4  10  112.40   21.77
   4  -4 -11 1355.79   57.39
   4  -4 -11 1420.84   61.92
  -4   4  11 1279.31   61.21
   4  -4 -11 1540.05   56.11
   4  -4 -11 1297.52   61.43
  -4   4  11 1349.92   61.43
  -4   4  12   73.02   23.32
   4  -4 -12  197.94   23.74
   4  -4 -12  118.51   24.66
  -4   4  12  168.08   28.76
   4  -4 -12  288.40   31.44
   4  -4 -13  246.03   28.24
   4  -4 -13  124.00   28.99
   4  -4 -13   97.56   16.61
   4  -4 -13  108.45   31.45
  -4   4  13  208.73   28.94
  -4   4  13  185.21   29.93
   4  -4 -14 1366.75   54.92
   4  -4 -14 1254.05   60.37
  -4   4  14 1182.38   63.99
   4  -4 -14 1081.64   59.06
   4  -4 -14 1150.88   64.47
  -4   4  14 1280.55   54.66
  -4   4  15  460.28   34.87
   4  -4 -15  460.34   38.60
  -4   4  15  345.79   35.89
   4  -4 -15  275.00   40.97
   4  -4 -15  373.78   38.11
   4  -4 -15  262.53   24.01
   4  -4 -16 3921.25  149.63
   4  -4 -16 4146.24  140.99
  -4   4  16 3688.99  138.20
   4  -4 -16 3779.78  146.80
  -4   4  16 3436.28  140.12
   4  -4 -17 1131.04   59.67
  -4   4  17 1218.31   65.88
   4  -4 -17 1455.58   69.81
  -4   4  17 1386.43   55.79
   4  -4 -17 1239.27   68.97
  -4   4  18 2318.40  100.96
   4  -4 -18 2217.98   88.27
   4  -4 -18 2542.48  110.61
   4  -4 -18 2152.44   98.88
  -4   4  18 2606.56   97.05
  -4   4  19  870.93   54.54
   4  -4 -19 1072.44   61.13
  -4   4  19 1080.77   53.09
   4  -4 -19 1119.35   57.23
  -4   5   0 1181.98   43.53
  -4   5   0 1185.28   47.56
  -4   5   0 1166.37   51.49
   4  -5   0  989.28   52.18
   4  -5   0 1155.23   51.22
  -4   5   1 7555.75  238.09
  -4   5   1 7245.85  242.28
   4  -5  -1 7246.86  254.97
   4  -5  -1 7568.68  258.58
  -4   5   1 7345.39  248.10
   4  -5  -2 1880.61   70.11
   4  -5  -2 1572.34   60.36
  -4   5   2 1694.81   66.12
  -4   5   2 1628.26   62.71
   4  -5  -2 1810.06   68.15
   4  -5  -3 5614.14  193.57
   4  -5  -3 5717.42  190.66
  -4   5   3 5446.67  186.31
  -4   5   3 5479.89  184.05
   4  -5  -3 5288.56  184.75
   4  -5  -4 8070.59  287.31
  -4   5   4 9080.63  263.24
  -4   5   4 8128.08  281.29
   4  -5  -4 8460.35  279.64
  -4   5   4 8474.98  297.18
   4  -5  -4 8441.20  266.28
   4  -5  -4 8455.02  276.41
   4  -5  -518011.46  571.70
   4  -5  -518077.58  575.60
  -4   5   517996.35  565.03
  -4   5   519343.49  565.84
  -4   5   517418.22  571.26
   4  -5  -517523.13  566.56
   4  -5  -516929.25  552.48
  -4   5   6 2491.10  103.00
   4  -5  -6 2226.62   80.34
  -4   5   6 2103.65   80.43
  -4   5   6 2527.95   82.16
   4  -5  -6 2168.51   75.45
   4  -5  -6 2354.62   80.90
   4  -5  -6 2146.45   82.10
   4  -5  -7 7617.32  272.84
  -4   5   7 9083.03  267.10
   4  -5  -7 8343.45  260.77
   4  -5  -7 7279.19  268.54
  -4   5   7 7629.08  274.32
  -4   5   7 7683.02  269.44
  -4   5   8 2519.16   88.75
   4  -5  -8 2109.02   85.20
  -4   5   8 2450.09   92.04
  -4   5   8 2319.23   86.89
   4  -5  -8 2241.23   81.29
   4  -5  -8 2121.68   83.39
  -4   5   9 1086.99   50.28
  -4   5   9 1163.85   55.75
   4  -5  -9 1038.38   50.80
   4  -5  -9 1059.25   45.78
   4  -5 -10 1349.19   58.66
  -4   5  10 1297.71   59.70
  -4   5  10 1377.94   60.37
  -4   5  10 1253.90   60.20
   4  -5 -10 1411.53   53.09
   4  -5 -10 1249.09   59.26
   4  -5 -11  737.19   44.10
  -4   5  11  778.63   46.29
   4  -5 -11  812.79   45.79
  -4   5  11 1022.23   45.42
   4  -5 -11  851.26   46.89
   4  -5 -11 1001.61   43.99
   4  -5 -12  655.26   41.59
  -4   5  12  778.27   39.30
   4  -5 -12  696.79   35.74
  -4   5  12  555.67   40.72
   4  -5 -12  657.89   44.53
   4  -5 -12  713.74   39.28
   4  -5 -13  371.18   32.16
  -4   5  13  271.65   26.09
  -4   5  13  333.85   30.34
   4  -5 -13  291.36   31.18
   4  -5 -13  318.92   34.01
   4  -5 -13  248.16   24.79
  -4   5  14   90.79   25.52
  -4   5  14   42.99   27.91
   4  -5 -14  130.06   36.47
   4  -5 -14  181.54   23.11
  -4   5  15  -36.42   24.32
  -4   5  15   72.25   29.95
   4  -5 -15  -49.29   28.10
   4  -5 -15    4.51   15.86
  -4   5  16   91.23   28.61
   4  -5 -16   91.43   25.28
  -4   5  16  146.70   36.98
   4  -5 -16   77.93   26.04
   4  -5 -17  360.01   36.46
   4  -5 -17  329.80   38.49
  -4   5  17  362.38   39.35
   4  -5 -17  550.87   39.55
  -4   5  18   59.96   25.49
  -4   5  18   90.59   29.45
  -4   6   0 1492.42   61.34
   4  -6   0 1241.39   54.56
   4  -6   0 1281.09   53.39
  -4   6   0 1360.16   58.91
  -4   6   0 1245.08   52.62
  -4   6   1  613.87   37.16
   4  -6  -1  736.24   36.77
  -4   6   1  691.98   35.58
  -4   6   1  838.19   37.31
  -4   6   2 4467.46  161.31
   4  -6  -2 4705.49  174.59
   4  -6  -2 4777.31  174.47
  -4   6   2 4457.94  161.17
   4  -6  -2 4995.33  163.49
   4  -6  -3 1902.12   68.63
   4  -6  -3 1630.17   75.28
  -4   6   3 1863.64   85.08
   4  -6  -3 2165.31   84.44
  -4   6   3 1877.12   73.66
   4  -6  -4 1654.16   62.00
  -4   6   4 1534.84   79.52
   4  -6  -4 1380.48   71.32
   4  -6  -4 1388.15   55.30
  -4   6   4 1396.35   61.23
   4  -6  -5 3211.00  119.83
  -4   6   5 3648.41  109.48
  -4   6   5 3259.58  121.27
  -4   6   5 3057.92  104.96
   4  -6  -5 3406.03  122.63
   4  -6  -5 3518.29  126.65
  -4   6   5 3341.46  129.59
   4  -6  -6  298.52   22.45
   4  -6  -6  395.09   33.60
   4  -6  -6  239.87   26.56
  -4   6   6  312.34   16.50
  -4   6   6  220.60   23.98
  -4   6   6  348.65   33.40
   4  -6  -7  302.65   29.24
   4  -6  -7  437.14   26.03
   4  -6  -7  279.57   31.71
  -4   6   7  326.64   31.24
  -4   6   7  397.10   31.42
   4  -6  -8 6732.23  234.90
  -4   6   8 7047.96  233.63
   4  -6  -8 6900.68  250.82
   4  -6  -8 6696.52  238.54
  -4   6   8 6460.10  236.62
  -4   6   8 7132.08  236.53
   4  -6  -9  480.97   35.47
   4  -6  -9  437.86   30.63
  -4   6   9  428.74   24.93
  -4   6   9  393.41   32.65
   4  -6  -9  486.79   30.76
  -4   6   9  455.36   31.59
   4  -6 -10 6876.49  235.58
   4  -6 -10 7484.69  242.17
  -4   6  10 7502.57  260.07
  -4   6  10 6894.73  245.49
  -4   6  10 7666.75  263.44
   4  -6 -10 7245.33  253.17
  -4   6  11  851.51   46.31
  -4   6  11  909.86   47.25
   4  -6 -11  831.74   45.09
   4  -6 -11  818.53   44.94
   4  -6 -11 1069.93   47.59
  -4   6  11  996.53   47.62
   4  -6 -12 5591.07  218.21
  -4   6  12 5546.70  205.75
   4  -6 -12 5577.58  205.11
   4  -6 -12 5106.73  191.37
   4  -6 -12 5440.66  196.67
  -4   6  12 5369.76  197.67
   4  -6 -13  834.55   50.60
   4  -6 -13  681.26   52.20
  -4   6  13  723.22   46.46
   4  -6 -13  982.75   46.09
  -4   6  13  904.41   45.06
   4  -6 -14 1578.04   75.62
  -4   6  14 1463.99   67.86
   4  -6 -14 1268.92   65.50
   4  -6 -14 1496.22   71.87
  -4   6  14 1342.72   70.08
   4  -6 -14 1454.38   67.13
  -4   6  15  362.18   35.09
   4  -6 -15  383.38   26.65
   4  -6 -15  417.36   38.30
  -4   6  15  400.30   31.51
   4  -6 -15  487.02   37.65
   4  -6 -16   13.80   32.04
  -4   6  16   88.26   27.77
   4  -6 -16   24.00   28.24
   4  -6 -16   10.28   28.72
   4  -6 -17  107.56   37.80
   4  -6 -17  100.69   36.95
   4  -7   0 3088.43  111.63
  -4   7   0 3094.33  112.89
  -4   7   0 2608.46  103.59
   4  -7   0 3410.07  122.77
  -4   7   0 2865.77  111.00
  -4   7   1 1349.46   57.47
  -4   7   1 1331.12   58.15
  -4   7   1 1367.47   60.93
   4  -7  -1 1334.04   62.01
   4  -7  -1 1341.35   62.90
   4  -7  -2  788.67   42.22
  -4   7   2  621.20   38.07
   4  -7  -2  615.21   41.76
   4  -7  -2  771.57   38.10
   4  -7  -3  592.39   39.66
  -4   7   3  434.54   33.00
  -4   7   3  440.51   35.78
   4  -7  -3  557.25   32.08
   4  -7  -3  426.39   31.48
  -4   7   4 1546.64   62.49
   4  -7  -4 1564.66   68.96
  -4   7   4 1425.10   64.87
   4  -7  -4 1482.21   68.30
   4  -7  -4 1252.89   56.05
   4  -7  -5 2906.31  118.64
  -4   7   5 3327.59  122.15
   4  -7  -5 3272.56  115.74
   4  -7  -5 3184.07  121.28
  -4   7   5 3724.48  127.43
   4  -7  -6 1099.47   56.02
   4  -7  -6 1445.40   57.96
   4  -7  -6 1139.77   55.32
  -4   7   6 1172.31   54.11
  -4   7   6 1252.75   60.16
   4  -7  -7 2121.29   84.05
   4  -7  -7 2032.25   81.50
  -4   7   7 2177.83   86.12
   4  -7  -7 2035.51   81.83
  -4   7   8   17.34   22.19
   4  -7  -8  -18.21   20.39
   4  -7  -8   17.95   24.37
  -4   7   8   20.62   21.69
   4  -7  -9  242.39   29.00
   4  -7  -9  326.83   27.08
  -4   7   9  171.95   27.82
   4  -7  -9  381.54   29.08
  -4   7   9  301.88   33.21
  -4   7  10  869.25   47.62
   4  -7 -10  858.48   47.37
   4  -7 -10  801.88   48.86
   4  -7 -10  909.70   45.59
  -4   7  10  960.41   45.76
   4  -7 -11  156.20   24.15
   4  -7 -11   69.31   25.13
  -4   7  11  240.52   33.82
  -4   7  11  166.13   20.10
   4  -7 -12 1499.71   74.07
   4  -7 -12 1309.96   78.81
   4  -7 -12 1625.92   66.53
  -4   7  12 1762.92   66.25
   4  -7 -13  184.45   23.92
   4  -7 -13  164.70   30.36
   4  -7 -13  126.21   36.32
  -4   7  13  116.95   30.00
   4  -7 -13  135.37   30.44
  -4   7  14  343.68   34.17
   4  -7 -14  311.00   38.66
   4  -7 -14  251.14   26.46
   4  -7 -14  336.71   38.21
   4  -7 -14  430.05   34.71
   4  -7 -15   57.53   30.92
  -4   7  15  132.87   24.42
   4  -7 -15  192.48   33.11
  -4   7  16  637.62   47.94
   4  -7 -16  615.06   42.56
  -4   8   0 1919.13   88.87
  -4   8   0 1937.29   75.75
   4  -8   0 2018.91   87.26
   4  -8   0 2048.55   84.93
  -4   8   0 2389.12   89.21
   4  -8  -1  600.63   35.99
   4  -8  -1  456.25   39.46
  -4   8   1  533.65   34.30
  -4   8   1  474.61   35.20
  -4   8   2 1707.36   71.61
   4  -8  -2 1907.69   74.77
  -4   8   2 1675.20   74.66
   4  -8  -2 1979.21   80.03
   4  -8  -2 1746.26   68.50
  -4   8   3   54.81   24.80
   4  -8  -3  114.38   27.54
   4  -8  -3  176.73   30.00
   4  -8  -3  163.17   31.00
  -4   8   4 5096.30  176.52
   4  -8  -4 4889.90  164.82
   4  -8  -4 4809.08  168.06
  -4   8   4 4686.65  164.58
   4  -8  -4 4631.70  164.78
  -4   8   5  515.95   33.71
   4  -8  -5  466.69   32.78
   4  -8  -5  489.50   36.40
   4  -8  -5  346.82   33.27
  -4   8   5  411.85   31.42
   4  -8  -6 4347.51  158.50
  -4   8   6 4512.22  169.55
   4  -8  -6 4939.62  168.25
   4  -8  -6 4496.17  166.04
  -4   8   6 4794.91  159.19
   4  -8  -7  136.24   29.27
   4  -8  -7  172.14   34.56
  -4   8   8  165.82   27.94
   4  -8  -8  275.96   32.27
   4  -8  -8  214.58   22.96
   4  -8  -8  346.98   35.22
  -4   8   8  146.51   33.36
   4  -8  -9 1034.84   52.98
  -4   8   9 1040.29   53.46
   4  -8  -9  976.35   47.59
   4  -8  -9  962.23   54.23
  -4   8   9 1037.44   53.56
   4  -8 -10  119.05   22.07
   4  -8 -10   68.93   23.26
  -4   8  10   27.37   29.22
  -4   8  10   36.42   28.80
   4  -8 -11   53.28   34.20
   4  -8 -11   45.78   21.54
   4  -8 -11  151.43   29.87
  -4   8  11   42.32   30.93
   4  -8 -12 1802.10   77.92
   4  -8 -12 1879.96   82.66
   4  -8 -12 2012.02   83.14
  -4   8  12 2287.70   94.24
  -4   8  12 1931.39   82.27
   4  -8 -13  213.17   30.07
   4  -8 -13  209.70   34.48
   4  -8 -13   70.04   23.21
  -4   8  13  166.56   35.41
  -4   8  13  206.66   28.25
   4  -8 -14  321.42   41.25
   4  -8 -14  376.44   28.55
   4  -8 -14  284.60   29.93
  -4   8  14  224.80   31.10
  -4   9   0 1205.88   49.04
   4  -9   0 1165.19   58.24
   4  -9   0 1049.74   58.21
  -4   9   0 1073.08   54.25
  -4   9   0  976.09   57.96
  -4   9   1 3309.10  118.99
   4  -9  -1 3120.39  119.95
   4  -9  -1 3214.65  128.37
   4  -9  -1 3038.83  120.38
  -4   9   1 3211.71  117.45
   4  -9  -2  100.62   24.36
   4  -9  -2   91.31   25.61
   4  -9  -2   17.13   28.05
  -4   9   2   13.27   31.10
   4  -9  -3 2468.02   94.05
   4  -9  -3 2235.31   98.37
  -4   9   3 2075.38   95.32
  -4   9   3 2428.83   95.49
   4  -9  -3 2404.21   99.24
   4  -9  -4 1610.35   74.85
  -4   9   4 1730.74   75.23
  -4   9   4 1757.07   70.52
   4  -9  -4 1560.25   71.90
   4  -9  -5   91.99   23.40
   4  -9  -5  184.87   36.73
  -4   9   5  168.58   35.84
   4  -9  -5  258.52   32.76
   4  -9  -6 1971.32   86.60
   4  -9  -6 2540.54   99.71
  -4   9   6 2094.08   86.06
  -4   9   6 2113.18   88.81
   4  -9  -6 2293.73   95.32
   4  -9  -7   64.54   28.24
  -4   9   7  -13.10   28.60
  -4   9   7  -30.98   24.68
   4  -9  -8  325.43   35.73
   4  -9  -8  174.07   27.29
  -4   9   8  289.14   38.19
  -4   9   8  307.79   31.34
   4  -9  -8  250.34   34.24
  -4   9   9  104.26   27.49
   4  -9  -9  233.99   36.87
   4  -9  -9  148.01   21.92
   4  -9  -9  199.81   33.56
  -4   9   9  256.17   33.71
  -4   9  10  636.47   42.92
   4  -9 -10  719.33   43.99
   4  -9 -10  861.74   52.68
  -4   9  10  817.01   47.54
   4  -9 -10  691.16   45.96
   4  -9 -11 1688.24   73.42
   4  -9 -11 1635.20   69.95
   4  -9 -11 1609.11   79.81
  -4   9  11 1498.59   76.26
   4  -9 -12  472.36   37.28
  -4   9  12  510.87   35.80
   4 -10   0 1080.13   62.86
   4 -10   0  994.95   56.50
  -4  10   0 1158.48   54.41
  -4  10   0 1130.09   57.13
   4 -10  -1  470.61   41.77
   4 -10  -1  452.98   41.47
  -4  10   1  318.75   38.84
  -4  10   1  513.22   37.98
   4 -10  -1  374.43   41.64
   4 -10  -2   50.64   30.31
   4 -10  -2   31.16   23.55
  -4  10   2   97.15   33.20
  -4  10   2  104.85   34.22
  -4  10   3   62.73   24.90
  -4  10   3    8.59   28.64
   4 -10  -3  -24.80   21.63
   4 -10  -4  797.77   62.15
   4 -10  -4  631.47   40.97
  -4  10   4  764.53   51.11
   4 -10  -4  620.04   48.30
  -4  10   4  669.35   42.76
  -4  10   5  152.91   27.54
  -4  10   5    7.24   24.71
   4 -10  -5  154.03   36.89
   4 -10  -5   69.98   32.84
   4 -10  -6 1741.69   84.51
   4 -10  -6 1966.09   84.32
  -4  10   6 1853.72   84.45
   4 -10  -6 2126.39   85.18
  -4  10   6 1933.78   85.90
   4 -10  -7  176.75   27.73
   4 -10  -7  130.14   27.60
  -4  10   7  239.68   35.95
  -4  10   7  154.77   29.23
   4 -10  -7  261.27   29.91
   4 -10  -8  857.28   46.93
  -4  10   8  803.05   46.05
  -4  10   8  565.23   41.49
   4 -10  -8  668.08   50.23
   4 -10  -8  531.50   46.45
   4 -10  -9  833.72   49.71
   4 -10  -9  654.78   51.38
  -4  10   9  627.60   44.09
   4 -11   0 1250.69   63.30
   4 -11   0 1249.38   73.37
  -4  11   0 1226.30   66.88
  -4  11   0 1417.43   67.43
   4 -11   0 1111.88   66.05
   4 -11  -1  186.72   29.95
  -4  11   1  124.00   32.57
   4 -11  -2  158.48   30.37
   4 -11  -2   86.89   28.28
  -4  11   2  273.53   38.07
   4 -11  -3  114.09   35.09
   4 -11  -3  349.42   36.90
   4 -11  -4   79.91   27.54
  -3  -8   1   38.66   23.78
   3   8  -1    4.90   25.36
   3   8  -1   58.80   22.01
   3   8  -2   54.73   26.34
  -3  -8   2   39.10   22.35
   3   8  -2  120.33   24.39
   3   8  -3 1771.81   77.98
  -3  -8   3 1652.54   71.64
   3   8  -3 1663.49   69.11
  -3  -8   3 1315.88   71.81
  -3  -8   4  162.53   31.58
  -3  -8   4  238.53   26.86
   3   8  -4  218.36   34.93
   3   8  -5  589.39   43.13
  -3  -8   5  585.85   44.13
  -3  -8   5  689.40   39.78
   3   8  -5  746.48   47.19
   3   8  -6  396.83   44.72
  -3  -8   6  338.18   27.95
  -3  -8   6  303.83   29.32
   3   8  -6  391.85   40.41
   3   8  -7  812.93   46.20
  -3  -8   7  682.13   47.76
   3   8  -7  729.15   45.99
  -3  -8   7  557.96   42.61
   3   8  -8 2683.64  109.38
  -3  -8   8 2567.50  105.19
  -3  -8   8 2418.85  112.17
   3   8  -8 2247.46  102.63
   3   8  -9  135.22   36.10
  -3  -8   9  159.16   26.97
  -3  -8   9  352.80   34.35
   3   8  -9  241.21   28.77
   3   8 -10 2309.02  101.25
   3   8 -10 2061.59   90.89
  -3  -8  10 2276.68  105.19
   3   8 -10 2150.49   98.00
  -3  -8  10 2014.40   88.27
   3   8 -11  821.54   56.36
  -3  -8  11  835.53   43.87
   3   8 -11  919.25   46.21
  -3  -8  11  715.16   46.90
   3   7  -1  -25.00   20.49
  -3  -7   1   45.91   21.46
  -3  -7   1  137.27   24.74
   3   7  -2  706.02   45.52
  -3  -7   2  642.02   41.93
   3   7  -2  678.17   43.75
   3   7  -3  775.44   47.28
  -3  -7   3  805.26   47.25
  -3  -7   3  832.25   40.59
   3   7  -3  922.25   48.20
   3   7  -4  360.84   31.12
  -3  -7   4  469.19   32.89
  -3  -7   4  269.65   32.84
   3   7  -4  416.00   36.55
   3   7  -5 1468.61   68.38
  -3  -7   5 1458.34   64.37
  -3  -7   5 1347.60   63.02
   3   7  -5 1193.13   65.59
   3   7  -5 1275.27   50.70
   3   7  -6  -37.11   24.01
   3   7  -6   61.35   17.93
   3   7  -7  334.50   32.31
   3   7  -7  267.88   29.55
  -3  -7   7  420.71   32.55
  -3  -7   7  163.96   31.33
  -3  -7   8  495.95   35.11
   3   7  -8  363.96   30.18
   3   7  -8  477.42   40.13
  -3  -7   8  456.09   32.47
   3   7  -8  417.71   35.88
   3   7  -9  214.58   37.67
   3   7  -9    8.46   23.00
  -3  -7   9  140.77   23.05
   3   7  -9   84.23   21.29
  -3  -7   9   -5.37   22.68
   3   7 -10  114.52   35.77
  -3  -7  10  140.07   23.56
   3   7 -11  239.36   36.37
   3   7 -11  251.73   33.57
  -3  -7  11  373.02   36.35
   3   7 -12  673.63   48.73
  -3  -7  12  910.92   53.20
  -3  -7  12  821.69   48.40
   3   7 -12  879.89   53.78
   3   7 -12  839.69   52.07
   3   7 -13   39.08   26.83
   3   7 -13  -62.23   20.59
  -3  -7  13  -19.68   21.93
  -3  -6   1  444.63   29.00
   3   6  -1  473.91   33.31
   3   6  -1  427.71   31.73
  -3  -6   1  465.65   35.32
   3   6  -2 6387.53  223.44
  -3  -6   2 6378.92  232.58
   3   6  -2 6955.63  226.94
   3   6  -2 6942.75  227.86
  -3  -6   2 6571.76  228.81
  -3  -6   2 7019.02  236.39
   3   6  -3    0.60   21.53
   3   6  -3   -5.43   21.13
   3   6  -3   53.82   12.92
  -3  -6   3  -18.93   20.60
  -3  -6   3   10.23   22.98
   3   6  -4 6721.91  218.74
  -3  -6   4 7313.04  240.29
   3   6  -4 6620.06  214.24
   3   6  -4 6632.67  225.54
  -3  -6   4 6925.42  230.62
  -3  -6   4 6089.41  218.72
   3   6  -5   77.71   23.10
   3   6  -5  -38.60   27.48
   3   6  -5   52.21   18.65
  -3  -6   5   14.99   24.46
  -3  -6   5   91.52   20.13
  -3  -6   5    6.06   10.78
  -3  -6   6 4095.61  150.09
   3   6  -6 3734.27  132.72
   3   6  -6 3978.60  136.79
   3   6  -6 3620.26  146.55
  -3  -6   6 4195.54  153.57
  -3  -6   6 3810.56  140.02
   3   6  -7   67.66   18.73
  -3  -6   7  -10.69   16.94
  -3  -6   7   77.62   15.95
  -3  -6   8  -17.39   15.47
   3   6  -8   35.50   28.21
   3   6  -8  -38.90   14.89
   3   6  -8   16.55   26.01
  -3  -6   8   28.35   17.40
   3   6  -9  107.85   30.08
   3   6  -9  -36.42   24.70
  -3  -6   9  142.54   26.68
  -3  -6   9   18.25   17.85
   3   6  -9   76.33   18.77
   3   6 -10 1518.12   68.44
  -3  -6  10 1436.66   62.86
   3   6 -10 1279.48   67.03
  -3  -6  10 1237.63   61.02
   3   6 -11  133.23   26.04
   3   6 -11  134.58   26.92
   3   6 -11  135.15   32.88
  -3  -6  11   81.00   18.40
   3   6 -12  321.96   29.39
   3   6 -12  362.09   42.12
  -3  -6  12  332.28   32.96
   3   6 -12  428.11   32.05
   3   6 -13  249.97   27.27
   3   6 -13  148.68   28.98
  -3  -6  13  141.61   33.20
   3   6 -13  241.70   35.79
   3   6 -14   14.99   31.03
  -3  -6  14  -12.46   20.96
   3   6 -14  -25.86   20.03
   3   6 -14  128.22   27.27
  -3  -6  14   37.99   17.91
   3   6 -15  321.23   47.01
   3   6 -15  272.62   32.30
  -3  -6  15  332.77   34.55
   3   6 -16  182.72   27.95
   3   6 -16   90.30   26.77
  -3  -6  16   54.94   41.89
  -3  -5   1 2012.21   79.82
   3   5  -1 1717.38   64.52
  -3  -5   1 2101.41   84.25
   3   5  -1 1957.35   69.61
   3   5  -1 1602.67   68.49
  -3  -5   1 1657.87   67.09
  -3  -5   2  806.09   46.85
   3   5  -2  908.33   40.01
  -3  -5   2  914.66   43.77
   3   5  -2  861.18   43.51
  -3  -5   2  909.04   39.20
   3   5  -2  887.37   36.76
  -3  -5   3   88.51   19.71
   3   5  -3   29.98   18.24
  -3  -5   4 5826.60  193.49
  -3  -5   4 6446.03  218.18
   3   5  -4 5450.25  196.84
  -3  -5   4 6017.34  197.26
   3   5  -4 6073.76  200.70
   3   5  -4 6056.83  198.10
   3   5  -5   65.61   14.48
   3   5  -5    2.65   20.02
   3   5  -5  145.22   27.97
  -3  -5   5   92.64   15.48
  -3  -5   5  104.29   13.18
   3   5  -6 3643.67  133.25
   3   5  -6 3357.56  125.92
  -3  -5   6 3769.16  122.73
   3   5  -6 3561.29  120.54
  -3  -5   6 3440.28  128.58
  -3  -5   6 3328.49  118.71
  -3  -5   7  137.68   22.04
   3   5  -7  207.76   26.12
   3   5  -7  215.63   20.61
  -3  -5   7  128.16   16.61
  -3  -5   7  251.88   19.40
   3   5  -7  158.44   25.33
  -3  -5   8 1857.17   77.58
   3   5  -8 1674.88   70.57
   3   5  -8 1716.69   71.14
  -3  -5   8 1828.34   77.84
  -3  -5   8 1949.77   67.16
   3   5  -8 1853.11   76.10
   3   5  -9 4705.37  160.42
  -3  -5   9 4472.45  163.01
   3   5  -9 4314.87  161.01
   3   5  -9 4784.04  159.10
  -3  -5   9 4440.78  153.75
  -3  -5   9 4343.15  151.60
   3   5 -10 4245.24  145.30
   3   5 -10 4058.72  162.02
  -3  -5  10 3893.74  149.60
  -3  -5  10 3831.72  144.76
   3   5 -10 3977.54  146.50
  -3  -5  10 4412.59  141.31
  -3  -5  11 4898.22  182.08
   3   5 -11 4905.14  176.89
   3   5 -11 5032.92  178.79
   3   5 -11 4877.16  181.82
  -3  -5  11 5496.58  180.20
   3   5 -11 5358.92  175.95
  -3  -5  12 4154.44  161.04
  -3  -5  12 4981.88  171.93
   3   5 -12 4670.00  161.97
   3   5 -12 4206.08  159.12
   3   5 -12 4742.11  173.73
   3   5 -12 4131.60  160.44
   3   5 -13  955.53   49.19
  -3  -5  13 1113.86   54.03
   3   5 -13  990.58   68.07
  -3  -5  13 1010.76   53.17
   3   5 -13 1026.65   51.42
   3   5 -13 1141.20   61.41
   3   5 -14  940.17   54.69
  -3  -5  14  770.79   46.57
  -3  -5  14  878.24   52.36
   3   5 -14  835.24   42.51
   3   5 -14 1079.11   56.80
   3   5 -14 1066.84   55.53
   3   5 -15   56.88   35.31
   3   5 -15   28.40   16.26
   3   5 -15   77.05   35.48
  -3  -5  15   35.45   22.95
  -3  -5  15   14.51   22.89
   3   5 -16   22.18   32.57
   3   5 -16  215.83   32.91
  -3  -5  16  168.63   27.58
   3   5 -17  169.59   30.06
  -3  -5  17   76.90   23.76
   3   5 -17  106.50   26.78
   3   4  -1   81.02    9.45
  -3  -4   1  155.54   17.35
   3   4  -1   64.17   21.79
   3   4  -1   66.96   18.47
  -3  -4   1   91.34    9.69
  -3  -4   1   84.81   21.49
  -3  -4   1   55.51   14.75
   3   4  -2 1653.76   52.53
  -3  -4   2 1509.72   64.24
   3   4  -2 1521.43   64.27
   3   4  -2 1402.15   57.09
  -3  -4   2 1315.19   52.16
  -3  -4   2 1586.75   59.50
  -3  -4   2 1396.47   51.63
  -3  -4   2 1694.26   61.85
   3   4  -3   99.52   21.18
   3   4  -3   97.20   27.55
   3   4  -3   76.72   12.74
  -3  -4   3  142.38   21.12
  -3  -4   3   70.64   14.73
  -3  -4   4 5199.21  176.48
   3   4  -4 5009.72  173.48
   3   4  -4 4983.01  172.79
   3   4  -4 5230.86  174.28
  -3  -4   4 5426.86  183.92
  -3  -4   4 5284.83  171.07
   3   4  -5 1410.39   54.00
   3   4  -5 1092.97   55.72
   3   4  -5 1368.91   50.86
  -3  -4   5 1220.32   49.22
  -3  -4   5 1083.06   51.51
  -3  -4   5 1305.76   48.80
  -3  -4   611869.16  405.29
   3   4  -612675.50  406.87
   3   4  -612526.70  401.37
   3   4  -612209.73  399.58
  -3  -4   613111.11  418.52
  -3  -4   612572.37  406.03
   3   4  -7 1455.86   60.72
  -3  -4   7 1355.53   54.66
  -3  -4   7 1331.34   57.17
   3   4  -7 1388.74   56.40
   3   4  -7 1175.14   50.89
  -3  -4   7 1429.48   51.47
   3   4  -8  790.85   39.70
   3   4  -8  645.70   46.98
  -3  -4   8  636.19   33.51
   3   4  -8  646.79   33.89
  -3  -4   8  741.07   37.62
  -3  -4   8  780.87   33.40
   3   4  -9 1797.78   79.24
  -3  -4   9 1855.85   70.81
   3   4  -9 1788.59   69.69
   3   4  -9 1928.89   68.67
   3   4  -9 1611.89   76.38
  -3  -4   9 1596.63   64.40
   3   4 -10 1062.29   48.37
   3   4 -10  944.55   41.17
   3   4 -10  979.43   46.46
  -3  -4  10 1121.90   47.25
   3   4 -10 1029.98   44.32
  -3  -4  10  951.64   47.04
   3   4 -11  530.18   32.69
   3   4 -11  417.40   31.66
   3   4 -11  460.11   31.34
  -3  -4  11  458.14   34.51
   3   4 -12   49.71   20.17
   3   4 -12    8.24   17.80
   3   4 -12   59.52   25.12
   3   4 -12   87.82   29.98
  -3  -4  12    6.63   24.05
  -3  -4  12   57.19   25.65
   3   4 -13 1128.23   52.46
   3   4 -13 1220.30   62.15
   3   4 -13 1337.67   62.80
  -3  -4  13 1186.41   59.96
  -3  -4  13 1386.84   58.52
   3   4 -14   41.73   24.19
   3   4 -14   40.62   25.36
   3   4 -14  113.20   29.25
  -3  -4  14   75.08   24.83
  -3  -4  14   59.67   19.56
   3   4 -15 3714.80  140.95
   3   4 -15 3621.12  150.35
   3   4 -15 3714.53  144.46
  -3  -4  15 4234.96  159.33
  -3  -4  15 4074.46  148.64
   3   4 -15 4088.07  156.92
   3   4 -16  224.17   31.43
   3   4 -16  252.58   28.68
   3   4 -16  178.02   27.52
  -3  -4  16  173.49   32.48
   3   4 -17 5264.96  217.76
   3   4 -17 5197.82  216.17
  -3  -4  17 5650.71  222.07
   3   4 -17 4741.03  185.11
   3   4 -18    6.98   25.14
   3   4 -18    6.09   27.88
  -3  -4  18  -53.64   24.77
   3   4 -19 2090.34  109.04
   3   3  -1 2763.55   88.76
  -3  -3   1 2685.10   89.28
  -3  -3   1 2618.17  102.66
  -3  -3   1 2687.54   98.73
  -3  -3   1 2704.77   92.54
   3   3  -1 2530.40   95.17
   3   3  -1 2652.64   90.36
   3   3  -2 4104.00  132.60
  -3  -3   2 4069.47  146.04
  -3  -3   2 3978.46  130.62
  -3  -3   2 4464.77  135.45
   3   3  -2 3827.07  142.58
  -3  -3   2 3991.85  138.30
  -3  -3   2 4345.14  144.94
   3   3  -2 4119.20  144.42
   3   3  -3 8431.04  251.99
  -3  -3   3 7896.48  269.65
  -3  -3   3 8349.51  254.36
  -3  -3   3 7537.91  253.83
  -3  -3   3 8595.63  275.35
  -3  -3   3 7715.44  249.82
   3   3  -3 8357.48  265.89
   3   3  -3 7465.19  253.87
   3   3  -4  871.63   39.83
  -3  -3   4  960.98   40.82
  -3  -3   4  927.26   34.58
  -3  -3   4 1009.50   35.93
   3   3  -4 1029.95   39.08
   3   3  -4 1040.37   43.35
  -3  -3   4 1069.41   40.80
   3   3  -513599.78  436.70
   3   3  -512282.42  424.39
  -3  -3   513422.75  433.44
  -3  -3   513025.44  410.30
   3   3  -513542.93  438.50
  -3  -3   513701.62  442.12
  -3  -3   513709.00  425.44
   3   3  -6  596.98   31.23
  -3  -3   6  522.16   28.15
  -3  -3   6  519.46   30.34
  -3  -3   6  500.88   23.94
   3   3  -6  484.07   28.80
   3   3  -6  570.92   28.48
  -3  -3   6  474.42   20.52
   3   3  -7 2465.53   95.37
   3   3  -7 2598.52   92.62
  -3  -3   7 2656.46   96.50
   3   3  -7 2750.80   98.53
   3   3  -7 2822.47   99.98
  -3  -3   7 2647.06   99.18
   3   3  -8  146.43   14.60
   3   3  -8  174.70   22.92
  -3  -3   8  194.66   21.84
  -3  -3   8  173.64   27.17
   3   3  -8  109.85   18.02
   3   3  -9 1006.76   48.44
   3   3  -9 1003.68   50.32
   3   3  -9 1112.87   47.06
  -3  -3   9 1122.06   45.50
  -3  -3   9 1134.60   49.69
   3   3  -9 1049.57   45.35
   3   3 -10 1517.88   62.34
   3   3 -10 1514.37   65.32
   3   3 -10 1465.15   61.80
  -3  -3  10 1669.68   64.39
  -3  -3  10 1545.72   64.40
   3   3 -10 1437.13   59.23
   3   3 -11 2523.27   89.34
   3   3 -11 2282.79   90.15
  -3  -3  11 2270.32   92.40
  -3  -3  11 2373.13   99.46
   3   3 -12 6306.63  218.20
   3   3 -12 6498.32  218.96
   3   3 -12 6430.91  223.93
  -3  -3  12 6420.54  224.72
  -3  -3  12 6513.74  226.09
   3   3 -12 6486.83  222.65
   3   3 -13  666.29   42.05
   3   3 -13  664.99   39.40
   3   3 -13  486.49   35.64
  -3  -3  13  707.34   44.63
  -3  -3  13  686.30   40.93
   3   3 -13  609.41   32.67
   3   3 -14 2024.44   77.07
   3   3 -14 1807.32   85.03
   3   3 -14 1969.43   82.59
   3   3 -14 1966.37   80.22
  -3  -3  14 1945.01   78.97
   3   3 -15   22.81   25.13
   3   3 -15   -1.13   33.57
   3   3 -15  -37.43   22.65
  -3  -3  15  -38.82   20.27
  -3  -3  15  -11.73   24.60
   3   3 -15   50.18   23.23
   3   3 -16  372.02   32.04
   3   3 -16  412.60   34.08
   3   3 -16  611.07   43.75
  -3  -3  16  468.82   36.35
  -3  -3  16  388.52   43.87
   3   3 -16  443.98   35.36
   3   3 -17   -6.03   30.55
   3   3 -18  167.84   33.17
   3   3 -18   43.81   24.67
   3   3 -18   93.82   28.89
   3   3 -19   62.71   33.41
   3   3 -19   61.81   28.74
   3   3 -19   44.31   24.11
  -3  -3  19   33.01   56.79
   3   2  -1 1670.05   68.84
  -3  -2   1 1703.09   61.20
  -3  -2   1 1866.70   61.45
  -3  -2   1 1757.47   70.37
   3   2  -1 1778.86   58.87
   3   2  -1 1888.15   59.68
   3   2  -1 1886.20   67.86
   3   2  -2 5376.27  197.09
   3   2  -2 5772.58  196.81
  -3  -2   2 5904.42  192.89
  -3  -2   2 5818.29  201.34
  -3  -2   2 6231.67  191.16
  -3  -2   2 6134.81  184.62
   3   2  -2 6220.04  189.13
   3   2  -2 6179.79  214.02
   3   2  -3 8444.57  275.04
  -3  -2   3 8517.86  276.74
  -3  -2   3 8309.71  283.54
  -3  -2   3 8485.31  275.05
  -3  -2   3 8783.41  265.20
   3   2  -3 8805.34  279.49
   3   2  -3 8382.29  277.40
   3   2  -3 9074.49  297.83
   3   2  -4   98.18   10.71
   3   2  -4  112.42   16.24
  -3  -2   4  122.10   14.47
  -3  -2   4  147.88   16.21
  -3  -2   4  161.87   14.21
  -3  -2   4  129.99    7.37
   3   2  -4  160.54   13.66
   3   2  -5 6508.80  215.60
   3   2  -5 5826.61  196.94
   3   2  -5 6389.19  197.33
  -3  -2   5 6580.62  223.19
  -3  -2   5 6095.76  212.14
  -3  -2   5 6252.96  198.59
   3   2  -5 6258.38  222.11
   3   2  -5 6200.66  207.10
   3   2  -6 1263.12   57.61
   3   2  -6 1603.98   63.82
   3   2  -6 1345.42   53.10
   3   2  -6 1485.76   60.61
  -3  -2   6 1483.27   58.11
  -3  -2   6 1498.21   57.33
   3   2  -6 1685.76   53.76
   3   2  -7 3860.20  126.45
   3   2  -7 3260.13  120.18
   3   2  -7 3628.60  131.24
   3   2  -7 3685.73  125.13
  -3  -2   7 3603.74  118.67
  -3  -2   7 3683.95  128.09
  -3  -2   7 3597.56  129.82
   3   2  -7 3727.67  123.09
   3   2  -8  328.37   19.35
   3   2  -8  404.51   19.43
  -3  -2   8  276.93   16.03
   3   2  -8  314.76   24.62
  -3  -2   8  441.93   30.34
  -3  -2   8  337.68   19.55
   3   2  -9 6856.56  229.43
   3   2  -9 7099.13  232.91
   3   2  -9 7077.40  228.27
  -3  -2   9 7094.63  230.28
  -3  -2   9 6405.27  221.99
   3   2  -9 6850.69  236.33
   3   2 -10 2072.99   75.50
   3   2 -10 2023.27   83.07
   3   2 -10 2234.85   83.06
  -3  -2  10 2181.15   74.63
  -3  -2  10 2142.37   78.78
   3   2 -10 2096.34   75.38
   3   2 -1111273.52  383.29
   3   2 -1110445.62  375.84
   3   2 -1111208.46  370.07
   3   2 -1111413.93  374.14
  -3  -2  1111570.76  367.47
  -3  -2  1111660.31  382.86
   3   2 -12 1116.55   44.89
   3   2 -12 1042.42   49.50
   3   2 -12  936.97   50.77
  -3  -2  12 1249.43   45.84
   3   2 -12 1192.81   53.50
  -3  -2  12  906.62   49.79
   3   2 -13 5143.56  179.43
   3   2 -13 4653.28  184.55
   3   2 -13 5053.00  189.80
  -3  -2  13 5111.67  180.45
  -3  -2  13 5482.26  191.26
   3   2 -13 4947.96  176.64
   3   2 -14   89.35   20.68
   3   2 -14   94.21   31.82
  -3  -2  14   25.18   22.86
   3   2 -15  -27.43   24.78
  -3  -2  15   87.52   23.27
   3   2 -15  -14.05   20.37
   3   2 -16   -5.70   20.21
   3   2 -16   13.45   25.04
  -3  -2  16  143.65   30.28
   3   2 -16  -19.04   16.58
   3   2 -17 1312.03   64.34
   3   2 -17 1740.70   70.85
   3   2 -17 1155.68   66.28
  -3  -2  17 1266.83   65.58
  -3  -2  17 1611.41   68.92
   3   2 -17 1600.82   70.02
   3   2 -18   44.91   27.38
   3   2 -18   66.07   24.38
   3   2 -18  -18.21   26.88
   3   2 -19 1469.25   62.27
   3   2 -19 1341.14   66.97
  -3  -2  19 1556.59   74.46
   3   2 -19 1172.28   63.39
   3   2 -20  437.91   40.38
   3   2 -20  410.88   38.37
   3   2 -20  360.07   33.12
  -3  -2  20  350.93   49.04
   3   1  -1 1522.21   58.00
   3   1  -1 1550.53   51.97
   3   1  -1 1576.78   56.81
  -3  -1   1 1553.81   52.83
  -3  -1   1 1380.85   55.64
   3   1  -1 1535.70   54.15
  -3  -1   1 1583.87   47.57
  -3  -1   1 1455.50   58.39
  -3  -1   1 1684.22   66.08
   3   1  -2 2831.13   96.12
   3   1  -2 3065.71   97.72
   3   1  -2 2886.64   98.90
  -3  -1   2 2923.60   95.75
  -3  -1   2 3048.64   98.74
  -3  -1   2 2919.98  103.16
   3   1  -2 3018.01  102.21
  -3  -1   2 2711.19  101.22
   3   1  -3 6556.76  215.44
   3   1  -3 6486.25  219.60
   3   1  -3 6416.46  230.90
  -3  -1   3 6613.82  206.56
  -3  -1   3 6611.02  212.18
   3   1  -3 6782.42  211.10
  -3  -1   3 6190.84  213.27
   3   1  -4 4368.22  160.67
   3   1  -4 4881.59  156.68
   3   1  -4 4714.76  172.14
  -3  -1   4 4649.14  155.75
  -3  -1   4 4957.05  157.01
  -3  -1   4 5074.40  152.07
   3   1  -4 5021.42  150.80
  -3  -1   4 4648.20  160.65
   3   1  -519842.45  630.37
   3   1  -519170.82  618.50
   3   1  -520309.29  624.28
   3   1  -519073.13  649.25
  -3  -1   520810.79  625.18
  -3  -1   518873.77  628.30
   3   1  -520701.24  618.05
  -3  -1   518892.54  607.67
  -3  -1   520882.16  636.19
   3   1  -617844.29  585.78
   3   1  -617880.38  587.27
   3   1  -618111.08  601.72
  -3  -1   617096.62  571.20
   3   1  -618828.48  565.25
  -3  -1   617798.34  570.80
  -3  -1   618130.42  571.44
   3   1  -7 9147.93  303.66
   3   1  -7 9501.77  305.29
   3   1  -7 9477.15  332.03
  -3  -1   7 9843.92  304.80
  -3  -1   7 9682.07  305.74
  -3  -1   7 9191.68  316.45
   3   1  -710144.50  300.40
  -3  -1   7 9246.24  313.21
   3   1  -810676.78  352.85
   3   1  -810431.29  338.88
   3   1  -811040.50  343.27
   3   1  -811251.01  364.91
  -3  -1   810521.49  343.24
  -3  -1   811233.86  344.16
  -3  -1   8 9558.10  350.65
  -3  -1   810765.38  334.08
  -3  -1   9  397.09   20.00
  -3  -1   9  484.68   21.43
   3   1  -9  458.04   25.10
   3   1  -9  442.80   22.55
   3   1  -9  407.14   23.31
  -3  -1   9  397.65   23.64
   3   1  -9  526.01   31.68
   3   1 -10 5439.70  195.09
   3   1 -10 5458.89  185.45
   3   1 -10 5284.27  173.34
  -3  -1  10 5405.05  187.82
  -3  -1  10 5293.58  189.89
   3   1 -10 4961.91  183.41
   3   1 -11 1685.13   70.01
   3   1 -11 1716.65   64.62
   3   1 -11 1618.26   66.29
  -3  -1  11 1490.21   62.26
  -3  -1  11 1664.62   71.46
   3   1 -11 1729.82   62.33
   3   1 -12  620.03   38.16
   3   1 -12  695.86   34.26
  -3  -1  12  544.38   37.30
   3   1 -12  687.63   41.38
   3   1 -13  777.52   41.56
   3   1 -13  795.05   44.35
   3   1 -13  776.61   38.32
  -3  -1  13  823.38   40.58
  -3  -1  13  602.40   42.45
   3   1 -13  730.29   44.41
   3   1 -14  848.67   41.71
   3   1 -14  786.62   46.77
  -3  -1  14  880.43   41.16
  -3  -1  14  722.71   42.71
   3   1 -14  721.24   40.49
   3   1 -14  861.93   42.09
   3   1 -15  157.67   24.97
   3   1 -15  331.41   30.73
  -3  -1  15  330.59   25.55
  -3  -1  15  200.50   26.14
   3   1 -15  378.39   33.03
   3   1 -15  194.77   31.30
   3   1 -16 3814.04  145.59
   3   1 -16 3837.32  140.83
   3   1 -16 3833.10  143.04
  -3  -1  16 3730.26  141.82
  -3  -1  16 4083.45  140.55
   3   1 -16 3489.23  137.59
   3   1 -17  335.61   28.52
  -3  -1  17  216.24   32.27
  -3  -1  17  458.20   39.24
   3   1 -17  447.91   40.93
   3   1 -17  424.00   35.51
   3   1 -17  342.27   36.32
   3   1 -18 3433.06  137.83
   3   1 -18 3511.96  142.84
  -3  -1  18 3804.22  143.66
   3   1 -19  448.14   41.28
  -3  -1  19  491.45   42.94
   3   1 -19  692.86   48.19
   3   1 -19  521.14   39.72
   3   1 -20  928.43   63.74
   3   1 -20  916.82   47.26
  -3  -1  20  981.48   66.64
   3   0  -1 7376.09  237.36
   3   0  -1 7017.95  244.58
   3   0  -1 7217.15  220.83
   3   0  -1 7276.35  222.06
   3   0  -1 7169.39  245.07
   3   0  -1 7437.38  229.66
   3   0  -1 7143.28  223.57
   3   0  -1 7032.02  231.09
  -3   0   1 7178.39  237.18
  -3   0   1 6831.72  229.38
  -3   0   1 6940.74  230.26
  -3   0   1 7325.10  230.94
   3   0  -2   70.70   10.62
   3   0  -2   91.35   10.22
   3   0  -2   55.87    7.07
   3   0  -2   99.53   13.07
   3   0  -2   65.07    3.97
  -3   0   2   33.96    8.11
  -3   0   2   88.15    7.05
  -3   0   2   67.76   11.75
  -3   0   3 1878.53   72.87
   3   0  -3 1997.14   63.22
   3   0  -3 1974.01   68.15
   3   0  -3 2094.89   75.20
   3   0  -3 1981.85   61.60
   3   0  -3 1969.14   77.56
  -3   0   3 1728.26   73.15
  -3   0   3 1985.55   63.74
  -3   0   3 1930.76   73.17
   3   0  -4 5735.10  185.82
   3   0  -4 5686.44  192.49
   3   0  -4 5728.28  179.98
   3   0  -4 5390.40  187.98
  -3   0   4 5631.34  185.35
  -3   0   4 5529.82  188.34
  -3   0   4 5754.87  182.68
   3   0  -4 5677.80  175.69
  -3   0   5 3100.84   96.25
  -3   0   5 3301.81   99.72
   3   0  -5 3250.58  105.07
  -3   0   5 3099.04  118.44
   3   0  -5 3081.92  107.25
   3   0  -5 3261.23  114.73
  -3   0   5 3035.70  111.39
  -3   0   5 2845.95  112.77
  -3   0   6 8386.02  253.37
   3   0  -6 8713.36  270.67
   3   0  -6 8492.08  265.61
   3   0  -6 8466.62  291.31
  -3   0   6 7527.93  275.22
  -3   0   6 7475.10  283.72
  -3   0   6 8154.26  262.21
  -3   0   7  727.06   36.89
  -3   0   7  630.53   26.26
  -3   0   7  589.52   27.66
   3   0  -7  626.77   26.54
   3   0  -7  519.94   31.70
  -3   0   7  633.48   21.68
   3   0  -8  465.14   32.94
  -3   0   8  418.03   23.67
  -3   0   8  420.90   19.85
   3   0  -8  530.92   27.72
   3   0  -8  399.61   23.31
  -3   0   8  568.22   34.63
  -3   0   9 1172.44   51.03
   3   0  -9 1275.07   48.47
   3   0  -9 1261.82   49.43
   3   0  -9 1310.91   53.05
  -3   0   9 1223.97   45.25
  -3   0   9 1328.34   47.02
  -3   0   9 1148.46   55.95
  -3   0  10 1008.10   45.35
  -3   0  10  898.00   40.15
   3   0 -10 1109.88   45.17
   3   0 -10 1064.65   45.42
   3   0 -10 1002.96   46.12
  -3   0  10 1101.99   51.12
  -3   0  10 1087.36   41.20
  -3   0  1112645.28  400.62
   3   0 -1112613.48  416.42
   3   0 -1113340.30  407.33
  -3   0  1112350.02  416.84
  -3   0  1112294.40  418.28
   3   0 -1111369.95  414.51
  -3   0  12  484.04   27.57
   3   0 -12  589.76   40.74
   3   0 -12  584.97   29.83
  -3   0  12  505.48   29.00
  -3   0  12  412.56   37.70
  -3   0  1322349.46  724.96
   3   0 -1322660.88  715.11
  -3   0  1323316.53  749.87
   3   0 -1322127.33  723.90
   3   0 -1321609.10  700.28
  -3   0  14 1502.10   67.49
   3   0 -14 1395.03   59.96
   3   0 -14 1572.61   67.14
   3   0 -14 1660.26   65.87
  -3   0  14 1380.86   62.32
   3   0 -15 2560.21  102.80
  -3   0  15 2638.95  108.53
   3   0 -15 2922.59  110.34
  -3   0  15 2851.98  107.26
   3   0 -15 2877.37  111.18
  -3   0  16  694.32   40.03
   3   0 -16  774.65   54.29
   3   0 -16  752.71   45.11
  -3   0  16  918.93   52.42
   3   0 -17  104.91   29.00
   3   0 -17   95.13   21.08
   3   0 -17   80.11   29.81
   3   0 -17  120.24   32.31
  -3   0  17  156.06   27.67
   3   0 -18  228.15   35.09
  -3   0  18  167.21   32.94
   3   0 -18  202.83   31.60
   3   0 -19  142.06   31.70
  -3   0  19  268.00   30.32
   3   0 -19  288.89   37.62
  -3   0  20   47.45   28.88
   3   0 -20   -1.39   28.20
   3   0 -20   37.81   30.07
  -3   1   0 6523.54  218.76
   3  -1   0 6823.97  219.80
   3  -1   0 6782.18  225.11
   3  -1   0 6539.59  229.66
   3  -1   0 7571.52  234.91
   3  -1   0 6771.40  234.37
   3  -1   0 6843.78  226.92
  -3   1   0 7015.63  220.54
  -3   1   0 6912.69  225.11
  -3   1   0 6689.75  217.11
   3  -1   0 7570.13  240.23
   3  -1  -135683.90 1138.60
   3  -1  -136191.03 1118.29
  -3   1   136823.20 1105.82
  -3   1   136072.31 1122.46
   3  -1  -135617.58 1126.95
   3  -1  -136277.89 1124.72
   3  -1  -135283.39 1135.74
   3  -1  -136871.77 1114.40
   3  -1  -136613.11 1109.38
   3  -1  -134194.79 1103.16
   3  -1  -135610.96 1139.25
  -3   1   134985.16 1112.44
  -3   1   215704.80  509.36
   3  -1  -216230.56  525.09
   3  -1  -215781.32  508.32
   3  -1  -216478.66  501.43
   3  -1  -215942.77  496.70
   3  -1  -216613.51  497.88
   3  -1  -216748.70  542.59
   3  -1  -215928.45  514.95
  -3   1   216047.63  522.79
  -3   1   215317.22  507.89
  -3   1   215666.41  506.04
   3  -1  -215587.07  514.21
   3  -1  -3 3251.65  147.78
   3  -1  -3 3446.15  132.27
   3  -1  -3 3412.55  129.82
  -3   1   3 3444.16  122.44
  -3   1   3 3669.52  134.02
  -3   1   3 3493.21  125.52
  -3   1   3 3691.63  117.52
   3  -1  -3 3582.20  121.33
   3  -1  -3 3701.54  133.88
   3  -1  -3 3645.47  129.07
  -3   1   418595.70  575.79
   3  -1  -418669.75  593.75
   3  -1  -418016.71  595.56
  -3   1   417831.09  594.19
  -3   1   418892.76  586.25
  -3   1   419106.23  587.01
   3  -1  -418201.20  587.35
   3  -1  -5 9313.80  312.62
   3  -1  -5 8341.58  315.49
  -3   1   5 9307.54  295.26
  -3   1   5 9621.48  284.18
  -3   1   5 9299.65  292.99
  -3   1   5 9460.27  299.29
   3  -1  -5 9241.97  304.99
  -3   1   5 9528.75  282.96
   3  -1  -6  473.21   25.58
   3  -1  -6  580.29   26.84
   3  -1  -6  519.64   26.49
  -3   1   6  555.73   27.26
  -3   1   6  586.33   27.15
  -3   1   6  533.85   22.82
   3  -1  -6  588.91   19.87
  -3   1   6  482.98   19.47
  -3   1   7 4489.10  137.43
   3  -1  -7 4312.73  138.06
   3  -1  -7 3939.66  156.19
   3  -1  -7 4563.60  150.93
  -3   1   7 4248.46  147.16
  -3   1   7 4238.74  148.43
  -3   1   7 3894.51  140.83
   3  -1  -7 4443.44  148.41
  -3   1   8  376.51   25.19
   3  -1  -8  410.03   17.34
  -3   1   8  335.33   18.60
  -3   1   8  341.20   15.82
   3  -1  -8  420.62   25.86
   3  -1  -8  424.66   22.19
   3  -1  -8  294.15   23.90
  -3   1   9   80.19   15.30
   3  -1  -9  121.11   11.10
   3  -1  -9   59.04   15.19
   3  -1  -9  108.28   19.38
  -3   1   9   32.41   19.74
  -3   1  10 3273.34  113.92
   3  -1 -10 2928.05  105.08
   3  -1 -10 3243.21  113.86
   3  -1 -10 3335.33  104.95
  -3   1  10 2748.74  105.50
  -3   1  10 2906.78  106.77
   3  -1 -10 3009.35  105.02
   3  -1 -11  209.32   17.79
   3  -1 -11  134.67   25.58
   3  -1 -11  182.26   28.84
   3  -1 -11  123.48   23.47
  -3   1  11  196.67   20.13
  -3   1  12 6885.08  237.02
   3  -1 -12 6611.83  241.02
   3  -1 -12 7062.95  227.35
   3  -1 -12 6732.06  240.96
  -3   1  12 6959.32  237.85
   3  -1 -12 6415.55  223.19
  -3   1  13   54.18   16.77
  -3   1  13  208.36   29.99
   3  -1 -13   78.69   22.92
   3  -1 -13  140.91   17.84
   3  -1 -13   41.17   23.57
  -3   1  14  408.29   27.07
   3  -1 -14  368.26   34.24
   3  -1 -14  340.92   30.58
  -3   1  14  267.43   39.60
   3  -1 -14  365.37   24.40
   3  -1 -14  387.73   29.32
  -3   1  15   38.43   21.35
   3  -1 -15   74.41   28.75
   3  -1 -15    3.84   19.90
  -3   1  15   74.48   29.10
   3  -1 -15  134.05   26.07
   3  -1 -15   79.82   22.76
  -3   1  16 1394.06   67.78
   3  -1 -16 1339.79   58.46
   3  -1 -16 1311.88   62.87
   3  -1 -16 1098.27   53.43
   3  -1 -16 1152.36   53.96
  -3   1  16 1432.15   70.90
   3  -1 -17 1875.87   80.66
   3  -1 -17 2078.54   95.78
   3  -1 -17 2102.24   88.45
   3  -1 -17 2132.57   96.41
  -3   1  17 1904.49   88.62
  -3   1  17 1741.65   90.08
   3  -1 -18  734.92   42.80
  -3   1  18  769.78   41.77
  -3   1  18  803.05   55.83
   3  -1 -18  750.00   49.16
   3  -1 -18  875.18   51.15
  -3   1  19 1154.23   63.88
   3  -1 -19  919.37   45.81
   3  -1 -19  750.32   56.46
   3  -1 -20 1017.55   56.44
   3  -1 -20  933.09   66.27
  -3   1  20 1086.33   66.46
   3  -2   0 8065.50  261.15
   3  -2   0 7905.48  258.58
   3  -2   0 7427.67  254.89
   3  -2   0 7654.32  253.61
   3  -2   0 8024.30  253.63
   3  -2   0 7658.65  247.49
   3  -2   0 7951.05  254.55
  -3   2   0 7497.56  256.71
  -3   2   0 8035.49  246.24
  -3   2   0 8094.42  250.37
  -3   2   0 7861.70  260.27
   3  -2  -1 4388.14  153.44
   3  -2  -1 4499.75  148.92
   3  -2  -1 4429.99  147.59
   3  -2  -1 4530.18  153.97
   3  -2  -1 4315.82  144.57
   3  -2  -1 4400.80  156.98
   3  -2  -1 4462.64  160.86
   3  -2  -1 4427.13  146.77
   3  -2  -1 4554.45  156.86
  -3   2   1 4341.59  147.59
  -3   2   1 4325.84  140.24
  -3   2   1 4240.94  141.63
   3  -2  -2 1006.99   43.20
   3  -2  -2  958.94   40.27
   3  -2  -2  968.18   36.63
   3  -2  -2  984.28   39.75
   3  -2  -2  898.39   40.65
  -3   2   2 1000.83   37.39
  -3   2   2 1065.75   35.07
  -3   2   2  973.81   33.79
  -3   2   2 1005.63   38.68
  -3   2   2  916.74   44.22
   3  -2  -2  977.06   39.16
   3  -2  -2 1091.28   41.82
   3  -2  -3 7216.71  235.31
   3  -2  -3 7418.41  237.11
   3  -2  -3 7321.37  229.69
   3  -2  -3 7275.19  231.62
   3  -2  -3 7042.71  238.65
   3  -2  -3 6895.61  227.36
  -3   2   3 7650.58  246.88
  -3   2   3 7087.29  253.37
  -3   2   3 7257.99  241.77
  -3   2   3 7263.95  242.39
  -3   2   3 7098.39  250.23
  -3   2   3 7515.73  230.59
   3  -2  -4 9969.77  331.30
   3  -2  -410538.61  328.85
   3  -2  -410106.84  347.34
  -3   2   410344.10  346.79
  -3   2   410850.35  324.77
  -3   2   410559.05  342.54
  -3   2   410568.95  334.24
  -3   2   410548.78  356.46
   3  -2  -410455.25  329.50
   3  -2  -534708.93 1070.56
   3  -2  -534930.41 1090.76
  -3   2   534613.93 1109.70
   3  -2  -534034.48 1082.92
   3  -2  -534857.27 1083.75
   3  -2  -535796.79 1149.90
  -3   2   535718.83 1081.55
  -3   2   535514.54 1108.45
  -3   2   533365.26 1096.46
   3  -2  -6 6329.97  216.66
   3  -2  -6 6983.34  215.89
   3  -2  -6 6896.37  224.25
   3  -2  -6 6872.53  238.66
  -3   2   6 6455.61  224.09
  -3   2   6 6643.18  222.69
  -3   2   6 7013.41  213.39
   3  -2  -6 6152.71  224.41
   3  -2  -743878.03 1405.58
   3  -2  -742381.47 1408.79
   3  -2  -746426.17 1446.93
  -3   2   745041.53 1436.04
  -3   2   745490.82 1395.04
  -3   2   745670.53 1417.19
   3  -2  -746696.43 1392.13
   3  -2  -8   99.84   10.07
   3  -2  -8  122.39   18.99
   3  -2  -8   17.64   15.97
  -3   2   8   91.57   10.41
  -3   2   8   90.48   21.50
  -3   2   8   86.04   16.86
   3  -2  -910859.52  375.01
   3  -2  -911371.08  351.80
   3  -2  -910855.29  360.11
   3  -2  -911350.25  358.52
  -3   2   910791.21  354.48
  -3   2   910102.70  351.31
  -3   2   911618.78  364.14
  -3   2  10  842.53   36.01
   3  -2 -10  708.64   36.51
   3  -2 -10  724.70   39.75
  -3   2  10  757.44   35.99
   3  -2 -10  751.02   34.19
   3  -2 -10  812.13   33.89
   3  -2 -11  522.08   38.21
   3  -2 -11  625.25   32.77
   3  -2 -11  560.64   35.73
  -3   2  11  505.74   31.55
   3  -2 -11  684.94   31.53
   3  -2 -12 1016.14   53.25
   3  -2 -12 1372.07   51.79
   3  -2 -12 1107.50   52.44
   3  -2 -12 1340.83   51.47
  -3   2  12 1267.08   52.16
  -3   2  12 1223.48   62.47
   3  -2 -13  198.57   32.79
   3  -2 -13  141.08   25.67
   3  -2 -13  173.00   25.32
  -3   2  13  162.15   20.37
  -3   2  13   54.53   31.57
   3  -2 -13  170.28   19.12
   3  -2 -14    8.15   18.29
   3  -2 -14   34.96   22.75
   3  -2 -14  135.12   21.57
   3  -2 -14   69.06   20.68
  -3   2  14   27.88   18.43
  -3   2  14  183.32   30.69
   3  -2 -15  141.67   29.97
   3  -2 -15  215.96   29.34
   3  -2 -15  261.61   28.95
  -3   2  15  132.77   23.08
  -3   2  15  322.62   37.22
  -3   2  16  408.74   38.60
   3  -2 -16  294.14   33.64
   3  -2 -16  422.44   30.94
   3  -2 -16  410.53   37.32
   3  -2 -17  605.32   48.89
  -3   2  17  633.62   45.32
   3  -2 -17  578.13   36.19
   3  -2 -17  665.50   41.56
   3  -2 -17  486.53   34.57
   3  -2 -18  341.25   32.38
   3  -2 -18  376.29   40.06
   3  -2 -18  271.42   25.02
  -3   2  18  241.32   21.67
  -3   2  18  185.84   34.86
   3  -2 -19 1080.99   57.51
   3  -2 -19  995.38   54.63
  -3   2  19 1131.60   67.30
   3  -2 -20  176.18   30.50
  -3   2  20  216.89   33.93
   3  -3   0  709.82   28.78
   3  -3   0  670.06   28.47
   3  -3   0  637.16   24.33
   3  -3   0  728.01   24.15
   3  -3   0  598.60   29.00
   3  -3   0  751.93   35.68
   3  -3   0  674.05   32.25
  -3   3   0  656.75   31.89
  -3   3   0  621.76   29.46
  -3   3   0  712.32   29.56
   3  -3  -1 8487.18  287.07
   3  -3  -1 8378.46  279.45
   3  -3  -1 9027.82  270.77
  -3   3   1 8619.31  277.32
  -3   3   1 8923.26  302.04
  -3   3   1 8871.90  283.49
  -3   3   1 8478.33  284.35
   3  -3  -1 9192.69  306.00
   3  -3  -2  794.57   40.10
   3  -3  -2  930.96   31.67
   3  -3  -2  914.55   46.83
  -3   3   2  839.19   35.42
  -3   3   2  872.22   35.46
  -3   3   2  826.70   34.18
  -3   3   2  982.61   36.85
   3  -3  -3  650.43   25.64
  -3   3   3  606.93   34.50
  -3   3   3  648.95   26.83
  -3   3   3  644.73   30.60
   3  -3  -3  574.62   24.87
  -3   3   3  644.79   27.50
   3  -3  -3  742.90   34.25
   3  -3  -4  249.77   14.18
   3  -3  -4  180.54   12.88
   3  -3  -4  210.55   17.84
  -3   3   4  219.55   14.53
  -3   3   4  230.74   12.50
  -3   3   4  179.58   16.80
   3  -3  -5 3297.81  120.76
   3  -3  -5 3668.46  111.98
  -3   3   5 3122.17  132.18
  -3   3   5 3292.26  112.87
  -3   3   5 3504.06  120.65
  -3   3   5 3345.68  127.84
   3  -3  -5 3140.60  118.26
   3  -3  -6 1330.50   61.39
   3  -3  -6 1113.06   41.33
   3  -3  -6 1080.61   49.78
  -3   3   6 1193.58   46.68
  -3   3   6 1054.36   42.60
  -3   3   6 1092.23   51.17
  -3   3   6 1142.80   43.58
   3  -3  -6 1141.28   47.61
   3  -3  -7 2466.37  103.33
   3  -3  -7 2372.44   89.95
  -3   3   7 2381.55   90.97
  -3   3   7 2299.26   81.03
  -3   3   7 2668.07   92.31
  -3   3   7 2530.29   94.08
   3  -3  -7 2576.19   86.36
   3  -3  -8  233.67   15.96
   3  -3  -8  197.48   22.13
   3  -3  -8  225.90   21.68
  -3   3   8  266.52   22.95
  -3   3   8  315.27   22.62
   3  -3  -8  239.80   22.45
  -3   3   8  179.79   16.13
   3  -3  -9 1054.23   47.96
   3  -3  -9  977.76   38.22
   3  -3  -9 1108.35   47.46
   3  -3  -9  939.68   49.37
  -3   3   9 1085.74   48.48
  -3   3   9 1111.50   46.15
   3  -3 -10 5717.64  184.53
   3  -3 -10 5685.59  187.60
   3  -3 -10 5568.88  207.90
  -3   3  10 5693.69  191.47
   3  -3 -10 5575.46  210.27
  -3   3  10 5522.96  199.23
   3  -3 -11 1085.12   51.00
   3  -3 -11 1026.01   49.74
  -3   3  11  977.20   42.10
  -3   3  11 1056.22   49.91
   3  -3 -11  916.14   43.86
   3  -3 -1210788.41  365.04
   3  -3 -1211267.48  353.24
   3  -3 -1210620.17  369.38
   3  -3 -1211098.98  364.29
  -3   3  1210960.90  367.03
  -3   3  1210434.86  358.98
   3  -3 -13 2090.40   86.15
   3  -3 -13 2351.43   92.40
   3  -3 -13 1943.38   90.05
  -3   3  13 2518.53   87.18
   3  -3 -13 2451.21   86.41
  -3   3  13 1927.09   88.57
   3  -3 -14 8226.62  299.72
   3  -3 -14 8457.22  296.46
   3  -3 -14 8452.29  297.80
  -3   3  14 8647.34  282.28
  -3   3  14 8763.45  294.96
   3  -3 -14 9072.90  304.08
   3  -3 -15 2203.42   84.53
   3  -3 -15 2179.39   93.34
   3  -3 -15 2126.99   79.83
  -3   3  15 2221.26   83.55
  -3   3  15 2174.75   89.15
   3  -3 -15 1869.12   80.34
   3  -3 -16 1317.63   55.94
   3  -3 -16 1106.81   57.82
   3  -3 -16 1289.32   64.65
  -3   3  16 1318.59   53.28
  -3   3  16 1260.75   68.71
   3  -3 -16 1344.22   56.10
   3  -3 -17  284.37   30.98
   3  -3 -17  411.18   29.60
  -3   3  17  457.97   29.58
   3  -3 -17  526.63   38.27
   3  -3 -18  144.22   28.54
   3  -3 -18  133.82   25.84
  -3   3  18  160.64   22.99
  -3   3  18  137.69   36.98
   3  -3 -18  -32.74   36.65
   3  -3 -19   73.10   25.36
  -3   3  19  -60.83   26.40
   3  -3 -19  -23.75   38.37
   3  -3 -20   18.53   30.11
  -3   3  20   66.08   34.53
   3  -4   016961.41  547.19
   3  -4   016712.28  529.84
  -3   4   016613.00  544.95
  -3   4   016910.48  553.42
  -3   4   016655.77  547.15
   3  -4  -117613.51  548.22
  -3   4   116940.29  578.94
  -3   4   117582.01  582.79
   3  -4  -117366.33  563.94
  -3   4   117261.91  555.36
   3  -4  -2 6972.16  231.32
   3  -4  -2 6945.58  226.69
  -3   4   2 6512.74  226.83
  -3   4   2 7319.87  237.05
   3  -4  -2 6793.76  244.20
   3  -4  -310572.64  386.43
   3  -4  -310705.38  367.94
   3  -4  -311291.85  375.45
  -3   4   310417.18  368.03
   3  -4  -311277.82  339.55
  -3   4   311229.12  363.78
   3  -4  -4 1247.02   54.63
   3  -4  -4 1180.74   51.33
   3  -4  -4 1238.92   44.05
   3  -4  -4 1303.35   53.98
  -3   4   4 1141.80   49.15
  -3   4   4 1292.95   54.13
  -3   4   4 1229.05   42.74
   3  -4  -5  167.90   15.16
   3  -4  -5  163.89   14.79
  -3   4   5  234.83   17.14
  -3   4   5  131.22   14.71
   3  -4  -5  171.16   18.15
   3  -4  -6 3481.58  121.55
   3  -4  -6 3254.79  113.95
   3  -4  -6 3727.67  128.17
  -3   4   6 3366.18  121.59
  -3   4   6 3322.52  128.33
   3  -4  -6 3613.45  113.79
  -3   4   6 3780.58  121.39
   3  -4  -7 2562.53  101.64
   3  -4  -7 2189.70   83.08
   3  -4  -7 2468.26   99.79
  -3   4   7 2491.84   87.18
  -3   4   7 2773.81   94.19
  -3   4   7 2574.15   91.53
   3  -4  -8  129.92   18.92
  -3   4   8  170.38   24.53
  -3   4   8  144.94   21.80
  -3   4   8  134.50   21.29
   3  -4  -9  736.56   42.38
   3  -4  -9  738.93   43.00
  -3   4   9  739.28   38.76
  -3   4   9  860.00   43.04
   3  -4  -9  777.98   32.60
  -3   4   9  820.66   39.70
   3  -4 -10   45.61   24.23
   3  -4 -10   -4.25   13.95
   3  -4 -10  136.39   26.63
   3  -4 -10   65.24   23.92
  -3   4  10   58.20   27.90
   3  -4 -11  549.31   36.84
   3  -4 -11  565.03   36.44
  -3   4  11  510.54   28.20
   3  -4 -11  424.77   30.91
   3  -4 -12  -16.48   20.87
   3  -4 -12   10.17   29.24
  -3   4  12   47.80   20.92
   3  -4 -12  -25.93   23.81
   3  -4 -13 1288.12   63.94
   3  -4 -13 1365.42   62.62
   3  -4 -13 1034.28   58.21
  -3   4  13 1176.86   58.61
   3  -4 -13 1310.15   59.64
  -3   4  13 1337.89   53.09
   3  -4 -14   20.94   22.27
  -3   4  14   54.53   28.93
   3  -4 -14   34.15   22.06
   3  -4 -14  148.67   22.31
   3  -4 -15  -11.03   26.92
   3  -4 -15   46.86   24.13
   3  -4 -15  152.06   23.43
   3  -4 -15  130.53   21.72
  -3   4  15    4.36   23.07
   3  -4 -16  290.31   31.10
   3  -4 -16  428.92   34.03
  -3   4  16  247.71   21.43
  -3   4  16  224.76   33.60
   3  -4 -16  234.44   28.28
   3  -4 -16  275.77   29.20
   3  -4 -17  535.46   31.74
   3  -4 -17  574.34   39.40
  -3   4  17  546.24   37.20
  -3   4  17  551.57   48.05
   3  -4 -18 1366.32   69.86
   3  -4 -18 1402.57   63.46
  -3   4  18 1616.28   75.89
  -3   4  18 1545.75   81.43
   3  -4 -19  700.16   45.68
   3  -4 -19  421.84   47.31
  -3   4  19  485.49   42.54
   3  -5   0 2886.61  108.33
   3  -5   0 3016.57  102.67
  -3   5   0 3087.07  104.73
  -3   5   0 2694.76  105.08
  -3   5   0 2920.93  106.71
   3  -5  -1 6618.19  222.99
   3  -5  -1 6554.16  218.81
  -3   5   1 6600.75  222.67
  -3   5   1 6696.37  212.49
  -3   5   1 6323.83  214.42
  -3   5   2 1089.55   48.58
   3  -5  -2 1200.08   49.12
   3  -5  -2 1332.52   48.20
  -3   5   2 1056.10   45.21
   3  -5  -3  279.05   20.05
   3  -5  -3  344.27   21.26
  -3   5   3  381.72   26.79
  -3   5   3  386.93   13.05
  -3   5   3  317.72   23.20
   3  -5  -3  364.75   22.73
   3  -5  -4 8146.86  274.75
   3  -5  -4 7904.14  267.37
   3  -5  -4 7853.82  263.21
  -3   5   4 8113.86  251.36
  -3   5   4 7916.42  270.38
  -3   5   4 7886.92  271.89
   3  -5  -5  111.04   22.65
   3  -5  -5  100.90   16.28
   3  -5  -5  101.25    9.58
   3  -5  -5  106.61   21.19
  -3   5   5  146.29   23.46
  -3   5   5   89.73   12.50
  -3   5   5  139.41   20.28
   3  -5  -619346.50  598.11
   3  -5  -618277.13  614.11
  -3   5   618875.77  605.35
  -3   5   619256.88  607.76
   3  -5  -618588.39  606.44
  -3   5   620369.57  625.24
   3  -5  -7  154.14   25.03
   3  -5  -7   23.02   21.63
  -3   5   7   54.81   22.68
  -3   5   7   72.90   19.54
   3  -5  -7   10.75   15.59
   3  -5  -815742.68  519.70
   3  -5  -816371.00  519.95
   3  -5  -816211.92  536.68
  -3   5   816202.18  537.16
  -3   5   816381.21  555.66
  -3   5   817804.84  549.91
   3  -5  -9 1127.52   51.66
   3  -5  -9 1049.39   54.84
  -3   5   9 1047.60   51.35
  -3   5   9 1052.16   47.47
   3  -5  -9 1110.13   44.26
  -3   5   9 1192.02   54.61
   3  -5 -10 2721.89  125.48
  -3   5  10 3024.91  109.71
  -3   5  10 2737.58  116.56
  -3   5  10 3045.53  107.53
   3  -5 -10 2945.55  107.57
   3  -5 -10 2943.01  101.95
   3  -5 -11  465.22   29.04
   3  -5 -11  476.16   38.30
   3  -5 -11  421.41   32.59
  -3   5  11  484.66   31.03
  -3   5  11  386.99   34.75
   3  -5 -12   73.53   26.61
   3  -5 -12  -27.94   27.21
   3  -5 -12   38.15   27.30
  -3   5  12  -40.40   26.62
   3  -5 -12   25.64   20.39
  -3   5  12   56.35   23.42
   3  -5 -13  -44.29   26.96
   3  -5 -13  -59.97   23.07
   3  -5 -13    3.05   34.80
   3  -5 -14  365.99   37.74
   3  -5 -14  545.55   36.98
   3  -5 -14  357.13   30.17
  -3   5  14  388.22   27.88
  -3   5  14  580.93   37.77
   3  -5 -15   40.85   22.38
   3  -5 -15   43.91   28.70
   3  -5 -15   68.16   25.15
  -3   5  15  -23.28   28.12
   3  -5 -15  -63.70   37.59
  -3   5  15   99.01   27.05
   3  -5 -16  263.04   47.54
   3  -5 -16   71.75   21.11
  -3   5  16  100.45   23.35
   3  -5 -17   -5.24   28.74
  -3   5  17  -22.09   25.52
  -3   5  17  -66.22   30.92
   3  -5 -18  220.97   28.84
   3  -5 -18   40.52   28.72
  -3   5  18  164.62   32.49
   3  -6   0 4476.10  164.65
  -3   6   0 4342.70  161.00
  -3   6   0 4108.52  149.81
  -3   6   0 4351.21  144.39
   3  -6   0 4256.33  146.21
   3  -6  -1 3892.58  137.59
  -3   6   1 3563.61  134.16
  -3   6   1 3939.18  135.77
  -3   6   1 3587.21  135.51
   3  -6  -1 3986.07  142.70
   3  -6  -2 1425.45   54.04
  -3   6   2 1272.77   51.02
  -3   6   2 1348.86   56.31
   3  -6  -3 5114.19  191.56
  -3   6   3 5606.34  182.88
   3  -6  -3 5850.17  194.58
   3  -6  -3 5210.24  181.20
  -3   6   3 5692.06  202.93
  -3   6   3 5244.40  168.96
  -3   6   3 5889.50  176.04
   3  -6  -4  253.98   32.35
   3  -6  -4  111.05   18.79
  -3   6   4  156.41    8.40
  -3   6   4   92.02   19.03
   3  -6  -5  308.56   30.58
   3  -6  -5  364.65   25.05
  -3   6   5  465.48   27.06
  -3   6   5  338.26   14.25
  -3   6   5  364.01   20.09
  -3   6   5  388.94   25.14
   3  -6  -5  276.21   29.22
   3  -6  -6 2220.60   81.18
  -3   6   6 1803.36   68.08
  -3   6   6 2145.84   79.98
  -3   6   6 2101.64   79.64
  -3   6   6 2209.14   83.61
   3  -6  -6 1990.75   84.71
   3  -6  -6 2202.67   76.73
   3  -6  -7  479.49   34.93
   3  -6  -7  512.95   29.07
   3  -6  -7  486.41   40.20
  -3   6   7  623.68   33.43
  -3   6   7  648.43   30.00
  -3   6   7  555.37   34.93
   3  -6  -8 1091.64   44.64
   3  -6  -8  973.82   43.73
   3  -6  -8  848.15   44.39
  -3   6   8  960.73   52.02
  -3   6   8  898.95   42.13
  -3   6   8  819.33   45.21
  -3   6   9   -2.85   26.88
  -3   6   9  144.30   22.36
   3  -6  -9   61.16   22.11
   3  -6 -10  350.22   31.65
   3  -6 -10  342.68   23.13
  -3   6  10  427.51   34.45
  -3   6  10  288.95   25.94
  -3   6  10  484.46   34.64
   3  -6 -10  279.17   35.83
   3  -6 -11 4633.99  167.97
   3  -6 -11 4357.65  154.73
   3  -6 -11 4177.41  156.23
  -3   6  11 4522.02  164.44
  -3   6  11 4291.02  155.27
  -3   6  11 4430.88  159.65
   3  -6 -12 2517.07   94.88
   3  -6 -12 2342.26   88.26
  -3   6  12 2389.31   98.81
  -3   6  12 2506.17  101.19
   3  -6 -12 2150.65   82.41
   3  -6 -13 3513.20  139.27
   3  -6 -13 3237.04  133.50
   3  -6 -13 3814.20  131.42
  -3   6  13 3734.33  133.64
  -3   6  13 3258.37  130.94
   3  -6 -13 3310.17  129.93
   3  -6 -14 3701.66  150.23
   3  -6 -14 3436.93  140.41
   3  -6 -14 3564.33  141.14
   3  -6 -14 3248.11  132.15
  -3   6  14 3754.89  145.01
  -3   6  14 3649.29  131.85
   3  -6 -15 1598.53   65.77
   3  -6 -15 1343.45   61.79
  -3   6  15 1377.79   71.89
  -3   6  15 1608.16   95.26
   3  -6 -15 1512.80   74.30
   3  -6 -15 1256.24   63.46
   3  -6 -16 1482.70   74.40
   3  -6 -16 1481.95   78.03
   3  -6 -16 1665.36   75.71
  -3   6  16 1831.96   74.42
  -3   6  16 1791.71   76.54
   3  -6 -17   87.82   36.72
   3  -6 -17   99.41   25.34
   3  -6 -17  252.55   30.64
  -3   6  17  119.47   27.87
  -3   6  17   86.32   27.19
   3  -7   0 6204.80  205.34
   3  -7   0 5795.06  214.13
  -3   7   0 6254.45  216.96
  -3   7   0 6236.46  208.02
   3  -7  -1 1922.99   81.69
  -3   7   1 1887.65   77.08
  -3   7   1 2107.94   71.21
   3  -7  -1 1927.90   74.11
  -3   7   1 2144.24   74.98
   3  -7  -2 8898.36  312.07
   3  -7  -2 9071.27  299.92
   3  -7  -2 8982.04  291.14
  -3   7   2 9271.71  309.62
  -3   7   2 9715.30  311.12
   3  -7  -3   77.81   24.81
  -3   7   3  120.46   23.28
   3  -7  -4  691.61   37.23
   3  -7  -4  687.05   34.27
  -3   7   4  687.60   39.73
  -3   7   4  816.69   28.89
  -3   7   4  652.45   36.54
   3  -7  -4  611.51   36.86
   3  -7  -5  654.63   37.64
   3  -7  -5  582.69   36.12
  -3   7   5  615.98   27.28
  -3   7   5  544.08   34.08
   3  -7  -5  624.24   41.09
   3  -7  -6 1097.27   51.93
   3  -7  -6 1207.76   54.28
  -3   7   6 1235.65   48.85
  -3   7   6 1153.93   46.87
  -3   7   6 1422.20   56.50
   3  -7  -6 1254.83   52.24
   3  -7  -7   84.69   21.22
   3  -7  -7   81.10   23.79
  -3   7   7   35.19   17.73
  -3   7   7   80.10   22.93
  -3   7   8 2342.54   94.91
  -3   7   8 2365.93   83.93
  -3   7   8 2381.88   94.74
   3  -7  -8 2190.25   94.75
   3  -7  -8 2164.16   90.92
   3  -7  -8 2341.75   87.81
   3  -7  -9 1181.62   60.86
  -3   7   9 1310.29   58.03
  -3   7   9 1386.27   58.09
   3  -7  -9 1454.04   64.95
   3  -7  -9 1466.86   65.66
  -3   7   9 1332.67   64.26
   3  -7 -10  487.62   55.93
   3  -7 -10  554.35   37.19
  -3   7  10  566.03   32.78
  -3   7  10  487.71   31.99
  -3   7  10  604.79   41.27
   3  -7 -10  498.09   46.33
   3  -7 -11   81.76   24.79
   3  -7 -11   29.95   25.99
   3  -7 -11  129.65   25.60
  -3   7  11   50.18   22.92
  -3   7  11   91.83   24.27
  -3   7  11   61.14   29.02
   3  -7 -12  134.37   33.74
  -3   7  12   34.96   26.09
   3  -7 -13   36.66   24.61
   3  -7 -13  -11.78   29.85
   3  -7 -13   61.04   18.60
   3  -7 -14  122.48   30.19
   3  -7 -14   -0.47   23.59
  -3   7  14  -64.75   22.78
   3  -7 -14  -28.55   25.04
   3  -7 -15  232.92   30.69
   3  -7 -15  182.38   32.72
  -3   7  15  297.48   40.13
   3  -8   0 3936.13  145.23
  -3   8   0 3857.90  144.21
  -3   8   0 4003.94  148.27
  -3   8   0 3852.40  135.66
   3  -8   0 4289.63  147.87
   3  -8  -1  182.59   26.44
  -3   8   1   53.75   26.37
  -3   8   1  100.73   20.91
  -3   8   1  134.44   26.34
   3  -8  -1  182.63   26.74
   3  -8  -2 1303.74   55.38
   3  -8  -2 1105.19   58.48
   3  -8  -2 1385.43   64.48
  -3   8   2 1382.65   60.21
  -3   8   2 1445.42   64.05
   3  -8  -3  267.79   30.51
   3  -8  -3  371.02   29.18
  -3   8   3  308.27   28.55
   3  -8  -3  256.69   32.33
   3  -8  -4  158.37   26.82
   3  -8  -4  262.36   28.12
   3  -8  -4  263.48   32.35
  -3   8   4  285.99   30.84
  -3   8   4  684.43   93.36
   3  -8  -5 2200.21  100.49
   3  -8  -5 2797.29  107.94
   3  -8  -5 2486.82  103.77
  -3   8   5 2515.98   95.52
  -3   8   5 2793.71  103.08
   3  -8  -6  879.08   46.31
   3  -8  -6  654.65   47.80
  -3   8   6  580.14   38.75
  -3   8   6  650.26   39.91
   3  -8  -6  725.22   40.45
   3  -8  -7 4917.08  177.67
  -3   8   7 4986.28  184.00
  -3   8   7 5205.39  186.17
   3  -8  -7 5273.77  179.21
   3  -8  -7 4572.25  177.02
   3  -8  -8 1316.42   74.63
   3  -8  -8 1572.06   61.11
   3  -8  -8 1309.36   60.87
  -3   8   8 1410.14   60.53
  -3   8   8 1478.40   65.40
   3  -8  -9 3384.67  125.08
   3  -8  -9 3374.52  130.61
  -3   8   9 3523.46  124.22
  -3   8   9 3238.67  129.57
   3  -8  -9 3374.81  127.34
   3  -8 -10  329.77   30.71
  -3   8  10  398.45   36.24
  -3   8  10  346.63   30.56
   3  -8 -10  381.45   31.29
   3  -8 -10  343.66   33.75
   3  -8 -11  -43.17   21.92
   3  -8 -11   35.32   22.58
  -3   8  11   63.68   27.20
   3  -8 -12  -75.68   23.97
   3  -8 -12  -27.74   20.41
  -3   8  12  -40.10   22.76
   3  -8 -13   47.58   25.70
   3  -8 -13  107.31   28.02
  -3   8  13   24.61   20.97
  -3   8  14   34.67   19.91
  -3   9   0 2719.15  106.05
  -3   9   0 2316.81   96.49
  -3   9   0 2343.02  102.22
   3  -9   0 2412.26   94.80
   3  -9   0 2660.52  104.59
   3  -9  -1    7.15   24.31
   3  -9  -1    2.05   28.78
  -3   9   1   48.30   23.49
  -3   9   1   30.70   26.56
   3  -9  -2 4847.14  184.36
   3  -9  -2 4916.61  194.38
   3  -9  -2 5415.85  193.56
  -3   9   2 5594.43  187.26
  -3   9   2 5154.94  176.74
   3  -9  -3  -37.96   29.31
   3  -9  -3   13.18   29.67
   3  -9  -3   57.72   32.83
  -3   9   3   -2.66   26.63
   3  -9  -4 1680.87   70.11
  -3   9   4 1317.00   70.63
   3  -9  -4 1459.31   71.86
  -3   9   4 1287.84   67.41
   3  -9  -4 1606.63   71.35
   3  -9  -5  522.50   38.12
   3  -9  -5  293.59   35.23
  -3   9   5  355.37   34.96
  -3   9   5  439.78   37.75
   3  -9  -5  452.67   38.41
   3  -9  -6   43.47   28.36
  -3   9   6   70.43   30.97
   3  -9  -6  218.80   31.69
   3  -9  -7  770.77   45.63
   3  -9  -7  792.56   57.26
  -3   9   7  638.48   46.33
  -3   9   7  740.63   42.34
   3  -9  -7  734.87   44.92
  -3   9   8  -89.96   27.83
  -3   9   8   84.91   23.71
   3  -9  -8  -16.79   34.97
   3  -9  -9  250.75   28.05
   3  -9  -9  177.95   33.39
   3  -9  -9  251.79   39.12
  -3   9   9  202.80   30.03
   3  -9 -10   -0.99   20.44
  -3   9  10    8.48   28.18
   3  -9 -11  596.71   36.77
   3  -9 -11  486.05   46.65
  -3   9  11  621.30   48.18
   3 -10   0  325.85   35.41
  -3  10   0  499.73   41.71
  -3  10   0  489.60   41.00
   3 -10   0  537.12   40.36
   3 -10  -1 1044.31   58.20
  -3  10   1 1365.01   67.62
  -3  10   1 1133.30   62.43
   3 -10  -1 1502.81   82.67
   3 -10  -1 1306.24   66.65
   3 -10  -2  120.38   33.40
   3 -10  -2  129.30   26.95
   3 -10  -2  112.01   35.60
  -3  10   2  144.44   31.10
  -3  10   2   34.43   24.47
  -3  10   3  842.54   49.46
   3 -10  -3  880.01   46.89
  -3  10   3  657.07   52.43
   3 -10  -4   81.88   32.88
   3 -10  -4   71.63   26.52
   3 -10  -4   69.25   25.80
  -3  10   4  -30.90   32.42
  -3  10   4  184.55   33.83
   3 -10  -5   63.90   25.56
   3 -10  -5   -1.12   22.54
   3 -10  -5   97.00   37.23
  -3  10   5  -46.21   26.36
   3 -10  -6   59.63   22.19
   3 -10  -6   86.12   30.27
  -3  10   6  157.74   33.30
  -3  10   6   52.33   30.27
   3 -10  -6  113.01   29.83
   3 -10  -7  607.31   36.10
   3 -10  -7  702.76   47.68
  -3  10   7  508.51   36.89
  -3  10   7  699.66   38.10
   3 -10  -7  670.83   45.24
   3 -10  -8  509.13   37.55
   3 -10  -8  275.39   35.21
   3 -10  -8  453.23   43.87
  -3  10   8  342.74   34.58
  -3  10   8  430.30   37.06
   3 -11   0  181.10   33.73
   3 -11   0  206.20   29.21
  -3  11   0  194.44   35.86
  -3  11   0  125.18   30.74
   3 -11  -1  530.08   41.98
   3 -11  -1  578.33   46.86
  -3  11   1  590.79   39.34
  -3  11   1  582.03   48.69
   3 -11  -1  568.91   42.86
   3 -11  -2  193.62   28.39
   3 -11  -2  220.64   34.53
  -3  11   2  188.26   35.85
  -3  11   2   41.21   28.35
   3 -11  -3   79.59   30.74
  -3  11   3   -5.98   29.70
   2   9  -1  905.90   52.61
  -2  -9   1  690.28   50.98
   2   9  -1  739.35   50.58
   2   9  -2  812.11   53.89
   2   9  -2  826.38   53.76
  -2  -9   2  569.46   50.19
  -2  -9   4 2594.87  100.78
   2   9  -4 2690.45  103.35
   2   9  -4 2367.71  103.02
   2   9  -5  288.47   34.61
   2   9  -5  341.72   39.80
  -2  -9   5  366.16   38.33
   2   9  -6 4174.93  155.89
  -2  -9   6 4227.88  167.49
   2   9  -6 4692.82  169.09
   2   9  -7  380.61   37.32
  -2  -9   7  412.43   41.18
   2   9  -7  484.45   40.03
   2   9  -8  828.20   54.56
   2   9  -8  859.50   52.53
   2   9  -8 1111.43   63.18
  -2  -9   8 1151.24   62.29
   2   9  -9  180.85   33.34
   2   9  -9  143.79   28.29
  -2  -9   9  231.41   32.87
   2   8  -1  839.39   48.32
  -2  -8   1  801.11   45.30
  -2  -8   1  697.16   45.94
  -2  -8   1  613.58   36.90
   2   8  -1  922.88   43.70
  -2  -8   2  -55.53   20.62
  -2  -8   2  -31.23   13.52
  -2  -8   2  -34.72   16.89
   2   8  -3  156.14   35.89
   2   8  -3  255.57   30.86
  -2  -8   3  248.55   23.40
  -2  -8   3  275.84   25.90
   2   8  -4   57.39   26.34
   2   8  -4   92.94   17.40
  -2  -8   4  103.84   19.89
  -2  -8   4  121.32   20.62
  -2  -8   4  127.46   21.60
   2   8  -4  164.62   28.59
   2   8  -5  356.79   31.65
   2   8  -5  221.65   22.40
  -2  -8   5  257.49   24.08
  -2  -8   5  166.61   23.54
  -2  -8   5  296.94   37.97
   2   8  -5  290.21   31.82
   2   8  -6  150.71   32.75
   2   8  -6  128.03   22.48
  -2  -8   6  113.11   30.55
  -2  -8   6  127.28   16.54
   2   8  -7  -15.08   28.18
   2   8  -7   47.27   19.53
  -2  -8   7   26.01   28.13
   2   8  -7  -20.81   28.80
   2   8  -8  201.58   30.57
   2   8  -8  146.94   21.84
  -2  -8   8  120.52   35.52
  -2  -8   8  161.75   21.72
   2   8  -9  267.10   38.05
  -2  -8   9  319.27   32.84
   2   8  -9  242.19   27.19
  -2  -8   9  335.73   27.04
   2   8  -9  369.68   34.10
   2   8 -10 2014.46   89.37
   2   8 -10 2073.23   81.48
  -2  -8  10 2099.50   83.48
  -2  -8  10 1820.46   86.84
   2   8 -10 1656.61   94.67
   2   8 -11 1793.80   78.64
   2   8 -11 1706.51   81.68
   2   8 -11 1739.77   86.11
  -2  -8  11 1744.11   84.99
  -2  -8  11 1910.19   91.57
   2   8 -12 2355.86   95.70
   2   8 -12 2501.04  118.39
   2   8 -12 2689.63   95.62
  -2  -8  12 2647.41  105.18
  -2  -8  12 2137.05  103.23
  -2  -8  13  845.83   47.36
  -2  -8  13  767.54   40.09
   2   7  -1  111.40   32.89
   2   7  -1   49.65   17.24
   2   7  -1  118.06   23.87
  -2  -7   1   83.17   24.82
  -2  -7   1   32.93   22.49
  -2  -7   1  185.27   30.87
   2   7  -2 2215.33   83.68
   2   7  -2 1959.95   78.67
  -2  -7   2 1828.18   77.83
  -2  -7   2 2059.90   79.28
  -2  -7   2 2067.66   83.98
   2   7  -2 1997.19   80.54
   2   7  -3   27.91   17.05
   2   7  -3  152.60   27.82
  -2  -7   3   71.44   25.57
  -2  -7   3  125.49   20.64
  -2  -7   3   98.82   21.16
   2   7  -3   17.42   24.84
   2   7  -4   90.46   21.99
   2   7  -4  145.87   20.91
   2   7  -4   84.00   24.23
  -2  -7   4   90.59   21.84
  -2  -7   4   51.90   21.29
  -2  -7   4   42.26   21.90
   2   7  -5   51.16   14.18
   2   7  -5   41.95   27.46
  -2  -7   5   26.94   23.75
  -2  -7   5   86.38   23.54
  -2  -7   5   83.23   23.35
   2   7  -5   28.53   22.58
   2   7  -6 2730.27  101.11
   2   7  -6 3062.42  117.90
  -2  -7   6 2902.72  112.98
  -2  -7   6 2736.78  114.24
  -2  -7   6 2872.15  105.12
   2   7  -6 2635.38  101.35
   2   7  -7  223.98   27.21
   2   7  -7  265.66   24.84
   2   7  -7  139.51   28.90
  -2  -7   7  274.98   28.63
  -2  -7   7  250.56   27.55
  -2  -7   7  266.53   28.69
   2   7  -8 1038.48   61.50
   2   7  -8 1122.59   51.38
  -2  -7   8 1246.48   53.04
  -2  -7   8  964.18   55.73
  -2  -7   8 1181.87   50.37
   2   7  -8 1335.67   63.20
   2   7  -9  106.38   24.96
   2   7  -9  166.80   20.53
  -2  -7   9  201.81   24.28
   2   7  -9  134.77   33.73
  -2  -7   9  182.17   20.60
   2   7 -10   41.16   20.35
   2   7 -10  158.02   31.09
  -2  -7  10   68.21   17.12
  -2  -7  10   -2.39   19.42
   2   7 -11  -27.19   25.41
   2   7 -11   32.55   36.26
  -2  -7  11  -37.66   20.94
  -2  -7  11  -15.90   23.39
   2   7 -12   83.58   29.87
   2   7 -12  232.55   29.32
   2   7 -13   47.36   24.44
  -2  -7  13   35.96   30.75
  -2  -7  13   12.35   16.32
   2   7 -14  264.01   33.62
   2   7 -14   25.41   43.22
  -2  -7  14  144.06   30.30
   2   7 -15  263.25   36.13
   2   7 -15  154.51   28.46
  -2  -7  15  203.99   26.98
   2   6  -1  -20.16   23.21
   2   6  -1    1.72   19.70
  -2  -6   1   33.15   19.37
  -2  -6   1   21.22   16.76
  -2  -6   1   99.62   17.31
  -2  -6   2 2422.08   84.93
  -2  -6   2 2353.86   86.08
  -2  -6   2 2353.32   89.34
   2   6  -2 2093.72   87.31
   2   6  -2 2429.36   86.67
   2   6  -2 2556.76   90.89
   2   6  -3 2692.19   97.84
   2   6  -3 2686.84   94.41
   2   6  -3 2813.64   96.65
  -2  -6   3 2346.87  103.30
  -2  -6   3 2815.03   96.61
  -2  -6   3 2707.72   96.25
   2   6  -4 1151.79   55.22
   2   6  -4 1511.08   58.84
  -2  -6   4 1298.79   57.24
  -2  -6   4 1387.33   55.12
   2   6  -4 1446.13   57.24
  -2  -6   4 1449.48   59.08
  -2  -6   5 7040.94  234.67
   2   6  -5 7368.05  244.87
   2   6  -5 7056.03  226.84
   2   6  -5 6913.09  238.88
  -2  -6   5 6666.40  240.10
  -2  -6   5 7207.47  233.50
   2   6  -6 5826.94  192.69
   2   6  -6 5771.68  193.16
   2   6  -6 5568.96  194.20
  -2  -6   6 5424.29  198.16
  -2  -6   6 5564.62  195.18
  -2  -6   6 5713.75  193.44
  -2  -6   7 6686.13  217.52
   2   6  -7 6789.31  217.14
   2   6  -7 6696.17  215.75
   2   6  -7 6463.91  217.17
  -2  -6   7 6115.20  224.61
  -2  -6   7 6163.95  225.11
   2   6  -8 3779.18  128.96
   2   6  -8 3514.76  125.28
   2   6  -8 3579.18  124.75
  -2  -6   8 3749.05  130.60
  -2  -6   8 3236.17  129.53
  -2  -6   8 3085.12  129.67
   2   6  -9 1301.00   61.47
   2   6  -9 1198.80   62.28
  -2  -6   9 1343.44   61.87
  -2  -6   9 1012.15   55.89
  -2  -6   9 1108.22   54.80
   2   6  -9 1311.70   60.35
   2   6 -10  522.48   35.36
   2   6 -10  479.44   33.91
  -2  -6  10  537.46   38.24
  -2  -6  10  428.37   32.35
   2   6 -10  484.57   41.43
  -2  -6  10  557.44   34.91
  -2  -6  11  132.96   23.50
   2   6 -11   47.13   23.47
  -2  -6  11  144.97   28.11
   2   6 -12  467.81   34.64
   2   6 -12  406.76   28.66
   2   6 -12  443.58   37.41
  -2  -6  12  357.34   33.47
  -2  -6  12  525.82   33.44
   2   6 -13  210.03   26.78
   2   6 -13  212.49   25.80
   2   6 -13  167.66   25.63
   2   6 -13  193.10   27.45
  -2  -6  13  169.18   29.87
  -2  -6  13  216.53   31.91
   2   6 -14  717.11   55.39
   2   6 -14  898.25   52.73
  -2  -6  14  925.18   52.17
  -2  -6  14 1142.82   58.64
   2   6 -15   15.77   28.76
  -2  -6  15  -36.14   26.16
  -2  -6  15   98.79   35.97
   2   6 -15  157.34   28.43
   2   6 -16  103.43   32.29
   2   6 -16  326.46   28.17
   2   6 -16  200.90   30.34
  -2  -6  16  183.71   28.95
  -2  -6  16  237.03   32.36
   2   6 -17 -104.82   27.73
   2   6 -17  -72.83   29.40
   2   5  -1  467.22   31.82
   2   5  -1  399.39   22.65
  -2  -5   1  314.73   26.19
  -2  -5   1  405.86   25.56
  -2  -5   1  335.15   22.72
   2   5  -2 5107.67  184.46
   2   5  -2 5213.37  174.55
   2   5  -2 5399.11  177.38
  -2  -5   2 5157.75  176.00
  -2  -5   2 5009.58  190.38
  -2  -5   2 5429.18  179.03
  -2  -5   3 3511.13  125.02
   2   5  -3 3388.82  127.00
   2   5  -3 3516.17  117.27
   2   5  -3 3503.85  124.08
  -2  -5   3 3571.66  124.06
  -2  -5   3 3383.22  114.30
   2   5  -4 3266.15  111.19
   2   5  -4 3305.25  117.54
  -2  -5   4 3459.67  126.91
   2   5  -4 3298.07  126.50
  -2  -5   4 3318.89  122.06
  -2  -5   4 3339.48  114.99
   2   5  -5   24.67   20.36
   2   5  -5   83.40   22.14
  -2  -5   5   60.38   20.37
  -2  -5   5  105.53   19.44
  -2  -5   5   52.49   16.15
   2   5  -6  947.86   45.09
   2   5  -6  862.08   38.72
   2   5  -6  926.72   48.66
  -2  -5   6  947.73   44.88
  -2  -5   6  985.81   44.29
  -2  -5   6 1006.50   38.35
   2   5  -7 1853.37   71.25
   2   5  -7 1679.48   63.56
   2   5  -7 1634.18   68.56
  -2  -5   7 1342.83   63.17
  -2  -5   7 1662.23   72.06
  -2  -5   7 1494.38   65.94
   2   5  -8   31.50   20.63
   2   5  -8  -16.04   15.18
   2   5  -8   88.95   24.81
  -2  -5   8    8.90   18.72
  -2  -5   8   92.62   16.81
   2   5  -9 3108.45  111.29
   2   5  -9 3058.37  113.42
   2   5  -9 3244.58  111.97
   2   5  -9 3036.00  105.68
  -2  -5   9 3033.67  110.90
  -2  -5   9 3292.62  119.71
   2   5 -10  290.25   24.30
   2   5 -10  261.72   32.64
  -2  -5  10  465.25   30.59
  -2  -5  10  470.21   31.57
   2   5 -11 4642.51  165.77
   2   5 -11 5238.86  183.06
   2   5 -11 4776.72  172.00
   2   5 -11 4597.53  172.50
  -2  -5  11 4418.47  177.13
  -2  -5  11 4915.64  170.21
   2   5 -12  507.14   28.91
   2   5 -12  639.08   44.34
   2   5 -12  387.81   35.85
  -2  -5  12  532.73   36.97
  -2  -5  12  615.61   35.78
  -2  -5  13 9218.51  318.52
   2   5 -13 9951.62  324.59
   2   5 -13 9692.87  326.00
   2   5 -13 9637.14  362.81
   2   5 -13 9591.85  321.37
  -2  -5  13 9934.51  334.19
   2   5 -14   60.11   28.96
   2   5 -14   69.04   27.23
  -2  -5  14   75.72   28.51
  -2  -5  14   88.15   30.53
  -2  -5  15 4242.31  174.69
   2   5 -15 4262.93  152.75
   2   5 -15 4010.80  169.46
   2   5 -15 3987.10  156.73
  -2  -5  15 4227.08  154.64
   2   5 -16   49.75   29.58
  -2  -5  16  -33.82   29.91
   2   5 -17  127.78   35.79
   2   5 -17  104.74   31.54
   2   5 -17  182.19   31.56
  -2  -5  17  145.54   29.14
  -2  -5  17  264.63   32.51
   2   5 -18  127.59   32.73
   2   5 -18  -60.64   26.64
  -2  -5  18   62.06   28.55
   2   4  -115527.02  511.50
   2   4  -116696.77  498.79
   2   4  -116103.85  498.90
  -2  -4   114753.24  491.79
  -2  -4   115566.02  513.72
  -2  -4   115766.29  512.90
  -2  -4   116975.93  515.04
   2   4  -2  279.68   23.12
   2   4  -2  325.59   18.81
  -2  -4   2  225.10   15.16
  -2  -4   2  329.90   20.82
  -2  -4   2  268.08   15.25
  -2  -4   2  265.44   18.98
   2   4  -3 2511.11   95.30
   2   4  -3 2755.76   89.45
  -2  -4   3 2730.51   93.19
   2   4  -3 2681.32   95.06
  -2  -4   3 2410.08   87.34
  -2  -4   3 2746.35   95.34
  -2  -4   3 2808.49  100.95
   2   4  -4  675.25   36.29
  -2  -4   4  772.41   36.80
  -2  -4   4  731.55   31.29
  -2  -4   4  652.80   29.69
   2   4  -4  570.50   32.96
   2   4  -4  696.15   27.51
   2   4  -5 2769.00   97.61
   2   4  -5 2820.60   98.39
   2   4  -5 2718.10   97.82
  -2  -4   5 2752.00  102.37
  -2  -4   5 3064.63   98.42
  -2  -4   5 3040.36  101.52
   2   4  -6 2370.06   93.40
  -2  -4   6 2997.09   92.26
   2   4  -6 2685.68   96.99
   2   4  -6 2978.96   96.65
  -2  -4   6 2697.88   93.71
  -2  -4   6 2389.42   93.84
   2   4  -7 5448.67  185.90
   2   4  -7 5496.16  190.28
  -2  -4   7 5386.77  178.28
   2   4  -7 5401.82  175.18
  -2  -4   7 5182.40  186.91
   2   4  -8 7037.45  228.71
   2   4  -8 7389.92  241.86
   2   4  -8 7196.41  235.24
   2   4  -8 6729.19  228.62
  -2  -4   8 6987.11  243.85
  -2  -4   8 6589.32  237.34
   2   4  -9 1739.55   58.91
   2   4  -9 1472.40   63.22
   2   4  -9 1644.41   62.39
   2   4  -9 1564.92   67.57
  -2  -4   9 1692.50   66.67
  -2  -4   9 1603.03   65.03
   2   4 -10 7563.04  235.36
   2   4 -10 7146.53  241.16
   2   4 -10 7340.09  244.89
   2   4 -10 7313.31  248.61
  -2  -4  10 6947.31  251.82
  -2  -4  10 7027.39  250.08
   2   4 -11  104.56   17.87
   2   4 -11  160.07   21.76
   2   4 -11  140.14   23.14
  -2  -4  11  126.06   23.32
  -2  -4  11   82.70   24.17
   2   4 -12  139.80   21.00
   2   4 -12   84.42   22.57
   2   4 -12  156.35   24.20
  -2  -4  12   20.59   23.37
  -2  -4  12  200.15   24.77
   2   4 -13  417.91   26.54
   2   4 -13  479.28   35.48
   2   4 -13  353.69   28.59
   2   4 -13  412.00   31.13
  -2  -4  13  342.65   29.74
  -2  -4  13  276.77   30.20
   2   4 -14   34.42   18.80
   2   4 -14  143.56   29.55
   2   4 -14  -19.93   25.84
   2   4 -14   33.56   23.86
  -2  -4  14  120.61   21.98
  -2  -4  14   36.76   30.53
   2   4 -15  206.18   27.24
  -2  -4  15  220.20   26.97
   2   4 -16 1335.38   60.93
   2   4 -16 1381.84   68.01
  -2  -4  16 1085.10   60.81
  -2  -4  16 1349.91   76.60
   2   4 -17  145.80   30.18
  -2  -4  17  118.58   33.98
   2   4 -17  100.62   26.25
   2   4 -18 2920.55  133.34
   2   4 -18 3422.34  141.10
  -2  -4  18 2958.85  132.36
   2   4 -18 2969.73  113.47
  -2  -4  18 3363.76  148.91
   2   4 -19  579.67   42.95
   2   4 -19  582.39   40.53
  -2  -4  19  440.07   38.46
   2   3  -1 1671.11   59.80
   2   3  -1 1580.98   61.64
   2   3  -1 1756.94   59.14
   2   3  -1 1521.46   59.28
  -2  -3   1 1665.98   58.48
  -2  -3   1 1465.53   60.41
  -2  -3   1 1520.84   61.22
  -2  -3   1 1663.79   61.15
   2   3  -2  528.33   23.65
   2   3  -2  501.53   28.21
   2   3  -2  537.33   27.23
  -2  -3   2  584.25   24.60
  -2  -3   2  563.58   27.73
  -2  -3   2  556.13   27.22
  -2  -3   2  526.17   21.22
  -2  -3   2  584.56   23.54
   2   3  -3 1137.81   50.72
   2   3  -3 1269.77   45.51
   2   3  -3 1308.74   49.82
  -2  -3   3 1219.54   47.28
  -2  -3   3 1186.70   49.57
  -2  -3   3 1125.33   47.90
  -2  -3   3 1289.55   43.40
  -2  -3   3 1269.96   45.88
   2   3  -4 2320.32   86.22
   2   3  -4 2253.34   85.94
   2   3  -4 2450.62   85.47
  -2  -3   4 2364.58   86.68
  -2  -3   4 2471.27   85.13
  -2  -3   4 2172.30   77.03
  -2  -3   4 2304.95   80.04
   2   3  -513241.14  419.89
   2   3  -512760.55  406.98
   2   3  -512607.38  429.21
  -2  -3   513004.95  419.47
  -2  -3   512808.20  416.26
  -2  -3   512672.09  410.96
   2   3  -6 6476.51  219.09
   2   3  -6 6812.30  218.30
   2   3  -6 6888.92  221.43
   2   3  -6 6324.38  224.27
  -2  -3   6 6811.57  218.60
  -2  -3   6 6633.00  218.15
  -2  -3   6 6376.91  207.04
   2   3  -711457.16  374.88
   2   3  -711290.05  367.15
   2   3  -711274.57  354.26
   2   3  -710969.00  391.47
  -2  -3   711565.38  365.32
  -2  -3   710570.34  362.77
   2   3  -8 2003.81   75.34
   2   3  -8 2163.47   83.66
   2   3  -8 1922.55   74.33
   2   3  -8 2260.07   83.82
  -2  -3   8 2377.46   83.89
  -2  -3   8 2415.88   82.88
   2   3  -9 7424.05  239.29
   2   3  -9 7502.59  248.58
   2   3  -9 7013.63  235.13
   2   3  -9 6736.29  242.58
  -2  -3   9 7525.56  242.36
  -2  -3   9 6961.09  249.92
   2   3 -10  143.18   16.93
   2   3 -10   57.32   18.60
   2   3 -10   62.99   16.00
   2   3 -10  205.51   28.40
  -2  -3  10  154.19   23.87
   2   3 -11  251.85   23.51
   2   3 -11  255.15   26.85
   2   3 -11  318.66   23.18
  -2  -3  11  258.45   28.03
  -2  -3  12  102.20   29.58
   2   3 -12   84.55   17.80
   2   3 -12  -36.29   24.66
   2   3 -12   93.04   25.87
   2   3 -13 6601.28  217.25
   2   3 -13 6928.70  236.99
   2   3 -13 6606.73  218.36
   2   3 -13 7115.32  240.08
  -2  -3  13 6046.96  226.42
  -2  -3  13 6239.52  227.96
   2   3 -14  355.71   35.36
   2   3 -14  403.11   30.09
   2   3 -14  209.83   26.53
  -2  -3  14  232.20   25.64
   2   3 -15 3410.87  136.52
   2   3 -15 3883.62  135.31
   2   3 -15 3624.68  140.68
   2   3 -15 3773.49  145.78
  -2  -3  15 3571.84  145.63
  -2  -3  15 3818.80  144.57
  -2  -3  16  266.64   33.72
   2   3 -16  362.38   34.93
   2   3 -16  214.38   29.56
  -2  -3  17  200.53   36.61
   2   3 -17  264.10   31.25
   2   3 -17  312.53   31.90
   2   3 -17  371.70   30.97
  -2  -3  17  376.03   38.26
  -2  -3  18  158.20   27.51
   2   3 -18  129.35   31.08
   2   3 -18  146.65   32.62
  -2  -3  18  109.98   36.84
   2   3 -19  392.60   41.14
   2   3 -19  481.10   44.02
   2   3 -19  325.18   29.97
  -2  -3  19  320.38   43.00
  -2  -3  19  333.27   46.01
   2   3 -20   75.85   33.07
  -2  -3  20  180.54   39.53
   2   2  -140121.44 1309.24
   2   2  -142421.98 1287.20
   2   2  -139963.94 1308.29
   2   2  -143733.59 1281.41
   2   2  -140822.01 1289.31
  -2  -2   141648.97 1285.56
  -2  -2   141427.47 1296.61
  -2  -2   142203.66 1304.48
  -2  -2   142540.75 1304.74
  -2  -2   140113.17 1316.80
   2   2  -217156.17  567.41
   2   2  -217673.53  554.02
   2   2  -217503.75  547.67
   2   2  -217924.34  557.48
  -2  -2   217462.80  537.75
  -2  -2   217342.32  556.78
  -2  -2   216615.85  557.23
  -2  -2   217686.36  540.07
  -2  -2   216685.00  552.45
   2   2  -3 8830.45  282.48
   2   2  -3 8510.83  279.77
   2   2  -3 8533.00  275.40
   2   2  -3 8592.02  279.26
  -2  -2   3 8782.10  287.19
  -2  -2   3 8485.89  285.84
  -2  -2   3 7859.37  279.01
  -2  -2   3 8800.08  271.83
  -2  -2   3 8642.87  276.85
   2   2  -4 9216.34  313.92
   2   2  -4 9656.54  294.42
   2   2  -4 8924.48  302.06
   2   2  -4 9808.21  310.02
   2   2  -4 9137.38  310.21
  -2  -2   4 8800.52  300.59
  -2  -2   4 9320.32  302.68
  -2  -2   4 9206.95  302.53
  -2  -2   4 9484.27  294.32
   2   2  -5 2861.60   92.97
  -2  -2   5 2693.17   88.56
   2   2  -5 2887.85  101.83
  -2  -2   5 2655.72   89.76
   2   2  -5 2607.69   96.02
   2   2  -5 2543.88   96.45
   2   2  -5 2565.63   90.50
   2   2  -6 1436.69   55.86
  -2  -2   6 1325.25   53.60
   2   2  -6 1426.13   55.50
   2   2  -6 1416.06   53.49
   2   2  -6 1344.36   54.01
   2   2  -6 1500.53   55.70
  -2  -2   6 1236.61   54.89
  -2  -2   6 1485.86   54.27
   2   2  -7 1173.84   52.92
   2   2  -7 1301.66   48.98
   2   2  -7 1461.43   51.05
   2   2  -7 1314.32   59.10
  -2  -2   7 1214.10   46.95
  -2  -2   7 1370.66   50.24
  -2  -2   7 1349.16   51.50
  -2  -2   7 1172.26   41.79
   2   2  -8 1341.33   61.58
   2   2  -8 1306.95   51.54
   2   2  -8 1202.28   53.56
   2   2  -8 1393.09   51.83
  -2  -2   8 1475.63   55.89
  -2  -2   8 1394.89   64.64
   2   2  -9  346.17   20.76
   2   2  -9  267.37   24.99
   2   2  -9  412.61   24.89
   2   2  -9  263.10   30.58
  -2  -2   9  378.19   26.23
  -2  -2   9  427.63   29.26
   2   2 -10 2274.74   86.12
   2   2 -10 1953.79   79.29
   2   2 -10 2247.74   81.92
   2   2 -10 1971.04   74.88
  -2  -2  10 1960.54   78.62
  -2  -2  10 2056.57   79.29
   2   2 -11  -22.94   21.42
   2   2 -11   45.66   20.27
  -2  -2  11    9.08   22.01
  -2  -2  11  -94.39   25.91
   2   2 -1210305.45  346.62
   2   2 -1210088.46  345.26
   2   2 -1210097.27  353.68
   2   2 -1210830.98  350.91
  -2  -2  1210214.70  346.20
  -2  -2  12 9873.91  353.80
   2   2 -13   10.08   16.78
   2   2 -13   18.07   20.59
  -2  -2  13  104.42   25.38
  -2  -2  13   19.82   27.73
   2   2 -14 7408.57  273.19
   2   2 -14 7397.77  259.22
   2   2 -14 7676.83  274.36
   2   2 -14 7737.52  268.09
  -2  -2  14 7604.16  260.74
  -2  -2  14 7707.68  277.43
   2   2 -15 1464.74   61.02
   2   2 -15 1330.88   63.86
   2   2 -15 1407.57   65.38
   2   2 -15 1496.75   62.36
  -2  -2  15 1347.61   64.37
  -2  -2  15 1401.57   63.75
   2   2 -16 1821.86   77.87
   2   2 -16 1955.92   85.97
   2   2 -16 1923.57   81.34
   2   2 -16 2143.61   81.91
  -2  -2  16 1708.18   75.01
  -2  -2  16 1945.18   82.82
   2   2 -17  107.34   34.06
   2   2 -17  -33.70   26.12
  -2  -2  17   59.28   25.24
   2   2 -18   40.13   28.54
   2   2 -18   59.35   33.23
   2   2 -18   69.92   22.44
  -2  -2  18   26.64   24.17
   2   2 -19  551.91   44.31
   2   2 -19  548.84   49.39
   2   2 -19  494.39   38.50
  -2  -2  19  464.58   38.11
  -2  -2  19  536.38   48.04
   2   2 -20  281.86   37.58
   2   2 -20  405.39   40.34
  -2  -2  20  598.13   51.85
   2   1  -1 1038.27   45.91
   2   1  -1 1007.55   40.87
   2   1  -1 1092.01   39.48
   2   1  -1 1074.29   42.46
   2   1  -1 1067.80   42.70
  -2  -1   1 1084.08   50.93
  -2  -1   1 1041.43   40.62
  -2  -1   1 1029.29   43.22
  -2  -1   1 1129.04   46.98
  -2  -1   1 1112.34   50.67
   2   1  -212340.33  395.59
   2   1  -212850.12  399.26
   2   1  -212641.02  398.87
   2   1  -212377.15  400.51
  -2  -1   212658.62  411.79
  -2  -1   213069.70  409.43
  -2  -1   212623.54  400.86
  -2  -1   212084.47  406.08
  -2  -1   212694.40  385.80
  -2  -1   212760.54  391.78
   2   1  -3  334.16   20.15
   2   1  -3  359.55   19.61
   2   1  -3  311.25   15.01
   2   1  -3  372.56   19.13
   2   1  -3  324.07   14.34
   2   1  -3  293.12   22.70
  -2  -1   3  325.27   16.60
  -2  -1   3  353.15   16.70
  -2  -1   3  324.53   16.32
  -2  -1   3  354.50   21.31
  -2  -1   3  385.31   14.32
  -2  -1   3  321.66   18.75
   2   1  -4 2085.57   72.82
   2   1  -4 1862.60   73.20
   2   1  -4 1948.69   70.06
   2   1  -4 2057.91   67.37
   2   1  -4 1950.01   79.63
   2   1  -4 1803.70   73.55
  -2  -1   4 1931.53   72.31
  -2  -1   4 1904.68   66.56
  -2  -1   4 1868.11   66.72
  -2  -1   4 1949.41   62.54
  -2  -1   4 1934.20   84.79
   2   1  -512823.63  428.92
   2   1  -513094.58  408.94
   2   1  -513160.54  430.82
   2   1  -513944.43  422.55
   2   1  -514370.25  417.78
   2   1  -512614.02  432.41
  -2  -1   513239.98  424.73
  -2  -1   513084.26  420.38
  -2  -1   512471.57  430.04
  -2  -1   513182.89  422.92
  -2  -1   6 7499.65  238.78
  -2  -1   6 7513.26  243.54
  -2  -1   6 7037.81  246.18
   2   1  -6 7242.10  251.65
   2   1  -6 7381.13  237.04
   2   1  -6 7285.93  239.17
   2   1  -6 8127.79  241.92
   2   1  -6 6958.34  246.69
  -2  -1   6 7158.50  234.55
  -2  -1   715949.52  525.98
  -2  -1   716018.35  508.94
   2   1  -716085.80  517.64
   2   1  -715536.01  504.78
   2   1  -716627.02  501.76
   2   1  -715952.02  518.75
  -2  -1   716021.29  509.39
  -2  -1   716324.47  513.41
  -2  -1   8  692.03   36.91
   2   1  -8  760.24   33.68
   2   1  -8  648.63   33.40
   2   1  -8  757.59   31.05
   2   1  -8  703.59   35.59
  -2  -1   8  789.07   30.77
   2   1  -931005.18  982.86
   2   1  -931463.63  984.58
   2   1  -931893.02  990.81
   2   1  -931721.47  974.90
  -2  -1   928006.58  984.28
  -2  -1   932389.87  989.46
  -2  -1   931229.98  993.87
   2   1 -10  345.81   23.90
   2   1 -10  429.62   24.85
  -2  -1  10  387.08   26.57
   2   1 -1111899.89  401.93
   2   1 -1112140.73  394.52
   2   1 -1111639.36  408.87
   2   1 -1112034.42  399.00
  -2  -1  1111887.64  405.32
  -2  -1  1111952.45  390.50
   2   1 -12  197.43   22.91
   2   1 -12  194.54   21.56
   2   1 -12  230.35   24.92
   2   1 -12  227.58   25.68
  -2  -1  12  133.75   23.84
   2   1 -13   86.17   17.33
   2   1 -13  128.79   27.17
   2   1 -13   34.81   19.10
  -2  -1  13   31.11   24.77
  -2  -1  13   85.12   28.84
   2   1 -14  250.85   25.09
   2   1 -14  216.36   26.84
   2   1 -14  258.97   27.83
   2   1 -14  120.04   28.04
  -2  -1  14  290.87   23.00
  -2  -1  14  365.81   40.79
   2   1 -15  534.19   28.82
   2   1 -15  380.00   32.41
   2   1 -15  627.35   34.97
  -2  -1  15  542.12   34.00
  -2  -1  15  379.86   42.52
  -2  -1  16   95.30   33.57
   2   1 -16   56.73   16.64
   2   1 -16    3.84   23.58
   2   1 -16  132.96   22.41
   2   1 -17 1737.84   81.63
   2   1 -17 2003.17   89.25
   2   1 -17 1814.62   75.40
  -2  -1  17 1915.04   93.94
   2   1 -18  983.45   51.03
   2   1 -18  847.35   53.76
   2   1 -18 1017.40   49.87
  -2  -1  18  873.98   53.48
  -2  -1  18  941.29   55.16
   2   1 -19 1167.87   64.65
  -2  -1  19 1221.98   67.50
   2   1 -19 1317.78   65.28
   2   1 -19 1092.33   53.71
  -2  -1  19  992.82   54.38
   2   1 -20 1851.50   85.24
   2   1 -20 1433.46   75.13
  -2  -1  20 1372.35   64.04
  -2  -1  20 1499.43   75.64
   2   0  -113765.60  445.75
   2   0  -113206.08  439.27
   2   0  -113996.87  438.45
   2   0  -113839.65  428.60
   2   0  -114159.54  463.02
   2   0  -113903.27  424.95
   2   0  -113753.95  421.56
   2   0  -113674.43  436.47
  -2   0   113949.73  433.93
  -2   0   113450.16  424.51
  -2   0   113439.29  436.09
   2   0  -2  831.04   39.53
   2   0  -2  775.36   36.23
   2   0  -2  808.61   26.82
   2   0  -2  811.79   31.47
   2   0  -2  785.31   34.29
  -2   0   2  797.34   32.89
  -2   0   2  710.08   35.69
  -2   0   2  752.71   25.15
  -2   0   2  827.54   35.67
   2   0  -2  834.53   30.32
   2   0  -3  481.93   24.95
   2   0  -3  595.39   26.85
   2   0  -3  539.32   18.89
   2   0  -3  573.29   26.75
   2   0  -3  473.27   21.60
   2   0  -3  519.70   23.50
  -2   0   3  508.75   22.80
  -2   0   3  635.20   27.68
  -2   0   3  546.76   24.23
  -2   0   3  532.46   20.52
  -2   0   3  530.68   26.23
   2   0  -4  365.80   14.91
   2   0  -4  374.41   18.62
   2   0  -4  389.26   21.42
  -2   0   4  308.67   16.84
  -2   0   4  344.70   14.14
  -2   0   4  338.63   19.89
  -2   0   4  336.02   19.99
  -2   0   4  369.99   19.23
   2   0  -5  199.06   18.03
   2   0  -5  156.72   12.90
   2   0  -5  176.98   19.47
  -2   0   5  221.72   14.84
  -2   0   5  138.08   19.55
  -2   0   5  246.10   15.45
  -2   0   5  204.67   15.27
  -2   0   6 5526.45  178.05
   2   0  -6 5711.60  187.98
   2   0  -6 5315.77  197.35
   2   0  -6 5689.16  178.91
   2   0  -6 5775.28  187.74
   2   0  -6 5684.78  190.44
  -2   0   6 5505.35  189.79
  -2   0   6 5939.56  189.47
  -2   0   6 5862.97  206.67
  -2   0   6 5795.94  178.79
   2   0  -7  547.10   25.35
   2   0  -7  582.17   29.75
   2   0  -7  646.52   27.42
   2   0  -7  655.75   30.80
  -2   0   7  614.54   26.12
  -2   0   7  688.63   26.32
  -2   0   7  594.91   30.49
  -2   0   7  574.22   24.06
   2   0  -814342.74  489.74
   2   0  -815276.33  472.36
   2   0  -814968.35  472.26
   2   0  -814588.46  467.99
  -2   0   814154.44  472.57
  -2   0   814733.72  472.52
  -2   0   814265.24  478.06
   2   0  -9   60.32   13.99
   2   0  -9   54.87   18.38
  -2   0   9  100.63   15.95
   2   0 -10 2295.68   88.76
   2   0 -10 2399.49   82.40
   2   0 -10 2301.13   79.12
   2   0 -10 2427.75   87.75
  -2   0  10 2460.99   86.58
  -2   0  10 2212.47   82.83
   2   0 -11 1240.71   61.41
   2   0 -11 1328.30   50.57
   2   0 -11 1499.21   57.19
   2   0 -11 1304.27   56.03
  -2   0  11 1177.52   51.12
  -2   0  11 1223.10   61.02
   2   0 -12 6959.68  240.92
   2   0 -12 6979.76  224.95
   2   0 -12 6594.84  231.32
   2   0 -12 7141.54  225.98
  -2   0  12 6921.47  232.52
  -2   0  12 6720.99  236.99
   2   0 -13  138.18   20.79
   2   0 -13   67.36   24.37
   2   0 -13   73.72   26.78
  -2   0  13   92.62   32.05
  -2   0  14 4234.77  161.57
   2   0 -14 5077.28  164.80
   2   0 -14 4943.69  164.78
   2   0 -14 4589.76  153.69
   2   0 -14 4635.24  162.47
  -2   0  14 4647.13  170.50
   2   0 -15 4355.44  139.82
   2   0 -15 4072.43  149.74
   2   0 -15 4184.24  159.75
   2   0 -15 3986.56  141.10
  -2   0  15 4150.30  153.09
  -2   0  15 3783.57  145.06
   2   0 -16 6878.86  245.59
   2   0 -16 6453.23  249.26
   2   0 -16 6775.48  249.30
   2   0 -16 6315.60  225.34
  -2   0  16 6204.94  238.16
  -2   0  16 6777.29  240.56
   2   0 -17 3092.03  126.02
   2   0 -17 3485.66  135.92
   2   0 -17 3304.64  133.24
   2   0 -17 3324.79  121.25
  -2   0  17 3847.88  133.98
   2   0 -18 1479.73   69.67
   2   0 -18 1349.19   63.10
   2   0 -18 1352.77   72.65
   2   0 -18 1289.84   57.13
   2   0 -19   75.88   33.34
   2   0 -19  137.98   28.47
   2   0 -20   22.76   36.45
   2   0 -20  140.55   31.23
  -2   0  20   28.65   37.60
   2  -1   0 2461.93   82.91
   2  -1   0 2470.41   85.89
   2  -1   0 2476.27   77.64
   2  -1   0 2389.42   83.54
   2  -1   0 2503.12   85.32
   2  -1   0 2530.53   84.06
  -2   1   0 2499.18   81.48
  -2   1   0 2431.90   83.37
  -2   1   0 2380.49   78.52
  -2   1   0 2398.83   83.02
  -2   1   0 2486.89   82.68
  -2   1   0 2469.91   85.48
   2  -1  -199999.00 2971.87
   2  -1  -194695.75 2962.90
   2  -1  -195411.13 2992.64
   2  -1  -197037.19 2971.74
   2  -1  -195759.36 2948.07
   2  -1  -198813.92 3025.30
  -2   1   193112.60 2966.59
  -2   1   196113.78 2955.95
  -2   1   199547.73 3008.78
   2  -1  -236310.64 1113.84
   2  -1  -235178.25 1100.28
   2  -1  -235548.57 1077.04
   2  -1  -235522.87 1093.24
   2  -1  -233491.84 1096.12
   2  -1  -235177.38 1151.52
   2  -1  -235942.46 1111.09
  -2   1   235019.05 1127.34
  -2   1   234837.25 1118.15
  -2   1   236368.44 1081.86
  -2   1   234016.33 1087.62
  -2   1   236316.87 1114.62
   2  -1  -340427.74 1212.13
   2  -1  -338450.60 1196.83
   2  -1  -340653.41 1188.89
   2  -1  -340109.44 1241.57
   2  -1  -338588.03 1235.40
   2  -1  -335148.87 1221.26
   2  -1  -334526.73 1233.18
  -2   1   338835.51 1207.79
  -2   1   340541.10 1223.34
  -2   1   340984.53 1197.28
  -2   1   339720.80 1233.84
  -2   1   340022.11 1241.86
  -2   1   4 4770.12  168.74
  -2   1   4 5000.70  156.67
   2  -1  -4 4743.48  165.86
   2  -1  -4 4732.49  169.72
   2  -1  -4 4953.61  153.99
   2  -1  -4 4889.45  159.91
   2  -1  -4 4946.99  170.12
   2  -1  -4 5069.83  167.69
   2  -1  -4 5043.39  180.08
  -2   1   4 4734.17  164.27
  -2   1   4 5086.91  165.37
  -2   1   4 5025.16  157.07
   2  -1  -515669.75  503.69
   2  -1  -515275.99  493.54
   2  -1  -515750.02  502.90
   2  -1  -515016.53  488.46
   2  -1  -515105.11  493.17
   2  -1  -514809.60  482.25
  -2   1   514759.49  499.67
  -2   1   514802.01  490.30
  -2   1   515824.28  469.94
  -2   1   515338.08  505.02
  -2   1   515882.29  515.46
   2  -1  -6  163.74   17.31
   2  -1  -6  237.86   12.45
   2  -1  -6  204.76   19.37
   2  -1  -6  213.73   18.57
   2  -1  -6  233.27   16.54
   2  -1  -6  172.62   16.55
  -2   1   6  201.43   15.51
  -2   1   6  247.33   11.82
  -2   1   6  277.44   18.20
  -2   1   6  230.89   16.51
   2  -1  -7 1081.25   46.21
   2  -1  -7 1312.28   47.25
   2  -1  -7 1274.12   50.81
   2  -1  -7 1201.60   45.73
  -2   1   7 1154.00   49.23
  -2   1   7 1073.56   43.23
  -2   1   7 1238.32   50.44
   2  -1  -8 1142.70   59.41
   2  -1  -8 1291.60   49.10
   2  -1  -8 1224.18   50.01
   2  -1  -8 1490.80   56.00
  -2   1   8 1354.95   57.42
  -2   1   8 1323.78   52.14
  -2   1   8 1236.37   55.01
   2  -1  -9   66.70   15.80
   2  -1  -9   74.22   14.23
   2  -1  -9   80.52   15.12
   2  -1  -9   71.24   16.04
  -2   1   9   83.70   16.18
  -2   1   9   71.67    9.68
   2  -1 -10   19.44   10.96
   2  -1 -10   -9.61   15.11
  -2   1  10   79.22   16.65
   2  -1 -11  659.16   39.97
   2  -1 -11  499.54   26.16
   2  -1 -11  662.99   34.29
   2  -1 -11  647.75   33.02
  -2   1  11  549.47   29.93
  -2   1  11  682.24   38.72
   2  -1 -12  420.66   33.43
   2  -1 -12  481.29   26.55
   2  -1 -12  368.90   27.95
   2  -1 -12  344.60   25.97
  -2   1  12  357.72   22.61
  -2   1  12  390.51   32.67
   2  -1 -13 2656.64  112.81
   2  -1 -13 2895.39  101.95
   2  -1 -13 2719.67  107.91
   2  -1 -13 2979.98   97.98
  -2   1  13 2578.22   99.04
  -2   1  13 3002.56  115.93
   2  -1 -14 1957.96   86.74
   2  -1 -14 2064.45   78.04
   2  -1 -14 1621.87   78.37
   2  -1 -14 1984.14   79.37
  -2   1  14 2168.26   79.58
  -2   1  14 1790.87   77.81
   2  -1 -15 3057.88  114.22
   2  -1 -15 2806.94  106.51
   2  -1 -15 3024.48  115.69
   2  -1 -15 3005.70  108.73
  -2   1  15 2840.26  114.50
  -2   1  15 2910.36  115.96
   2  -1 -16 2358.58   97.69
   2  -1 -16 2906.09  106.43
   2  -1 -16 2641.65  109.89
   2  -1 -16 2425.38   99.59
  -2   1  16 2722.25  102.56
  -2   1  16 2618.55  111.18
   2  -1 -17   92.90   22.03
   2  -1 -17    0.93   20.39
   2  -1 -17   62.21   24.15
  -2   1  17   43.37   16.36
  -2   1  17  -51.46   35.39
   2  -1 -18  645.75   45.42
   2  -1 -19  842.28   50.97
   2  -1 -19  704.75   46.30
   2  -1 -19  715.95   47.46
  -2   1  19  797.69   57.07
   2  -1 -20 1656.12   69.43
   2  -1 -20 1535.78   74.54
  -2   1  20 1609.80   76.23
   2  -2   0 9053.54  297.19
   2  -2   0 9438.68  306.21
   2  -2   0 8930.56  304.00
   2  -2   0 9264.18  287.30
   2  -2   0 9527.52  291.20
   2  -2   0 9275.09  293.74
   2  -2   0 9664.19  312.54
  -2   2   0 8818.62  295.97
  -2   2   0 9204.63  299.36
  -2   2   0 9209.39  303.59
  -2   2   0 9026.36  295.83
   2  -2  -137426.39 1202.00
   2  -2  -140473.01 1218.02
   2  -2  -137703.68 1200.35
   2  -2  -139548.74 1190.36
   2  -2  -138971.84 1212.96
   2  -2  -139058.45 1189.54
  -2   2   136674.66 1206.51
  -2   2   137844.35 1204.78
  -2   2   139124.70 1197.77
  -2   2   140134.59 1232.51
  -2   2   138895.29 1192.45
   2  -2  -2 7041.38  239.93
   2  -2  -2 7304.85  231.61
   2  -2  -2 7326.32  247.50
   2  -2  -2 7410.88  235.77
   2  -2  -2 7556.56  226.98
   2  -2  -2 7054.58  234.99
   2  -2  -2 7587.03  239.44
  -2   2   2 7280.60  240.74
  -2   2   2 7556.51  240.82
  -2   2   2 7200.89  230.43
  -2   2   2 6359.90  232.77
   2  -2  -3  616.30   27.09
   2  -2  -3  646.27   35.90
   2  -2  -3  547.37   24.56
   2  -2  -3  611.92   26.10
   2  -2  -3  627.31   27.00
   2  -2  -3  615.02   32.99
  -2   2   3  597.78   26.97
  -2   2   3  599.64   25.73
  -2   2   3  666.16   26.05
  -2   2   3  719.17   30.37
  -2   2   3  599.78   32.92
   2  -2  -4   18.23    9.45
   2  -2  -4   42.56   10.94
   2  -2  -4  -22.23   10.65
  -2   2   4    2.20   12.05
  -2   2   4   35.59   10.11
  -2   2   4   23.31    9.33
   2  -2  -5  150.85   13.24
   2  -2  -5  252.76   17.62
   2  -2  -5  197.45   17.22
   2  -2  -5  250.30   15.77
  -2   2   5  195.56   13.00
  -2   2   5  164.97   11.16
  -2   2   5  196.42   20.80
  -2   2   5  155.13   12.66
  -2   2   5  257.13   18.82
   2  -2  -6 5755.80  219.76
   2  -2  -6 5996.94  196.09
   2  -2  -6 5859.72  212.73
   2  -2  -6 5942.64  199.89
   2  -2  -6 5820.08  186.09
  -2   2   6 5653.59  200.09
  -2   2   6 5761.91  191.72
  -2   2   6 5551.32  208.66
   2  -2  -7  258.43   21.09
   2  -2  -7  208.16   18.46
   2  -2  -7  248.64   17.56
  -2   2   7  244.24   17.52
  -2   2   7  240.16   14.50
  -2   2   7  246.67   24.48
   2  -2  -852690.77 1626.58
   2  -2  -854452.32 1630.49
   2  -2  -852032.12 1655.48
   2  -2  -851565.93 1661.48
  -2   2   852083.85 1616.71
  -2   2   849025.66 1590.83
  -2   2   853246.55 1660.39
   2  -2  -9 1542.52   60.88
   2  -2  -9 1631.26   62.34
   2  -2  -9 1512.24   65.90
   2  -2  -9 1647.86   67.58
  -2   2   9 1612.47   64.05
  -2   2   9 1594.11   61.63
   2  -2 -1025649.85  813.11
   2  -2 -1025796.22  807.30
   2  -2 -1024907.28  826.92
   2  -2 -1027221.65  824.49
  -2   2  1025800.69  842.70
  -2   2  1024635.20  830.48
   2  -2 -11 3213.35  123.21
   2  -2 -11 3210.10  117.45
   2  -2 -11 3508.29  112.83
   2  -2 -11 3687.01  128.84
  -2   2  11 3141.45  116.75
   2  -2 -12 3128.23  110.39
   2  -2 -12 3015.27  109.31
   2  -2 -12 2772.59  114.90
   2  -2 -12 3219.53  120.02
  -2   2  12 2973.15  114.49
  -2   2  12 2949.69  112.52
   2  -2 -13  667.16   38.87
   2  -2 -13  776.67   36.07
   2  -2 -13  860.47   44.14
  -2   2  13  787.35   36.43
  -2   2  13  573.99   42.21
   2  -2 -14  248.80   29.47
   2  -2 -14  225.98   29.80
   2  -2 -14  192.03   25.37
   2  -2 -14  251.32   22.86
  -2   2  14  241.19   25.07
  -2   2  14  381.54   32.19
   2  -2 -15   71.62   24.60
   2  -2 -15   27.19   20.54
   2  -2 -15  173.80   29.06
   2  -2 -15   87.93   25.03
  -2   2  15   65.53   24.52
  -2   2  15   60.69   28.55
   2  -2 -16   78.55   31.62
   2  -2 -16  142.42   24.66
   2  -2 -16  236.35   31.48
   2  -2 -16  174.70   21.59
  -2   2  16  153.70   20.07
  -2   2  16  100.19   30.99
   2  -2 -17  128.54   26.04
   2  -2 -17   57.80   24.05
   2  -2 -17  120.00   34.30
   2  -2 -18  206.14   37.03
   2  -2 -18  285.70   27.84
   2  -2 -18  381.76   36.14
  -2   2  18  425.32   40.37
   2  -2 -19 1089.59   60.43
   2  -2 -19  900.59   59.49
   2  -2 -19 1226.36   63.20
   2  -2 -20  164.47   32.71
   2  -2 -20  118.38   25.48
  -2   2  20  -45.51   35.59
   2  -3   0 2542.26   89.88
   2  -3   0 2664.55   96.41
   2  -3   0 2390.55   94.16
   2  -3   0 2567.03   89.89
   2  -3   0 2620.54  100.03
   2  -3   0 2562.26   85.56
  -2   3   0 2581.83   92.66
  -2   3   0 2428.42   98.77
  -2   3   0 2680.65   91.70
  -2   3   0 2576.56   91.35
   2  -3  -1  629.80   29.79
   2  -3  -1  553.03   29.61
   2  -3  -1  506.67   28.37
   2  -3  -1  466.69   28.16
   2  -3  -1  515.22   27.42
  -2   3   1  591.57   25.34
  -2   3   1  647.18   27.16
  -2   3   1  606.30   27.98
  -2   3   1  509.76   26.64
  -2   3   1  492.63   27.21
   2  -3  -2 3030.39  101.24
   2  -3  -2 2912.51  117.36
   2  -3  -2 2834.24  116.77
   2  -3  -2 2919.69  105.25
   2  -3  -2 3035.68   94.67
   2  -3  -2 3056.18  102.82
   2  -3  -2 2845.81   99.35
  -2   3   2 3026.16  108.78
  -2   3   2 3126.43  102.74
  -2   3   2 2769.92   96.46
  -2   3   2 2820.78  103.13
   2  -3  -3 6639.86  248.11
   2  -3  -3 6604.25  226.89
   2  -3  -3 7245.05  220.34
   2  -3  -3 6757.78  222.68
   2  -3  -3 7011.40  227.83
  -2   3   3 6614.05  229.40
  -2   3   3 7015.37  222.21
  -2   3   3 7232.53  225.58
  -2   3   3 6974.90  234.07
   2  -3  -4  504.83   30.71
   2  -3  -4  470.47   20.15
   2  -3  -4  389.06   20.79
   2  -3  -4  393.25   22.26
  -2   3   4  387.03   22.76
  -2   3   4  471.77   21.51
  -2   3   4  398.49   19.79
  -2   3   4  454.48   26.37
   2  -3  -5 3268.86  114.47
   2  -3  -5 3260.86  106.64
   2  -3  -5 3201.25  108.70
   2  -3  -5 2806.55  108.21
  -2   3   5 3036.86  105.11
  -2   3   5 3226.46  105.52
  -2   3   5 3288.81  110.81
  -2   3   5 3424.01  119.29
   2  -3  -6   44.97   12.82
   2  -3  -6   56.52   14.96
   2  -3  -6   81.06   14.55
  -2   3   6   54.12    7.47
  -2   3   6   23.91   15.96
  -2   3   6   90.16   11.56
   2  -3  -7 5211.80  173.18
   2  -3  -7 5164.40  176.35
   2  -3  -7 5304.55  179.33
  -2   3   7 5091.73  182.33
  -2   3   7 5377.88  178.55
  -2   3   7 5486.52  184.17
   2  -3  -8  460.16   31.68
   2  -3  -8  491.87   27.20
   2  -3  -8  630.74   30.59
  -2   3   8  442.48   26.18
  -2   3   8  579.35   35.03
  -2   3   8  579.21   28.71
   2  -3  -9 1162.43   43.80
   2  -3  -9 1170.80   48.50
   2  -3  -9 1171.53   51.31
   2  -3  -9 1138.59   52.86
  -2   3   9 1111.52   46.67
   2  -3 -10  876.66   41.92
   2  -3 -10  805.69   36.57
   2  -3 -10  699.08   43.29
   2  -3 -10  862.95   47.66
  -2   3  10  919.20   40.25
  -2   3  10  703.20   40.71
   2  -3 -11  471.75   38.51
   2  -3 -11  596.48   29.97
  -2   3  11  673.13   35.42
  -2   3  11  698.85   41.99
   2  -3 -12 2167.88   85.55
   2  -3 -12 2122.16   81.96
   2  -3 -12 2376.72   90.59
   2  -3 -12 2158.35   84.51
  -2   3  12 2077.23   79.23
  -2   3  12 2058.45   91.69
   2  -3 -13 4240.90  153.17
   2  -3 -13 3986.04  147.48
   2  -3 -13 4429.83  153.51
   2  -3 -13 3970.51  147.28
  -2   3  13 4000.41  144.63
  -2   3  13 3964.95  158.20
   2  -3 -14 4877.26  166.73
   2  -3 -14 5017.79  176.87
   2  -3 -14 4770.73  183.24
   2  -3 -14 4799.00  171.95
  -2   3  14 4720.71  176.44
  -2   3  14 4797.92  167.58
   2  -3 -15 2044.88   85.74
   2  -3 -15 2448.39   98.95
   2  -3 -15 2269.26   98.13
   2  -3 -15 1999.78   86.11
  -2   3  15 2363.97   95.91
  -2   3  15 2198.04   89.77
   2  -3 -16 6965.69  240.56
   2  -3 -16 6934.07  257.48
   2  -3 -16 7425.10  241.67
   2  -3 -16 6865.35  234.44
  -2   3  16 6960.75  240.83
  -2   3  16 7041.60  236.40
   2  -3 -17  922.08   55.39
   2  -3 -17 1024.78   54.45
   2  -3 -17 1077.29   58.36
  -2   3  17  927.60   50.45
  -2   3  17  987.18   60.87
   2  -3 -18 2322.91  115.11
   2  -3 -18 1937.61   84.48
   2  -3 -18 2253.59   96.10
  -2   3  18 2038.78   95.91
   2  -3 -19  280.88   36.91
   2  -3 -19  308.86   33.43
   2  -3 -19  265.51   46.75
  -2   3  19  298.69   41.65
   2  -4   032126.84  966.64
   2  -4   029128.53  949.11
  -2   4   031414.05  965.74
  -2   4   029793.12  988.17
  -2   4   029159.12  957.44
   2  -4  -1  218.96   21.93
   2  -4  -1  161.67   18.50
  -2   4   1  226.83   17.39
  -2   4   1  171.12   16.45
  -2   4   1  173.19    6.63
   2  -4  -226369.81  819.06
   2  -4  -225577.08  832.56
  -2   4   225914.98  839.96
  -2   4   224408.78  828.16
  -2   4   227354.06  801.98
  -2   4   226016.74  834.67
   2  -4  -3  113.05   20.56
   2  -4  -3  195.02   16.75
   2  -4  -3  170.17   17.55
  -2   4   3  116.83   17.42
  -2   4   3  186.38   11.02
  -2   4   3  201.35   15.84
   2  -4  -426148.30  838.24
   2  -4  -425401.55  826.13
   2  -4  -425620.27  803.29
   2  -4  -425932.10  818.09
  -2   4   425889.78  822.16
  -2   4   426586.68  820.54
  -2   4   425931.12  831.62
   2  -4  -5  321.40   22.45
   2  -4  -5  310.93   20.02
   2  -4  -5  251.63   15.13
   2  -4  -5  317.18   20.35
  -2   4   5  268.46   22.66
  -2   4   5  294.94   24.04
  -2   4   5  256.99   18.10
   2  -4  -6 4274.50  149.68
   2  -4  -6 4517.11  158.10
   2  -4  -6 4020.33  147.35
   2  -4  -6 4493.74  154.43
  -2   4   6 4331.27  153.74
  -2   4   6 4615.97  153.69
  -2   4   6 4385.70  144.12
   2  -4  -7  427.49   26.31
   2  -4  -7  476.53   26.45
   2  -4  -7  478.77   34.07
  -2   4   7  595.43   29.56
  -2   4   7  538.53   25.89
   2  -4  -8  840.39   39.34
   2  -4  -8  752.37   36.22
   2  -4  -8  827.65   46.37
  -2   4   8  908.00   40.52
  -2   4   8  819.32   42.19
  -2   4   8  908.20   41.73
   2  -4  -9  148.17   20.91
   2  -4  -9   58.02   16.13
   2  -4  -9  212.02   25.50
  -2   4   9  106.39   22.39
  -2   4   9  139.22   17.24
   2  -4 -10 1151.14   51.75
   2  -4 -10 1013.78   39.89
   2  -4 -10 1200.23   55.81
  -2   4  10  962.99   46.94
  -2   4  10  934.31   45.44
  -2   4  10 1070.67   45.36
   2  -4 -11  331.46   35.69
   2  -4 -11  236.71   21.55
   2  -4 -11  265.84   32.90
   2  -4 -11  218.87   24.79
  -2   4  11  355.16   26.84
  -2   4  11  138.34   29.45
   2  -4 -12   64.48   30.58
   2  -4 -12    0.66   28.45
  -2   4  12   -0.66   23.23
   2  -4 -13   63.03   17.15
   2  -4 -13   -3.72   20.27
  -2   4  13   39.90   21.90
  -2   4  13  -34.10   29.72
   2  -4 -14  130.81   29.38
   2  -4 -14   -1.86   20.67
   2  -4 -14   51.51   30.24
   2  -4 -14  120.67   22.90
  -2   4  14   13.36   20.31
  -2   4  14   17.43   28.89
   2  -4 -15  552.11   41.36
   2  -4 -15  612.34   35.86
   2  -4 -15  619.98   40.16
   2  -4 -15  524.39   33.14
  -2   4  15  669.85   49.05
   2  -4 -16   64.67   28.35
   2  -4 -16  166.16   22.38
   2  -4 -16    4.38   28.28
  -2   4  16   61.66   34.73
   2  -4 -17   44.18   26.20
   2  -4 -17   58.51   27.80
   2  -4 -17  115.87   31.11
  -2   4  17  138.86   23.24
  -2   4  17  108.47   36.75
   2  -4 -18   32.15   24.99
   2  -4 -18   28.36   25.91
  -2   4  18   65.20   29.20
   2  -4 -19 1024.04   51.83
   2  -4 -19  751.91   48.18
  -2   4  19  933.36   63.92
   2  -5   0   61.63   15.28
  -2   5   0   25.46   14.90
  -2   5   0   -2.80   13.49
  -2   5   0   62.45    5.37
  -2   5   0   89.70   16.67
   2  -5  -1  620.66   34.10
  -2   5   1  541.19   28.08
  -2   5   1  521.34   19.23
  -2   5   1  508.79   28.34
   2  -5  -2 7026.96  240.35
   2  -5  -2 7175.40  259.14
  -2   5   2 7272.39  246.51
  -2   5   2 6959.21  236.10
  -2   5   2 7174.17  225.11
  -2   5   2 6889.56  252.04
   2  -5  -3   86.28   16.08
  -2   5   3   68.59   18.80
  -2   5   3   97.44   11.02
  -2   5   3   51.10   13.77
   2  -5  -4 1273.05   57.56
   2  -5  -4 1338.60   53.48
   2  -5  -4 1481.37   63.77
  -2   5   4 1348.99   52.69
  -2   5   4 1353.46   48.62
  -2   5   4 1426.49   54.66
  -2   5   4 1289.10   51.70
   2  -5  -5   39.26   17.50
   2  -5  -5   35.99   14.28
   2  -5  -5    4.45   17.47
  -2   5   5   30.75   15.31
  -2   5   5   42.55   16.43
   2  -5  -6 1028.22   47.73
   2  -5  -6  930.83   45.52
   2  -5  -6 1133.23   47.08
  -2   5   6  850.90   45.95
  -2   5   6 1198.61   44.79
  -2   5   6 1074.53   46.30
   2  -5  -7 8844.48  306.61
   2  -5  -7 9198.45  292.12
   2  -5  -7 8988.37  298.98
  -2   5   7 9055.28  298.63
  -2   5   7 9030.74  297.54
  -2   5   7 9304.72  302.64
   2  -5  -8 4160.39  156.63
   2  -5  -8 3999.07  151.17
   2  -5  -8 3839.04  144.93
  -2   5   8 4311.29  143.59
  -2   5   8 4291.81  151.66
  -2   5   8 4091.89  137.95
   2  -5  -912441.14  416.62
   2  -5  -912951.28  411.00
   2  -5  -913157.45  402.88
  -2   5   912243.58  405.90
  -2   5   913285.29  415.66
  -2   5   912338.64  421.36
   2  -5 -10 6576.32  238.78
   2  -5 -10 7098.14  238.77
   2  -5 -10 6677.80  233.85
  -2   5  10 7373.44  227.17
  -2   5  10 7301.11  247.05
  -2   5  10 7231.97  234.34
   2  -5 -11 4143.12  149.50
   2  -5 -11 4211.81  145.67
   2  -5 -11 4197.78  147.22
  -2   5  11 4371.13  152.83
  -2   5  11 4007.23  156.49
  -2   5  11 4877.96  163.93
   2  -5 -12 2243.11   97.06
   2  -5 -12 2567.78  103.20
   2  -5 -12 2423.81   99.22
   2  -5 -12 2442.83   94.53
  -2   5  12 2588.90   94.34
  -2   5  12 2517.92  101.35
   2  -5 -13  400.47   38.27
   2  -5 -13  324.65   31.44
   2  -5 -13  350.31   32.95
   2  -5 -13  325.18   30.74
  -2   5  13  452.49   36.48
   2  -5 -14  -72.80   23.05
   2  -5 -14   45.15   18.39
  -2   5  14   49.73   25.10
   2  -5 -15    7.84   29.15
   2  -5 -15   62.10   21.19
   2  -5 -15   68.46   35.06
  -2   5  15   63.43   38.96
   2  -5 -16  135.31   31.59
   2  -5 -16  159.96   26.69
  -2   5  16   60.79   22.65
  -2   5  16  178.42   35.16
   2  -5 -17   15.52   16.92
   2  -5 -17   -8.95   24.61
  -2   5  17   44.77   25.03
  -2   5  17  168.64   38.83
   2  -5 -18   22.85   26.90
  -2   5  18   17.88   32.86
   2  -6   0    0.07   21.97
   2  -6   0    7.55   17.34
  -2   6   0   20.04   18.64
  -2   6   0   14.61   15.94
  -2   6   0  -10.53    6.04
  -2   6   0   84.12   19.44
   2  -6  -1  691.77   34.03
  -2   6   1  535.85   30.14
  -2   6   1  546.25   31.45
  -2   6   1  557.27   28.46
   2  -6  -2 2319.26   89.35
   2  -6  -2 2464.33   94.26
  -2   6   2 2311.12   89.90
  -2   6   2 2626.69   90.39
  -2   6   2 2242.68   76.97
  -2   6   2 2274.29   92.55
   2  -6  -3  397.54   21.69
   2  -6  -3  297.20   21.54
  -2   6   3  336.67   13.19
  -2   6   3  365.05   20.86
  -2   6   3  359.55   20.66
   2  -6  -411701.70  360.49
   2  -6  -411376.07  367.21
   2  -6  -410654.82  362.96
  -2   6   410862.46  361.84
  -2   6   4 9634.74  340.19
  -2   6   411648.54  357.52
  -2   6   410883.17  346.11
   2  -6  -5 1077.01   45.52
   2  -6  -5 1001.78   48.54
  -2   6   5  955.24   42.97
  -2   6   5 1040.84   45.38
  -2   6   5  979.98   45.15
   2  -6  -6 1632.54   69.07
   2  -6  -6 1633.29   64.80
   2  -6  -6 1614.60   62.38
  -2   6   6 1523.03   69.17
  -2   6   6 1690.13   64.49
  -2   6   6 1769.59   68.31
   2  -6  -7  186.52   26.92
   2  -6  -7  123.27   23.25
  -2   6   7   24.63   21.51
  -2   6   7   55.70   20.32
  -2   6   7  138.58   21.93
   2  -6  -8  960.08   48.34
   2  -6  -8  963.14   46.08
   2  -6  -8  849.55   43.65
  -2   6   8  795.19   47.84
  -2   6   8  741.95   43.08
  -2   6   8  844.28   39.01
   2  -6  -9  515.03   37.88
  -2   6   9  444.18   33.06
  -2   6   9  527.93   36.69
  -2   6   9  480.78   30.58
   2  -6 -10   81.13   20.98
   2  -6 -10    4.96   24.16
   2  -6 -10  139.66   24.31
  -2   6  10  120.86   28.51
  -2   6  10  212.46   27.58
  -2   6  10  121.67   21.40
   2  -6 -11   -9.60   22.64
   2  -6 -11   85.69   25.37
   2  -6 -11  122.82   27.16
  -2   6  11   49.84   23.66
  -2   6  11  171.78   26.79
   2  -6 -12   68.05   29.89
   2  -6 -12  106.16   23.79
   2  -6 -12   59.71   30.49
  -2   6  12  161.42   27.97
  -2   6  12   62.65   32.42
  -2   6  12   51.67   25.07
   2  -6 -13 1450.43   60.88
   2  -6 -13 1276.07   65.70
   2  -6 -13 1433.09   64.65
   2  -6 -13 1388.65   62.62
  -2   6  13 1478.32   65.25
  -2   6  13 1562.26   67.77
   2  -6 -14  328.06   35.56
   2  -6 -14  214.68   30.65
   2  -6 -14  278.69   27.24
  -2   6  14  386.63   33.68
  -2   6  14  244.30   34.01
   2  -6 -15 3801.19  146.74
   2  -6 -15 3814.81  140.26
   2  -6 -15 3723.70  139.10
  -2   6  15 3648.80  148.44
  -2   6  15 3747.15  162.37
   2  -6 -16  209.42   36.60
   2  -6 -16  267.06   32.84
   2  -6 -16  226.62   35.74
  -2   6  16  175.83   28.70
  -2   6  16  113.77   34.14
   2  -6 -17 1562.53   69.72
   2  -6 -17 1649.38   82.61
  -2   6  17 1800.19   77.96
  -2   6  17 1996.56   89.19
   2  -7   0  501.10   29.82
  -2   7   0  335.45   27.27
  -2   7   0  496.35   24.30
  -2   7   0  429.08   38.36
   2  -7  -1 5515.44  186.35
   2  -7  -1 4918.61  189.92
  -2   7   1 5384.18  172.63
  -2   7   1 4752.48  184.67
  -2   7   1 5372.94  180.51
   2  -7  -2  283.51   25.11
   2  -7  -2  205.64   24.14
  -2   7   2  244.45   27.67
  -2   7   2  328.62   17.73
  -2   7   2  204.17   23.26
   2  -7  -310483.95  350.24
   2  -7  -310144.90  333.77
   2  -7  -310085.03  339.47
  -2   7   310305.52  326.17
  -2   7   3 9983.44  323.71
  -2   7   3 9490.02  321.46
   2  -7  -4  820.49   42.30
   2  -7  -4  674.69   44.24
  -2   7   4  652.20   37.30
  -2   7   4  745.19   34.48
  -2   7   4  829.15   33.25
   2  -7  -5 4932.37  175.64
   2  -7  -5 5022.17  182.32
   2  -7  -5 5542.39  185.26
  -2   7   5 5049.60  179.75
  -2   7   5 5294.07  167.24
  -2   7   5 5186.30  179.71
   2  -7  -6  323.96   27.61
   2  -7  -6  283.30   29.37
   2  -7  -6  440.42   33.17
  -2   7   6  197.95   28.23
  -2   7   6  310.68   22.60
  -2   7   6  418.27   28.26
   2  -7  -7    6.29   23.96
   2  -7  -7  -10.53   25.70
  -2   7   7   27.74   20.44
  -2   7   7  109.86   19.51
  -2   7   7   62.12   21.84
   2  -7  -8   21.76   20.70
   2  -7  -8   29.43   20.90
   2  -7  -8  102.66   25.88
  -2   7   8   60.87   24.14
  -2   7   8   21.28   18.61
   2  -7  -9  164.84   29.55
   2  -7  -9  271.52   35.41
  -2   7   9  139.25   27.11
  -2   7   9  101.90   27.12
  -2   7   9  165.44   23.59
   2  -7 -10 2983.31  108.46
   2  -7 -10 2955.27  112.35
  -2   7  10 2810.20  106.26
  -2   7  10 2667.89  104.77
  -2   7  10 3000.22  108.85
   2  -7 -11  931.37   56.06
   2  -7 -11  953.72   53.56
   2  -7 -11  987.35   51.69
  -2   7  11  931.34   49.84
  -2   7  11  782.00   46.65
  -2   7  11  824.67   40.76
   2  -7 -12 1039.19   54.34
   2  -7 -12 1125.00   61.55
   2  -7 -12 1199.73   57.10
  -2   7  12 1064.57   56.21
  -2   7  12 1098.94   58.97
  -2   7  12 1124.67   51.74
   2  -7 -13   24.69   30.85
   2  -7 -13   17.27   23.49
   2  -7 -13  -39.99   32.84
  -2   7  13    4.04   23.78
   2  -7 -14   47.20   22.11
   2  -7 -14  140.26   33.25
  -2   7  14    2.91   26.70
  -2   7  14   57.26   29.76
   2  -7 -15  -12.05   23.31
   2  -7 -15  124.24   36.03
  -2   7  15   55.46   22.73
   2  -8   0 4578.84  165.67
   2  -8   0 4348.40  167.71
  -2   8   0 4306.27  157.16
  -2   8   0 4193.10  157.52
  -2   8   0 4632.20  159.13
   2  -8  -1 1284.27   63.17
   2  -8  -1 1047.81   55.21
  -2   8   1 1171.17   50.76
  -2   8   1 1280.97   52.53
  -2   8   1 1247.67   53.02
   2  -8  -2   57.01   25.95
  -2   8   2   61.89   26.05
  -2   8   2  150.98   22.71
   2  -8  -3  581.52   37.81
   2  -8  -3  669.08   34.83
  -2   8   3  465.33   35.64
  -2   8   3  612.57   37.69
   2  -8  -4  416.53   36.03
   2  -8  -4  460.83   32.86
   2  -8  -4  467.49   30.48
  -2   8   4  365.16   28.22
  -2   8   4  371.49   30.89
   2  -8  -5  144.27   21.44
   2  -8  -5  258.44   29.90
   2  -8  -5  176.63   26.39
  -2   8   5   66.71   30.63
  -2   8   5  150.19   27.81
   2  -8  -6  281.61   31.00
   2  -8  -6  216.87   33.07
  -2   8   6  261.54   30.06
   2  -8  -7  934.65   51.88
   2  -8  -7 1125.94   49.26
   2  -8  -7  936.38   50.60
  -2   8   7 1017.23   59.05
  -2   8   7  840.51   50.01
   2  -8  -8 1421.62   67.07
   2  -8  -8 1742.20   74.71
   2  -8  -8 1591.95   69.98
  -2   8   8 1844.29   79.15
  -2   8   8 1555.47   64.95
   2  -8  -9 2336.06   97.11
   2  -8  -9 2689.20  111.68
   2  -8  -9 2768.12  105.57
  -2   8   9 2651.42  114.24
  -2   8   9 2361.43  103.90
   2  -8 -10 1030.07   58.50
   2  -8 -10  911.30   53.56
  -2   8  10 1096.53   54.34
  -2   8  10  772.00   49.55
   2  -8 -11 2646.27  111.09
   2  -8 -11 2885.40  108.02
   2  -8 -11 2448.37  103.81
  -2   8  11 2791.25  116.05
  -2   8  11 2362.15  104.20
   2  -8 -12  117.63   31.00
   2  -8 -12  173.12   31.17
   2  -8 -12   86.82   32.20
  -2   8  12   66.76   33.68
   2  -8 -13   73.21   23.21
   2  -8 -13   51.52   36.38
  -2   8  13   71.73   21.31
  -2   9   0  213.67   22.61
  -2   9   0  150.40   24.71
   2  -9  -1  392.82   30.81
  -2   9   1  330.73   31.27
  -2   9   1  216.24   28.46
   2  -9  -2  368.70   39.33
   2  -9  -2  248.52   27.05
  -2   9   2  222.60   33.03
  -2   9   2  345.87   33.21
   2  -9  -3 3866.94  147.72
   2  -9  -3 4216.80  147.45
   2  -9  -3 3605.97  132.44
  -2   9   3 3923.81  150.09
  -2   9   3 3579.78  143.66
   2  -9  -4 1529.47   60.68
   2  -9  -4 1480.39   61.00
   2  -9  -4 1105.34   60.94
  -2   9   4 1230.28   60.88
  -2   9   4 1494.80   65.16
   2  -9  -5 1498.98   60.59
   2  -9  -5 1248.45   64.07
   2  -9  -5 1235.67   65.70
  -2   9   5 1515.93   66.12
  -2   9   5 1383.65   66.02
   2  -9  -6 1849.50   81.23
   2  -9  -6 2001.46   89.56
   2  -9  -6 1819.28   77.94
  -2   9   6 2233.69  102.63
  -2   9   6 2113.87   86.73
   2  -9  -7  233.56   30.47
   2  -9  -7    2.71   32.16
  -2   9   7  127.67   19.79
   2  -9  -8  244.03   29.65
   2  -9  -8  330.43   40.42
  -2   9   8  107.45   30.81
  -2   9   8  124.82   21.89
   2  -9  -9    7.52   21.64
   2  -9  -9  -90.57   28.30
   2  -9  -9   42.10   30.41
  -2   9   9  -17.94   31.11
  -2   9   9   43.79   24.79
   2  -9 -10    0.86   17.15
   2  -9 -10  -63.76   27.56
   2  -9 -10  -37.47   37.87
  -2   9  10   54.25   35.19
  -2   9  10  -17.15   19.01
   2  -9 -11   20.97   33.63
   2  -9 -11    1.85   27.89
   2 -10   0   39.67   24.87
   2 -10   0   -8.61   26.17
  -2  10   0   13.99   21.31
  -2  10   0  131.40   27.82
  -2  10   0  -19.34   20.00
   2 -10  -1  152.67   29.20
   2 -10  -1  260.25   41.12
   2 -10  -1  287.11   35.98
  -2  10   1  389.01   33.27
   2 -10  -2  624.99   43.01
   2 -10  -2  839.88   56.26
   2 -10  -2  908.53   61.74
  -2  10   2  938.69   52.18
  -2  10   2  643.13   43.84
   2 -10  -3  299.10   28.37
   2 -10  -3  264.72   34.65
   2 -10  -3  215.53   33.12
  -2  10   3  225.02   34.57
  -2  10   3  152.16   29.42
   2 -10  -4  818.03   49.38
   2 -10  -4  702.96   45.84
   2 -10  -4  740.59   47.73
  -2  10   4  519.35   44.80
  -2  10   4  582.42   45.11
   2 -10  -5  662.97   42.63
   2 -10  -5  732.04   47.11
  -2  10   5  672.91   43.27
  -2  10   5  804.11   47.44
   2 -10  -6  215.50   31.38
   2 -10  -6  319.22   36.53
  -2  10   6  255.96   33.64
  -2  10   6  174.78   23.43
   2 -10  -7   -1.72   26.06
   2 -10  -7  -55.20   22.61
  -2  10   7   53.97   25.40
   2 -11   0  634.87   45.95
   2 -11   0  751.28   53.92
  -2  11   0  632.18   44.26
   2 -11  -1  628.38   41.54
   2 -11  -1  647.04   44.55
  -2  11   1  870.09   54.69
   1  10  -1  101.22   34.84
   1  10  -2 2973.31  125.68
   1  10  -2 2745.70  112.04
   1  10  -3   23.51   37.62
   1  10  -3    2.25   27.76
   1  10  -4  649.62   48.71
   1  10  -4  549.54   41.00
  -1 -10   4  474.55   45.29
   1   9  -1  382.47   34.38
  -1  -9   1  529.56   44.05
  -1  -9   1  500.31   30.36
   1   9  -2  229.01   31.97
   1   9  -2  177.67   23.56
   1   9  -2   85.79   27.27
  -1  -9   2  132.47   27.93
  -1  -9   2  222.71   27.41
   1   9  -3  -30.68   25.25
   1   9  -3   30.58   25.81
  -1  -9   3  103.98   24.80
   1   9  -4  179.52   34.19
   1   9  -4  217.44   27.07
  -1  -9   4  271.40   34.83
   1   9  -5  411.96   42.34
   1   9  -5  414.10   30.48
   1   9  -5  290.42   32.68
  -1  -9   5  526.23   38.42
  -1  -9   5  246.82   30.89
   1   9  -6  833.18   48.21
   1   9  -6  941.80   48.60
   1   9  -6  917.10   63.64
  -1  -9   6  819.57   52.88
  -1  -9   6  639.93   40.20
   1   9  -7 3100.12  127.30
   1   9  -7 3296.52  144.32
   1   9  -7 3387.70  130.10
  -1  -9   7 2934.16  126.32
  -1  -9   7 2825.33  121.20
  -1  -9   8 1878.28   86.29
  -1  -9   8 1732.02   75.26
   1   9  -8 1822.23   88.22
   1   9  -8 1849.06   87.59
   1   9  -8 1795.71   76.94
   1   9  -9 1073.51   57.01
   1   9  -9 1181.19   62.38
   1   9  -9 1187.42   65.07
  -1  -9   9  884.53   53.69
  -1  -9   9  924.88   47.74
   1   9 -10 2308.86   99.79
   1   9 -10 2327.37  103.00
   1   9 -10 2855.55  106.91
  -1  -9  10 2764.24  105.23
   1   9 -11  309.27   38.89
  -1  -9  11  127.37   27.43
   1   8  -1   95.91   35.18
   1   8  -1   79.97   19.30
   1   8  -1   35.38   23.39
  -1  -8   1   25.62   27.15
  -1  -8   1   36.66   21.36
   1   8  -2 2569.38   90.30
   1   8  -2 2408.82   98.94
   1   8  -2 2534.89  105.22
  -1  -8   2 2433.66  102.86
  -1  -8   2 2430.49  103.35
  -1  -8   2 2217.65   87.57
   1   8  -3  431.92   28.41
   1   8  -3  360.32   23.60
   1   8  -3  334.29   33.00
  -1  -8   3  344.31   32.76
  -1  -8   3  250.20   26.61
   1   8  -4  829.47   42.43
   1   8  -4  651.19   40.37
   1   8  -4  600.63   33.42
  -1  -8   4  588.71   37.25
  -1  -8   4  619.99   36.60
   1   8  -5  223.04   32.07
   1   8  -5  302.94   23.21
   1   8  -5  251.13   30.25
  -1  -8   5  369.13   29.73
  -1  -8   5  372.66   26.96
  -1  -8   5  293.53   29.10
   1   8  -6  136.81   30.60
   1   8  -6  -18.05   16.11
   1   8  -6  -23.02   25.60
  -1  -8   6   97.91   26.75
  -1  -8   6   35.07   20.74
  -1  -8   6   12.41   20.71
   1   8  -7   45.48   17.10
   1   8  -7  -10.97   23.60
  -1  -8   7    5.64   27.51
  -1  -8   7   75.66   18.67
  -1  -8   7  121.91   24.03
  -1  -8   8  170.17   34.83
   1   8  -8   77.52   25.60
   1   8  -8   -4.23   31.39
  -1  -8   8   76.15   20.19
   1   8  -9  393.61   42.20
   1   8  -9  393.52   33.21
   1   8  -9  424.14   39.20
  -1  -8   9  400.69   39.71
  -1  -8   9  300.93   26.11
  -1  -8   9  390.64   33.01
   1   8 -10  104.77   28.21
   1   8 -10   82.64   22.70
   1   8 -10   63.76   31.38
  -1  -8  10   93.47   32.37
  -1  -8  10   -9.22   26.94
  -1  -8  11  901.81   47.77
  -1  -8  11 1249.04   62.44
   1   8 -11  959.72   54.45
   1   8 -11 1050.12   62.10
  -1  -8  11  971.39   56.30
   1   8 -12  175.29   31.79
  -1  -8  12  266.38   33.19
  -1  -8  12  286.52   29.57
  -1  -8  12  238.40   30.30
  -1  -8  13 2674.57  125.41
   1   8 -13 3093.26  122.72
   1   8 -13 3189.56  132.01
  -1  -8  13 3049.59  123.10
  -1  -8  13 3122.23  127.86
  -1  -8  14  146.67   30.33
   1   8 -14  177.43   35.62
  -1  -8  14   99.65   19.30
  -1  -8  14  151.11   33.13
   1   7  -110691.60  349.72
   1   7  -110919.32  347.05
   1   7  -110409.38  344.55
  -1  -7   110441.12  371.24
  -1  -7   110974.21  361.59
  -1  -7   110835.59  355.92
  -1  -7   2 4102.02  145.19
   1   7  -2 3539.32  140.59
   1   7  -2 4036.43  137.08
   1   7  -2 3742.12  134.98
  -1  -7   2 3711.26  134.05
  -1  -7   2 4002.05  142.14
   1   7  -3 8111.45  279.08
   1   7  -3 8080.39  278.77
   1   7  -3 8177.55  279.35
  -1  -7   3 8556.29  272.47
  -1  -7   3 8479.74  277.67
  -1  -7   3 8291.72  279.21
   1   7  -4 1414.35   64.70
   1   7  -4 1881.75   67.77
   1   7  -4 1857.11   76.42
  -1  -7   4 1691.18   71.13
  -1  -7   4 1599.64   73.94
  -1  -7   4 1582.36   69.46
   1   7  -5  759.89   41.15
   1   7  -5  684.44   35.08
   1   7  -5  957.00   43.98
  -1  -7   5  806.39   41.30
  -1  -7   5  859.17   42.98
  -1  -7   5  690.63   37.77
   1   7  -6   28.48   22.06
   1   7  -6   24.91   16.76
   1   7  -6   50.10   23.10
  -1  -7   6    6.65   18.23
  -1  -7   6  104.56   20.12
   1   7  -7  279.61   25.51
   1   7  -7  205.29   23.34
   1   7  -7  127.28   26.66
  -1  -7   7  319.26   29.15
  -1  -7   7  218.08   25.82
  -1  -7   7  242.92   25.11
   1   7  -8 1005.06   53.34
   1   7  -8  960.34   48.37
   1   7  -8 1009.44   58.34
  -1  -7   8 1020.52   48.13
  -1  -7   8 1014.48   53.03
  -1  -7   8  930.43   47.72
   1   7  -9  163.89   22.91
  -1  -7   9  266.45   32.06
  -1  -7   9  131.64   24.32
  -1  -7   9  227.81   24.93
   1   7 -10 1265.27   56.47
   1   7 -10 1323.00   52.75
  -1  -7  10 1026.95   56.04
  -1  -7  10 1140.00   55.45
  -1  -7  10 1003.64   58.00
   1   7 -10 1032.63   57.29
   1   7 -11   57.71   23.65
   1   7 -11  -72.74   30.16
  -1  -7  11   81.39   27.42
   1   7 -11   51.10   30.98
   1   7 -12  122.96   20.62
   1   7 -12  118.79   27.32
   1   7 -12  101.25   33.47
  -1  -7  12  160.75   36.40
  -1  -7  12  243.43   32.57
   1   7 -13  171.33   26.32
   1   7 -13  197.37   38.43
  -1  -7  13  106.50   30.97
  -1  -7  13  195.76   28.11
   1   7 -14   80.67   20.96
   1   7 -14  167.15   38.77
  -1  -7  14  -35.26   30.04
   1   7 -15  462.21   40.04
   1   7 -15  389.61   34.76
   1   7 -15  457.37   38.14
  -1  -7  15  403.24   42.43
   1   7 -16   35.70   25.21
   1   7 -16   20.24   26.73
  -1  -7  16  106.92   26.50
  -1  -7  16   10.97   14.60
   1   6  -1  361.90   21.25
   1   6  -1  341.12   20.98
  -1  -6   1  251.08   28.44
  -1  -6   1  348.48   20.41
  -1  -6   1  404.20   26.51
   1   6  -2  766.88   42.87
   1   6  -2  760.00   32.88
   1   6  -2  624.82   41.68
  -1  -6   2  769.82   40.82
  -1  -6   2  883.76   38.32
  -1  -6   2  754.90   34.98
   1   6  -3  720.54   36.41
   1   6  -3  732.67   30.99
   1   6  -3  605.00   34.91
  -1  -6   3  812.91   36.90
  -1  -6   3  776.04   36.80
  -1  -6   3  587.32   33.53
   1   6  -4 1222.43   54.15
   1   6  -4 1301.62   53.31
   1   6  -4 1527.27   67.39
  -1  -6   4 1267.69   58.20
  -1  -6   4 1373.49   58.43
   1   6  -5 1194.85   52.43
   1   6  -5 1413.04   61.93
  -1  -6   5 1120.07   50.28
  -1  -6   5 1058.86   51.35
  -1  -6   5 1127.07   49.96
   1   6  -5 1150.35   53.73
  -1  -6   6  515.18   37.86
  -1  -6   6  700.76   34.19
   1   6  -6  706.82   40.41
   1   6  -6  504.68   32.61
   1   6  -6  537.25   38.24
   1   6  -7 8410.60  280.67
   1   6  -7 8466.71  283.48
   1   6  -7 9300.22  289.27
  -1  -6   7 8193.97  291.67
  -1  -6   7 8377.83  289.69
  -1  -6   7 8664.65  289.22
  -1  -6   8 1869.87   73.61
   1   6  -8 1947.95   76.88
   1   6  -8 1731.78   68.36
  -1  -6   8 1852.79   70.99
   1   6  -8 1855.33   70.40
  -1  -6   8 1535.35   74.11
   1   6  -913511.22  442.43
   1   6  -914120.12  450.86
   1   6  -913878.57  450.63
  -1  -6   913662.06  451.59
  -1  -6   913376.82  449.02
  -1  -6   913936.93  453.90
   1   6 -10  311.03   30.47
  -1  -6  10  429.01   38.77
  -1  -6  10  244.19   24.21
   1   6 -10  403.00   30.54
   1   6 -10  253.77   23.68
   1   6 -11 4027.38  153.45
   1   6 -11 4346.72  160.59
   1   6 -11 4117.54  145.24
  -1  -6  11 4161.20  155.51
  -1  -6  11 3993.18  147.79
   1   6 -11 3971.87  146.10
   1   6 -12   42.76   21.88
   1   6 -12   47.58   23.16
   1   6 -12  -14.06   17.04
   1   6 -12  140.59   28.74
  -1  -6  12   -8.73   28.57
  -1  -6  12    2.45   17.53
   1   6 -13  116.94   20.24
   1   6 -13  130.79   25.42
   1   6 -13   98.59   23.77
   1   6 -13  218.09   26.50
  -1  -6  13  189.25   33.53
  -1  -6  13  215.64   24.81
   1   6 -14  -31.07   23.45
  -1  -6  14  -15.34   27.51
  -1  -6  14   57.46   25.26
   1   6 -15  378.70   38.16
   1   6 -15  410.54   38.54
   1   6 -15  514.73   40.25
  -1  -6  15  480.29   39.34
  -1  -6  15  512.21   37.55
   1   6 -16   68.69   36.83
   1   6 -16  158.91   26.89
   1   6 -16  239.78   34.00
  -1  -6  16  240.13   34.70
   1   6 -17   20.14   33.52
   1   6 -17   43.98   28.79
  -1  -6  17  183.38   34.19
  -1  -6  17  150.17   24.98
   1   5  -1 4368.21  154.92
   1   5  -1 4512.31  155.45
   1   5  -1 4197.52  161.69
  -1  -5   1 4449.86  162.72
  -1  -5   1 4977.82  170.13
  -1  -5   1 4753.45  156.19
   1   5  -2 6045.40  208.64
   1   5  -2 6167.97  200.36
   1   5  -2 6134.33  213.86
  -1  -5   2 5868.14  206.86
  -1  -5   2 6278.67  207.42
  -1  -5   2 6403.30  209.42
   1   5  -3 6846.03  216.47
   1   5  -3 6814.02  228.65
   1   5  -3 6990.48  235.04
  -1  -5   3 6607.22  218.24
  -1  -5   3 6660.29  231.06
  -1  -5   3 7044.74  234.20
   1   5  -411897.67  390.29
   1   5  -412688.26  405.56
   1   5  -412147.19  392.40
  -1  -5   411990.58  399.83
  -1  -5   412753.94  412.18
  -1  -5   413058.34  407.07
   1   5  -5 3383.80  117.22
   1   5  -5 3438.83  122.77
   1   5  -5 3085.19  123.79
  -1  -5   5 3504.95  119.98
  -1  -5   5 3477.83  119.57
  -1  -5   5 3458.75  119.69
   1   5  -6 2702.17   96.43
   1   5  -6 2585.83   96.37
   1   5  -6 2396.72  102.22
  -1  -5   6 2532.85   97.79
  -1  -5   6 2507.97   94.87
  -1  -5   6 2659.78   93.97
   1   5  -7   67.16   17.85
  -1  -5   7  120.52   21.67
  -1  -5   7  195.51   18.55
   1   5  -8  -12.27   16.64
   1   5  -8  -13.79   16.11
   1   5  -8   44.68   22.21
  -1  -5   8   95.50   25.84
  -1  -5   8   44.10   18.27
   1   5  -9  114.74   22.86
   1   5  -9   41.02   18.25
   1   5  -9   31.42   20.82
  -1  -5   9   87.63   29.26
  -1  -5   9   75.98   15.66
   1   5 -10  435.87   33.18
   1   5 -10  437.22   28.11
   1   5 -10  525.79   32.33
  -1  -5  10  448.25   32.58
  -1  -5  10  547.22   36.37
   1   5 -11  355.63   28.84
   1   5 -11  341.20   26.99
   1   5 -11  295.03   24.29
  -1  -5  11  426.43   34.74
   1   5 -12 3169.17  118.27
   1   5 -12 2966.83  113.58
   1   5 -12 3234.71  122.03
   1   5 -12 2858.76  109.03
  -1  -5  12 2928.01  123.75
  -1  -5  12 3132.25  123.16
   1   5 -13  216.01   26.13
   1   5 -13  335.84   25.47
   1   5 -13  250.29   36.30
  -1  -5  13  259.80   29.61
  -1  -5  13  163.61   27.95
   1   5 -14 6658.22  237.07
   1   5 -14 6748.89  253.40
   1   5 -14 6940.61  243.22
  -1  -5  14 6850.92  249.11
  -1  -5  14 6226.56  239.54
   1   5 -15  939.11   48.50
   1   5 -15  820.34   59.99
  -1  -5  15  923.38   54.89
  -1  -5  15  911.81   52.46
   1   5 -16 3950.60  170.01
   1   5 -16 4281.72  158.76
  -1  -5  16 4019.54  162.13
  -1  -5  16 4808.91  182.45
   1   5 -16 3855.99  157.33
   1   5 -17 1425.08   71.72
   1   5 -17 1565.51   73.94
   1   5 -17 1525.25   72.61
  -1  -5  17 1253.91   75.50
  -1  -5  17 1244.52   71.60
   1   5 -18  853.65   62.19
   1   5 -18 1188.78   65.46
  -1  -5  18 1171.38   73.47
  -1  -5  18 1220.56   64.27
   1   4  -1 7763.63  258.02
   1   4  -1 7707.97  236.78
   1   4  -1 7537.91  234.63
  -1  -4   1 7038.02  233.08
  -1  -4   1 7003.67  261.46
  -1  -4   1 7528.69  245.16
  -1  -4   1 7107.17  250.76
   1   4  -2 9090.39  296.96
   1   4  -2 9450.83  302.41
   1   4  -2 9310.12  311.33
  -1  -4   2 8697.98  297.87
  -1  -4   2 9267.21  303.27
   1   4  -310865.44  353.80
  -1  -4   310505.03  338.78
  -1  -4   310708.89  331.90
   1   4  -310564.08  337.73
   1   4  -310131.70  353.04
   1   4  -4 3456.74  121.42
   1   4  -4 3454.08  121.84
   1   4  -4 3487.59  127.95
  -1  -4   4 3386.30  121.43
  -1  -4   4 3758.17  130.58
  -1  -4   4 3549.94  120.20
   1   4  -5 2563.31   88.89
   1   4  -5 2650.51   87.13
   1   4  -5 2372.50   87.79
  -1  -4   5 2517.54  100.39
  -1  -4   5 2474.45   95.44
  -1  -4   5 2672.97   90.37
   1   4  -6   25.82   11.35
   1   4  -6   41.22   12.55
   1   4  -6   -3.20   14.12
   1   4  -6   32.73   17.59
  -1  -4   6   45.81   17.85
   1   4  -7 2045.56   73.26
   1   4  -7 2207.52   77.71
   1   4  -7 1995.57   78.69
   1   4  -7 1895.56   72.60
  -1  -4   7 2024.08   73.06
  -1  -4   7 2120.16   82.45
   1   4  -8  126.26   18.17
   1   4  -8   65.75   17.42
   1   4  -8   39.43   23.57
  -1  -4   8   10.03   18.40
  -1  -4   8   25.44   13.95
   1   4  -9 9304.16  304.34
   1   4  -9 8914.83  302.89
   1   4  -9 8275.51  296.31
  -1  -4   9 8730.21  301.38
  -1  -4   9 8957.95  301.40
   1   4  -9 9463.31  301.31
   1   4 -10  164.45   19.72
   1   4 -10  136.93   30.65
   1   4 -10  160.51   20.91
   1   4 -10  179.30   27.17
  -1  -4  10  198.01   24.87
  -1  -4  10  242.99   26.60
   1   4 -11 7170.85  243.36
   1   4 -11 7421.51  274.79
   1   4 -11 7612.03  268.74
   1   4 -11 7572.17  252.65
  -1  -4  11 7444.14  254.91
  -1  -4  11 7590.77  256.90
   1   4 -12   29.81   20.25
   1   4 -12  -14.48   22.25
   1   4 -12   -5.85   27.64
  -1  -4  12   31.48   23.33
   1   4 -13 2715.90  102.00
   1   4 -13 2956.33  103.05
   1   4 -13 2546.42  113.65
   1   4 -13 2569.29   99.17
  -1  -4  13 2560.66  104.17
  -1  -4  13 2705.17  108.14
   1   4 -14  -16.01   23.64
   1   4 -14   16.80   23.37
   1   4 -14   91.44   32.50
  -1  -4  14   91.03   29.66
  -1  -4  14   -1.46   22.64
   1   4 -15  402.24   33.29
   1   4 -15  520.75   40.53
   1   4 -15  465.79   40.12
  -1  -4  15  469.96   42.46
  -1  -4  15  447.48   39.15
   1   4 -16  282.08   27.68
  -1  -4  16  196.77   43.20
   1   4 -16  322.77   31.81
   1   4 -17  696.23   44.24
   1   4 -17  432.51   36.03
  -1  -4  17  531.60   42.40
   1   4 -17  452.92   39.69
  -1  -4  17  564.52   45.11
   1   4 -18   -2.19   35.61
   1   4 -18  175.92   39.07
   1   4 -18   64.03   20.97
  -1  -4  18  131.07   32.80
   1   4 -19 1429.53   68.91
   1   4 -19 1288.65   68.59
   1   4 -19 1074.61   53.06
  -1  -4  19 1187.69   71.39
  -1  -4  19  944.61   65.13
   1   3  -1  999.65   47.57
   1   3  -1  776.64   33.25
   1   3  -1  894.06   34.97
   1   3  -1  903.82   39.76
  -1  -3   1  872.45   33.84
  -1  -3   1  913.14   38.05
  -1  -3   1 1044.65   38.42
   1   3  -2 3225.43  115.76
   1   3  -2 3385.42  112.35
   1   3  -2 3208.06  112.42
   1   3  -2 3373.39  114.52
  -1  -3   2 3372.67  122.00
  -1  -3   2 3479.84  117.43
  -1  -3   2 3460.99  115.33
  -1  -3   2 3440.45  113.27
  -1  -3   2 3443.12  117.59
   1   3  -3 3101.09  111.31
   1   3  -3 3073.71  105.17
   1   3  -3 3129.84  118.81
   1   3  -3 3212.43  115.14
  -1  -3   3 3067.01  111.80
  -1  -3   3 3034.51  108.61
  -1  -3   3 3202.75  110.58
  -1  -3   3 3353.86  111.83
  -1  -3   3 3340.28  105.83
   1   3  -4   57.35   11.30
   1   3  -4   26.79   13.23
  -1  -3   4   11.14   12.41
  -1  -3   4   33.71   14.23
  -1  -3   4   36.09    8.22
   1   3  -5   28.63   11.03
  -1  -3   5   15.45   13.59
  -1  -3   5   41.53    8.55
   1   3  -5   68.31   20.00
   1   3  -5   34.03   11.08
  -1  -3   5   18.67   14.60
   1   3  -6 2184.86   78.10
   1   3  -6 2216.05   86.39
   1   3  -6 2340.32   81.67
   1   3  -6 2288.44   89.73
  -1  -3   6 2277.94   84.98
  -1  -3   6 2213.53   80.04
   1   3  -7  269.99   16.55
   1   3  -7  229.08   21.71
   1   3  -7  154.96   20.55
  -1  -3   7  154.08   18.30
   1   3  -816092.66  517.54
   1   3  -816019.54  521.78
   1   3  -815674.49  541.06
   1   3  -815700.79  513.08
  -1  -3   816268.15  512.53
  -1  -3   815768.88  513.45
   1   3  -9  137.90   14.75
   1   3  -9  133.97   18.80
   1   3  -9  179.99   25.20
  -1  -3   9  174.47   18.72
  -1  -3   9   76.04   20.17
   1   3 -1014254.22  445.73
   1   3 -1013944.21  441.03
   1   3 -1013872.38  470.73
   1   3 -1013847.31  457.03
  -1  -3  1013949.93  456.19
  -1  -3  1013553.68  443.85
   1   3 -11  357.91   22.28
   1   3 -11  347.02   32.18
   1   3 -11  401.25   27.68
   1   3 -11  347.60   31.67
  -1  -3  11  301.40   28.02
  -1  -3  11  351.40   29.62
  -1  -3  12 2464.07   92.78
  -1  -3  12 2587.52   92.66
   1   3 -12 2477.95   97.85
   1   3 -12 2471.96   94.93
   1   3 -12 2635.26  107.58
   1   3 -12 2546.51  104.02
   1   3 -13   70.59   14.43
   1   3 -13  213.84   23.67
   1   3 -13   88.22   23.80
   1   3 -13  133.83   24.35
  -1  -3  13  119.47   22.47
   1   3 -14  365.78   24.81
   1   3 -14  458.68   35.20
   1   3 -14  592.14   38.04
  -1  -3  14  465.16   39.96
  -1  -3  14  326.87   36.45
   1   3 -14  443.00   33.05
   1   3 -15  851.47   48.76
   1   3 -15  799.99   46.22
   1   3 -15  899.33   43.58
  -1  -3  15  699.41   46.36
   1   3 -16 2736.20   98.14
   1   3 -16 2440.04   99.57
   1   3 -16 2182.31  110.51
  -1  -3  16 2361.16   98.67
  -1  -3  16 2604.62  111.74
   1   3 -17 2985.42  111.52
   1   3 -17 2613.06  114.48
   1   3 -17 2457.57   91.11
  -1  -3  17 2494.91  103.23
  -1  -3  17 2875.03  107.56
   1   3 -18  220.65   38.14
   1   3 -18  347.42   37.32
   1   3 -18  309.23   27.97
  -1  -3  18  280.81   33.96
  -1  -3  18  325.80   37.69
   1   3 -19  857.49   52.82
   1   3 -19  685.42   46.38
  -1  -3  19  457.37   44.90
  -1  -3  19  601.59   44.74
   1   3 -20  108.09   33.98
   1   3 -20  273.09   38.61
  -1  -3  20  350.07   36.44
   1   2  -115456.44  540.29
   1   2  -115915.52  515.06
   1   2  -115998.51  507.52
   1   2  -116356.87  528.67
   1   2  -116785.67  508.98
   1   2  -116018.04  510.57
  -1  -2   116433.81  501.68
  -1  -2   116720.74  522.81
  -1  -2   115638.73  534.31
  -1  -2   115392.94  512.63
  -1  -2   116517.60  517.69
  -1  -2   116813.25  504.59
   1   2  -2 9861.42  320.92
   1   2  -2 9634.43  329.14
   1   2  -2 9953.56  315.70
   1   2  -2 9970.57  323.38
   1   2  -2 9676.05  307.80
  -1  -2   210099.38  328.01
  -1  -2   2 9566.35  323.46
  -1  -2   2 9705.43  318.26
  -1  -2   2 9342.82  312.41
  -1  -2   2 9964.31  322.22
  -1  -2   2 9900.73  312.97
  -1  -2   2 9875.62  312.89
   1   2  -359818.73 1840.11
   1   2  -361266.51 1865.50
   1   2  -361368.47 1857.65
   1   2  -362013.52 1866.45
  -1  -2   360790.79 1879.65
  -1  -2   359899.52 1903.38
  -1  -2   358443.23 1846.46
  -1  -2   357313.73 1834.35
  -1  -2   360426.88 1893.45
  -1  -2   362294.57 1837.05
   1   2  -360729.17 1865.44
   1   2  -358182.12 1863.56
   1   2  -4 1724.68   66.05
   1   2  -4 1853.19   69.92
   1   2  -4 1842.10   66.00
   1   2  -4 2044.84   76.20
   1   2  -4 1867.80   67.17
   1   2  -4 1822.70   85.50
  -1  -2   4 1890.31   69.67
  -1  -2   4 1995.18   70.82
  -1  -2   4 2070.76   72.39
  -1  -2   4 1884.39   67.31
  -1  -2   4 1797.86   71.86
   1   2  -553536.62 1667.74
   1   2  -552719.18 1674.68
   1   2  -553335.34 1668.20
   1   2  -555405.99 1685.08
  -1  -2   552705.95 1696.49
  -1  -2   554808.04 1679.92
   1   2  -553916.96 1699.90
   1   2  -553266.06 1679.04
  -1  -2   553178.73 1652.08
  -1  -2   554273.54 1641.06
  -1  -2   553956.55 1648.07
   1   2  -6  135.37   11.36
   1   2  -6  152.23   15.20
   1   2  -6  199.14   18.20
   1   2  -6  212.14   13.51
  -1  -2   6  177.73   12.31
  -1  -2   6  194.72   17.57
  -1  -2   6  217.42   18.31
  -1  -2   6  188.35   13.88
   1   2  -7 3889.67  143.03
   1   2  -7 3932.41  130.48
   1   2  -7 3860.01  133.66
   1   2  -7 4056.98  138.99
   1   2  -7 3896.15  137.44
  -1  -2   7 4144.76  145.46
  -1  -2   7 3814.84  147.28
   1   2  -8  254.41   17.68
   1   2  -8  252.55   16.87
   1   2  -8  261.88   21.94
   1   2  -8  246.41   18.22
   1   2  -8  344.67   27.13
  -1  -2   8  340.56   21.03
  -1  -2   8  324.81   25.65
   1   2  -9  514.19   23.00
   1   2  -9  588.51   24.34
   1   2  -9  482.41   25.95
   1   2  -9  495.14   26.79
   1   2  -9  378.23   27.08
   1   2 -10  201.62   19.42
   1   2 -10  161.46   21.05
  -1  -2  10  218.26   30.02
   1   2 -11 1110.72   49.09
   1   2 -11 1105.26   46.68
   1   2 -11 1181.86   48.26
  -1  -2  11  972.79   47.47
   1   2 -12   40.45   15.34
   1   2 -12   24.92   18.74
   1   2 -12   66.76   19.35
  -1  -2  12   61.18   18.28
  -1  -2  12  131.95   32.64
   1   2 -13 2705.73  100.89
   1   2 -13 2500.16   94.66
   1   2 -13 2501.78  104.91
   1   2 -13 2600.13   99.58
  -1  -2  13 2817.92  104.91
  -1  -2  13 2884.17  113.09
   1   2 -14 1626.92   66.96
   1   2 -14 1649.50   73.68
   1   2 -14 1739.34   72.18
   1   2 -14 1878.51   70.34
  -1  -2  14 1637.69   72.07
  -1  -2  14 1814.30   80.15
   1   2 -15 3543.48  142.89
   1   2 -15 3549.31  138.63
   1   2 -15 4358.10  162.97
  -1  -2  15 4166.26  147.92
  -1  -2  15 4423.79  158.10
   1   2 -16 4642.89  165.93
   1   2 -16 4413.91  167.95
   1   2 -16 4613.16  161.65
  -1  -2  16 4723.00  178.01
  -1  -2  16 4648.89  176.58
   1   2 -17  720.88   50.34
   1   2 -17  817.26   53.05
   1   2 -17  774.11   44.98
  -1  -2  17  698.50   53.02
  -1  -2  17 1027.91   57.69
   1   2 -18 1346.21   64.14
   1   2 -18 1393.77   72.55
   1   2 -18 1341.76   63.25
  -1  -2  18 1175.36   64.97
  -1  -2  18 1542.18   78.49
   1   2 -19   49.84   26.81
   1   2 -20   45.26   31.15
   1   2 -20  115.30   30.85
  -1  -2  20  147.39   30.75
   1   1  -1  288.30   17.53
   1   1  -1  267.83   13.54
   1   1  -1  346.36   17.28
   1   1  -1  311.80   16.44
  -1  -1   1  325.00   22.05
  -1  -1   1  320.86   13.13
  -1  -1   1  286.97   17.21
  -1  -1   1  339.54   12.41
  -1  -1   1  310.28   14.45
   1   1  -2 8738.84  279.90
   1   1  -2 8431.99  269.75
   1   1  -2 8955.32  271.45
   1   1  -2 8503.70  289.33
   1   1  -2 8956.79  281.30
   1   1  -2 8658.76  288.11
  -1  -1   2 8705.20  274.11
  -1  -1   2 8963.37  290.62
  -1  -1   2 8753.86  284.86
  -1  -1   2 8661.06  288.02
  -1  -1   2 8992.51  275.28
  -1  -1   2 8760.09  288.34
   1   1  -3 4080.57  134.52
   1   1  -3 4326.20  139.90
   1   1  -3 4394.65  135.98
   1   1  -3 4313.94  149.02
   1   1  -3 3948.75  131.17
   1   1  -3 4122.82  142.76
  -1  -1   3 4165.53  148.10
  -1  -1   3 4326.72  152.30
  -1  -1   3 4265.44  138.18
  -1  -1   3 4070.54  140.97
  -1  -1   3 4015.19  136.63
  -1  -1   3 4227.39  158.69
  -1  -1   415967.04  502.90
   1   1  -415676.24  502.96
   1   1  -415299.94  481.48
   1   1  -414550.29  487.77
   1   1  -415343.01  508.87
   1   1  -415741.63  498.37
   1   1  -415637.04  495.26
  -1  -1   415919.70  513.75
  -1  -1   415550.85  496.76
  -1  -1   415087.92  489.17
  -1  -1   415350.79  489.48
   1   1  -5  134.95   10.10
   1   1  -5  134.19   12.73
   1   1  -5   57.33   12.31
   1   1  -5  128.41   13.38
   1   1  -5  133.40   14.75
  -1  -1   5   95.21   12.69
  -1  -1   5  100.04   10.59
  -1  -1   5  115.34   11.15
   1   1  -6   73.26    8.36
   1   1  -6   72.94   12.52
   1   1  -6  121.08   15.09
   1   1  -6   12.36   13.09
  -1  -1   6   80.28    9.36
  -1  -1   6   25.09   15.27
  -1  -1   6   63.59    9.23
  -1  -1   6   70.55   13.27
   1   1  -7 1091.09   43.77
   1   1  -7  944.70   40.28
   1   1  -7  945.65   38.82
   1   1  -7  863.95   36.71
  -1  -1   7  841.19   39.98
  -1  -1   7 1004.78   45.15
  -1  -1   7  895.47   42.47
   1   1  -8 9140.71  295.72
   1   1  -8 9196.93  290.80
   1   1  -8 8779.73  300.50
   1   1  -8 9091.42  305.07
   1   1  -8 9322.27  312.43
  -1  -1   8 8745.18  304.83
   1   1  -9 3083.12  107.48
   1   1  -9 3309.12  110.94
   1   1  -9 3250.42  111.76
   1   1  -9 3101.41  108.68
   1   1  -9 3391.79  118.59
  -1  -1   9 2792.16  114.26
   1   1 -1014524.72  509.01
   1   1 -1016681.00  529.42
   1   1 -1017262.96  545.32
   1   1 -1015573.39  509.08
   1   1 -1017722.29  533.45
  -1  -1  1016145.62  511.21
   1   1 -11 3809.55  133.32
   1   1 -11 3864.38  127.66
   1   1 -11 3991.09  143.32
   1   1 -11 3715.32  136.81
   1   1 -11 3953.96  133.76
  -1  -1  11 3772.77  130.24
   1   1 -1213386.85  433.59
   1   1 -1213662.42  434.97
   1   1 -1213024.89  433.37
   1   1 -1212739.10  434.69
   1   1 -1213701.86  421.86
  -1  -1  1212548.44  435.32
   1   1 -13 2153.84   86.64
   1   1 -13 2051.48   86.54
   1   1 -13 2142.37   80.11
   1   1 -13 2142.59   88.51
   1   1 -13 2153.97   78.92
  -1  -1  13 2222.86   87.41
   1   1 -14 2757.10   99.55
   1   1 -14 2761.82   99.98
   1   1 -14 2872.58  108.37
   1   1 -14 2966.37  105.57
   1   1 -14 2756.31  104.83
  -1  -1  14 2775.60  114.41
   1   1 -15  161.30   26.08
   1   1 -15  172.23   26.74
   1   1 -15   40.80   29.94
   1   1 -15  203.19   24.49
  -1  -1  15   96.17   25.84
  -1  -1  16  949.48   51.46
   1   1 -16  941.49   46.66
   1   1 -16  907.31   47.44
   1   1 -16  983.87   57.34
   1   1 -16 1022.11   46.08
   1   1 -17   66.07   26.53
   1   1 -17  111.88   22.82
   1   1 -17  109.62   26.81
   1   1 -17   28.54   20.60
  -1  -1  17   22.22   30.24
   1   1 -18  895.81   53.41
   1   1 -18 1089.54   58.68
  -1  -1  18  888.64   64.07
   1   1 -19  155.39   31.11
   1   1 -19  176.33   32.43
  -1  -1  19  217.92   35.14
  -1  -1  19  217.26   36.75
   1   1 -20  288.15   28.20
   1   1 -20  344.67   32.03
  -1  -1  20  253.13   33.83
  -1  -1  20  250.40   40.62
   1   0  -1 4359.31  143.86
   1   0  -1 4131.77  134.67
   1   0  -1 4276.90  132.34
   1   0  -1 4262.86  141.67
   1   0  -2  956.13   37.19
   1   0  -2  866.78   33.62
   1   0  -2  841.98   35.29
   1   0  -2  858.82   29.86
   1   0  -2  751.88   39.75
  -1   0   2  908.22   31.90
  -1   0   2  973.28   32.99
  -1   0   2  943.68   29.05
  -1   0   2  916.70   34.15
  -1   0   2  947.92   30.68
  -1   0   2  986.68   37.37
   1   0  -3   41.96    8.46
   1   0  -3   49.40   13.12
   1   0  -3   17.99    6.93
   1   0  -3   29.80   10.11
   1   0  -3   27.22    7.66
   1   0  -3   52.35   10.56
  -1   0   3   22.54    6.92
  -1   0   3   68.37   12.19
  -1   0   3   25.52    5.04
  -1   0   3   24.76   11.12
  -1   0   3   26.61    7.83
   1   0  -4  470.99   22.19
   1   0  -4  539.10   26.84
   1   0  -4  514.28   19.42
   1   0  -4  584.04   29.82
   1   0  -4  499.14   22.16
   1   0  -4  498.97   22.40
  -1   0   4  488.49   23.98
  -1   0   4  396.79   26.01
  -1   0   4  463.66   18.11
  -1   0   4  584.09   28.40
  -1   0   4  507.14   23.58
  -1   0   4  530.90   23.88
   1   0  -5 2331.50   84.91
   1   0  -5 2140.61   79.90
   1   0  -5 2178.62   76.78
   1   0  -5 2384.17   86.15
   1   0  -5 2052.96   73.79
   1   0  -5 2178.10   78.43
  -1   0   5 2317.09   83.03
  -1   0   5 2220.79   72.50
  -1   0   5 2330.06   77.32
  -1   0   5 2074.52   80.22
  -1   0   5 2204.40   74.34
  -1   0   5 2384.55   75.67
   1   0  -6   78.25    9.64
   1   0  -6   95.75   15.57
   1   0  -6   79.22   12.62
   1   0  -6   78.36   15.99
   1   0  -6   71.63   13.62
   1   0  -6  127.41   14.16
  -1   0   6   81.71   11.98
  -1   0   6   61.40    8.88
  -1   0   6    7.11   18.00
  -1   0   6   62.08   11.58
  -1   0   6   87.87    9.67
   1   0  -7 1407.02   55.91
   1   0  -7 1391.17   58.29
   1   0  -7 1433.96   50.88
   1   0  -7 1448.85   52.70
   1   0  -7 1344.76   51.78
  -1   0   7 1243.05   48.60
  -1   0   7 1295.20   50.77
  -1   0   7 1392.30   61.07
  -1   0   7 1477.72   50.86
   1   0  -8  400.89   19.42
   1   0  -8  436.21   25.22
   1   0  -8  397.71   21.96
   1   0  -8  367.34   24.04
   1   0  -8  357.46   26.39
  -1   0   8  379.38   20.69
  -1   0   8  314.07   27.69
   1   0  -9 5730.79  189.09
   1   0  -9 5823.15  204.57
   1   0  -9 6086.08  197.09
   1   0  -9 6026.06  201.10
   1   0  -9 6092.32  196.27
  -1   0   9 5830.96  203.64
  -1   0   9 5575.60  215.40
   1   0 -10 1841.50   73.35
   1   0 -10 2029.91   77.97
   1   0 -10 1981.59   79.68
   1   0 -10 1904.18   73.57
  -1   0  10 1847.43   65.02
  -1   0  10 1852.86   73.02
   1   0 -11 4944.60  187.39
   1   0 -11 4796.73  171.77
   1   0 -11 5149.42  174.63
   1   0 -11 5246.73  171.62
  -1   0  11 5062.63  170.45
  -1   0  11 4613.11  168.91
   1   0 -12 1238.70   56.04
   1   0 -12 1257.93   58.11
   1   0 -12 1507.04   66.08
   1   0 -12 1522.62   56.58
  -1   0  12 1457.19   56.14
  -1   0  12 1341.92   64.53
   1   0 -13  119.21   23.09
   1   0 -13  103.48   24.99
   1   0 -13   37.74   19.57
  -1   0  13   29.67   11.20
  -1   0  13    9.17   27.24
   1   0 -14  441.75   35.44
   1   0 -14  537.00   34.34
   1   0 -14  437.28   39.87
  -1   0  14  477.99   28.53
  -1   0  14  397.07   35.00
   1   0 -15  742.19   39.73
   1   0 -15  843.54   41.72
   1   0 -15  945.15   43.80
   1   0 -15  766.45   40.37
  -1   0  15  790.02   39.16
  -1   0  15  703.95   46.41
   1   0 -16 4308.98  149.00
   1   0 -16 4720.67  159.73
   1   0 -16 4377.66  156.83
   1   0 -16 4518.19  155.63
  -1   0  16 4757.39  176.71
   1   0 -17  559.76   44.55
   1   0 -17  656.61   39.32
   1   0 -17  689.35   43.74
   1   0 -17  503.58   34.33
  -1   0  17  546.90   46.78
   1   0 -18 3732.01  151.24
   1   0 -18 3651.69  151.96
   1   0 -18 3644.75  146.32
  -1   0  18 3911.27  147.61
   1   0 -19  217.33   41.61
   1   0 -19  193.10   30.68
   1   0 -19  117.54   34.12
   1   0 -20  999.89   52.94
   1   0 -20  817.50   53.35
   1   0 -20 1002.37   65.93
  -1   0  20 1231.91   63.62
   1  -1   0 8847.10  296.33
   1  -1   0 9088.44  287.97
   1  -1   0 8810.47  287.40
   1  -1   0 8944.52  276.03
   1  -1   0 9251.95  283.03
   1  -1   0 9086.65  288.77
   1  -1   0 9219.77  292.34
  -1   1   0 8868.44  282.29
  -1   1   0 8761.39  282.48
   1  -1  -1 2525.18   91.46
   1  -1  -1 2640.38   92.14
   1  -1  -1 2611.85   85.50
   1  -1  -1 2532.61   84.09
   1  -1  -1 2463.18   87.86
   1  -1  -1 2637.92   87.95
  -1   1   1 2546.11   96.50
  -1   1   1 2571.49   86.40
  -1   1   1 2597.07   91.69
   1  -1  -228727.25  925.35
   1  -1  -228663.79  915.77
   1  -1  -228468.75  896.93
   1  -1  -228863.02  898.42
   1  -1  -228260.79  910.89
   1  -1  -230497.96  931.32
  -1   1   229056.78  926.51
  -1   1   228514.52  923.13
  -1   1   230142.79  911.85
  -1   1   229128.97  899.97
  -1   1   229706.98  931.69
  -1   1   229856.75  904.64
   1  -1  -3   87.06   10.38
   1  -1  -3   70.28    7.95
   1  -1  -3   80.78   11.17
   1  -1  -3  124.76   11.82
   1  -1  -3   77.58   10.28
  -1   1   3  138.78   12.33
  -1   1   3  131.27   12.00
  -1   1   3  122.49    7.98
  -1   1   3   99.76   14.97
  -1   1   3  113.23   11.57
  -1   1   3   97.83   12.07
   1  -1  -479877.10 2425.57
   1  -1  -480204.44 2438.73
   1  -1  -479468.24 2460.46
   1  -1  -477500.05 2442.58
   1  -1  -480138.48 2487.99
   1  -1  -479442.86 2441.65
  -1   1   478319.83 2420.62
  -1   1   480232.32 2424.20
  -1   1   476074.78 2427.56
  -1   1   474618.17 2428.71
  -1   1   481250.84 2458.81
   1  -1  -474459.80 2403.59
   1  -1  -5 2600.10   92.52
   1  -1  -5 2405.30   91.38
   1  -1  -5 2638.00   95.34
   1  -1  -5 2598.93   92.16
   1  -1  -5 2351.51   85.32
   1  -1  -5 2803.44   94.59
   1  -1  -5 2511.84   85.81
  -1   1   5 2520.24   90.00
  -1   1   5 2550.00   90.31
  -1   1   5 2491.00   89.62
  -1   1   5 2626.36   98.68
  -1   1   5 2570.83   94.25
   1  -1  -643854.98 1341.54
   1  -1  -643169.14 1314.82
   1  -1  -640495.78 1330.39
   1  -1  -643620.05 1353.82
   1  -1  -642250.64 1339.03
   1  -1  -643366.04 1355.31
   1  -1  -642672.50 1337.84
  -1   1   640896.21 1334.36
  -1   1   642671.28 1332.12
  -1   1   640472.04 1326.73
  -1   1   643699.11 1324.33
  -1   1   642526.12 1325.38
   1  -1  -7 1804.00   62.65
   1  -1  -7 1679.29   62.60
   1  -1  -7 1902.74   61.05
   1  -1  -7 1674.08   69.88
   1  -1  -7 1745.26   62.80
   1  -1  -7 1820.93   68.16
  -1   1   7 1724.56   66.38
  -1   1   7 1668.73   61.25
   1  -1  -8 6105.23  208.08
   1  -1  -8 6262.23  221.14
   1  -1  -8 6349.00  198.46
   1  -1  -8 6003.83  214.63
   1  -1  -8 5990.84  211.05
   1  -1  -8 6075.82  211.58
  -1   1   8 6237.70  204.75
  -1   1   8 5882.91  224.04
   1  -1  -9   27.11   15.22
   1  -1  -9   47.95   15.38
   1  -1  -9   26.80   16.85
  -1   1   9   52.88   12.14
  -1   1   9  -42.69   22.71
   1  -1 -10   99.18   18.07
   1  -1 -10  139.26   18.65
   1  -1 -10   74.05   19.96
   1  -1 -10   90.16   16.03
  -1   1  10  223.15   27.43
   1  -1 -11  663.05   35.05
   1  -1 -11  616.72   31.68
   1  -1 -11  508.46   35.73
   1  -1 -11  659.17   32.83
  -1   1  11  501.71   41.72
   1  -1 -12  327.21   30.15
   1  -1 -12  331.65   28.87
   1  -1 -12  342.18   23.00
  -1   1  12  440.42   22.39
  -1   1  12  369.64   36.62
   1  -1 -13  118.01   28.87
   1  -1 -13   29.57   20.71
  -1   1  13    3.14   16.48
  -1   1  13  -47.72   26.62
   1  -1 -14  436.65   36.12
   1  -1 -14  597.90   33.28
   1  -1 -14  481.25   42.77
   1  -1 -14  539.11   32.90
  -1   1  14  545.39   28.65
  -1   1  14  624.28   47.32
   1  -1 -15 1894.81   76.48
   1  -1 -15 1770.88   82.14
   1  -1 -15 2033.13   80.76
   1  -1 -15 1984.27   74.76
  -1   1  15 1959.77   72.25
  -1   1  15 1813.36   83.95
   1  -1 -16  142.08   30.20
   1  -1 -16  243.05   26.31
   1  -1 -16  164.23   20.25
  -1   1  16  175.69   18.84
   1  -1 -17 2071.91   83.59
   1  -1 -17 1907.86   81.89
   1  -1 -17 1925.46   89.10
  -1   1  17 2059.33   86.61
   1  -1 -18  113.25   31.27
   1  -1 -18  133.80   25.29
   1  -1 -18   73.47   37.26
  -1   1  18   63.84   33.18
   1  -1 -19  662.92   40.84
   1  -1 -19  479.68   40.74
   1  -1 -19  657.00   46.86
  -1   1  19  871.02   51.08
   1  -1 -20  111.70   37.32
   1  -1 -20  162.02   29.39
   1  -1 -20   46.36   29.15
  -1   1  20  135.11   32.08
   1  -2   0    3.80    6.66
   1  -2   0  -14.80   10.58
   1  -2   0   65.29   11.20
   1  -2   0   22.09    3.28
   1  -2   0   82.48   12.85
   1  -2   0   36.91    8.15
  -1   2   0   29.40    9.04
  -1   2   0    1.13   10.01
  -1   2   0   48.03   11.93
  -1   2   0   43.00   10.14
   1  -2  -1 1670.19   58.60
   1  -2  -1 1544.09   62.97
   1  -2  -1 1551.83   54.29
   1  -2  -1 1628.72   59.11
   1  -2  -1 1631.46   58.99
  -1   2   1 1632.21   53.53
  -1   2   1 1431.30   58.31
  -1   2   1 1646.48   54.93
  -1   2   1 1526.79   52.64
  -1   2   1 1475.75   62.55
  -1   2   1 1615.76   57.68
   1  -2  -2   33.84   12.68
   1  -2  -2   10.75    7.55
   1  -2  -2   17.69   13.69
   1  -2  -2   50.87   11.51
   1  -2  -2   15.92    7.46
   1  -2  -2   25.95   14.77
   1  -2  -2   42.80    8.26
  -1   2   2   68.10   14.76
  -1   2   2   37.72    9.30
  -1   2   2   17.30   12.11
  -1   2   2   31.14   11.44
   1  -2  -3 3425.28  121.56
   1  -2  -3 3558.89  129.72
   1  -2  -3 3574.31  121.84
   1  -2  -3 3675.48  119.10
   1  -2  -3 3554.46  128.64
   1  -2  -3 3600.15  126.75
  -1   2   3 3738.24  122.37
  -1   2   3 3874.39  123.36
  -1   2   3 3762.32  131.53
  -1   2   3 3680.16  119.26
  -1   2   3 3515.78  147.19
  -1   2   3 3635.60  126.66
   1  -2  -4   -8.15   10.82
   1  -2  -4  -12.16   10.63
   1  -2  -4   33.68   10.56
   1  -2  -4    4.25   12.76
   1  -2  -4    4.84   10.55
  -1   2   4   21.58   11.72
  -1   2   4  -19.10    9.25
  -1   2   4   36.38   12.17
  -1   2   4   -4.95   13.05
  -1   2   4   17.82   11.63
  -1   2   4   11.07    8.80
   1  -2  -5 3079.18  108.72
   1  -2  -5 3035.00  102.51
   1  -2  -5 3072.87  103.16
   1  -2  -5 3123.64  109.46
   1  -2  -5 3052.16  107.22
   1  -2  -5 3022.03  111.96
  -1   2   5 3025.33  114.14
  -1   2   5 3420.75  108.00
  -1   2   5 2845.29  108.80
  -1   2   5 3219.15  104.35
  -1   2   5 3347.45  104.88
   1  -2  -6   32.89    9.61
   1  -2  -6   50.52   11.47
   1  -2  -6   69.37   13.40
   1  -2  -6   33.04   13.76
   1  -2  -6   85.62    9.88
  -1   2   6  117.49   15.02
  -1   2   6  108.17   10.88
  -1   2   6   75.05   11.31
   1  -2  -7 1448.73   62.11
   1  -2  -7 1595.99   63.91
   1  -2  -7 1539.42   62.89
   1  -2  -7 1498.46   52.75
   1  -2  -7 1385.40   57.19
  -1   2   7 1483.45   52.53
  -1   2   7 1224.92   61.24
   1  -2  -8 2935.51  113.27
   1  -2  -8 2858.26  115.67
   1  -2  -8 2846.30  117.92
   1  -2  -8 2874.71   98.26
   1  -2  -8 3066.28  112.09
  -1   2   8 2977.12  113.09
  -1   2   8 2958.89  108.98
   1  -2  -9 7589.76  249.05
   1  -2  -9 7394.72  249.39
   1  -2  -9 7480.39  260.31
   1  -2  -9 8041.91  262.67
  -1   2   9 7670.09  255.98
  -1   2   9 7158.70  240.14
   1  -2 -10 9438.47  310.04
   1  -2 -10 9968.38  312.68
   1  -2 -10 8693.99  298.32
   1  -2 -10 9372.64  309.58
  -1   2  10 9529.56  306.64
  -1   2  10 8911.05  313.76
   1  -2 -1111980.10  397.68
   1  -2 -1111816.29  394.29
   1  -2 -1112206.20  406.30
   1  -2 -1111858.78  401.25
  -1   2  1112001.93  378.95
  -1   2  1111624.67  394.61
   1  -2 -1212739.79  424.86
   1  -2 -1212068.47  413.66
   1  -2 -1212544.66  410.49
   1  -2 -1211797.61  395.40
  -1   2  1212326.09  393.43
  -1   2  1212341.05  404.27
   1  -2 -13 4286.99  149.63
   1  -2 -13 4010.58  142.31
   1  -2 -13 3803.17  149.24
   1  -2 -13 4112.59  142.41
  -1   2  13 4237.43  147.00
  -1   2  13 3547.27  146.19
   1  -2 -14 3103.61  124.64
   1  -2 -14 3536.38  123.93
   1  -2 -14 3451.24  139.70
   1  -2 -14 3497.46  126.89
  -1   2  14 3537.47  128.19
  -1   2  14 3596.77  121.65
   1  -2 -15 1250.32   59.73
   1  -2 -15 1318.30   58.67
   1  -2 -15 1291.91   59.65
   1  -2 -15 1189.75   49.42
  -1   2  15 1312.39   56.21
   1  -2 -16   83.22   29.36
   1  -2 -16  220.31   33.41
  -1   2  16   55.73   20.26
   1  -2 -17  571.93   42.16
   1  -2 -17  682.14   46.07
   1  -2 -17  660.94   47.54
  -1   2  17  544.05   43.00
   1  -2 -18  123.27   28.95
   1  -2 -18   32.09   28.46
  -1   2  18   44.84   31.63
   1  -2 -19  717.44   50.48
   1  -2 -19  873.73   48.88
   1  -2 -19  851.97   53.18
  -1   2  19  855.86   58.95
   1  -2 -20  151.12   26.64
   1  -2 -20   48.51   27.28
   1  -3   045677.84 1409.71
   1  -3   046910.54 1421.09
   1  -3   044837.41 1425.26
   1  -3   043788.65 1432.73
   1  -3   046050.88 1448.53
  -1   3   045342.89 1420.40
  -1   3   044983.02 1423.62
  -1   3   045468.03 1398.80
  -1   3   046591.00 1406.15
  -1   3   046411.84 1385.49
  -1   3   045163.23 1419.88
   1  -3  -1  383.98   19.02
   1  -3  -1  442.94   20.53
   1  -3  -1  417.37   22.05
   1  -3  -1  483.19   26.47
   1  -3  -1  445.73   19.40
  -1   3   1  365.42   22.80
  -1   3   1  423.39   22.49
  -1   3   1  472.73   24.76
  -1   3   1  460.84   18.77
  -1   3   1  435.24   25.07
  -1   3   1  365.15   20.71
   1  -3  -2 2775.15   96.25
   1  -3  -2 3010.45  103.01
   1  -3  -2 2676.72  101.30
   1  -3  -2 2783.64  104.68
   1  -3  -2 3025.56   99.24
   1  -3  -2 2727.66   87.74
  -1   3   2 2719.00  101.96
  -1   3   2 2806.73  103.01
  -1   3   2 2906.86   96.62
  -1   3   2 2970.33   95.03
  -1   3   2 2776.56  107.08
  -1   3   2 2708.90   98.64
   1  -3  -3   42.80    8.75
   1  -3  -3    3.07    9.87
   1  -3  -3  -16.96   13.30
   1  -3  -3   20.57    8.27
  -1   3   3  -16.07   11.60
  -1   3   3    2.33    9.52
  -1   3   3   33.78    6.57
  -1   3   3   70.81   12.22
  -1   3   3   38.25    8.92
  -1   3   3   43.97   11.26
   1  -3  -4 2849.91   97.94
   1  -3  -4 2907.46  106.83
   1  -3  -4 3019.65  113.90
   1  -3  -4 2942.23   98.77
   1  -3  -4 3009.29  102.36
   1  -3  -4 2858.42   96.82
  -1   3   4 2744.90  101.82
  -1   3   4 3081.89  109.37
  -1   3   4 2876.90  104.05
   1  -3  -5  743.82   41.68
   1  -3  -5  818.76   41.39
   1  -3  -5  748.69   39.26
  -1   3   5  860.31   41.96
  -1   3   5  957.54   39.13
  -1   3   5  749.16   35.02
   1  -3  -6 4001.16  144.36
   1  -3  -6 3695.38  148.29
   1  -3  -6 4153.19  143.74
  -1   3   6 4066.61  143.24
  -1   3   6 4232.12  142.39
  -1   3   6 4754.78  153.97
   1  -3  -7  578.13   33.94
   1  -3  -7  565.25   29.64
   1  -3  -7  514.36   28.32
  -1   3   7  590.11   34.26
  -1   3   7  634.07   31.04
   1  -3  -8  246.85   21.12
   1  -3  -8  279.12   20.07
  -1   3   8  240.97   18.19
  -1   3   8  230.73   27.27
   1  -3  -9   34.09   19.00
   1  -3  -9  106.55   14.28
   1  -3  -9   41.67   20.67
   1  -3  -9   -0.07   16.55
  -1   3   9   44.68   23.77
   1  -3 -10  688.86   37.75
   1  -3 -10  715.44   37.73
   1  -3 -10  865.71   42.07
   1  -3 -10  897.88   37.50
  -1   3  10  768.55   35.57
  -1   3  10  842.75   46.24
   1  -3 -11 2161.56   73.89
   1  -3 -11 1895.15   83.04
   1  -3 -11 1935.18   81.91
   1  -3 -11 1930.65   78.42
  -1   3  11 1778.61   74.58
  -1   3  11 1919.65   85.02
   1  -3 -12   -3.19   21.47
   1  -3 -12   40.54   22.13
   1  -3 -12  -27.46   14.13
  -1   3  12   71.40   20.98
  -1   3  12   27.62   31.00
   1  -3 -13  453.60   36.88
   1  -3 -13  409.21   29.66
   1  -3 -13  364.04   28.58
   1  -3 -13  436.13   27.34
  -1   3  13  345.19   31.52
  -1   3  13  440.91   37.96
   1  -3 -14  743.72   41.71
   1  -3 -14  595.49   37.50
   1  -3 -14  616.12   30.01
  -1   3  14  578.97   45.05
  -1   3  14  518.41   38.59
   1  -3 -15 2645.05  112.72
   1  -3 -15 2861.98  112.31
   1  -3 -15 2659.95  126.55
  -1   3  15 2857.15  105.92
  -1   3  15 2933.31  107.53
   1  -3 -16   27.91   22.53
   1  -3 -16   46.51   27.30
  -1   3  16   83.42   19.55
  -1   3  16 -100.30   34.98
   1  -3 -17 4521.17  166.39
   1  -3 -17 4886.69  178.13
   1  -3 -17 5130.67  191.61
  -1   3  17 4666.69  176.26
   1  -3 -18   46.70   27.10
   1  -3 -18  -15.08   32.54
  -1   3  18  115.59   41.39
   1  -3 -19 2516.40  108.53
   1  -3 -19 2427.99  106.23
  -1   3  19 2852.12  125.40
   1  -4   0  267.46   20.17
   1  -4   0  284.51   13.93
   1  -4   0  300.42   19.30
  -1   4   0  232.56   17.69
  -1   4   0  327.71   19.27
  -1   4   0  299.04   12.98
  -1   4   0  223.68   16.91
   1  -4  -1 6461.59  231.32
   1  -4  -1 6106.89  225.38
  -1   4   1 6839.08  248.76
  -1   4   1 6951.23  221.45
  -1   4   1 6760.26  213.24
  -1   4   1 6675.60  227.97
  -1   4   2 1131.43   41.29
   1  -4  -2  959.26   42.98
   1  -4  -2 1002.07   44.09
  -1   4   2 1158.05   40.22
  -1   4   2 1178.40   46.16
  -1   4   2 1119.84   39.87
  -1   4   2  993.47   46.86
   1  -4  -328454.90  850.85
   1  -4  -326638.94  863.32
   1  -4  -327487.28  897.99
  -1   4   325189.79  876.09
  -1   4   327766.52  846.02
  -1   4   328102.62  852.63
  -1   4   326573.56  856.67
   1  -4  -411041.33  367.51
   1  -4  -411494.19  362.59
   1  -4  -410695.70  354.06
  -1   4   411242.07  373.50
  -1   4   410887.63  357.79
  -1   4   411204.38  358.85
  -1   4   410099.75  360.84
   1  -4  -525242.75  786.30
   1  -4  -524570.75  760.54
   1  -4  -524534.23  767.52
  -1   4   523688.10  776.09
  -1   4   521522.08  785.46
  -1   4   525157.92  759.42
  -1   4   525210.91  775.42
  -1   4   6 9445.60  318.82
   1  -4  -6 9793.15  313.42
   1  -4  -6 9259.38  314.59
   1  -4  -6 9081.30  306.85
  -1   4   6 9851.13  313.68
  -1   4   6 9597.79  317.14
  -1   4   7 8578.99  294.34
   1  -4  -7 9484.93  309.52
   1  -4  -7 8743.23  311.61
   1  -4  -7 9129.97  294.35
  -1   4   7 9332.43  309.05
  -1   4   7 9116.74  299.09
  -1   4   8 3040.65  109.32
   1  -4  -8 2873.85  103.00
   1  -4  -8 2729.37  114.30
   1  -4  -8 3177.30  110.56
  -1   4   8 3253.74  111.51
  -1   4   8 3014.03  104.25
   1  -4  -9  996.73   40.77
   1  -4  -9  823.80   42.15
   1  -4  -9  675.03   45.79
  -1   4   9  902.86   41.69
  -1   4   9  889.96   42.07
  -1   4   9  832.72   38.20
   1  -4 -10  663.43   36.64
   1  -4 -10  522.91   33.98
  -1   4  10  667.42   38.12
  -1   4  10  661.19   38.88
  -1   4  10  630.00   33.11
   1  -4 -11   26.60   17.35
   1  -4 -11   13.22   20.80
   1  -4 -11   27.32   20.47
   1  -4 -11    2.93   21.06
  -1   4  11  119.64   19.49
   1  -4 -12 1961.91   80.76
   1  -4 -12 2030.63   77.85
   1  -4 -12 1697.39   73.08
   1  -4 -12 1724.99   72.39
  -1   4  12 1717.58   69.95
  -1   4  12 1806.96   79.65
   1  -4 -13  206.76   27.52
   1  -4 -13  230.65   25.07
   1  -4 -13  263.97   21.99
  -1   4  13  178.97   25.64
  -1   4  13  292.29   38.26
   1  -4 -14   63.59   22.86
   1  -4 -14    9.43   24.58
   1  -4 -14   -0.66   14.59
  -1   4  14  109.02   22.52
   1  -4 -14  100.64   30.20
   1  -4 -15   80.56   23.64
   1  -4 -15   23.64   27.09
  -1   4  15   10.25   34.67
   1  -4 -16  314.10   33.84
   1  -4 -16  397.47   36.26
  -1   4  16  284.63   25.59
   1  -4 -17  199.95   28.86
   1  -4 -17  320.24   23.94
   1  -4 -17  370.71   38.52
  -1   4  17  386.04   45.45
   1  -4 -18   17.06   22.77
   1  -4 -18   87.12   29.17
  -1   4  18  -49.36   37.02
   1  -4 -18  118.83   26.81
  -1   5   014856.06  473.79
   1  -5   015081.72  490.26
   1  -5   015932.65  482.77
   1  -5   014800.77  486.62
  -1   5   015269.90  493.90
  -1   5   015348.06  503.71
  -1   5   015232.27  487.67
   1  -5  -1 1326.08   54.92
   1  -5  -1 1284.02   52.28
  -1   5   1 1475.29   55.61
  -1   5   1 1417.08   52.31
  -1   5   1 1396.09   45.14
  -1   5   1 1335.66   56.80
   1  -5  -2 3960.44  148.16
   1  -5  -2 3709.14  138.17
  -1   5   2 3851.63  146.34
  -1   5   2 4037.39  136.02
  -1   5   2 3729.59  122.67
  -1   5   2 3956.40  129.71
  -1   5   2 3848.91  132.40
   1  -5  -3   -4.86   17.12
  -1   5   3   63.08    8.40
   1  -5  -3   40.28   14.96
   1  -5  -3   56.89   18.94
  -1   5   3  107.10   13.45
  -1   5   3   90.69   14.03
   1  -5  -4  145.60   19.40
  -1   5   4   79.43   15.30
   1  -5  -4  120.86   19.64
   1  -5  -4  127.00   22.45
  -1   5   4   78.07   13.12
   1  -5  -5  142.94   19.05
   1  -5  -5   41.94   20.97
  -1   5   5  104.53   17.42
   1  -5  -5   52.04   18.81
   1  -5  -6   21.90   18.25
   1  -5  -6   25.19   15.65
   1  -5  -6   23.21   21.42
  -1   5   6   92.98   18.61
  -1   5   6   14.08   22.25
  -1   5   6   78.41   16.36
   1  -5  -7 1457.44   59.05
   1  -5  -7 1403.17   55.84
   1  -5  -7 1155.47   60.73
  -1   5   7 1328.18   58.64
  -1   5   7 1375.12   59.75
  -1   5   7 1320.71   52.39
   1  -5  -8  943.81   41.41
   1  -5  -8  880.56   45.11
   1  -5  -8  787.28   48.90
  -1   5   8  923.49   40.79
  -1   5   8  895.84   40.35
   1  -5  -9 2581.41   98.76
   1  -5  -9 2713.75  108.43
  -1   5   9 2965.87  107.09
  -1   5   9 2718.22  102.19
   1  -5  -9 2984.87  107.80
  -1   5   9 3045.50  108.34
   1  -5 -10 1524.13   61.28
   1  -5 -10 1635.26   73.16
   1  -5 -10 1629.08   68.36
  -1   5  10 1507.20   65.25
  -1   5  10 1606.70   62.34
   1  -5 -11 8765.12  300.35
   1  -5 -11 9439.40  320.94
   1  -5 -11 9126.18  309.27
  -1   5  11 9864.22  319.61
  -1   5  11 9512.59  312.18
  -1   5  11 9379.56  311.95
   1  -5 -12  632.39   42.76
   1  -5 -12  708.12   40.35
   1  -5 -12  687.05   41.56
   1  -5 -12  613.80   37.74
  -1   5  12  618.15   37.06
  -1   5  12  641.35   43.83
   1  -5 -13 7020.02  231.33
   1  -5 -13 7196.26  239.05
   1  -5 -13 6092.55  245.01
  -1   5  13 7506.27  243.62
  -1   5  13 6932.04  248.53
   1  -5 -13 6879.16  260.54
   1  -5 -14  154.00   26.13
  -1   5  14  295.14   25.41
   1  -5 -14  119.86   22.18
  -1   5  14  274.92   31.19
   1  -5 -15  962.76   53.79
   1  -5 -15 1087.53   56.73
   1  -5 -15 1229.94   64.03
  -1   5  15 1184.43   51.33
  -1   5  15 1214.45   63.54
   1  -5 -16  342.80   31.83
   1  -5 -16  367.86   41.35
   1  -5 -16  299.10   37.69
  -1   5  16  434.44   33.45
  -1   5  16  515.68   44.03
   1  -5 -17  175.26   29.71
   1  -5 -17   -2.65   28.83
  -1   5  17  142.23   35.38
   1  -6   0  765.07   39.42
   1  -6   0  851.01   33.77
   1  -6   0  942.31   45.35
  -1   6   0  939.44   42.09
  -1   6   0  899.43   41.79
   1  -6  -1 4771.84  159.91
   1  -6  -1 4738.83  159.44
  -1   6   1 4813.29  163.42
  -1   6   1 4744.17  162.49
  -1   6   1 4013.09  143.91
  -1   6   1 4721.32  151.40
  -1   6   1 4559.28  150.47
   1  -6  -2  224.74   23.15
   1  -6  -2  294.87   25.79
  -1   6   2  129.53   26.84
  -1   6   2  170.51   19.25
  -1   6   2  200.22   16.55
  -1   6   2  195.35   22.17
   1  -6  -3  325.43   23.91
   1  -6  -3  399.04   27.01
   1  -6  -3  279.75   28.18
  -1   6   3  347.20   20.58
  -1   6   3  400.22   27.08
  -1   6   4  744.45   40.42
  -1   6   4  780.83   40.19
   1  -6  -4  794.30   38.24
   1  -6  -4  804.91   44.02
   1  -6  -4  782.63   43.22
  -1   6   4  696.85   33.87
   1  -6  -5 2749.60   96.18
   1  -6  -5 2877.99  107.68
   1  -6  -5 2857.46  108.90
  -1   6   5 2615.43  114.88
  -1   6   5 3036.97  102.01
  -1   6   5 2692.01  101.11
   1  -6  -6 3265.28  118.96
   1  -6  -6 3145.87  113.68
   1  -6  -6 3211.03  117.93
  -1   6   6 3546.08  127.85
  -1   6   6 3363.40  120.01
  -1   6   6 3438.04  122.33
   1  -6  -7 1454.79   61.26
   1  -6  -7 1474.37   61.36
   1  -6  -7 1528.85   61.75
  -1   6   7 1641.94   73.31
  -1   6   7 1639.44   65.71
  -1   6   7 1633.55   62.57
   1  -6  -8 5153.74  168.66
   1  -6  -8 5038.03  173.72
  -1   6   8 5246.18  183.62
  -1   6   8 4591.53  172.51
  -1   6   8 5019.23  175.05
   1  -6  -8 5081.04  164.53
   1  -6  -9  326.35   30.31
   1  -6  -9  572.35   35.50
   1  -6  -9  464.28   32.74
  -1   6   9  572.83   42.10
  -1   6   9  353.50   30.78
  -1   6   9  463.94   27.49
   1  -6 -10   48.03   30.81
  -1   6  10   31.44   27.59
  -1   6  10  108.05   18.58
   1  -6 -10    3.64   19.66
   1  -6 -10  115.49   28.13
   1  -6 -11  101.44   25.58
  -1   6  11   52.16   27.14
  -1   6  11   -0.33   18.76
   1  -6 -12  207.57   27.13
   1  -6 -12  272.30   28.44
   1  -6 -12  261.20   34.03
  -1   6  12  126.77   30.97
  -1   6  12  161.67   22.53
   1  -6 -13  177.10   29.04
   1  -6 -13  245.82   38.68
  -1   6  13  329.27   29.27
   1  -6 -14  202.17   24.70
   1  -6 -14  290.84   38.40
   1  -6 -14  316.66   39.61
  -1   6  14  232.15   28.66
  -1   6  14  254.14   41.30
  -1   6  15  246.93   29.73
  -1   6  15  313.02   34.45
   1  -6 -16 1192.87   59.56
   1  -6 -16 1157.84   65.83
  -1   6  16 1020.95   53.12
  -1   6  16  992.21   59.71
   1  -7   0   37.47   11.69
   1  -7   0   64.73   26.86
  -1   7   0   26.47   20.53
  -1   7   0   78.20   17.04
  -1   7   0   64.81   19.79
  -1   7   1  447.40   26.49
   1  -7  -1  544.16   33.61
  -1   7   1  468.10   33.61
  -1   7   1  513.53   27.12
  -1   7   1  467.37   27.91
   1  -7  -2  335.50   25.49
   1  -7  -2  330.87   28.93
  -1   7   2  220.36   24.91
  -1   7   2  205.10   18.32
  -1   7   2  308.00   24.74
   1  -7  -3 2245.56   88.65
   1  -7  -3 2520.18   94.08
   1  -7  -3 2189.89   88.10
  -1   7   3 2522.10   96.23
  -1   7   3 2492.58   82.53
  -1   7   3 2253.48   86.98
   1  -7  -4 2868.04  110.25
   1  -7  -4 3144.98  118.10
   1  -7  -4 2777.26  108.91
  -1   7   4 3019.18  106.41
  -1   7   4 2837.35  101.49
  -1   7   4 3027.20  112.55
   1  -7  -5 5729.81  202.68
   1  -7  -5 5776.59  208.80
   1  -7  -5 5498.60  189.48
  -1   7   5 5859.41  217.49
  -1   7   5 5828.44  193.60
  -1   7   5 5681.88  197.22
   1  -7  -6 3440.10  117.07
  -1   7   6 3188.04  115.02
   1  -7  -6 3033.15  107.74
  -1   7   6 3286.81  115.88
  -1   7   6 2922.54  110.89
   1  -7  -7 3490.62  131.43
   1  -7  -7 3977.75  137.49
   1  -7  -7 3396.77  125.50
  -1   7   7 3947.72  139.53
  -1   7   7 3479.99  132.23
  -1   7   7 3685.56  128.11
  -1   7   8  302.93   30.76
  -1   7   8  310.65   30.93
  -1   7   8  301.78   34.37
   1  -7  -8  323.24   30.55
   1  -7  -9  132.36   24.12
   1  -7  -9   87.36   20.68
   1  -7  -9  134.58   28.65
  -1   7   9  152.29   25.30
  -1   7   9  149.56   31.29
   1  -7 -10  -41.85   23.27
   1  -7 -10   89.47   32.71
  -1   7  10  -39.23   26.48
  -1   7  10   67.31   21.37
   1  -7 -11  983.39   47.60
   1  -7 -11  898.68   55.99
   1  -7 -11  811.13   55.00
  -1   7  11  831.98   54.47
  -1   7  11  708.52   39.30
   1  -7 -12  101.45   23.31
   1  -7 -12  144.55   25.66
   1  -7 -12  129.07   29.54
  -1   7  12   81.10   30.55
  -1   7  12  179.40   28.24
   1  -7 -13  950.52   55.12
  -1   7  13  965.46   54.45
   1  -7 -13  803.87   48.75
  -1   7  13  844.29   54.29
   1  -7 -14  161.25   35.27
   1  -7 -14  375.32   44.46
  -1   7  14  300.97   39.16
   1  -8   0 2330.45   92.39
   1  -8   0 2251.29   91.28
  -1   8   0 2299.07   84.66
  -1   8   0 2155.98   83.97
  -1   8   0 2178.24   80.22
  -1   8   0 2282.26   86.83
   1  -8  -1 6721.88  222.66
   1  -8  -1 6106.10  216.51
  -1   8   1 6211.21  217.96
  -1   8   1 6153.68  216.61
  -1   8   1 6162.41  204.78
  -1   8   1 6263.69  217.54
   1  -8  -2 2589.94   98.96
   1  -8  -2 2558.19  101.34
   1  -8  -2 2470.30   95.44
  -1   8   2 2377.89   91.95
  -1   8   2 2302.85   89.04
  -1   8   2 2600.50   97.74
   1  -8  -3  343.40   35.26
   1  -8  -3  211.43   23.71
   1  -8  -3  308.17   26.31
  -1   8   3  259.14   22.29
  -1   8   3  352.32   28.42
   1  -8  -4  706.51   37.87
   1  -8  -4  558.19   43.22
   1  -8  -4  701.05   36.49
  -1   8   4  736.57   45.14
  -1   8   4  626.12   37.32
   1  -8  -5   47.74   26.52
   1  -8  -5   62.97   25.72
   1  -8  -5   19.42   23.46
  -1   8   5   98.32   21.40
  -1   8   5   -5.36   23.29
   1  -8  -6   22.90   16.95
   1  -8  -6   83.32   27.14
   1  -8  -6  160.30   31.40
  -1   8   6  -21.45   22.97
  -1   8   6   -2.19   20.69
  -1   8   6   73.42   23.72
   1  -8  -7  107.64   23.80
   1  -8  -7   72.67   24.09
  -1   8   7    5.57   25.74
   1  -8  -8   27.94   21.80
   1  -8  -8  -34.61   22.99
   1  -8  -8  -48.36   23.88
  -1   8   8   40.37   31.49
   1  -8  -9  120.49   29.31
   1  -8  -9  -18.12   28.57
  -1   8   9    7.42   27.23
  -1   8   9   88.25   21.40
   1  -8 -10 1671.61   83.45
   1  -8 -10 1543.93   72.46
  -1   8  10 1261.73   70.45
  -1   8  10 1463.62   69.89
   1  -8 -11   24.16   30.17
   1  -8 -11   18.92   29.17
  -1   8  11   71.49   32.57
   1  -8 -12 2346.00   99.49
   1  -8 -12 2214.78   81.16
  -1   8  12 2363.99   99.93
   1  -9   0 1097.69   57.57
   1  -9   0 1091.21   59.09
  -1   9   0 1201.20   58.65
  -1   9   0 1341.82   53.54
  -1   9   0 1247.71   59.60
   1  -9  -1  408.49   32.46
   1  -9  -1  244.86   33.42
   1  -9  -1  352.48   29.09
  -1   9   1  309.61   32.89
  -1   9   1  281.77   31.58
   1  -9  -2  106.81   29.54
   1  -9  -2   26.65   22.87
   1  -9  -2   66.40   25.70
  -1   9   2   62.41   24.35
   1  -9  -3   77.24   32.58
  -1   9   3   39.77   27.00
   1  -9  -4   83.38   23.31
   1  -9  -4   93.71   30.77
  -1   9   4   63.01   27.78
  -1   9   4   18.09   26.94
   1  -9  -5 2175.20   83.59
   1  -9  -5 2452.44   98.59
   1  -9  -5 2337.34  100.33
  -1   9   5 2160.37   94.21
  -1   9   5 2574.56   97.76
   1  -9  -6  343.24   30.16
   1  -9  -6  396.03   34.74
   1  -9  -6  414.57   37.44
  -1   9   6  348.04   33.53
  -1   9   6  368.21   32.45
   1  -9  -7 2982.98  107.33
   1  -9  -7 2727.67  111.25
  -1   9   7 2804.27  122.59
  -1   9   7 2604.19  104.98
   1  -9  -8   14.75   23.22
   1  -9  -8  144.02   36.90
  -1   9   8   -2.32   34.46
  -1   9   8  -12.23   18.34
  -1   9   9 1438.32   65.78
   1  -9  -9 1116.12   64.47
   1  -9  -9 1283.22   61.97
   1  -9 -10    0.66   27.24
   1  -9 -10  109.63   34.12
   1 -10   0  123.93   21.35
   1 -10   0  -39.35   22.76
  -1  10   0   43.78   27.80
   1 -10  -1   72.21   27.43
   1 -10  -1  -13.74   27.87
   1 -10  -1   68.60   34.37
  -1  10   1  152.62   29.32
  -1  10   1  142.68   28.38
   1 -10  -2   84.07   26.61
   1 -10  -2    3.85   33.82
  -1  10   2   75.50   34.96
  -1  10   2   69.40   29.09
   1 -10  -3   -2.71   26.26
   1 -10  -3  -18.16   31.21
   1 -10  -3  -15.91   25.66
  -1  10   3   61.99   31.03
  -1  10   3   69.65   30.67
  -1  10   4  582.53   37.30
  -1  10   4  634.22   41.75
   1 -10  -5  283.32   34.79
  -1  10   5  318.77   36.45
  -1  10   5  247.51   35.14
   1 -10  -6 1031.58   46.24
  -1  10   6  915.34   49.95
   0  10  -1 1379.72   73.20
   0  10  -1 1313.98   66.00
   0 -10   1 1549.70   63.89
   0 -10   1 1158.06   57.69
   0  10  -2  409.42   38.24
   0  10  -2  439.12   32.49
   0  10  -2  482.19   36.98
   0 -10   2  479.73   39.03
   0 -10   2  442.45   36.29
   0  10  -3 1978.46   80.21
   0  10  -3 1876.35   83.81
   0  10  -3 2002.30   84.69
   0 -10   3 1849.73   92.84
   0 -10   3 2087.12   82.66
   0  10  -4 2234.48  103.70
   0  10  -4 2629.83  109.94
   0 -10   4 2472.00  116.66
   0 -10   4 2234.35   96.44
   0  10  -5 1248.45   63.35
   0  10  -5 1345.00   72.41
   0 -10   5 1527.06   77.58
   0 -10   5 1227.34   62.82
   0  10  -6  820.56   52.74
   0  10  -6  851.90   49.65
   0  10  -6  846.40   58.99
   0 -10   6 1025.03   57.70
   0 -10   6  777.94   49.88
   0  10  -7  101.61   29.39
   0  10  -7   23.95   24.36
   0  10  -7    1.19   25.89
   0  10  -8  110.09   28.94
   0  10  -8  185.19   27.00
   0 -10   8  107.42   33.45
   0 -10   8  179.26   29.85
   0   9  -1  168.43   34.49
   0   9  -1  219.54   23.83
   0   9  -1  363.04   34.69
   0  -9   1  216.27   31.60
   0  -9   1  289.57   26.13
   0   9  -2  -21.67   21.00
   0   9  -2  110.09   24.43
   0  -9   2   -2.46   19.93
   0   9  -3  111.88   30.48
   0   9  -3   56.94   23.04
   0   9  -3   71.96   25.22
   0  -9   3  113.87   30.51
   0   9  -4  129.90   34.59
   0   9  -4   24.82   32.44
   0  -9   4   24.84   27.63
   0   9  -5  104.06   28.01
   0   9  -5   43.80   22.17
   0   9  -5  111.37   34.35
   0  -9   5  118.87   36.57
   0  -9   5  139.43   26.55
   0   9  -6   39.73   18.16
   0   9  -6   83.54   28.38
   0  -9   6  145.60   37.20
   0   9  -7  650.26   52.30
   0   9  -7  600.10   43.55
   0   9  -7  606.30   44.47
   0  -9   7  697.24   48.95
   0  -9   7  665.72   47.06
   0   9  -8  299.27   34.27
   0   9  -8   97.15   25.45
   0   9  -9 2965.84  118.16
   0   9  -9 3187.63  125.36
   0   9  -9 2908.49  113.55
   0  -9   9 3039.71  121.12
   0  -9   9 2994.28  129.28
   0   9 -10  286.99   36.15
   0   9 -10  185.39   31.44
   0  -9  10  125.64   27.10
   0   9 -11 3799.57  137.55
   0   9 -11 3403.98  144.80
   0  -9  11 3601.94  137.46
   0  -9  11 3065.28  141.67
   0   9 -12   44.92   27.69
   0   8  -1  470.07   31.89
   0   8  -1  509.91   31.99
   0   8  -1  542.94   31.57
   0  -8   1  610.22   34.58
   0  -8   1  365.11   28.64
   0  -8   1  388.68   35.71
   0   8  -2  158.34   29.65
   0   8  -2   81.40   20.90
   0   8  -2  155.53   24.66
   0  -8   2  152.76   32.67
   0  -8   2  144.44   18.34
   0  -8   2  149.04   21.32
   0   8  -3  453.86   34.39
   0   8  -3  421.76   25.17
   0   8  -3  442.44   29.72
   0  -8   3  583.44   40.48
   0  -8   3  457.04   25.58
   0  -8   3  425.58   34.94
   0   8  -4 2098.37   90.37
   0   8  -4 2532.57   99.84
   0   8  -4 2490.37   93.32
   0  -8   4 2509.12   96.39
   0  -8   4 2190.62   93.92
   0  -8   4 2257.47   93.85
   0   8  -5  295.33   30.57
   0   8  -5  382.02   28.15
   0   8  -5  278.59   34.52
   0  -8   5  363.93   35.55
   0  -8   5  321.17   23.36
   0   8  -6 1836.28   79.05
   0   8  -6 2193.65   79.72
   0   8  -6 1511.91   72.77
   0  -8   6 1663.27   78.27
   0  -8   6 2037.56   74.49
   0  -8   6 1852.40   75.56
   0   8  -7   53.33   21.98
   0   8  -7   62.22   19.54
   0   8  -7   14.69   23.69
   0  -8   7   95.73   27.51
   0  -8   7  108.85   20.47
   0   8  -8  107.04   25.19
   0   8  -8  219.87   29.44
   0   8  -8  304.10   32.16
   0  -8   8   48.48   31.99
   0  -8   8  172.42   20.33
   0  -8   8  137.20   23.15
   0   8  -9  112.91   26.07
   0   8  -9  -23.93   21.80
   0   8  -9   69.68   33.98
   0  -8   9  -73.32   29.65
   0  -8   9    8.85   15.51
   0  -8   9  -22.95   24.54
   0   8 -10  147.07   21.85
   0   8 -10   33.85   27.41
   0   8 -10   31.39   26.37
   0  -8  10   52.10   29.95
   0  -8  10  183.54   20.75
   0  -8  10  119.60   25.93
   0   8 -11  356.72   35.61
   0   8 -11  464.13   40.28
   0  -8  11  492.77   41.02
   0  -8  11  553.16   29.92
   0   8 -12   -3.71   30.66
   0   8 -12  -48.97   30.86
   0  -8  12   26.88   37.32
   0  -8  12   61.63   21.34
   0   8 -13  703.66   48.43
   0   8 -13  604.22   52.66
   0  -8  13  708.57   49.62
   0  -8  13  490.13   44.77
   0   8 -14 1010.91   61.62
   0   8 -14  735.79   57.39
   0  -8  14  999.58   64.72
   0  -8  14 1028.03   62.13
   0   7  -1 2375.18   93.14
   0   7  -1 2271.69   82.20
   0   7  -1 2470.32   86.51
   0  -7   1 2652.32   92.62
   0  -7   1 2367.33   90.80
   0  -7   1 2264.82   89.71
   0   7  -2 2420.45   93.73
   0   7  -2 2611.97   88.52
   0   7  -2 2270.64   99.60
   0  -7   2 2488.88   87.67
   0  -7   2 2570.27   97.36
   0  -7   2 2565.10   96.87
   0   7  -3 1491.24   73.42
   0   7  -3 1807.64   65.17
   0   7  -3 1623.58   62.37
   0  -7   3 1685.33   64.06
   0  -7   3 1582.16   63.50
   0  -7   3 1642.70   65.80
   0   7  -4 1579.75   67.39
   0   7  -4 1657.40   68.77
   0   7  -4 1496.35   65.51
   0  -7   4 1457.78   70.50
   0  -7   4 1867.14   68.20
   0  -7   4 1654.82   63.44
   0   7  -516079.78  514.07
   0   7  -516214.18  514.51
   0   7  -515361.01  498.76
   0  -7   515963.77  524.76
   0  -7   515931.89  509.25
   0  -7   516038.12  513.93
   0   7  -6 1239.89   59.02
   0   7  -6  993.09   48.91
   0   7  -6 1133.16   57.00
   0  -7   6  967.30   55.36
   0  -7   6 1056.62   49.48
   0  -7   6 1089.41   50.29
   0   7  -7 2025.92   88.60
   0   7  -7 2496.97   96.84
   0   7  -7 2535.09   91.49
   0  -7   7 2326.02   93.56
   0  -7   7 2398.85   86.20
   0  -7   7 1960.82   88.77
   0   7  -8   97.69   21.14
   0   7  -8  113.55   25.66
   0   7  -8   17.34   27.93
   0  -7   8  192.45   26.80
   0  -7   8  121.83   18.57
   0  -7   8  171.96   28.30
   0   7  -9   66.64   19.35
   0   7  -9  200.66   26.03
   0  -7   9  105.69   24.45
   0  -7   9  110.36   18.55
   0   7 -10  190.62   26.11
   0   7 -10  160.14   30.17
   0  -7  10   43.31   23.64
   0  -7  10  151.59   21.05
   0  -7  10  154.35   24.21
   0   7 -11  952.71   44.85
   0   7 -11  946.09   48.37
   0   7 -11 1003.94   53.76
   0  -7  11 1243.06   58.85
   0  -7  11 1000.09   50.83
   0   7 -12  819.38   41.98
   0   7 -12  812.15   52.28
   0   7 -12  810.00   45.34
   0  -7  12  913.21   52.19
   0  -7  12  793.88   44.72
   0   7 -13   96.44   29.32
   0   7 -13  225.43   29.58
   0   7 -13   43.87   25.61
   0  -7  13   84.49   31.36
   0  -7  13  133.99   22.91
   0   7 -14  194.68   28.27
   0   7 -14   84.66   29.92
   0   7 -14   87.53   37.34
   0  -7  14   29.98   40.90
   0   7 -15  -88.58   26.02
   0   7 -15   14.97   26.04
   0  -7  15   11.92   31.45
   0  -7  15   26.15   24.17
   0   7 -16  414.81   43.58
   0   7 -16  406.74   37.56
   0  -7  16  469.02   44.09
   0  -7  16  276.60   31.28
   0   6  -1 3099.99  114.32
   0   6  -1 2984.72  100.24
   0   6  -1 2887.22  106.39
   0  -6   1 3116.23  113.01
   0  -6   1 3262.57  114.30
   0  -6   1 2918.29  107.84
   0   6  -2 6581.38  224.65
   0   6  -2 6569.93  220.94
   0   6  -2 6363.71  237.10
   0  -6   2 6373.63  221.95
   0  -6   2 6795.40  219.93
   0  -6   2 6533.17  217.13
   0   6  -3   92.91   18.56
   0   6  -3   82.12   16.63
   0   6  -3   24.22   17.65
   0  -6   3  121.18   24.56
   0  -6   3   52.02   14.88
   0  -6   3  107.26   20.69
   0   6  -4 1208.23   50.33
   0  -6   4 1287.24   51.35
   0   6  -4 1080.63   54.36
   0   6  -4 1134.31   56.87
   0  -6   4 1321.04   56.69
   0  -6   4 1344.70   49.08
   0   6  -5  -20.69   20.29
   0  -6   5   -8.90   14.48
   0   6  -5    5.85   20.20
   0  -6   5   69.19   19.19
   0  -6   6   35.84   28.52
   0   6  -6   13.95   13.42
   0   6  -6  -53.00   19.78
   0   6  -6   75.24   24.86
   0  -6   6   70.28   14.23
   0   6  -7 1365.63   59.59
   0   6  -7 1374.94   55.97
   0   6  -7 1607.81   62.06
   0  -6   7 1570.94   62.95
   0  -6   7 1511.26   61.29
   0  -6   7 1572.01   62.47
   0   6  -8 6206.23  217.45
   0   6  -8 6694.46  228.57
   0   6  -8 6255.19  219.97
   0  -6   8 6491.09  227.44
   0  -6   8 6506.27  226.26
   0   6  -9  121.15   20.22
   0   6  -9  127.10   23.21
   0   6  -9   83.75   26.63
   0   6  -9   67.01   23.64
   0  -6   9   61.30   27.14
   0  -6   9  154.30   22.72
   0   6 -10 7337.82  245.09
   0   6 -10 6889.06  253.29
   0   6 -10 7514.20  255.57
   0  -6  10 7035.99  240.07
   0  -6  10 7058.50  258.56
   0   6 -10 6797.43  234.81
   0   6 -11 1627.14   72.46
   0   6 -11 1623.58   72.04
   0   6 -11 1564.17   62.81
   0   6 -11 1887.48   76.95
   0  -6  11 1530.13   67.96
   0  -6  11 1820.81   69.89
   0  -6  12 7938.33  275.21
   0  -6  12 7569.54  279.46
   0   6 -12 8148.46  282.63
   0   6 -12 7717.42  271.97
   0   6 -12 7851.14  262.29
   0   6 -13  569.78   49.43
   0   6 -13  702.94   41.45
   0   6 -13  591.33   47.37
   0  -6  13  760.88   44.61
   0  -6  13  784.01   42.63
   0   6 -14 1172.41   62.36
   0   6 -14  794.92   54.09
   0   6 -14  954.75   49.80
   0  -6  14  822.75   58.73
   0  -6  14  967.31   48.44
   0   6 -15  117.12   34.51
   0   6 -15   -7.99   25.35
   0  -6  15   42.33   22.56
   0  -6  15  108.00   33.24
   0   6 -15   21.51   25.76
   0   6 -16  258.43   34.46
   0   6 -16  238.52   42.84
   0   6 -16  357.78   37.97
   0  -6  16  268.42   40.77
   0  -6  17  311.56   35.69
   0   6 -17  310.33   34.00
   0   6 -17  276.58   30.03
   0  -6  17  280.65   49.77
   0   5  -1  886.21   37.94
   0   5  -1  768.36   39.59
   0  -5   1  919.45   39.56
   0  -5   1  857.87   34.79
   0   5  -1  769.64   35.66
   0  -5   1  888.85   40.22
   0   5  -2   -6.39   12.38
   0   5  -2  106.05   21.44
   0  -5   2   25.16   10.62
   0  -5   2   48.98   17.03
   0   5  -3 3611.89  127.50
   0   5  -3 3502.78  121.62
   0   5  -3 3384.73  119.81
   0  -5   3 3628.01  125.83
   0  -5   3 3621.60  128.08
   0  -5   3 3713.73  122.27
   0   5  -4  280.49   23.56
   0   5  -4  176.75   17.20
   0   5  -4  232.98   21.85
   0  -5   4  250.84   17.20
   0  -5   4  225.91   17.79
   0   5  -520068.30  653.68
   0   5  -520378.98  649.21
   0   5  -519301.05  629.62
   0  -5   520353.41  655.14
   0  -5   519747.46  643.86
   0  -5   520481.79  654.50
   0   5  -6   94.24   17.75
   0   5  -6   79.16   15.09
   0  -5   6  213.59   25.50
   0  -5   6   98.08   14.77
   0   5  -6   61.83   20.76
   0   5  -7 6886.07  220.91
   0   5  -7 6281.54  228.72
   0   5  -7 6745.41  224.44
   0   5  -7 6892.38  226.73
   0  -5   7 6142.69  229.03
   0  -5   7 6347.64  224.19
   0   5  -8   32.83   21.29
   0   5  -8   74.79   18.60
   0   5  -8  -14.65   19.82
   0  -5   8   21.33   18.67
   0  -5   8   70.25   17.08
   0   5  -9 2814.94  116.93
   0   5  -9 3234.55  118.11
   0   5  -9 3176.21  114.66
   0  -5   9 3013.48  114.84
   0  -5   9 3001.51  108.30
   0   5  -9 3343.82  126.77
   0   5 -10 1048.95   42.33
   0   5 -10  951.86   45.47
   0   5 -10  892.12   48.12
   0   5 -10  977.57   45.73
   0  -5  10  870.49   44.82
   0  -5  10  756.87   41.28
   0   5 -11  417.93   25.02
   0   5 -11  321.34   29.21
   0   5 -11  374.46   36.90
   0  -5  11  390.88   34.72
   0   5 -12 1050.16   50.99
   0   5 -12  883.33   51.16
   0   5 -12 1020.70   49.17
   0  -5  12 1082.96   55.57
   0  -5  12 1079.54   51.74
   0   5 -13 1638.67   73.27
   0   5 -13 1873.86   78.21
   0   5 -13 1669.00   74.02
   0  -5  13 1724.58   87.11
   0  -5  13 1703.40   71.97
   0   5 -14   18.36   22.67
   0   5 -14   35.02   33.29
   0  -5  14  101.28   34.74
   0   5 -15 2315.20  101.03
   0   5 -15 2524.80  109.58
   0   5 -15 2240.25   90.50
   0  -5  15 2401.53  102.91
   0  -5  15 2175.36   98.76
   0   5 -16 2094.97   98.00
   0   5 -16 2167.59  102.45
   0   5 -16 2073.53   88.39
   0  -5  16 1962.12   92.83
   0  -5  16 2100.55   89.31
   0   5 -17 2460.20  103.62
   0   5 -17 2144.08  110.66
   0   5 -17 2283.01  104.36
   0  -5  17 2708.46  110.50
   0  -5  17 2684.63  123.52
   0   5 -18 1686.02   82.59
   0   5 -18 1512.17   91.52
   0   5 -18 1437.79   70.55
   0  -5  18 1540.11   80.31
   0  -5  18 1705.17   87.80
   0   4  -1    2.79   16.76
   0   4  -1  -17.16    9.62
   0   4  -1    2.85    9.49
   0   4  -1    3.65   12.74
   0  -4   1   -3.85   11.41
   0   4  -2 3754.89  134.05
   0   4  -2 4278.20  142.49
   0   4  -2 3821.78  139.44
   0   4  -2 4029.64  142.87
   0  -4   2 3887.14  140.76
   0  -4   2 4234.12  140.29
   0  -4   2 4217.15  139.20
   0  -4   3  891.58   42.88
   0   4  -3  823.73   36.15
   0   4  -3  891.11   35.22
   0   4  -3  904.43   38.54
   0   4  -3  781.29   40.11
   0  -4   3  873.58   34.84
   0  -4   3  869.05   37.14
   0   4  -419501.19  594.54
   0   4  -418345.75  577.91
   0   4  -417696.39  580.56
   0   4  -418442.70  585.58
   0  -4   417438.89  595.18
   0  -4   418771.10  592.35
   0  -4   417114.61  591.71
   0   4  -5  116.55   14.37
   0   4  -5  131.44   14.73
   0  -4   5  140.68   21.40
   0  -4   5   53.29   12.86
   0   4  -618073.79  542.74
   0   4  -618030.13  580.51
   0   4  -618138.85  559.84
   0   4  -617072.63  549.71
   0  -4   617744.36  566.70
   0  -4   615756.03  573.69
   0   4  -7  737.43   33.37
   0   4  -7  804.75   39.54
   0   4  -7  922.20   37.51
   0   4  -7  651.04   36.83
   0  -4   7  709.20   35.86
   0  -4   7  765.45   38.39
   0   4  -8  794.09   31.46
   0   4  -8  661.50   34.54
   0   4  -8  725.70   33.22
   0  -4   8  775.36   35.90
   0   4  -9   37.07   15.45
   0  -4   9   15.54   19.26
   0  -4   9    8.16   22.22
   0  -4  10 1642.02   65.88
   0   4 -10 1668.78   65.69
   0   4 -10 1487.07   65.58
   0   4 -10 1584.54   67.83
   0   4 -10 1773.69   68.85
   0  -4  10 1631.71   73.86
   0   4 -11 3612.91  133.31
   0   4 -11 3770.39  135.22
   0  -4  11 3457.93  134.00
   0   4 -11 3687.92  122.53
   0   4 -11 3364.65  141.60
   0  -4  11 3736.19  145.91
   0   4 -12 4414.25  149.23
   0   4 -12 4628.85  165.46
   0   4 -12 4556.32  154.14
   0  -4  12 4460.56  166.78
   0  -4  12 4926.14  168.96
   0   4 -13 2188.40   89.88
   0   4 -13 2380.22  103.62
   0   4 -13 2298.30   85.45
   0  -4  13 2231.73  100.29
   0  -4  13 2199.10   93.91
   0   4 -14  741.09   48.19
   0   4 -14  852.32   46.28
   0  -4  14  921.54   53.88
   0  -4  14 1033.84   52.50
   0   4 -15  406.33   35.46
   0   4 -15  342.99   37.67
   0   4 -15  409.22   28.60
   0  -4  15  299.03   38.20
   0  -4  15  360.10   36.19
   0   4 -16 1098.53   55.58
   0   4 -16 1245.80   64.22
   0   4 -16 1279.32   57.29
   0  -4  16 1123.98   63.95
   0  -4  16 1234.15   69.22
   0   4 -17   74.47   21.48
   0   4 -17  -13.60   36.94
   0  -4  17   23.55   35.16
   0  -4  17   27.19   34.90
   0   4 -18 1957.45   86.04
   0   4 -18 2052.16   95.80
   0  -4  18 1786.82   85.56
   0  -4  18 1776.78   81.51
   0   4 -19   10.60   29.09
   0   4 -19  107.59   39.65
   0  -4  19   99.42   35.97
   0   3  -135179.20 1127.93
   0   3  -136493.06 1163.74
   0   3  -136130.64 1141.81
   0   3  -136528.01 1122.73
   0   3  -135847.70 1158.73
   0  -3   136537.77 1134.31
   0  -3   137434.89 1144.01
   0  -3   135829.38 1162.16
   0  -3   135081.54 1123.63
   0  -3   136636.30 1117.22
   0  -3   136220.45 1157.67
   0  -3   137383.25 1109.06
   0   3  -2 1024.55   50.23
   0   3  -2 1187.10   46.66
   0   3  -2 1218.36   46.74
   0   3  -2 1158.13   49.05
   0   3  -2 1170.48   54.14
   0  -3   2 1042.61   45.75
   0  -3   2 1226.76   47.03
   0  -3   2 1127.87   48.44
   0  -3   2 1232.12   46.10
   0  -3   2 1192.01   50.08
   0  -3   2 1286.71   47.61
   0  -3   2 1093.89   44.26
   0   3  -314858.91  482.79
   0   3  -314759.44  490.17
   0   3  -314633.04  455.35
   0   3  -314213.92  469.82
   0   3  -314154.80  482.81
   0   3  -314622.80  458.66
   0  -3   314619.49  465.29
   0  -3   314866.06  455.06
   0  -3   314282.77  469.88
   0  -3   314222.19  468.30
   0  -3   314987.04  465.38
   0   3  -4 3521.81  115.77
   0   3  -4 3397.98  115.78
   0   3  -4 3317.34  124.40
   0   3  -4 3322.44  118.68
   0   3  -4 3255.30  121.29
   0  -3   4 3680.48  129.94
   0  -3   4 3363.51  118.01
   0  -3   4 3420.40  116.92
   0  -3   4 3274.23  117.78
   0   3  -5  269.64   16.58
   0   3  -5  250.54   16.23
   0   3  -5  262.28   18.27
   0   3  -5  234.32   20.83
   0   3  -5  232.06   19.10
   0  -3   5  270.45   21.41
   0   3  -6   51.00   14.94
   0   3  -6   15.26   11.84
   0   3  -6    6.25   12.03
   0  -3   6   29.36    7.39
   0  -3   6   11.05   15.98
   0  -3   6   -9.43   14.82
   0   3  -7 2561.79   85.24
   0   3  -7 2261.76   91.28
   0   3  -7 2395.68   94.57
   0   3  -7 2690.26   92.81
   0  -3   7 2295.42   80.02
   0  -3   7 2322.31   87.46
   0  -3   7 2374.58   83.24
   0   3  -8  286.55   15.38
   0   3  -8  328.99   15.97
   0   3  -8  294.21   19.66
   0   3  -8  196.69   21.20
   0   3  -8  300.24   21.62
   0  -3   8  272.86   24.96
   0  -3   8  319.20   23.10
   0   3  -9 6317.88  223.55
   0   3  -9 6790.08  211.59
   0   3  -9 6446.66  233.47
   0   3  -9 6575.28  225.40
   0   3  -9 6902.99  223.18
   0  -3   9 6652.01  228.07
   0  -3   9 6713.76  218.71
   0   3 -10 1845.79   65.76
   0   3 -10 1660.41   64.62
   0   3 -10 1892.93   72.94
   0   3 -10 1741.64   63.19
   0  -3  10 1669.54   65.22
   0  -3  10 1759.92   70.19
   0   3 -11 3161.36  122.95
   0   3 -11 3732.11  121.65
   0   3 -11 3588.58  125.55
   0   3 -11 3437.56  125.70
   0   3 -11 3651.54  128.39
   0  -3  11 3834.41  136.45
   0  -3  11 3995.09  128.87
   0   3 -12 7666.44  245.90
   0   3 -12 7932.45  265.13
   0   3 -12 7617.87  261.22
   0   3 -12 7880.60  250.52
   0  -3  12 7456.20  267.81
   0  -3  12 7580.63  260.53
   0   3 -13 2379.59   82.72
   0   3 -13 2435.75   91.54
   0   3 -13 2525.66   94.46
   0   3 -13 2443.03   90.99
   0  -3  13 2648.58  104.36
   0  -3  13 2280.15   91.71
   0   3 -14 1231.40   57.77
   0   3 -14 1223.66   63.38
   0   3 -14 1340.74   58.05
   0  -3  14 1502.86   70.15
   0  -3  14 1233.19   63.37
   0   3 -15  482.74   41.42
   0   3 -15  332.01   38.73
   0   3 -15  517.66   29.16
   0  -3  15  444.50   39.34
   0  -3  15  305.44   32.36
   0   3 -16  -18.19   37.72
   0   3 -16  120.45   30.75
   0   3 -16  166.00   27.41
   0  -3  16   45.14   30.36
   0  -3  16   81.26   35.72
   0   3 -17   46.87   29.61
   0   3 -17   20.47   20.87
   0  -3  17   42.93   28.89
   0  -3  17   63.09   29.72
   0   3 -18 1085.60   55.15
   0   3 -18 1090.36   66.85
   0  -3  18 1077.20   63.77
   0  -3  18 1052.92   64.42
   0   3 -19  101.29   33.03
   0  -3  19  309.39   45.24
   0  -3  19  194.75   33.72
   0   3 -20  692.07   43.48
   0  -3  20  496.68   51.89
   0  -3  20  740.46   53.67
   0   2  -1   86.19   13.24
   0   2  -1  135.66   10.74
   0   2  -1   69.14   14.06
   0   2  -1   79.65    9.84
   0   2  -1  126.82   10.24
   0  -2   1  117.68   11.83
   0  -2   1   69.12    8.18
   0  -2   1   96.78    9.27
   0  -2   1   83.46    9.67
   0  -2   1   88.73    9.70
   0  -2   1  118.92   10.47
   0  -2   2 3641.86  116.03
   0  -2   2 3356.76  127.05
   0   2  -2 3493.90  119.47
   0   2  -2 3308.75  121.02
   0   2  -2 3667.54  122.99
   0   2  -2 3498.51  118.29
   0   2  -2 3423.39  121.27
   0   2  -2 3483.24  119.24
   0  -2   2 3335.57  112.71
   0  -2   2 3385.07  112.81
   0  -2   2 3307.66  119.76
   0  -2   2 3467.70  115.24
   0   2  -3   14.07   12.33
   0   2  -3    4.59   11.98
   0  -2   3   58.32    8.51
   0  -2   3  -10.37   10.11
   0  -2   3   13.88   10.54
   0  -2   3   79.29   11.02
   0  -2   3   45.58    9.65
   0   2  -430517.98  960.45
   0   2  -430540.80  944.75
   0   2  -431264.28  973.28
   0   2  -430472.59  987.88
   0   2  -431083.42  959.98
   0   2  -430003.31  966.63
   0  -2   431872.03  969.78
   0  -2   430658.04  988.13
   0  -2   431079.18  967.05
   0  -2   430040.38  974.98
   0  -2   431351.06  960.81
   0  -2   430989.85  962.94
   0   2  -5   99.54   11.17
   0   2  -5  137.79   13.36
   0   2  -5  109.90   13.23
   0   2  -5   85.28   14.04
   0  -2   5  117.58    8.82
   0  -2   5  101.45   13.03
   0  -2   5  112.55   10.78
   0  -2   5  133.96   15.54
   0  -2   5  120.85   13.80
   0  -2   5  129.91   14.69
   0   2  -647060.89 1424.87
   0   2  -646643.57 1399.71
   0   2  -641706.31 1422.69
   0   2  -643812.01 1427.44
   0   2  -645623.89 1424.48
   0   2  -646869.95 1425.33
   0  -2   644425.75 1400.45
   0  -2   645942.11 1428.80
   0  -2   645521.55 1401.40
   0   2  -711122.90  362.84
   0   2  -711829.68  368.76
   0   2  -711530.26  385.31
   0   2  -711057.67  372.34
   0   2  -711488.87  370.63
   0  -2   711173.16  365.08
   0  -2   710714.87  365.31
   0   2  -821861.55  720.85
   0   2  -822273.07  704.31
   0   2  -822367.07  701.11
   0   2  -822419.12  718.60
   0   2  -823279.42  722.06
   0  -2   822175.08  723.25
   0  -2   821551.50  700.57
   0   2  -9 5015.07  167.65
   0   2  -9 5080.77  170.05
   0   2  -9 5225.78  180.36
   0   2  -9 5471.06  180.75
   0   2  -9 4548.19  172.41
   0  -2   9 5017.75  170.34
   0  -2   9 4850.25  175.26
   0   2 -10 7075.72  247.74
   0   2 -10 7984.89  255.44
   0   2 -10 7712.65  245.10
   0   2 -10 8046.48  248.13
   0   2 -10 8147.65  267.31
   0  -2  10 7437.16  273.56
   0  -2  10 7407.36  264.77
   0   2 -11 2635.06   95.24
   0   2 -11 2691.60   97.52
   0   2 -11 2802.18   98.71
   0   2 -11 2526.70   97.79
   0   2 -11 2882.06  101.42
   0  -2  11 2787.50  108.55
   0   2 -12  209.77   13.57
   0   2 -12  212.77   27.60
   0   2 -12  196.35   22.69
   0  -2  12  124.59   29.34
   0   2 -13  150.49   11.57
   0   2 -13  117.63   22.88
   0   2 -13  112.60   20.91
   0  -2  13   45.65   31.12
   0   2 -14 4043.60  138.87
   0   2 -14 3895.11  144.50
   0   2 -14 3849.11  142.81
   0  -2  14 4239.98  148.01
   0   2 -15  -10.50   20.73
   0   2 -15   -7.51   29.39
   0   2 -15  100.12   23.66
   0   2 -16 1441.62   63.45
   0   2 -16 1470.02   71.71
   0   2 -16 1566.69   65.52
   0  -2  16 1765.48   77.33
   0  -2  16 1726.22   80.50
   0   2 -17 1779.51   75.15
   0   2 -17 2047.12   87.91
   0  -2  17 1610.85   83.26
   0  -2  17 2102.68   83.79
   0   2 -18   91.77   24.46
   0  -2  18  167.96   40.74
   0   2 -19 3325.25  129.22
   0   2 -19 3422.53  158.34
   0  -2  19 3577.53  135.26
   0  -2  19 3762.00  152.24
   0   2 -20   76.48   27.84
   0   2 -20  -16.12   31.83
   0  -2  20   64.62   32.24
   0  -2  20  196.68   41.73
   0   1  -110915.23  339.46
   0  -1   111170.25  350.58
   0  -1   110880.01  351.35
   0  -1   110643.73  338.29
   0  -1   111508.65  349.72
   0   1  -2   53.30    8.11
   0   1  -2   30.28    7.32
   0   1  -2   49.04    5.26
   0   1  -2   33.47    7.69
   0   1  -2   56.82    7.06
   0  -1   2   30.88    5.79
   0  -1   2   38.99    6.19
   0  -1   2   57.34    9.62
   0  -1   2   24.06    7.65
   0  -1   2   11.66    6.57
   0  -1   2   57.46    5.86
   0   1  -3 1897.96   72.38
   0   1  -3 1736.62   69.40
   0   1  -3 1878.48   58.58
   0  -1   3 1913.30   62.42
   0  -1   3 1969.44   82.46
   0  -1   3 1895.34   62.22
   0  -1   3 1839.14   65.96
   0  -1   3 1836.79   65.40
   0  -1   3 1696.34   69.88
   0  -1   3 1914.19   66.19
   0   1  -4 4286.20  134.70
   0   1  -4 4352.78  144.05
   0   1  -4 4100.28  142.55
   0   1  -4 4359.53  136.45
   0   1  -4 4361.37  148.97
   0   1  -4 3987.56  147.79
   0   1  -4 4352.93  138.89
   0  -1   4 4332.44  131.14
   0  -1   4 4407.77  136.43
   0  -1   4 3917.64  135.94
   0  -1   4 4342.54  150.52
   0  -1   4 4329.95  143.02
   0   1  -510993.61  339.22
   0   1  -510829.19  346.40
   0   1  -510509.76  351.04
   0   1  -510222.11  336.31
   0   1  -511041.73  366.78
   0   1  -510684.57  343.34
   0   1  -510725.31  341.38
   0  -1   510379.57  355.11
   0  -1   510627.60  345.70
   0  -1   510470.35  345.09
   0  -1   510673.56  343.44
   0  -1   511033.40  336.51
   0   1  -6 6225.89  196.19
   0   1  -6 6004.65  200.45
   0   1  -6 5920.57  201.07
   0   1  -6 5808.57  200.98
   0   1  -6 5947.93  198.88
   0   1  -6 6371.22  209.65
   0  -1   6 5769.71  201.13
   0  -1   6 5834.17  205.06
   0  -1   6 5862.75  199.50
   0  -1   6 5736.23  184.35
   0  -1   6 6060.18  196.18
   0   1  -7 4747.60  157.25
   0   1  -7 4642.12  159.38
   0   1  -7 5010.59  170.14
   0   1  -7 4633.43  157.23
   0   1  -7 4792.04  156.47
   0  -1   7 4938.05  157.07
   0  -1   7 4749.92  172.74
   0  -1   7 4756.08  167.20
   0   1  -8 1861.79   63.85
   0   1  -8 1808.95   69.49
   0   1  -8 1583.49   67.10
   0   1  -8 1761.00   71.02
   0   1  -8 1756.99   63.61
   0  -1   8 1995.25   62.57
   0  -1   8 1830.78   75.22
   0  -1   8 1834.10   72.02
   0   1  -9 2796.65  106.29
   0   1  -9 2633.26   91.04
   0   1  -9 2829.51   93.13
   0   1  -9 2702.05   92.09
   0   1  -9 2571.53   96.76
   0  -1   9 2935.73   92.61
   0  -1   9 2603.55  106.90
   0  -1   9 2489.12   95.73
   0   1 -10 5597.92  200.74
   0   1 -10 6027.49  197.96
   0   1 -10 5776.65  192.48
   0   1 -10 6373.05  195.37
   0   1 -10 6106.71  203.80
   0  -1  10 5910.76  197.03
   0  -1  10 5843.81  210.96
   0   1 -11 3640.09  122.88
   0   1 -11 3886.13  142.00
   0   1 -11 3795.56  138.76
   0   1 -11 3610.55  127.41
   0   1 -11 4098.16  134.23
   0  -1  11 3468.34  134.08
   0  -1  11 3889.17  127.25
   0   1 -12 8160.74  296.86
   0   1 -12 9520.13  308.77
   0   1 -12 9560.48  329.40
   0   1 -12 9614.92  303.14
   0  -1  12 9283.84  307.86
   0   1 -12 9208.54  323.01
   0   1 -13  741.06   39.02
   0   1 -13  703.44   42.29
   0   1 -13  603.30   43.21
   0  -1  13  876.51   53.55
   0   1 -13  793.19   34.89
   0   1 -13  820.63   34.99
   0   1 -14 7230.12  264.93
   0  -1  14 8508.43  279.28
   0   1 -14 7569.30  272.23
   0   1 -14 8387.95  289.04
   0   1 -14 8476.59  278.36
   0   1 -14 8345.19  268.10
   0   1 -15 1333.71   66.97
   0   1 -15 1395.38   64.87
   0   1 -15 1170.50   50.45
   0   1 -15 1284.28   56.69
   0   1 -16 2534.16  102.22
   0   1 -16 2615.57   93.03
   0  -1  16 2755.42  111.53
   0   1 -16 2464.39   99.35
   0   1 -16 2371.89  109.74
   0   1 -17 2375.54  100.70
   0   1 -17 2581.39  107.93
   0   1 -17 2183.41  100.66
   0  -1  17 2498.18  112.23
   0   1 -18   26.02   39.93
   0   1 -18   42.49   31.40
   0  -1  18   21.91   32.67
   0   1 -19 1081.81   57.12
   0   1 -19  818.62   52.73
   0   1 -19 1107.38   63.35
   0   1 -20  349.19   44.49
   0   1 -20  462.94   48.04
   0  -1  20  548.78   53.10
   0   0   310150.22  343.75
   0   0  -3 9987.43  338.21
   0   0  -310102.12  340.07
   0   0   310875.97  336.89
   0   0   310614.05  325.85
   0   0   310176.41  327.26
   0   0  -310611.25  331.75
   0   0  -310308.39  328.87
   0   0   310530.14  333.72
   0   0   310102.03  319.78
   0   0  -310196.45  325.45
   0   0  -4 1937.11   68.88
   0   0   4 1996.21   77.28
   0   0   4 1830.08   62.63
   0   0  -4 1954.81   64.73
   0   0  -4 1710.57   68.37
   0   0  -4 1944.67   68.99
   0   0   4 1875.62   64.52
   0   0  -4 1883.73   62.88
   0   0   4 1936.38   69.49
   0   0   4 1858.56   65.95
   0   0   4 1983.03   69.83
   0   0   5   -4.19    8.65
   0   0   5   20.68    7.96
   0   0   5   71.15   18.76
   0   0   5   -4.79   10.84
   0   0  -5   -2.66    8.59
   0   0  -5   33.72    9.98
   0   0  -5   41.20   11.98
   0   0  -5  -12.55   10.14
   0   0  -5   16.09   10.71
   0   0   6  432.88   30.65
   0   0   6  624.50   25.33
   0   0   6  655.69   25.98
   0   0  -6  563.56   23.48
   0   0  -6  502.17   25.70
   0   0  -6  614.18   29.83
   0   0  -6  562.04   24.74
   0   0   6  521.04   27.97
   0   0  -6  575.85   24.76
   0   0   6  544.92   27.39
   0   0   7 4520.28  155.21
   0   0   7 4439.86  162.93
   0   0   7 4798.45  147.44
   0   0  -7 4438.58  147.60
   0   0  -7 4560.43  151.93
   0   0  -7 4329.04  151.40
   0   0  -7 4233.34  159.54
   0   0  -7 4363.74  148.38
   0   0   8   42.32    9.44
   0   0   8   78.55   20.64
   0   0  -8   34.20    8.60
   0   0  -8   26.45   14.46
   0   0  -8   49.12   14.40
   0   0  -8   33.43   11.10
   0   0   9   17.21    7.77
   0   0   9   53.20   20.15
   0   0   9   26.89    9.03
   0   0  -9   -9.94    8.67
   0   0  -9   11.17   19.61
   0   0  -9   24.32   12.86
   0   0  -9   38.08   15.46
   0   0  -9   52.89   13.16
   0   0  10  214.58   15.34
   0   0  10  260.75   28.11
   0   0 -10  253.23   13.64
   0   0 -10  318.55   23.35
   0   0 -10  208.73   18.87
   0   0 -10  316.53   23.08
   0   0 -10  308.05   19.96
   0   0  11 4135.89  140.65
   0   0  11 3787.31  134.87
   0   0 -11 3851.72  134.82
   0   0 -11 3846.22  140.57
   0   0 -11 3829.72  142.10
   0   0 -11 4275.64  142.24
   0   0 -11 4244.16  132.52
   0   0 -12  149.92   22.87
   0   0  12  155.66   14.63
   0   0  12  151.81   27.18
   0   0 -12  177.68   27.08
   0   0 -12  119.60   18.17
   0   0  13 2282.76   78.82
   0   0  13 1983.93   89.22
   0   0 -13 2059.42   90.49
   0   0 -13 2195.01   93.47
   0   0 -13 2190.51   91.55
   0   0 -13 1917.41   76.16
   0   0  14   10.38   10.97
   0   0  14   13.89   25.60
   0   0 -14   42.43   13.43
   0   0  15  726.45   46.26
   0   0 -15  581.71   39.92
   0   0 -15  651.20   41.51
   0   0 -15  782.00   44.40
   0   0  16  -16.51   28.53
   0   0 -16   88.50   29.97
   0   0 -16   19.33   27.13
   0   0 -16  -73.87   29.40
   0   0  17  882.51   58.41
   0   0 -17 1159.09   52.67
   0   0 -17 1123.83   69.26
   0   0 -17 1298.81   72.82
   0   0  18 -104.79   31.46
   0   0 -18   74.96   33.62
   0   0  19 1825.19   94.00
   0   0 -19 1919.33   84.47
   0   0 -19 1926.32   96.04
   0   0 -19 2297.58  100.52
   0   0 -20  146.60   35.55
   0   0 -20  223.76   36.55
   0   0 -20  257.50   37.58
   0   1   1 4089.00  139.94
   0   1   1 4145.04  132.67
   0  -1  -1 4086.90  134.14
   0  -1  -1 4259.23  137.09
   0  -1  -1 4303.43  147.54
   0  -1  -1 4035.50  138.41
   0  -1  -1 4214.33  138.48
   0   1   1 4069.32  137.99
   0   1   1 4130.88  141.87
   0   1   1 4138.34  141.65
   0   1   1 4026.39  132.03
   0   1   2 2635.61   87.39
   0   1   2 2613.36   86.86
   0   1   2 2484.75   84.60
   0   1   2 2488.36   86.28
   0   1   2 2581.26   91.70
   0  -1  -2 2805.85   96.88
   0  -1  -2 2429.23   87.92
   0  -1  -2 2733.14   94.27
   0  -1  -2 2487.09   94.67
   0   1   2 2512.30   80.13
   0  -1  -2 2695.91   88.22
   0  -1  -2 2575.19   88.66
   0   1   329410.24  972.00
   0   1   330237.63  952.90
   0   1   329843.67  972.09
   0   1   332153.47  979.24
   0   1   329813.09  945.83
   0  -1  -330881.67  949.32
   0  -1  -330608.19  965.77
   0  -1  -330368.30  998.29
   0  -1  -330915.32  945.48
   0   1   331288.39  945.15
   0  -1  -330314.48  953.38
   0  -1  -330304.19  960.81
   0   1   421169.05  687.05
   0   1   422036.00  683.90
   0   1   421836.92  681.09
   0   1   422512.27  675.98
   0   1   421731.76  672.34
   0  -1  -422057.97  690.72
   0  -1  -421340.53  691.84
   0  -1  -421094.54  688.75
   0  -1  -421418.18  679.44
   0  -1  -421790.70  711.33
   0   1   421537.41  695.24
   0  -1  -421830.37  683.76
   0   1   5 7824.24  248.76
   0   1   5 6941.66  247.21
   0  -1  -5 7614.62  248.28
   0  -1  -5 7506.06  245.71
   0  -1  -5 7380.42  243.82
   0  -1  -5 7532.61  248.88
   0  -1  -5 7616.69  258.54
   0  -1  -5 7826.52  247.85
   0  -1  -5 7440.40  243.38
   0   1   5 7186.39  242.83
   0   1   5 7051.17  252.01
   0   1   5 7541.78  249.87
   0   1   637449.71 1178.02
   0   1   637221.89 1164.87
   0   1   636590.01 1188.56
   0  -1  -637304.91 1170.77
   0  -1  -637167.26 1168.76
   0  -1  -637053.68 1177.34
   0  -1  -637191.11 1167.82
   0  -1  -638348.95 1167.50
   0  -1  -638002.25 1179.70
   0   1   637049.52 1151.73
   0   1   731736.31 1123.10
   0  -1  -736628.41 1109.91
   0   1   735952.20 1101.11
   0  -1  -735754.16 1122.74
   0  -1  -737001.63 1107.46
   0  -1  -734668.94 1125.41
   0  -1  -735509.94 1139.56
   0  -1  -737642.51 1103.32
   0   1   811964.16  416.59
   0   1   813018.06  403.41
   0  -1  -812606.63  412.46
   0  -1  -813548.06  429.31
   0  -1  -812599.14  412.47
   0  -1  -812525.56  410.86
   0  -1  -812810.79  409.26
   0  -1  -812036.65  408.75
   0   1   9 5470.13  175.72
   0   1   9 5029.25  177.64
   0  -1  -9 4822.48  171.83
   0  -1  -9 5775.34  198.85
   0  -1  -9 4979.02  180.90
   0  -1  -9 5352.27  182.24
   0  -1  -9 5294.20  174.15
   0  -1  -9 5412.52  177.02
   0   1  10 3931.69  133.42
   0   1  10 3949.37  133.22
   0  -1 -10 3489.71  127.28
   0  -1 -10 3883.38  131.55
   0  -1 -10 3530.44  129.49
   0  -1 -10 3333.05  124.08
   0  -1 -10 3827.71  128.96
   0   1  11 3118.26  112.38
   0   1  11 3130.18  112.57
   0  -1 -11 2778.92  113.36
   0  -1 -11 3014.22  111.76
   0  -1 -11 2528.53  111.17
   0  -1 -11 3207.67  103.98
   0   1  12  190.93   15.65
   0   1  12   84.08   30.70
   0  -1 -12  135.12   24.56
   0  -1 -12   88.39   26.76
   0  -1 -12  130.94   21.52
   0  -1 -12  142.53   16.28
   0   1  13 1279.54   51.16
   0   1  13 1224.20   55.04
   0  -1 -13 1198.30   49.30
   0  -1 -13 1177.35   54.44
   0  -1 -13 1149.21   58.29
   0  -1 -13 1177.17   48.63
   0   1  14  141.66   16.66
   0   1  14  203.08   26.61
   0  -1 -14  220.40   25.46
   0  -1 -14  108.05   25.77
   0  -1 -14  187.07   28.56
   0  -1 -14  118.59   15.33
   0   1  15 1488.26   63.63
   0   1  15 1785.90   74.14
   0  -1 -15 1631.12   72.74
   0  -1 -15 1830.39   75.49
   0   1  16  102.97   37.78
   0  -1 -16   23.27   24.20
   0  -1 -16    2.06   28.23
   0  -1 -16   59.82   31.37
   0  -1 -17   34.69   23.82
   0  -1 -17  114.92   26.84
   0   1  18 1058.63   56.31
   0  -1 -18  897.96   51.18
   0  -1 -18  954.77   57.09
   0  -1 -18 1016.70   53.54
   0   1  19  421.72   40.77
   0  -1 -19  258.06   32.93
   0  -1 -19  454.76   42.94
   0  -1 -20  174.71   33.40
   0  -1 -20  261.23   31.63
   0   2   027232.10  891.65
   0   2   027582.32  884.91
   0   2   029167.50  890.30
   0   2   029319.38  874.74
   0   2   027137.52  880.54
   0   2   025785.88  876.19
   0  -2   028537.04  864.62
   0  -2   028314.30  869.15
   0  -2   027904.40  879.43
   0  -2   027531.35  887.04
   0  -2   027750.36  861.18
   0  -2   029345.03  874.40
   0   2   1  927.31   39.17
   0   2   1  884.48   32.20
   0   2   1  848.41   34.48
   0   2   1  885.29   37.16
   0   2   1  900.56   37.62
   0   2   1  896.83   38.57
   0  -2  -1  862.90   40.41
   0  -2  -1  897.85   33.16
   0  -2  -1  876.85   35.22
   0  -2  -1  885.83   34.40
   0  -2  -1  851.57   30.47
   0  -2  -1  869.52   36.95
   0   2   2 7743.70  244.77
   0   2   2 7943.78  267.82
   0   2   2 7634.29  254.12
   0   2   2 7939.85  259.55
   0  -2  -2 7728.85  250.13
   0  -2  -2 8083.95  252.26
   0  -2  -2 7695.63  245.70
   0  -2  -2 7274.13  263.19
   0  -2  -2 7766.85  259.31
   0  -2  -2 7869.95  250.80
   0   2   2 7978.82  251.87
   0   2   2 7606.76  258.76
   0   2   3 1426.22   54.31
   0   2   3 1412.74   50.75
   0   2   3 1498.02   52.75
   0   2   3 1366.12   63.21
   0   2   3 1307.87   53.43
   0   2   3 1426.19   56.82
   0   2   3 1348.54   50.37
   0  -2  -3 1343.79   51.39
   0  -2  -3 1365.27   51.25
   0  -2  -3 1412.17   59.33
   0  -2  -3 1393.34   49.07
   0   2   4 1870.74   71.43
   0   2   4 1911.40   70.60
   0   2   4 2128.16   74.00
   0   2   4 1812.33   71.97
   0   2   4 1850.47   66.67
   0   2   4 1829.89   66.86
   0  -2  -4 1828.11   66.84
   0  -2  -4 1945.41   70.85
   0  -2  -4 1734.80   67.29
   0  -2  -4 1944.01   75.33
   0  -2  -4 1885.95   81.45
   0  -2  -4 1815.08   66.80
   0   2   5  331.00   19.07
   0   2   5  324.60   18.39
   0  -2  -5  257.92   16.80
   0  -2  -5  362.83   20.65
   0  -2  -5  225.29   15.99
   0  -2  -5  280.09   19.67
   0  -2  -5  289.86   19.68
   0  -2  -5  294.38   16.38
   0   2   6  475.43   22.46
   0   2   6  419.44   23.20
   0   2   6  407.05   24.16
   0   2   6  511.45   22.77
   0  -2  -6  428.99   19.53
   0  -2  -6  497.67   23.63
   0  -2  -6  502.23   27.09
   0  -2  -6  420.87   20.63
   0  -2  -6  375.84   29.66
   0   2   7  999.98   49.91
   0   2   7 1158.23   42.59
   0  -2  -7 1265.41   44.55
   0  -2  -7  957.88   43.33
   0  -2  -7 1067.84   48.43
   0  -2  -7 1098.32   41.48
   0  -2  -8   47.11   14.46
   0  -2  -8   66.95   19.88
   0   2   8   27.39   14.59
   0  -2  -8   91.65   17.12
   0  -2  -9    4.78   13.01
   0  -2  -9   20.74   19.61
   0  -2  -9   47.77    7.55
   0  -2  -9   46.40   13.39
   0  -2  -9   66.04   19.33
   0   2  10 1057.53   44.40
   0   2  10 1144.81   63.24
   0  -2 -10 1024.05   44.25
   0  -2 -10 1196.83   52.51
   0  -2 -10  984.00   40.98
   0  -2 -10 1004.13   45.43
   0   2  11 7079.05  242.61
   0   2  11 7139.15  241.04
   0  -2 -11 6740.18  249.55
   0  -2 -11 7174.48  246.45
   0  -2 -11 7446.10  240.36
   0  -2 -11 7685.75  235.57
   0   2  12  663.96   33.44
   0   2  12  627.92   40.06
   0  -2 -12  610.37   32.00
   0  -2 -12  552.19   32.82
   0  -2 -12  457.85   34.32
   0  -2 -12  592.41   28.22
   0   2  13 9335.98  310.55
   0   2  13 8738.36  313.95
   0  -2 -13 9663.05  306.21
   0  -2 -13 9730.64  330.09
   0  -2 -13 8801.74  309.74
   0  -2 -13 9391.47  305.29
   0   2  14   58.08   38.08
   0  -2 -14   47.42   23.54
   0  -2 -14   38.93   26.73
   0  -2 -14   18.41   30.26
   0   2  15 8514.80  293.30
   0   2  15 7684.82  277.28
   0  -2 -15 8025.01  279.94
   0  -2 -15 8255.78  294.74
   0  -2 -15 8173.10  293.70
   0   2  16  324.97   45.69
   0  -2 -16  220.60   27.78
   0  -2 -16  175.15   33.36
   0  -2 -16  169.59   29.03
   0   2  17 1920.44   90.32
   0  -2 -17 1479.11   74.94
   0  -2 -17 1733.96   78.60
   0  -2 -17 1614.37   78.46
   0   2  18 1089.98   70.65
   0  -2 -18  993.04   56.98
   0  -2 -18 1080.46   59.93
   0   2  19    6.20   45.25
   0  -2 -19   53.72   25.52
   0  -2 -19  152.47   30.98
   0  -2 -19   95.66   26.81
   0   3   010078.95  348.26
   0   3   010008.03  329.99
   0   3   010109.10  329.15
   0   3   010500.50  325.89
   0   3   010492.22  323.52
   0   3   010228.82  336.43
   0  -3   010414.69  327.72
   0  -3   010675.45  333.43
   0  -3   0 9960.82  329.74
   0  -3   010155.68  338.71
   0  -3   0 9997.37  329.88
   0  -3   010782.15  341.27
   0   3   155209.95 1777.44
   0   3   158131.83 1799.80
   0   3   157747.49 1763.01
   0   3   157586.35 1778.65
   0   3   154866.00 1764.65
   0  -3  -157855.28 1746.03
   0  -3  -158309.68 1783.68
   0  -3  -154907.39 1747.04
   0  -3  -156301.96 1776.74
   0  -3  -157926.72 1759.73
   0  -3  -158343.92 1748.09
   0   3   2 9136.09  284.20
   0   3   2 8550.80  298.06
   0   3   2 8944.07  298.46
   0   3   2 8327.40  281.14
   0   3   2 8420.82  286.52
   0  -3  -2 8717.78  285.02
   0  -3  -2 9029.34  289.53
   0  -3  -2 8571.28  287.73
   0  -3  -2 8548.63  286.80
   0  -3  -2 8699.18  276.42
   0   3   3 7517.23  255.43
   0   3   3 7358.23  250.48
   0   3   3 7467.09  246.40
   0   3   3 7285.40  251.94
   0  -3  -3 8161.56  252.71
   0  -3  -3 8375.20  264.93
   0  -3  -3 7640.39  258.07
   0  -3  -3 7514.78  256.43
   0  -3  -3 7558.21  255.73
   0   3   4 1506.75   53.10
   0   3   4 1381.48   49.19
   0   3   4 1365.02   51.00
   0  -3  -4 1456.28   55.39
   0  -3  -4 1478.87   53.39
   0  -3  -4 1231.47   56.37
   0  -3  -4 1355.05   52.41
   0  -3  -4 1388.60   53.96
   0   3   5 1074.60   40.92
   0   3   5 1017.84   38.83
   0   3   5 1088.76   46.86
   0   3   5 1125.10   40.81
   0  -3  -5 1001.66   44.03
   0  -3  -5  957.08   40.70
   0  -3  -5 1056.35   47.09
   0  -3  -5  976.70   37.64
   0   3   6 3254.95  114.16
   0   3   6 3095.53  113.76
   0   3   6 3533.55  125.62
   0   3   6 3702.84  118.34
   0  -3  -6 3378.97  119.08
   0  -3  -6 3638.71  122.42
   0  -3  -6 3411.71  125.63
   0  -3  -6 3327.64  114.80
   0   3   7   33.58   15.23
   0   3   7    8.22   11.50
   0  -3  -7   50.73   14.16
   0  -3  -7   35.07    8.50
   0   3   8 4257.81  148.58
   0   3   8 4447.12  146.28
   0   3   8 4406.27  145.05
   0  -3  -8 4429.02  150.82
   0  -3  -8 4325.52  152.32
   0  -3  -8 4128.38  150.73
   0  -3  -8 3785.73  139.10
   0   3   9  119.58   17.13
   0   3   9   66.84   26.87
   0   3   9  118.84   14.83
   0  -3  -9   58.50   20.85
   0  -3  -9  148.47   17.07
   0  -3  -9  149.78   30.81
   0  -3  -9   50.55   11.49
   0   3  10  540.39   38.27
   0  -3 -10  538.17   29.39
   0  -3 -10  493.27   27.13
   0  -3 -10  368.36   32.55
   0  -3 -10  508.70   27.31
   0   3  11  223.04   30.98
   0  -3 -11  312.53   27.11
   0  -3 -11  188.98   30.14
   0  -3 -11  184.32   16.73
   0   3  12  282.62   26.39
   0   3  12  308.35   33.88
   0  -3 -12  337.51   25.86
   0  -3 -12  408.77   30.57
   0  -3 -12  370.16   32.06
   0  -3 -12  365.12   24.15
   0   3  13  461.58   29.25
   0   3  13  485.44   37.52
   0  -3 -13  376.60   29.07
   0  -3 -13  584.87   41.73
   0  -3 -13  506.78   36.23
   0  -3 -13  421.01   25.68
   0   3  14  820.61   39.98
   0   3  14  646.17   45.12
   0  -3 -14  800.15   39.50
   0  -3 -14  585.11   40.26
   0   3  15  459.93   31.26
   0   3  15  314.42   41.73
   0  -3 -15  526.33   37.79
   0  -3 -15  344.58   29.66
   0   3  16    7.21   36.78
   0  -3 -16   71.92   24.18
   0  -3 -16   97.56   24.81
   0  -3 -16  161.96   32.53
   0   3  17   85.73   31.86
   0  -3 -17   73.94   28.25
   0  -3 -17  -24.95   25.28
   0   3  18 1541.31   83.04
   0  -3 -18 1228.45   61.25
   0  -3 -18 1513.68   81.21
   0  -3 -18 1733.14   76.11
   0   4   0  630.95   30.06
   0   4   0  504.02   22.82
   0   4   0  542.84   25.46
   0   4   0  628.13   27.19
   0  -4   0  563.30   25.50
   0  -4   0  529.34   25.60
   0  -4   0  644.73   28.11
   0  -4   0  552.37   25.69
   0   4   1  550.71   22.20
   0   4   1  473.39   23.18
   0  -4  -1  471.76   22.39
   0  -4  -1  391.30   26.10
   0  -4  -1  549.63   22.58
   0  -4  -1  479.18   26.30
   0   4   1  548.34   29.57
   0   4   1  567.82   28.91
   0   4   2 1002.85   44.58
   0   4   2 1009.67   41.01
   0   4   2  952.91   38.89
   0   4   2 1128.31   39.75
   0  -4  -2  960.44   33.77
   0  -4  -2  912.83   45.95
   0   4   3  245.89   20.35
   0   4   3  303.01   18.88
   0   4   3  288.80   18.59
   0  -4  -3  242.20   13.30
   0  -4  -3  231.57   15.60
   0  -4  -3  299.33   19.09
   0   4   4 2818.78  109.20
   0   4   4 3270.56  110.19
   0   4   4 3153.58  110.72
   0  -4  -4 3097.78  114.27
   0  -4  -4 2882.39  108.81
   0  -4  -4 2798.23  108.00
   0   4   5 8871.55  301.85
   0   4   5 9074.23  302.99
   0   4   5 8891.17  294.44
   0  -4  -5 9463.01  293.29
   0  -4  -5 8527.31  305.27
   0  -4  -5 8545.14  313.16
   0   4   6 3558.54  128.11
   0   4   6 3693.38  130.51
   0   4   6 3703.31  130.52
   0  -4  -6 3863.18  137.23
   0  -4  -6 3684.21  130.97
   0  -4  -6 3813.96  127.08
   0   4   725290.75  784.54
   0   4   725598.21  791.95
   0   4   724522.12  792.34
   0  -4  -725569.26  823.76
   0  -4  -724978.36  810.86
   0  -4  -723935.32  799.31
   0   4   8 5162.96  184.69
   0   4   8 5229.33  193.07
   0   4   8 5301.72  181.88
   0  -4  -8 5276.03  179.41
   0  -4  -8 5310.45  184.84
   0  -4  -8 5353.27  188.17
   0   4   9 7941.15  265.52
   0   4   9 7940.08  273.99
   0   4   9 7921.46  261.33
   0  -4  -9 7980.12  270.35
   0  -4  -9 7804.36  264.51
   0  -4  -9 7478.67  262.73
   0   4  10  456.74   27.93
   0   4  10  484.32   43.04
   0   4  10  386.73   22.87
   0  -4 -10  482.11   31.14
   0  -4 -10  517.77   33.63
   0  -4 -10  374.56   32.62
   0   4  11 2089.10   77.48
   0   4  11 1854.10   89.85
   0  -4 -11 1773.30   78.25
   0  -4 -11 1885.45   78.90
   0  -4 -11 1754.64   82.16
   0  -4 -11 1729.17   71.26
   0   4  12  797.19   39.04
   0   4  12  872.79   50.96
   0  -4 -12  841.42   40.08
   0  -4 -12  683.90   45.35
   0  -4 -12  735.81   44.44
   0  -4 -12  652.45   33.14
   0   4  13  120.84   23.43
   0   4  13  267.03   33.53
   0  -4 -13   80.04   24.58
   0  -4 -13  284.43   37.52
   0   4  14 1407.77   65.04
   0   4  14 1428.13   72.64
   0  -4 -14 1293.18   61.42
   0  -4 -14 1646.43   72.23
   0  -4 -15  288.70   28.53
   0  -4 -15  439.62   34.88
   0   4  15  440.01   43.15
   0   4  15  220.85   26.88
   0   4  16  578.07   52.78
   0  -4 -16  560.43   38.91
   0  -4 -16  552.41   40.31
   0  -4 -16  623.92   45.60
   0  -4 -17   26.19   23.74
   0  -4 -17   32.53   30.01
   0   4  18  138.38   44.59
   0  -4 -18  124.25   25.45
   0   5   0 2912.32  102.52
   0   5   0 2981.27  103.25
   0   5   0 2777.98   97.84
   0  -5   0 2830.98   97.49
   0  -5   0 2886.91   94.99
   0  -5   0 2605.01  101.30
   0   5   1 5545.63  184.92
   0   5   1 5982.32  193.16
   0   5   1 5601.94  184.47
   0  -5  -1 5533.31  195.65
   0  -5  -1 5843.51  184.93
   0  -5  -1 5644.83  193.34
   0   5   2 8870.51  291.76
   0   5   2 9040.32  296.04
   0  -5  -2 8366.76  287.06
   0  -5  -2 9416.62  289.02
   0   5   2 8789.04  286.38
   0   5   3 3655.19  128.14
   0   5   3 3988.71  128.87
   0   5   3 3975.12  135.86
   0  -5  -3 3880.38  137.08
   0  -5  -3 3473.62  133.63
   0  -5  -3 3907.37  125.52
   0   5   4 2101.42   78.33
   0   5   4 2488.62   85.42
   0   5   4 2112.97   79.19
   0  -5  -4 2412.78   92.84
   0  -5  -4 2214.56   79.30
   0  -5  -4 2293.25   84.38
   0   5   5  865.45   45.66
   0   5   5  804.94   39.01
   0   5   5  992.41   42.03
   0  -5  -5  825.15   42.82
   0  -5  -5 1024.43   46.11
   0   5   6  871.92   43.53
   0   5   6  848.62   42.02
   0   5   6  985.63   41.23
   0  -5  -6  907.97   42.48
   0  -5  -6  990.30   40.62
   0  -5  -6  988.04   48.62
   0   5   7  315.95   24.47
   0   5   7  225.77   27.20
   0   5   7  239.76   22.77
   0  -5  -7  281.12   29.02
   0  -5  -7  273.13   31.78
   0   5   8  254.61   26.65
   0   5   8  330.73   27.50
   0   5   8  301.71   23.82
   0  -5  -8  311.03   28.89
   0  -5  -8  196.97   26.55
   0   5   9 2806.64  104.24
   0   5   9 2675.55  100.84
   0   5   9 2684.66  103.63
   0  -5  -9 2643.67  100.29
   0  -5  -9 3138.21  116.11
   0  -5  -9 2491.98  102.77
   0   5  10  100.62   18.20
   0   5  10   98.54   28.71
   0   5  10   68.54   13.56
   0  -5 -10  164.49   21.01
   0  -5 -10   65.70   25.13
   0  -5 -10  115.24   26.78
   0   5  11  -24.77   25.37
   0   5  11  115.07   28.90
   0   5  11   33.36   15.68
   0  -5 -11   20.70   23.16
   0  -5 -11  -20.36   20.23
   0   5  12 3523.26  138.48
   0   5  12 4062.91  152.74
   0  -5 -12 3797.59  132.85
   0  -5 -12 3900.61  154.28
   0  -5 -12 3928.34  147.76
   0   5  13  451.31   32.51
   0   5  13  515.15   41.98
   0  -5 -13  429.01   38.30
   0  -5 -13  507.06   41.78
   0  -5 -13  381.44   37.18
   0   5  14 5667.44  209.66
   0   5  14 5410.16  204.32
   0  -5 -14 5039.05  185.52
   0  -5 -14 6042.79  220.99
   0  -5 -14 5594.41  202.46
   0   5  15  365.02   29.37
   0   5  15  186.71   41.73
   0  -5 -15  452.44   38.64
   0  -5 -15  377.81   35.60
   0   5  16  918.19   54.61
   0  -5 -16  895.74   59.08
   0  -5 -16  862.48   58.10
   0   6   0 7861.94  262.03
   0   6   0 7703.69  253.79
   0   6   0 7737.68  247.46
   0  -6   0 7547.56  263.30
   0  -6   0 8300.41  260.47
   0  -6   0 7482.61  268.98
   0   6   1 7848.63  247.62
   0   6   1 7334.84  244.67
   0   6   1 7144.01  239.15
   0  -6  -1 7166.84  251.44
   0  -6  -1 7802.79  243.34
   0  -6  -1 7257.23  243.08
   0   6   2 4451.08  160.02
   0   6   2 4578.62  155.27
   0   6   2 4399.12  151.99
   0  -6  -2 4127.17  149.61
   0  -6  -2 4647.39  158.98
   0   6   3 6260.49  231.26
   0   6   3 6221.14  220.94
   0   6   3 6199.61  214.87
   0  -6  -3 6764.87  222.20
   0  -6  -3 6489.55  219.49
   0  -6  -3 7106.45  241.04
   0   6   4  688.56   40.67
   0   6   4  930.88   40.45
   0   6   4  783.18   34.51
   0  -6  -4  862.09   38.82
   0  -6  -4  787.19   46.82
   0  -6  -4  648.72   46.88
   0   6   5   67.25   24.06
   0   6   5  127.24   21.37
   0  -6  -5   -5.04   20.04
   0  -6  -5    0.99   23.59
   0  -6  -5   57.73   22.01
   0   6   6   96.12   25.31
   0   6   6  217.62   27.95
   0  -6  -6  181.15   23.65
   0  -6  -6   97.17   25.68
   0   6   7 2145.14   85.05
   0   6   7 2335.22   86.73
   0   6   7 2128.81   80.42
   0  -6  -7 2045.76   81.90
   0  -6  -7 2312.73   89.47
   0  -6  -7 2178.36   89.68
   0   6   8  122.84   28.26
   0   6   8  104.37   20.05
   0  -6  -8  217.02   26.99
   0   6   9 3461.39  124.02
   0   6   9 3323.67  124.31
   0   6   9 3354.04  125.23
   0  -6  -9 3194.16  126.56
   0  -6  -9 3353.82  129.30
   0  -6  -9 3160.50  125.07
   0   6  10   57.43   31.94
   0   6  10    9.21   19.89
   0  -6 -10  -25.53   20.09
   0  -6 -10   67.70   20.05
   0   6  11 1482.01   64.70
   0   6  11 1433.20   74.31
   0  -6 -11 1524.07   56.77
   0  -6 -11 1595.22   71.87
   0  -6 -11 1413.35   69.79
   0   6  12   94.58   27.08
   0   6  12  296.17   35.78
   0  -6 -12  152.28   27.43
   0   6  13   13.28   20.58
   0  -6 -13   27.62   29.54
   0   6  14  203.97   28.23
   0   6  14  184.46   33.73
   0  -6 -14  179.23   30.88
   0  -6 -14   38.49   27.74
   0   6  15  182.41   25.97
   0  -6 -15  145.35   27.03
   0  -6 -15  268.87   37.62
   0   7   0   89.36   20.43
   0   7   0  126.91   19.54
   0  -7   0   66.82   22.43
   0  -7   0  119.76   16.71
   0  -7   0   79.26   18.88
   0   7   1 1016.57   49.26
   0   7   1 1315.49   50.96
   0   7   1 1153.91   49.96
   0  -7  -1 1083.96   53.44
   0  -7  -1 1070.16   44.67
   0  -7  -1  976.80   48.69
   0   7   2  -39.29   17.16
   0  -7  -2  -38.57   18.46
   0  -7  -2  -21.74   17.82
   0   7   3   76.67   20.97
   0   7   3   54.58   21.70
   0  -7  -3   24.83   16.33
   0  -7  -3   18.46   27.03
   0  -7  -3  -23.78   20.32
   0   7   4  650.42   39.94
   0   7   4  596.00   36.73
   0   7   4  788.92   39.23
   0  -7  -4  782.69   38.90
   0  -7  -4  729.49   38.87
   0   7   5  373.79   37.76
   0   7   5  309.95   32.48
   0   7   5  339.19   27.16
   0  -7  -5  480.41   30.27
   0  -7  -5  400.84   33.34
   0  -7  -5  413.57   36.27
   0   7   6 4517.31  158.56
   0   7   6 3803.79  154.32
   0   7   6 4399.33  157.16
   0  -7  -6 4442.90  163.93
   0  -7  -6 4922.79  158.41
   0  -7  -6 4609.71  160.13
   0   7   7   71.62   23.63
   0   7   7  144.11   23.91
   0   7   7   99.87   20.45
   0  -7  -7  116.88   21.29
   0  -7  -7   94.87   26.22
   0   7   8 4541.52  175.57
   0   7   8 4946.22  165.11
   0   7   8 4736.85  179.57
   0  -7  -8 4492.00  170.11
   0  -7  -8 4926.28  174.09
   0  -7  -8 4986.34  180.90
   0   7   9  227.09   26.21
   0   7   9  214.90   31.12
   0   7   9  148.42   19.39
   0  -7  -9  106.11   27.55
   0  -7  -9   28.28   29.74
   0   7  10 2823.87  114.56
   0  -7 -10 2878.91  109.45
   0  -7 -10 2744.80  124.12
   0   7  11   74.63   36.89
   0  -7 -11   42.75   29.83
   0   7  12   95.21   25.86
   0   7  12   17.37   28.91
   0  -7 -12   64.07   32.47
   0  -7 -12   64.58   33.35
   0   7  13  296.62   35.76
   0   7  13  378.62   35.94
   0  -7 -13  269.64   31.03
   0  -7 -13  360.41   33.31
   0   8   0  158.23   29.34
   0   8   0  113.78   24.09
   0   8   0   88.98   22.45
   0  -8   0  196.41   22.36
   0  -8   0  201.41   20.86
   0  -8   0  178.53   24.01
   0   8   1 3024.20  109.62
   0   8   1 2632.25  106.18
   0   8   1 2942.05  106.53
   0  -8  -1 3024.31  110.68
   0  -8  -1 3074.25  121.01
   0   8   2 2324.96   90.28
   0   8   2 2016.43   86.12
   0   8   2 2246.52   89.10
   0  -8  -2 2172.09   88.39
   0  -8  -2 2426.16   93.31
   0   8   3 4672.65  169.98
   0   8   3 4321.70  159.15
   0   8   3 4523.15  157.53
   0  -8  -3 4624.40  156.17
   0  -8  -3 4466.50  170.79
   0  -8  -3 4173.33  165.49
   0   8   4  457.13   32.20
   0   8   4  365.32   30.41
   0   8   4  395.69   31.55
   0  -8  -4  556.43   37.43
   0  -8  -4  248.79   37.13
   0  -8  -4  468.02   33.46
   0   8   5 3281.79  128.63
   0   8   5 3428.04  125.79
   0   8   5 3411.81  129.92
   0  -8  -5 2959.41  118.33
   0  -8  -5 3578.53  121.53
   0  -8  -5 3330.93  120.16
   0   8   6  214.66   36.59
   0   8   6  155.27   25.21
   0   8   6  193.59   24.84
   0  -8  -6  280.92   27.27
   0  -8  -6  271.40   33.61
   0  -8  -6  237.22   28.88
   0   8   7   97.14   30.46
   0   8   7  141.65   26.62
   0   8   7  183.75   21.63
   0  -8  -7  118.20   27.95
   0  -8  -7  199.67   31.25
   0   8   8  200.07   24.48
   0   8   8  198.29   29.63
   0  -8  -8  133.61   27.00
   0   8   9   92.12   28.57
   0   8   9   30.24   25.59
   0  -8  -9   76.78   31.77
   0   8  10  199.27   34.26
   0  -8 -10  265.75   33.15
   0  -8 -10  265.30   30.93
   0  -8 -11  156.13   33.54
   0  -8 -11  -47.48   29.47
   0   9   0 1260.62   60.01
   0   9   0 1217.17   67.36
   0  -9   0 1383.36   58.99
   0  -9   0 1181.29   58.53
   0   9   1  241.02   36.23
   0   9   1  233.52   28.56
   0  -9  -1  344.41   25.59
   0  -9  -1  267.87   35.56
   0  -9  -1  374.40   28.07
   0   9   2 2351.05   97.32
   0   9   2 2271.26   96.76
   0  -9  -2 2023.52   81.46
   0  -9  -2 2357.14   94.75
   0  -9  -2 2204.33   97.20
   0   9   3  119.89   27.72
   0   9   3   24.10   24.83
   0  -9  -3   11.01   27.67
   0   9   4  952.75   52.30
   0   9   4  705.71   41.07
   0  -9  -4  714.91   46.95
   0  -9  -4  702.65   48.91
   0   9   5   48.54   32.27
   0   9   5   18.17   23.45
   0  -9  -5  185.13   29.45
   0   9   6  376.42   34.73
   0   9   6  309.61   35.92
   0  -9  -6  523.07   42.66
   0  -9  -6  353.56   39.07
   0   9   7   94.37   29.65
   0   9   7   48.61   20.73
   0  -9  -7  120.71   28.00
   0  -9  -7  -19.39   25.21
   0   9   8 1258.45   60.96
   0  -9  -8 1387.58   77.92
   0  -9  -8 1324.79   55.71
   0  10   0  316.91   45.75
   0  10   0  317.82   36.02
   0 -10   0  347.60   35.35
   0  10   1  139.62   32.34
   0  10   1  -13.01   29.25
   0 -10  -1   33.32   31.73
   0 -10  -1  -51.05   24.16
   0  10   2  200.22   20.01
   0 -10  -2   96.20   25.15
   0  10   3   58.82   31.34
   0  10   3   75.80   30.42
   0  10   4   46.25   24.41
   1 -10   1   18.46   23.38
  -1  10  -1    5.38   22.31
   1 -10   2  313.03   38.46
   1 -10   2  375.46   33.72
  -1  10  -2  303.58   34.86
  -1  10  -2  193.78   26.20
   1 -10   3  536.61   39.28
   1 -10   3  446.18   37.84
  -1  10  -3  709.67   42.97
  -1  10  -3  527.18   36.45
  -1  10  -3  472.17   38.24
   1 -10   4 1263.26   69.35
   1 -10   4 1171.27   61.43
  -1  10  -4 1421.25   66.48
  -1  10  -4 1190.59   59.62
  -1  10  -4 1211.54   63.91
   1 -10   5 2505.98  100.80
   1 -10   5 2384.05  102.87
  -1  10  -5 2840.06  113.85
  -1  10  -5 2623.97  112.16
  -1  10  -5 2509.96  112.98
   1 -10   6  252.09   41.36
   1 -10   6  283.64   31.89
  -1  10  -6  148.75   31.91
  -1  10  -6  188.82   26.61
   1 -10   7 3009.72  118.60
   1 -10   7 2779.91  111.82
  -1  10  -7 2675.67  122.96
  -1  10  -7 3227.07  141.83
  -1  10  -7 3365.64  137.59
   1 -10   8   49.88   35.86
  -1  10  -8   37.95   23.50
  -1  10  -8  100.61   35.34
   1 -10   9 1272.38   67.45
  -1  10  -9 1344.31   74.43
   1  -9   1  352.96   38.22
   1  -9   1  260.95   29.73
  -1   9  -1  230.17   29.11
  -1   9  -1  300.28   29.39
  -1   9  -1  334.19   28.86
   1  -9   2 1442.51   84.96
   1  -9   2 1612.00   71.03
  -1   9  -2 1652.08   73.75
  -1   9  -2 1352.91   66.21
  -1   9  -2 1249.51   68.07
   1  -9   3  426.27   36.30
  -1   9  -3  497.43   38.28
  -1   9  -3  412.73   36.33
  -1   9  -3  434.07   36.57
   1  -9   4  -62.94   26.82
   1  -9   4  183.11   53.41
  -1   9  -4  146.86   31.06
  -1   9  -4   30.34   19.21
  -1   9  -4   86.56   28.74
   1  -9   5  411.56   45.21
   1  -9   5  370.31   34.02
  -1   9  -5  446.40   35.58
  -1   9  -5  194.74   33.36
  -1   9  -5  279.20   32.86
   1  -9   6  356.75   40.81
   1  -9   6  222.78   36.03
  -1   9  -6  379.88   31.67
  -1   9  -6  422.96   28.64
  -1   9  -6  223.05   33.24
   1  -9   7  965.59   58.31
   1  -9   7  742.95   50.22
  -1   9  -7  896.49   47.26
  -1   9  -7  953.19   46.34
  -1   9  -7  863.80   51.24
   1  -9   8  371.52   44.60
  -1   9  -8  341.81   29.83
  -1   9  -8  195.23   35.43
   1  -9   9  304.68   36.89
   1  -9   9  126.42   28.22
  -1   9  -9  208.71   30.23
   1  -9  10 2274.39  102.40
  -1   9 -10 2329.23  108.41
  -1   9 -10 2278.27  104.92
   1  -9  11    8.73   31.14
   1  -9  11   -6.11   30.41
  -1   9 -11   67.41   26.21
  -1   9 -11  213.15   37.63
   1  -9  12 2224.22  102.04
  -1   9 -12 1953.11   93.05
  -1   9 -12 2251.01  101.46
   1  -8   1 9267.60  316.15
   1  -8   1 8717.87  293.35
   1  -8   1 8911.22  307.83
  -1   8  -1 9066.91  289.91
  -1   8  -1 9566.98  298.21
  -1   8  -1 8854.69  296.31
   1  -8   2  996.54   47.48
   1  -8   2 1038.42   42.08
   1  -8   2  953.70   50.27
  -1   8  -2 1158.02   52.29
  -1   8  -2 1028.30   53.78
  -1   8  -2  983.81   44.88
   1  -8   3  490.49   26.72
   1  -8   3  598.45   32.94
  -1   8  -3  490.71   36.72
  -1   8  -3  533.71   34.18
   1  -8   4  147.13   25.11
   1  -8   4  100.30   14.74
   1  -8   4  244.14   32.78
  -1   8  -4  203.70   28.50
  -1   8  -4  123.86   19.96
   1  -8   5   82.68   28.76
   1  -8   5  162.47   14.47
  -1   8  -5   61.23   26.78
  -1   8  -5  140.20   23.16
  -1   8  -5  218.07   25.80
   1  -8   6   76.82   25.50
   1  -8   6  102.98   13.73
   1  -8   6  105.10   27.08
  -1   8  -6   54.81   22.59
  -1   8  -6  166.82   23.62
  -1   8  -6  146.16   26.25
   1  -8   7 2072.77   87.20
   1  -8   7 1925.81   81.80
   1  -8   7 2144.54   87.87
  -1   8  -7 2132.46   91.65
  -1   8  -7 2232.42   89.87
  -1   8  -7 2234.67   99.34
   1  -8   8  639.64   47.62
   1  -8   8  684.13   43.42
  -1   8  -8  964.85   42.91
  -1   8  -8  848.38   44.40
  -1   8  -8  855.81   48.90
   1  -8   9  745.44   56.25
  -1   8  -9  721.67   45.74
  -1   8  -9  654.38   42.19
  -1   8  -9  878.47   43.95
   1  -8  10   67.19   29.55
   1  -8  10    1.13   30.12
  -1   8 -10   63.67   24.56
  -1   8 -10  215.90   33.84
   1  -8  11  367.98   41.29
   1  -8  11  174.42   38.63
  -1   8 -11  242.21   29.13
  -1   8 -11  240.48   37.09
   1  -8  12  146.47   32.32
   1  -8  12  328.17   41.41
  -1   8 -12  232.30   37.25
  -1   8 -12  335.74   33.61
   1  -8  13  269.10   38.15
   1  -8  13   86.91   34.76
  -1   8 -13  171.05   38.29
  -1   8 -13  148.79   28.97
  -1   8 -14  474.74   45.19
  -1   8 -14  425.95   40.86
  -1   8 -14  430.53   49.71
   1  -8  14  558.02   49.84
   1  -7   1 2056.42   83.77
   1  -7   1 1976.73   72.62
   1  -7   1 1956.86   78.53
  -1   7  -1 1696.32   72.88
  -1   7  -1 1831.29   75.62
  -1   7  -1 2014.76   75.72
   1  -7   2 1887.67   82.08
   1  -7   2 2056.42   77.74
   1  -7   2 1918.76   79.77
  -1   7  -2 2135.73   88.28
  -1   7  -2 2210.92   83.75
  -1   7  -2 2026.62   96.63
   1  -7   3  823.22   36.59
   1  -7   3  826.34   45.28
  -1   7  -3  745.20   46.86
  -1   7  -3  935.84   42.06
  -1   7  -3  843.54   45.04
   1  -7   4 2820.12  109.51
   1  -7   4 2887.25  115.91
   1  -7   4 3214.84  118.32
  -1   7  -4 3184.16  109.93
  -1   7  -4 2947.56  109.60
   1  -7   5  159.43   26.27
   1  -7   5  111.06   12.45
   1  -7   5  197.75   30.12
  -1   7  -5  207.12   26.01
  -1   7  -5  132.16   17.22
  -1   7  -5   71.60   19.78
   1  -7   610420.20  360.06
   1  -7   611309.25  352.44
   1  -7   611252.10  368.12
  -1   7  -611385.29  360.48
  -1   7  -610952.15  369.63
  -1   7  -610730.06  368.34
   1  -7   7  946.22   52.80
   1  -7   7  963.67   42.61
   1  -7   7  780.92   46.05
  -1   7  -7 1020.28   45.75
  -1   7  -7  989.97   52.36
   1  -7   8 7274.46  260.05
   1  -7   8 7286.14  250.00
   1  -7   8 7276.74  255.57
  -1   7  -8 7690.78  253.35
  -1   7  -8 7273.56  246.73
  -1   7  -8 7090.39  248.58
   1  -7   9  725.41   42.24
   1  -7   9  523.42   37.02
   1  -7   9  817.10   41.09
  -1   7  -9  567.02   33.53
  -1   7  -9  690.21   39.30
  -1   7  -9  631.71   43.42
   1  -7  10  469.74   38.46
   1  -7  10  442.51   32.32
  -1   7 -10  325.53   24.07
  -1   7 -10  353.66   31.86
  -1   7 -10  430.71   33.98
  -1   7 -10  299.12   32.17
   1  -7  11  118.60   32.37
   1  -7  11  106.18   20.77
  -1   7 -11  289.41   36.93
   1  -7  12   65.06   34.15
   1  -7  12   -3.05   19.17
  -1   7 -12   29.68   22.26
  -1   7 -12   30.17   30.56
  -1   7 -12   12.67   26.14
   1  -7  13 1161.93   59.81
   1  -7  13 1052.04   55.35
  -1   7 -13 1143.06   54.68
  -1   7 -13  934.53   67.02
  -1   7 -13  926.65   53.45
   1  -7  14  257.36   40.08
  -1   7 -14  123.43   32.05
  -1   7 -14   37.57   27.99
   1  -7  15  798.89   57.21
   1  -7  15  695.84   43.34
  -1   7 -15  700.75   45.27
  -1   7 -15  826.97   55.59
  -1   7 -15  874.37   49.60
   1  -7  16   88.29   35.01
   1  -7  16  162.99   20.87
  -1   7 -16  202.54   39.27
  -1   7 -16   13.30   36.94
  -1   7 -16  241.49   31.50
   1  -6   114982.43  482.16
   1  -6   116208.44  488.31
   1  -6   115195.22  478.56
  -1   6  -116084.12  494.95
  -1   6  -115349.97  488.62
  -1   6  -113620.20  467.82
  -1   6  -114997.78  479.33
  -1   6  -2  955.19   44.09
  -1   6  -2  924.34   38.93
  -1   6  -2  788.79   32.10
  -1   6  -2  929.28   37.30
   1  -6   2  853.17   39.81
   1  -6   311878.08  424.67
   1  -6   312741.20  399.37
   1  -6   312272.97  390.74
  -1   6  -311178.36  387.05
  -1   6  -312987.08  391.58
  -1   6  -312881.39  407.44
  -1   6  -312023.54  399.03
   1  -6   4  709.42   39.39
   1  -6   4  642.51   27.36
   1  -6   4  589.71   31.52
  -1   6  -4  638.02   27.56
  -1   6  -4  503.64   31.79
  -1   6  -4  539.90   34.16
   1  -6   5 4271.66  156.89
   1  -6   5 4680.60  159.33
   1  -6   5 4898.13  164.60
  -1   6  -5 4478.78  154.64
  -1   6  -5 4286.17  158.50
  -1   6  -5 4501.56  158.63
   1  -6   6   16.91   22.43
   1  -6   6   73.26   16.25
  -1   6  -6  114.27   23.43
  -1   6  -6  117.32   19.18
  -1   6  -6   91.83   20.85
   1  -6   7   82.12   24.09
  -1   6  -7  -15.49   15.35
  -1   6  -7   -1.93   19.49
  -1   6  -7   51.25   20.31
   1  -6   8 1923.53   82.29
   1  -6   8 2033.12   76.10
  -1   6  -8 1990.86   70.26
  -1   6  -8 1839.82   82.98
  -1   6  -8 2022.91   78.72
  -1   6  -8 1603.19   70.30
   1  -6   9 2341.82   96.79
   1  -6   9 2585.09   98.24
  -1   6  -9 2389.77   90.19
  -1   6  -9 2254.62   98.86
  -1   6  -9 2677.17   97.78
  -1   6  -9 2623.57  100.52
   1  -6  10  -45.30   33.08
   1  -6  10  153.00   23.11
  -1   6 -10   94.72   15.40
  -1   6 -10  118.41   28.51
  -1   6 -10  157.83   31.00
  -1   6 -10   83.45   22.24
   1  -6  11 4443.39  165.63
  -1   6 -11 4426.58  150.14
  -1   6 -11 4532.52  163.65
  -1   6 -11 4031.01  153.66
   1  -6  11 4412.84  158.24
   1  -6  12 2080.49   91.46
   1  -6  12 2389.08   97.78
  -1   6 -12 2008.57   87.63
  -1   6 -12 2138.63  100.20
  -1   6 -12 2427.54   95.00
   1  -6  13 2604.02  100.14
   1  -6  13 2258.79  104.82
  -1   6 -13 2572.88  105.78
  -1   6 -13 2373.55  113.27
  -1   6 -13 2567.96  110.08
   1  -6  14 3405.52  132.26
   1  -6  14 3134.52  123.87
  -1   6 -14 3319.27  130.12
  -1   6 -14 3828.19  150.55
   1  -6  15  369.39   35.53
   1  -6  15  329.15   37.47
  -1   6 -15  214.07   39.60
  -1   6 -15  440.52   35.80
  -1   6 -15  502.45   35.59
   1  -6  16 1135.72   67.25
   1  -6  16  900.29   54.08
  -1   6 -16  857.43   50.59
  -1   6 -16 1087.00   55.75
   1  -6  17  247.66   34.65
  -1   6 -17  352.47   32.86
  -1   6 -17  320.62   36.19
   1  -5   1   79.01   17.16
   1  -5   1   63.21    8.87
   1  -5   1  140.36   18.48
  -1   5  -1   97.27   11.15
   1  -5   2 9978.14  350.55
   1  -5   211053.71  332.89
   1  -5   210052.96  341.91
  -1   5  -210985.37  342.81
  -1   5  -210203.14  341.77
  -1   5  -210166.47  328.96
  -1   5  -210176.83  350.35
   1  -5   3  405.29   26.20
   1  -5   3  476.10   19.87
   1  -5   3  461.51   24.17
  -1   5  -3  476.34   26.43
  -1   5  -3  481.01   24.98
  -1   5  -3  414.98   21.25
  -1   5  -3  372.21   25.12
   1  -5   4   15.39   14.06
   1  -5   4   44.88   10.31
   1  -5   4   13.55   13.42
  -1   5  -4   41.84   16.84
  -1   5  -4   36.12   14.79
  -1   5  -4   49.78    9.82
  -1   5  -4   22.05   15.41
  -1   5  -5   66.82   14.38
  -1   5  -5   92.14   17.31
   1  -5   5  116.64   23.66
  -1   5  -5  112.35   21.33
   1  -5   6 8571.18  284.05
   1  -5   6 8725.58  275.13
  -1   5  -6 8734.95  285.32
  -1   5  -6 8403.98  279.87
  -1   5  -6 8398.90  300.59
  -1   5  -6 8404.83  279.79
   1  -5   7 4799.29  171.17
   1  -5   7 4836.89  158.92
  -1   5  -7 5016.87  167.94
  -1   5  -7 4540.42  160.14
  -1   5  -7 4680.07  161.27
  -1   5  -7 4844.55  161.25
   1  -5   8 8218.99  278.25
   1  -5   8 8455.47  269.09
  -1   5  -8 8007.09  267.19
  -1   5  -8 7884.78  262.42
  -1   5  -8 8115.12  284.60
  -1   5  -8 8104.79  275.47
   1  -5   9 8108.87  276.12
   1  -5   9 8209.87  275.85
  -1   5  -9 8076.00  278.27
  -1   5  -9 8335.81  274.63
  -1   5  -9 8284.71  275.82
  -1   5  -9 8395.03  279.80
   1  -5  10 1358.71   57.63
   1  -5  10 1167.94   48.83
  -1   5 -10 1190.48   49.57
  -1   5 -10 1121.07   47.36
  -1   5 -10  959.93   54.35
  -1   5 -10 1214.37   55.76
   1  -5  11   13.16   22.13
  -1   5 -11   66.79   10.44
  -1   5 -11   82.58   25.19
  -1   5 -11   26.89   17.57
   1  -5  12 1991.98   82.45
   1  -5  12 2179.11   83.45
  -1   5 -12 2206.06   88.09
  -1   5 -12 2329.35   89.88
  -1   5 -12 2040.17   87.76
   1  -5  13  435.04   38.21
   1  -5  13  371.29   33.93
  -1   5 -13  509.20   33.42
  -1   5 -13  311.38   32.19
  -1   5 -13  389.29   30.87
   1  -5  14 2853.00  121.95
  -1   5 -14 2912.72  102.58
  -1   5 -14 2772.42  121.36
  -1   5 -14 2636.97  102.16
   1  -5  15  125.11   36.64
  -1   5 -15  104.86   31.33
  -1   5 -15  199.76   32.46
  -1   5 -15   74.36   28.01
   1  -5  16 1951.01   88.49
   1  -5  16 2421.60  100.77
  -1   5 -16 1777.99   96.57
  -1   5 -16 2225.09  107.69
  -1   5 -16 2256.37   91.58
   1  -5  17 1047.21   68.62
  -1   5 -17 1134.96   59.15
  -1   5 -17  943.42   61.57
   1  -5  18  558.03   41.62
   1  -5  18  402.35   41.49
  -1   5 -18  442.95   42.15
  -1   5 -18  375.37   44.22
   1  -4   1  181.44   17.91
  -1   4  -1  260.06   18.79
  -1   4  -1  190.00   15.72
   1  -4   2 2531.11   96.92
   1  -4   2 2500.67   89.74
   1  -4   2 2633.71   87.98
  -1   4  -2 2454.14   88.83
  -1   4  -2 2378.40   92.16
  -1   4  -2 2534.44   86.46
  -1   4  -2 2451.11   92.18
   1  -4   3 1157.22   46.48
   1  -4   3 1235.13   60.00
   1  -4   3 1248.90   44.84
   1  -4   3 1189.25   51.64
  -1   4  -3 1145.44   48.68
  -1   4  -3 1226.20   47.12
  -1   4  -3 1296.62   47.91
  -1   4  -3 1244.77   50.86
   1  -4   4  422.59   26.25
  -1   4  -4  365.15   19.17
  -1   4  -4  374.95   22.30
  -1   4  -4  380.39   20.54
  -1   4  -4  401.31   23.68
   1  -4   5 5338.39  184.05
   1  -4   5 5452.34  197.97
   1  -4   5 5768.34  188.38
  -1   4  -5 5827.40  184.06
  -1   4  -5 5581.19  192.35
  -1   4  -5 5296.08  182.45
  -1   4  -5 5562.53  187.60
  -1   4  -5 5482.91  189.64
   1  -4   6 2892.12   91.38
   1  -4   6 2787.30  110.10
   1  -4   6 2910.44  102.12
  -1   4  -6 3141.80  100.70
  -1   4  -6 2697.02  109.94
  -1   4  -6 3132.14  110.66
  -1   4  -6 2953.70  109.64
   1  -4   7 8703.02  291.33
   1  -4   7 9518.52  317.97
   1  -4   7 9061.08  304.14
  -1   4  -7 9887.25  307.17
  -1   4  -7 9242.04  319.88
  -1   4  -7 9663.40  310.75
   1  -4   8 7708.34  280.30
   1  -4   8 9093.49  296.79
   1  -4   8 8607.85  296.75
  -1   4  -8 9112.05  291.67
  -1   4  -8 8826.60  292.63
  -1   4  -8 9010.62  290.99
  -1   4  -8 9402.20  294.56
   1  -4   9 1176.82   59.98
   1  -4   9 1336.07   53.13
  -1   4  -9 1206.37   46.01
  -1   4  -9 1329.23   48.38
  -1   4  -9 1354.09   50.33
  -1   4  -9 1447.64   56.12
  -1   4  -9 1236.98   50.12
   1  -4  10  429.23   38.68
   1  -4  10  545.06   34.09
  -1   4 -10  368.38   16.68
  -1   4 -10  462.99   29.66
  -1   4 -10  457.59   28.93
   1  -4  11   10.25   30.83
   1  -4  11   92.75   24.43
  -1   4 -11   59.13   20.82
  -1   4 -11   52.50   18.68
   1  -4  12  896.09   49.38
   1  -4  12  732.62   46.03
  -1   4 -12  760.47   41.43
  -1   4 -12 1019.68   48.91
  -1   4 -12  716.63   39.51
   1  -4  13   60.41   22.40
   1  -4  13   34.22   26.58
  -1   4 -13   12.86   24.46
  -1   4 -13   85.11   31.23
  -1   4 -13   45.24   21.82
   1  -4  14 2843.45  112.42
   1  -4  14 3152.52  123.30
  -1   4 -14 2985.96  113.35
  -1   4 -14 2708.83  108.45
  -1   4 -14 2779.29  107.82
   1  -4  15   -6.11   30.96
  -1   4 -15   45.48   26.73
  -1   4 -15   -6.05   20.70
   1  -4  16 1446.18   82.21
   1  -4  16 1517.92   81.56
  -1   4 -16 1650.59   68.02
  -1   4 -16 1799.73   81.71
  -1   4 -16 1736.01   72.39
   1  -4  17  143.20   27.95
  -1   4 -17   32.76   23.14
  -1   4 -17  104.46   27.20
   1  -4  18  190.66   39.82
   1  -4  18  215.23   35.97
  -1   4 -18  226.41   38.74
  -1   4 -18  366.60   39.63
   1  -4  19  590.44   46.66
   1  -4  19  964.18   66.66
  -1   4 -19  649.98   42.91
   1  -3   1 3155.39  108.83
   1  -3   1 3190.23  109.67
   1  -3   1 2874.34  119.76
   1  -3   1 2693.74  105.21
   1  -3   1 3383.73  118.67
   1  -3   1 3549.64  115.18
   1  -3   1 3245.27  106.30
  -1   3  -1 3088.87  114.77
  -1   3  -1 3118.26  107.26
  -1   3  -1 3131.93  106.79
  -1   3  -1 3231.28  101.64
  -1   3  -1 3395.36  120.57
   1  -3   257102.18 1718.32
   1  -3   256855.66 1760.08
   1  -3   254189.78 1749.53
   1  -3   256444.33 1743.67
   1  -3   256180.29 1747.91
   1  -3   257895.13 1749.15
  -1   3  -256974.46 1761.12
  -1   3  -255568.76 1765.05
  -1   3  -257757.37 1742.14
  -1   3  -256745.68 1767.13
  -1   3  -253590.91 1762.72
   1  -3   3 5749.00  185.25
   1  -3   3 5663.30  192.36
   1  -3   3 5900.80  196.93
   1  -3   3 5847.16  189.07
  -1   3  -3 5859.83  193.28
  -1   3  -3 5775.01  197.87
  -1   3  -3 5548.61  195.55
  -1   3  -3 5780.47  193.07
  -1   3  -3 5723.10  200.36
  -1   3  -3 5775.60  191.54
   1  -3   424469.25  744.02
   1  -3   424281.52  759.97
   1  -3   424522.52  770.00
   1  -3   423632.97  750.76
  -1   3  -424087.06  752.39
  -1   3  -423865.39  766.51
  -1   3  -424681.21  776.98
  -1   3  -423660.89  770.91
  -1   3  -423905.71  760.78
   1  -3   5  247.73   12.39
   1  -3   5  226.32   22.43
   1  -3   5  152.50   16.49
  -1   3  -5  220.47   13.87
  -1   3  -5  225.75   17.94
  -1   3  -5  176.00   20.54
  -1   3  -5  201.55   15.71
   1  -3   6 4936.89  158.17
   1  -3   6 4724.13  171.32
   1  -3   6 5096.17  194.65
  -1   3  -6 5187.11  164.52
  -1   3  -6 4738.64  176.87
  -1   3  -6 4833.95  180.96
  -1   3  -6 5262.90  165.39
   1  -3   7 1344.81   57.73
   1  -3   7 1529.97   66.93
  -1   3  -7 1413.86   53.05
  -1   3  -7 1242.40   57.65
  -1   3  -7 1337.13   50.63
   1  -3   8 3172.62  115.12
   1  -3   8 2976.67  115.84
  -1   3  -8 3094.03  103.05
  -1   3  -8 2902.44  115.08
  -1   3  -8 3346.95  113.95
  -1   3  -8 3128.02  107.55
   1  -3   9 2059.69   83.00
   1  -3   9 1917.11   75.93
  -1   3  -9 1910.65   67.71
  -1   3  -9 2073.31   77.37
  -1   3  -9 2042.00   77.78
  -1   3  -9 2066.15   71.69
   1  -3  10 5620.31  197.50
   1  -3  10 5177.25  190.52
  -1   3 -10 5218.31  171.45
  -1   3 -10 5797.20  176.46
  -1   3 -10 5424.66  183.23
  -1   3 -10 5271.47  201.43
  -1   3 -10 5845.31  190.71
   1  -3  11  520.25   36.01
   1  -3  11  442.18   40.36
  -1   3 -11  459.64   15.56
  -1   3 -11  457.85   16.57
  -1   3 -11  572.08   31.89
  -1   3 -11  441.09   33.63
  -1   3 -11  458.55   27.54
   1  -3  12 1610.48   77.86
   1  -3  12 1820.75   72.22
  -1   3 -12 1673.69   67.82
  -1   3 -12 1730.49   76.45
  -1   3 -12 1714.34   67.91
   1  -3  13 4773.41  172.27
   1  -3  13 4880.87  181.20
  -1   3 -13 4682.74  169.41
  -1   3 -13 5189.49  205.32
  -1   3 -13 5242.19  178.10
   1  -3  14  128.27   28.49
   1  -3  14   92.20   25.59
  -1   3 -14   81.45   22.17
  -1   3 -14   40.44   27.85
  -1   3 -14   63.57   20.72
   1  -3  15 3699.59  143.76
   1  -3  15 3768.55  162.94
  -1   3 -15 3750.70  138.10
  -1   3 -15 4101.69  166.79
  -1   3 -15 4044.01  146.41
   1  -3  16   96.60   35.52
   1  -3  16  -76.33   35.28
  -1   3 -16   93.45   33.10
   1  -3  17  137.10   32.84
   1  -3  17  279.83   44.67
  -1   3 -17  233.40   29.05
  -1   3 -17  285.42   35.76
   1  -3  18  126.20   39.67
  -1   3 -18  204.03   35.30
  -1   3 -18   94.61   32.74
   1  -3  19    0.73   41.21
  -1   3 -19  195.85   27.80
  -1   3 -19  127.65   28.66
   1  -2   116201.21  530.07
   1  -2   116504.34  532.22
   1  -2   116394.23  522.98
   1  -2   116077.10  512.55
   1  -2   116860.45  536.01
   1  -2   116693.95  548.45
  -1   2  -116170.13  523.23
  -1   2  -115853.33  531.14
  -1   2  -116607.17  529.62
  -1   2  -116723.99  506.63
  -1   2  -116766.53  510.83
   1  -2   2 5042.21  163.14
   1  -2   2 4932.20  172.51
   1  -2   2 5013.71  169.35
   1  -2   2 4929.48  160.09
   1  -2   2 5127.85  171.26
   1  -2   2 5557.11  175.12
  -1   2  -2 5297.91  174.00
  -1   2  -2 5217.52  168.83
  -1   2  -2 4963.22  176.13
  -1   2  -2 5017.77  169.54
  -1   2  -2 5144.49  180.99
  -1   2  -2 4825.51  175.00
   1  -2   3 2645.57   84.82
   1  -2   3 2710.98   95.86
   1  -2   3 2435.85   85.25
   1  -2   3 2496.75   90.73
   1  -2   3 2553.60   89.84
   1  -2   3 2450.71   99.96
   1  -2   3 2537.30   92.37
  -1   2  -3 2596.12   90.42
  -1   2  -3 2656.12   97.67
  -1   2  -3 2608.12   86.19
  -1   2  -3 2546.24   86.58
   1  -2   4 1594.78   53.58
   1  -2   4 1722.57   64.31
   1  -2   4 1777.79   62.92
   1  -2   4 1730.20   64.20
   1  -2   4 1575.44   62.48
   1  -2   4 1667.02   61.55
   1  -2   4 1608.01   54.52
  -1   2  -4 1629.18   65.25
  -1   2  -4 1571.02   62.25
  -1   2  -4 1685.38   62.72
  -1   2  -4 1617.93   56.42
   1  -2   5 3097.17   96.07
   1  -2   5 3060.52  112.84
   1  -2   5 2899.50  105.08
   1  -2   5 2918.83  116.16
   1  -2   5 2971.59  105.40
  -1   2  -5 3146.76  107.25
  -1   2  -5 2862.49  113.36
  -1   2  -5 3049.02  104.63
  -1   2  -5 3049.46  111.24
   1  -2   6 4687.10  159.45
   1  -2   6 4723.29  161.16
  -1   2  -6 4945.15  150.10
  -1   2  -6 4560.58  156.10
  -1   2  -6 4807.93  159.79
  -1   2  -6 4714.87  175.23
  -1   2  -6 4823.38  169.35
  -1   2  -6 4894.19  159.65
   1  -2   7 8596.70  283.68
   1  -2   7 8290.15  278.53
  -1   2  -7 8706.09  265.08
  -1   2  -7 8738.05  282.61
  -1   2  -7 8720.70  283.22
  -1   2  -7 8377.51  280.96
  -1   2  -7 8743.59  276.99
   1  -2   816139.20  514.93
   1  -2   815552.07  526.59
  -1   2  -816613.38  505.60
  -1   2  -817076.22  508.44
  -1   2  -816421.89  522.17
  -1   2  -816505.55  533.77
  -1   2  -816328.92  535.48
  -1   2  -817120.47  525.30
   1  -2   9 7078.93  237.48
   1  -2   9 6029.77  223.36
  -1   2  -9 6973.97  217.34
  -1   2  -9 7219.45  215.00
  -1   2  -9 6769.17  228.58
  -1   2  -9 6941.44  241.34
  -1   2  -9 7166.00  219.82
  -1   2  -9 7286.81  228.51
   1  -2  1012377.03  412.11
  -1   2 -1012256.16  382.43
  -1   2 -1012628.20  375.98
  -1   2 -1011826.27  386.28
  -1   2 -1012144.60  402.34
  -1   2 -1011985.81  404.66
  -1   2 -1012797.05  393.61
   1  -2  11 3819.97  128.18
  -1   2 -11 3727.62  117.64
  -1   2 -11 3804.63  114.54
  -1   2 -11 3440.20  128.37
  -1   2 -11 3823.67  134.55
  -1   2 -11 3458.81  128.18
  -1   2 -11 4018.42  133.82
   1  -2  12 1280.96   59.03
  -1   2 -12 1340.67   59.29
  -1   2 -12 1520.89   66.63
  -1   2 -12 1512.71   56.07
   1  -2  13 3915.29  155.95
  -1   2 -13 4186.12  149.09
  -1   2 -13 5013.72  182.38
  -1   2 -13 4222.70  159.47
  -1   2 -13 4331.06  149.61
   1  -2  14   -4.50   25.59
  -1   2 -14  173.57   30.00
  -1   2 -14   62.05   31.29
  -1   2 -14   47.17   14.31
   1  -2  15 4579.76  174.60
  -1   2 -15 4495.81  158.00
  -1   2 -15 4808.07  171.29
  -1   2 -15 4655.96  162.35
  -1   2 -15 4070.09  157.48
   1  -2  16  449.67   38.19
  -1   2 -16  485.53   41.91
  -1   2 -16  432.01   41.28
  -1   2 -16  345.33   37.53
   1  -2  17 1205.46   67.83
  -1   2 -17 1259.70   61.61
  -1   2 -17 1019.60   66.71
  -1   2 -17 1153.43   61.53
   1  -2  18  812.60   58.16
  -1   2 -18  968.84   54.05
  -1   2 -18  975.88   55.29
   1  -2  19  332.16   33.72
   1  -2  19  123.09   45.01
   1  -1   1 3210.06  103.39
   1  -1   1 3230.62  108.84
   1  -1   1 3393.37  108.24
   1  -1   1 3230.12  109.63
   1  -1   1 3379.89  110.36
   1  -1   1 3280.32  110.98
   1  -1   1 3370.18  106.29
  -1   1  -1 3233.93  114.90
  -1   1  -1 3286.37  111.07
  -1   1  -1 3204.36  107.84
  -1   1  -1 3018.73  100.27
   1  -1   2  177.00    6.96
   1  -1   2  147.96    9.66
   1  -1   2  160.87   12.15
   1  -1   2  202.94   13.00
   1  -1   2  153.31   10.27
   1  -1   2  161.93   10.43
  -1   1  -2  201.99   11.59
  -1   1  -2  213.15   12.50
  -1   1  -2  207.95   12.39
  -1   1  -2  244.06   15.17
  -1   1  -2  146.01    8.98
   1  -1   312040.99  387.57
   1  -1   312243.79  390.32
   1  -1   311798.74  388.32
   1  -1   312362.61  398.77
   1  -1   312157.04  380.45
  -1   1  -311867.81  371.21
  -1   1  -311658.75  389.23
  -1   1  -312205.92  377.88
  -1   1  -312335.45  394.76
  -1   1  -312284.41  379.01
   1  -1   4 1740.43   63.61
   1  -1   4 1575.33   70.88
   1  -1   4 1751.53   62.66
   1  -1   4 1745.12   66.93
   1  -1   4 1830.44   60.22
  -1   1  -4 1761.02   64.31
  -1   1  -4 1709.88   70.07
  -1   1  -4 1762.79   64.29
  -1   1  -4 1780.73   65.55
  -1   1  -4 1817.67   61.45
   1  -1   5   84.93    9.17
   1  -1   5   47.71   16.26
   1  -1   5   44.53   10.29
   1  -1   5   54.52    7.57
  -1   1  -5  108.87   10.71
  -1   1  -5   95.98   14.84
  -1   1  -5   90.40   15.03
  -1   1  -5   58.54   13.61
  -1   1  -5   29.95    8.47
   1  -1   6 2029.72   65.32
   1  -1   6 2136.97   74.97
   1  -1   6 1953.99   78.85
   1  -1   6 2136.99   74.25
  -1   1  -6 2168.09   66.40
  -1   1  -6 1973.07   77.50
  -1   1  -6 2069.18   73.89
  -1   1  -6 1878.31   76.66
  -1   1  -6 2146.32   70.78
   1  -1   7 7091.72  216.56
   1  -1   7 7194.88  225.63
  -1   1  -7 7260.17  222.87
  -1   1  -7 6855.49  234.87
  -1   1  -7 6575.74  230.77
  -1   1  -7 6728.10  235.65
  -1   1  -7 7205.08  229.04
   1  -1   8  230.40   10.31
   1  -1   8  281.86   26.33
   1  -1   8  280.53   14.02
  -1   1  -8  220.18   11.05
  -1   1  -8  191.42   16.62
  -1   1  -8  213.75   20.80
   1  -1   9 9155.42  279.31
   1  -1   9 8627.95  310.59
   1  -1   9 8344.93  277.51
  -1   1  -9 9142.03  286.28
  -1   1  -9 9082.85  285.97
  -1   1  -9 8860.32  301.05
  -1   1  -9 7736.69  292.63
  -1   1  -9 9495.52  281.06
   1  -1  10  449.24   18.16
   1  -1  10  361.03   18.21
  -1   1 -10  471.11   19.16
  -1   1 -10  379.47   26.22
  -1   1 -10  488.25   30.30
  -1   1 -10  489.64   24.21
   1  -1  11  207.67   11.10
   1  -1  11  285.67   32.01
  -1   1 -11  169.60   11.63
  -1   1 -11  303.87   23.76
  -1   1 -11  128.85   18.61
  -1   1 -11  176.45   25.12
  -1   1 -11  239.35   17.96
   1  -1  12 1645.40   78.53
  -1   1 -12 1222.16   49.08
  -1   1 -12 1346.92   55.15
  -1   1 -12 1465.54   63.09
  -1   1 -12 1377.33   65.59
  -1   1 -12 1387.63   51.29
   1  -1  13 4516.05  167.77
  -1   1 -13 3757.20  133.61
  -1   1 -13 4432.48  145.27
  -1   1 -13 4045.27  165.09
  -1   1 -13 3807.40  158.10
  -1   1 -13 4179.99  142.22
   1  -1  14  294.11   38.65
  -1   1 -14  143.77   31.53
  -1   1 -14  238.37   26.56
  -1   1 -14  131.22   15.17
   1  -1  15 6135.07  242.43
  -1   1 -15 6575.02  215.47
  -1   1 -15 6177.36  242.82
  -1   1 -15 5991.20  228.09
  -1   1 -16  147.08   28.78
  -1   1 -16  315.95   32.02
  -1   1 -16  206.48   38.28
   1  -1  17 2877.11  116.08
  -1   1 -17 2721.05  117.96
  -1   1 -17 3193.39  130.99
  -1   1 -17 2848.97  128.16
   1  -1  18  222.07   42.35
  -1   1 -18  118.01   26.41
  -1   1 -18   41.18   26.99
  -1   1 -18   66.14   37.78
   1  -1  19 1471.61   78.43
  -1   1 -19  985.50   62.35
  -1   1 -19 1177.19   70.11
  -1   1 -19 1234.29   59.73
   1   0   0  200.86   10.68
   1   0   0  197.87    9.88
   1   0   149013.53 1553.82
   1   0   151039.98 1584.57
   1   0   151342.88 1595.55
   1   0   151845.98 1545.30
   1   0   149756.98 1534.99
  -1   0  -151798.00 1588.60
  -1   0  -148970.41 1553.79
  -1   0  -150911.91 1586.38
   1   0   2 7746.86  247.38
   1   0   2 7615.10  247.83
   1   0   2 7792.78  253.46
   1   0   2 7947.94  258.55
   1   0   2 8227.76  246.31
   1   0   2 7928.25  238.42
   1   0   2 7724.32  237.34
  -1   0  -2 8075.91  246.74
  -1   0  -2 7540.64  256.70
  -1   0  -2 8065.12  267.39
  -1   0  -2 7565.15  256.05
   1   0   395123.97 2932.97
   1   0   396464.43 2996.62
   1   0   397412.29 2953.44
   1   0   396906.19 2935.37
  -1   0  -392618.85 2928.73
  -1   0  -396179.08 2932.92
  -1   0  -393277.55 2954.65
   1   0   442804.14 1311.94
   1   0   443494.58 1316.94
   1   0   441105.54 1359.24
   1   0   441278.15 1334.54
   1   0   441473.27 1307.05
  -1   0  -442707.28 1307.22
  -1   0  -441424.13 1302.52
  -1   0  -441259.28 1306.44
  -1   0  -442441.63 1308.96
  -1   0  -442036.09 1320.99
  -1   0  -442095.90 1297.31
   1   0   517133.65  529.31
   1   0   517078.86  549.11
   1   0   516348.13  542.77
   1   0   516373.21  542.33
   1   0   517466.42  559.02
  -1   0  -517826.44  535.17
  -1   0  -517149.75  537.12
  -1   0  -516337.07  551.13
  -1   0  -516440.02  546.29
  -1   0  -516368.57  543.75
   1   0   6 1551.41   53.73
   1   0   6 1595.97   63.14
   1   0   6 1362.88   61.60
  -1   0  -6 1615.83   53.87
  -1   0  -6 1643.05   60.85
  -1   0  -6 1434.77   59.27
  -1   0  -6 1511.55   57.22
  -1   0  -6 1365.58   50.70
   1   0   7 7034.72  224.81
   1   0   7 6889.16  226.37
   1   0   7 6822.82  225.42
  -1   0  -7 6833.59  227.88
  -1   0  -7 6836.01  220.09
  -1   0  -7 6675.43  233.12
  -1   0  -7 6757.28  220.44
  -1   0  -7 6961.68  222.71
   1   0   8  427.04   20.00
  -1   0  -8  455.05   19.27
  -1   0  -8  452.67   24.60
  -1   0  -8  351.23   28.16
  -1   0  -8  409.71   18.46
   1   0   9 4063.26  139.04
   1   0   9 3908.11  147.17
  -1   0  -9 4127.77  140.82
  -1   0  -9 4320.22  143.56
  -1   0  -9 4088.50  151.23
  -1   0  -9 3915.41  137.12
  -1   0  -9 4101.56  136.90
  -1   0  -9 4243.68  130.01
   1   0  10  694.56   28.59
   1   0  10  630.68   36.41
  -1   0 -10  680.30   27.99
  -1   0 -10  624.10   35.51
  -1   0 -10  690.92   34.33
  -1   0 -10  651.82   26.63
   1   0  11 2416.96   82.36
   1   0  11 2215.01   95.14
  -1   0 -11 2123.87   80.69
  -1   0 -11 2414.70   86.08
  -1   0 -11 2427.86   97.99
  -1   0 -11 2574.15  104.35
  -1   0 -11 2129.37   78.84
  -1   0 -11 2379.74   75.70
   1   0  12 1010.24   37.30
   1   0  12 1106.05   63.40
  -1   0 -12  894.76   39.47
  -1   0 -12  876.20   43.31
  -1   0 -12  871.46   47.36
   1   0  13  223.43   14.34
   1   0  13  236.72   30.11
  -1   0 -13  184.78   20.24
  -1   0 -13  184.08   26.18
  -1   0 -13  117.88   28.41
   1   0  14 2060.90   88.80
  -1   0 -14 1923.96   80.52
  -1   0 -14 1854.72   82.24
   1   0  15 1740.83   87.81
  -1   0 -15 1831.60   75.60
  -1   0 -15 2149.64   92.74
  -1   0 -15 1598.92   80.07
  -1   0 -16  197.94   35.63
  -1   0 -16  287.51   30.05
   1   0  17  -28.48   44.64
  -1   0 -17  171.71   24.21
  -1   0 -17  204.20   37.82
  -1   0 -17  182.76   36.78
   1   0  18    8.63   35.26
  -1   0 -18  105.23   26.63
  -1   0 -18  -31.90   31.50
   1   0  19   82.07   33.92
  -1   0 -19   54.49   29.37
  -1   0 -19   17.19   39.42
   1   1   0  216.05   14.66
   1   1   0  183.76    8.09
   1   1   0  181.06   11.81
   1   1   0  176.35   13.32
   1   1   0  242.78   10.37
   1   1   0  240.06   12.14
  -1  -1   0  245.82   16.26
  -1  -1   0  208.75    9.41
  -1  -1   0  215.37   12.69
  -1  -1   0  227.16   15.07
  -1  -1   0  247.02   13.86
   1   1   1  553.02   21.84
   1   1   1  543.12   22.20
   1   1   1  472.15   22.34
   1   1   1  597.31   22.93
   1   1   1  486.73   21.09
  -1  -1  -1  492.36   24.17
  -1  -1  -1  525.72   17.25
  -1  -1  -1  545.39   20.80
  -1  -1  -1  480.34   24.43
  -1  -1  -1  581.70   23.38
  -1  -1  -1  511.45   19.57
  -1  -1  -2 7727.17  237.27
   1   1   2 7272.20  232.39
   1   1   2 7561.10  232.81
   1   1   2 7575.13  238.86
   1   1   2 7374.76  254.06
   1   1   2 7324.77  243.69
   1   1   2 7331.84  241.30
  -1  -1  -2 7396.07  236.82
  -1  -1  -2 7369.98  242.33
  -1  -1  -2 7305.50  248.94
   1   1   331797.41 1067.37
   1   1   333470.19 1060.80
   1   1   333652.09 1075.07
   1   1   333946.19 1081.64
   1   1   333991.54 1083.84
   1   1   334417.67 1065.50
   1   1   334933.35 1039.61
  -1  -1  -334419.82 1072.15
  -1  -1  -335756.09 1059.83
  -1  -1  -333107.93 1077.94
  -1  -1  -333975.79 1072.26
  -1  -1  -336133.82 1066.00
   1   1   4 8011.29  275.04
   1   1   4 8520.66  265.51
   1   1   4 8326.55  269.26
   1   1   4 8464.28  278.69
   1   1   4 8563.75  266.67
  -1  -1  -4 8402.92  284.30
  -1  -1  -4 8550.62  277.92
  -1  -1  -4 8110.68  278.37
  -1  -1  -4 8280.07  299.02
  -1  -1  -4 8772.26  284.20
  -1  -1  -4 9001.05  262.76
   1   1   5   35.58    9.64
   1   1   5   36.10    9.14
   1   1   5   64.68   17.23
  -1  -1  -5   42.50    9.34
  -1  -1  -5   21.34   10.60
  -1  -1  -5   19.50   11.38
   1   1   614327.23  466.53
   1   1   614393.02  455.17
   1   1   613899.30  471.36
  -1  -1  -614772.05  466.96
  -1  -1  -614879.69  475.42
  -1  -1  -613910.33  466.13
  -1  -1  -615146.88  491.31
  -1  -1  -614385.43  446.99
   1   1   727603.31  866.06
   1   1   726396.84  873.82
   1   1   727706.16  909.12
  -1  -1  -727959.04  880.49
  -1  -1  -728781.21  854.75
  -1  -1  -727161.82  888.98
  -1  -1  -726039.87  877.38
  -1  -1  -727930.83  847.51
   1   1   8  947.35   39.36
   1   1   8  889.32   42.92
  -1  -1  -8  961.98   41.45
  -1  -1  -8  965.10   48.13
  -1  -1  -8 1053.85   42.88
  -1  -1  -8 1007.88   33.93
   1   1   925179.96  782.72
   1   1   924192.65  812.29
  -1  -1  -922884.49  811.51
  -1  -1  -926045.87  788.77
  -1  -1  -925415.00  789.25
  -1  -1  -924633.48  780.97
  -1  -1  -924641.91  765.43
   1   1  10  375.23   34.02
  -1  -1 -10  595.72   31.91
  -1  -1 -10  517.90   30.12
  -1  -1 -10  389.12   33.45
  -1  -1 -10  453.40   18.39
   1   1  1113086.29  409.59
   1   1  1113100.14  415.33
  -1  -1 -1112789.21  416.35
  -1  -1 -1112923.76  422.38
  -1  -1 -1112473.51  425.58
  -1  -1 -1110953.04  388.29
   1   1  12  464.62   24.20
   1   1  12  371.04   38.56
  -1  -1 -12  426.93   29.80
   1   1  13 2617.79   95.84
   1   1  13 2235.47   99.26
  -1  -1 -13 2746.43   94.64
  -1  -1 -13 2692.29  110.29
  -1  -1 -13 2651.58   98.75
   1   1  14 2668.61  104.51
   1   1  14 2888.96  114.92
  -1  -1 -14 3086.18  106.59
  -1  -1 -14 2964.16  110.51
  -1  -1 -14 2902.44  112.16
   1   1  15  749.90   54.96
  -1  -1 -15  856.93   40.67
  -1  -1 -15  810.28   48.78
  -1  -1 -15  657.83   43.96
   1   1  16 1320.22   68.42
  -1  -1 -16 1334.43   59.83
  -1  -1 -16 1186.42   66.20
  -1  -1 -16 1536.45   67.41
   1   1  17  202.63   42.87
  -1  -1 -17  147.58   29.98
  -1  -1 -17  144.12   34.08
   1   1  18  420.36   40.75
  -1  -1 -18  302.81   27.94
  -1  -1 -18  494.45   38.29
  -1  -1 -18  445.44   36.04
   1   1  19  140.10   33.78
  -1  -1 -19  179.68   22.08
  -1  -1 -19  206.25   32.77
  -1  -1 -19  146.05   30.60
   1   2   0    9.84   11.31
   1   2   0   44.09    6.62
   1   2   0   61.59   11.78
   1   2   0   72.46   11.17
   1   2   0   10.77    9.18
  -1  -2   0   17.23    9.25
  -1  -2   0   65.05    7.70
  -1  -2   0   73.63   11.45
  -1  -2   0   52.44   10.00
  -1  -2   0   70.97   10.18
  -1  -2   0   37.79   13.40
   1   2   1  722.08   33.85
   1   2   1  751.98   28.26
   1   2   1  816.52   34.39
   1   2   1  661.33   30.78
   1   2   1  749.08   30.30
   1   2   1  747.14   30.70
  -1  -2  -1  801.78   34.04
  -1  -2  -1  795.27   28.87
  -1  -2  -1  776.02   30.41
  -1  -2  -1  769.31   33.93
  -1  -2  -1  733.55   31.89
  -1  -2  -1  816.59   30.68
   1   2   2 4710.85  162.55
   1   2   2 4830.48  160.17
   1   2   2 5177.02  174.48
   1   2   2 4834.00  164.69
   1   2   2 4888.42  162.12
  -1  -2  -2 5058.76  159.39
  -1  -2  -2 4918.12  172.87
  -1  -2  -2 4736.88  163.68
  -1  -2  -2 5108.79  166.41
  -1  -2  -2 4997.33  170.79
  -1  -2  -2 5038.56  168.41
  -1  -2  -2 5073.56  162.56
   1   2   3  137.23   14.94
   1   2   3  128.32   11.73
   1   2   3   77.62    9.75
  -1  -2  -3   76.70   13.65
  -1  -2  -3  104.76    7.35
  -1  -2  -3   70.12    9.16
  -1  -2  -3   78.07   12.27
  -1  -2  -3   99.41   16.31
  -1  -2  -3   94.91    8.92
   1   2   4 7663.93  264.47
   1   2   4 8471.64  261.08
   1   2   4 8385.71  273.84
   1   2   4 8041.97  255.64
   1   2   4 8173.50  260.29
  -1  -2  -4 7938.03  272.39
  -1  -2  -4 8708.44  270.42
  -1  -2  -4 6979.99  276.07
  -1  -2  -4 8195.99  269.02
  -1  -2  -4 8318.41  262.88
   1   2   5   78.20   15.28
   1   2   5    7.14    8.47
   1   2   5   34.03   19.44
   1   2   5   23.39    8.97
  -1  -2  -5   25.40   13.07
  -1  -2  -5   39.16   14.92
   1   2   6  719.71   40.97
   1   2   6  801.97   32.79
   1   2   6  810.27   39.35
   1   2   6  780.49   28.74
  -1  -2  -6  713.41   39.75
  -1  -2  -6  871.51   39.80
  -1  -2  -6  779.24   29.27
   1   2   7 4188.93  138.77
   1   2   7 3805.72  130.49
   1   2   7 4171.84  152.04
   1   2   7 4363.47  136.42
  -1  -2  -7 4333.18  149.86
  -1  -2  -7 3842.38  144.42
  -1  -2  -7 4111.93  139.53
  -1  -2  -7 3955.12  135.01
   1   2   8   71.44   13.57
   1   2   8   26.58   23.19
  -1  -2  -8   46.29   15.52
  -1  -2  -8  144.49   20.16
  -1  -2  -8   65.98   23.90
  -1  -2  -8   52.58    7.27
   1   2   9 3431.05  131.44
   1   2   9 4054.71  136.47
  -1  -2  -9 4044.59  143.56
  -1  -2  -9 3986.68  140.49
  -1  -2  -9 3418.88  133.99
  -1  -2  -9 3922.69  124.23
  -1  -2  -9 3499.70  122.90
   1   2  10   44.08   17.26
   1   2  10  103.47   30.52
  -1  -2 -10  159.88   20.16
  -1  -2 -10   96.47   21.35
  -1  -2 -10  121.94   23.14
  -1  -2 -10   59.18    7.07
   1   2  11 1030.07   43.48
   1   2  11  776.09   51.78
  -1  -2 -11  917.24   43.62
  -1  -2 -11  834.73   44.67
  -1  -2 -11  998.45   42.63
   1   2  12  904.20   41.13
   1   2  12  820.23   43.53
  -1  -2 -12  841.45   38.42
  -1  -2 -12  724.33   43.33
  -1  -2 -12  866.61   46.54
   1   2  13   -3.38   12.60
   1   2  13   56.25   37.19
  -1  -2 -13   19.06   16.71
  -1  -2 -13   36.64   23.59
  -1  -2 -13   -6.70   24.07
   1   2  14 3929.86  151.68
   1   2  14 3988.35  152.50
  -1  -2 -14 4187.57  151.20
  -1  -2 -14 4010.77  166.13
  -1  -2 -14 4165.56  148.23
   1   2  15  819.13   56.35
  -1  -2 -15  864.55   48.68
  -1  -2 -15 1012.92   58.84
  -1  -2 -15 1056.90   57.26
   1   2  16 3262.32  136.01
  -1  -2 -16 2700.10  110.65
  -1  -2 -16 3501.38  142.44
  -1  -2 -16 3166.66  122.90
   1   2  17  829.04   56.51
  -1  -2 -17  716.76   39.92
  -1  -2 -17  574.18   45.08
   1   2  18 1013.76   58.47
  -1  -2 -18 1112.10   62.04
  -1  -2 -18  751.79   48.20
   1   3   012356.87  424.18
   1   3   013303.33  414.90
   1   3   013062.60  419.14
   1   3   013079.39  424.82
   1   3   013413.18  418.79
  -1  -3   013370.71  416.77
  -1  -3   012988.61  417.34
  -1  -3   013131.61  429.54
  -1  -3   013416.11  435.98
  -1  -3   012913.83  417.87
   1   3   111929.15  387.70
   1   3   111966.58  371.92
   1   3   111334.15  364.92
   1   3   111489.13  370.02
   1   3   111757.05  368.29
  -1  -3  -111672.41  368.03
  -1  -3  -111183.06  378.60
  -1  -3  -111776.04  375.88
  -1  -3  -111630.59  389.39
  -1  -3  -111429.26  373.48
   1   3   2 9637.33  364.34
   1   3   211208.13  354.22
   1   3   212521.39  391.34
  -1  -3  -211401.45  349.75
  -1  -3  -211401.47  358.20
  -1  -3  -210580.38  360.25
  -1  -3  -210967.13  368.44
  -1  -3  -211468.89  367.27
  -1  -3  -210958.43  347.58
   1   3   337068.73 1168.81
   1   3   337238.46 1176.73
   1   3   337908.46 1180.22
  -1  -3  -337207.57 1158.62
  -1  -3  -339893.82 1192.53
  -1  -3  -336378.48 1189.94
  -1  -3  -338222.25 1189.48
  -1  -3  -336812.66 1161.91
   1   3   4 6072.88  199.29
   1   3   4 6127.44  203.04
   1   3   4 6292.21  207.02
  -1  -3  -4 6223.37  199.92
  -1  -3  -4 6226.24  205.36
  -1  -3  -4 6089.93  224.34
  -1  -3  -4 6227.14  212.05
  -1  -3  -4 5880.35  203.98
   1   3   519095.62  610.64
   1   3   519048.13  626.02
   1   3   519850.41  617.25
  -1  -3  -519862.63  611.95
  -1  -3  -520902.46  630.00
  -1  -3  -518683.62  638.79
  -1  -3  -520400.37  634.43
  -1  -3  -518625.51  613.08
   1   3   6 2079.82   77.10
   1   3   6 2265.32   76.21
   1   3   6 2202.20   73.66
  -1  -3  -6 2340.40   77.46
  -1  -3  -6 2011.99   84.39
  -1  -3  -6 2012.33   78.67
  -1  -3  -6 2095.68   74.89
   1   3   7  483.42   26.91
   1   3   7  468.35   31.04
  -1  -3  -7  537.48   26.78
  -1  -3  -7  489.08   29.28
  -1  -3  -7  535.15   27.40
  -1  -3  -7  404.65   21.17
   1   3   7  464.90   22.21
   1   3   8 1614.67   59.47
   1   3   8 1483.53   58.70
   1   3   8 1707.16   58.57
  -1  -3  -8 1616.25   65.77
  -1  -3  -8 1318.92   51.70
  -1  -3  -8 1576.70   57.24
  -1  -3  -8 1460.95   63.49
   1   3   9  723.78   33.13
   1   3   9  624.78   43.07
   1   3   9  690.40   30.16
  -1  -3  -9  800.65   42.20
  -1  -3  -9  925.41   44.31
  -1  -3  -9  687.02   28.00
   1   3  10 1399.34   57.27
   1   3  10 1490.66   59.17
  -1  -3 -10 1285.23   53.55
  -1  -3 -10 1494.01   64.45
  -1  -3 -10 1433.95   62.56
  -1  -3 -10 1348.94   52.20
   1   3  11 1537.38   64.96
   1   3  11 1557.05   68.43
  -1  -3 -11 1728.22   59.19
  -1  -3 -11 1498.95   70.41
  -1  -3 -11 1331.37   60.64
  -1  -3 -11 1538.87   54.31
   1   3  12  882.13   41.27
   1   3  12  943.24   47.86
  -1  -3 -12  836.05   40.78
  -1  -3 -12  828.13   46.32
  -1  -3 -12  910.16   51.00
   1   3  13  163.72   23.77
   1   3  13  229.85   35.11
  -1  -3 -13  118.11   24.54
  -1  -3 -13  155.51   31.38
   1   3  14  255.77   23.44
  -1  -3 -14  160.23   21.67
  -1  -3 -14  216.33   32.49
   1   3  15   97.91   41.42
  -1  -3 -15  189.73   31.16
  -1  -3 -15  240.80   34.45
   1   3  16 1005.08   64.22
  -1  -3 -16  983.42   57.93
  -1  -3 -16 1020.92   52.89
  -1  -3 -17   43.00   27.63
  -1  -3 -17  198.65   45.11
   1   3  18  189.01   44.68
  -1  -3 -18  140.35   28.75
  -1  -3 -18  190.16   38.00
   1   4   0 1870.25   71.34
   1   4   0 2065.55   68.81
   1   4   0 1788.08   71.35
  -1  -4   0 1794.18   66.97
  -1  -4   0 2006.69   70.14
  -1  -4   0 1743.18   73.51
  -1  -4   0 1808.53   65.84
   1   4   1 3957.94  136.21
   1   4   1 4157.08  129.21
   1   4   1 3887.53  135.60
  -1  -4  -1 3737.28  134.73
  -1  -4  -1 4123.58  141.37
  -1  -4  -1 3693.77  152.40
  -1  -4  -1 4014.73  129.91
   1   4   2  256.84   19.74
   1   4   2  312.31   20.64
  -1  -4  -2  284.59   13.66
  -1  -4  -2  237.75   19.15
  -1  -4  -2  306.54   20.44
  -1  -4  -2  301.78   19.43
  -1  -4  -2  322.63   19.12
   1   4   3 1480.31   57.39
   1   4   3 1647.35   62.58
  -1  -4  -3 1278.36   47.67
  -1  -4  -3 1572.10   54.71
  -1  -4  -3 1303.36   52.23
  -1  -4  -3 1344.71   58.12
   1   4   3 1493.98   54.59
   1   4   4  380.94   26.54
  -1  -4  -4  337.30   15.60
  -1  -4  -4  362.00   20.15
  -1  -4  -4  282.15   20.38
  -1  -4  -4  264.77   23.69
   1   4   5 1741.38   73.11
   1   4   5 1974.80   75.87
   1   4   5 2047.86   70.23
  -1  -4  -5 1619.23   60.89
  -1  -4  -5 1921.03   65.55
  -1  -4  -5 1941.31   66.55
  -1  -4  -5 1829.85   74.50
   1   4   6 3474.23  130.51
   1   4   6 3469.53  124.30
   1   4   6 3716.37  125.12
  -1  -4  -6 3476.87  123.29
  -1  -4  -6 3795.70  135.91
  -1  -4  -6 3406.25  128.50
   1   4   7 1274.14   57.49
   1   4   7 1051.04   58.90
   1   4   7 1084.99   49.13
  -1  -4  -7 1352.66   49.45
  -1  -4  -7 1339.91   58.45
  -1  -4  -7 1246.05   54.09
   1   4   8 7332.15  238.99
   1   4   8 6703.43  246.41
   1   4   8 7325.13  237.04
  -1  -4  -8 7427.38  253.49
  -1  -4  -8 7104.32  260.32
  -1  -4  -8 7564.06  253.82
   1   4   9 1569.06   63.70
   1   4   9 1371.77   59.78
   1   4   9 1397.72   52.44
  -1  -4  -9 1303.30   57.52
  -1  -4  -9 1503.10   70.59
  -1  -4  -9 1264.29   57.28
   1   4  1010732.09  339.67
   1   4  1010604.59  345.17
   1   4  10 9994.54  340.88
  -1  -4 -1010814.26  340.48
  -1  -4 -1010557.60  354.85
  -1  -4 -1010674.67  354.64
   1   4  11  616.87   37.30
   1   4  11  554.66   39.23
  -1  -4 -11  622.64   33.40
  -1  -4 -11  558.47   40.07
  -1  -4 -11  609.21   34.62
   1   4  12 3604.08  140.84
   1   4  12 3288.19  136.49
  -1  -4 -12 3567.90  129.33
  -1  -4 -12 3796.56  136.10
  -1  -4 -12 3654.73  127.70
   1   4  13  123.24   30.60
  -1  -4 -13  142.50   19.58
  -1  -4 -13  178.07   23.85
   1   4  14  620.85   39.66
   1   4  14  398.51   41.16
  -1  -4 -14  607.79   36.19
   1   4  15  606.60   50.71
  -1  -4 -15  871.93   54.92
  -1  -4 -15  844.78   48.27
   1   4  16  319.08   45.19
  -1  -4 -16  217.55   33.15
  -1  -4 -16  174.15   44.54
   1   4  17  490.50   51.32
  -1  -4 -17  456.20   38.32
  -1  -4 -17  657.57   43.16
   1   5   0  225.71   25.72
   1   5   0  223.71   17.45
   1   5   0  200.14   18.18
  -1  -5   0  213.33   20.30
  -1  -5   0  235.36   16.35
  -1  -5   0  216.93   20.90
  -1  -5  -1  222.68   24.21
  -1  -5  -1  290.82   21.03
  -1  -5  -1  267.87   23.15
   1   5   1  310.47   22.56
   1   5   2   60.46   15.85
  -1  -5  -2    0.20   17.34
   1   5   2   33.09   19.07
   1   5   3 7167.79  246.61
   1   5   3 7285.19  241.35
   1   5   3 7121.03  235.69
  -1  -5  -3 7621.31  242.88
  -1  -5  -3 7441.98  245.90
  -1  -5  -3 7429.26  236.77
   1   5   4    1.20   17.73
  -1  -5  -4   81.47   15.14
  -1  -5  -4   35.39   17.00
   1   5   5 8891.49  288.65
   1   5   5 8740.98  288.70
   1   5   5 8522.15  290.61
  -1  -5  -5 9157.84  291.67
  -1  -5  -5 9795.21  297.55
   1   5   6   45.63   17.34
   1   5   6   49.06   24.47
  -1  -5  -6   59.98   24.10
   1   5   7 1749.99   69.77
   1   5   7 1584.74   70.67
   1   5   7 1611.97   66.33
  -1  -5  -7 1566.14   65.26
  -1  -5  -7 1689.98   72.32
  -1  -5  -7 1759.28   71.20
   1   5   8 1123.68   51.82
   1   5   8 1307.78   58.28
   1   5   8 1191.21   50.77
  -1  -5  -8 1088.97   54.64
  -1  -5  -8 1382.74   62.12
  -1  -5  -8 1079.80   54.62
   1   5   9  124.15   27.38
   1   5   9   39.06   28.76
   1   5   9   29.61   14.00
  -1  -5  -9   14.02   16.63
  -1  -5  -9   79.18   22.07
  -1  -5  -9    2.40   25.86
   1   5  10 1597.93   69.65
   1   5  10 1610.12   76.94
  -1  -5 -10 1659.63   65.46
  -1  -5 -10 1844.36   79.27
  -1  -5 -10 1978.63   81.00
   1   5  11  218.48   31.39
   1   5  11  366.90   37.85
  -1  -5 -11  329.26   32.97
  -1  -5 -11  156.82   29.54
   1   5  12  142.63   38.97
  -1  -5 -12  105.73   30.98
  -1  -5 -12  231.19   34.40
   1   5  13 1247.72   57.12
   1   5  13  981.84   64.43
  -1  -5 -13 1085.12   51.24
  -1  -5 -13 1023.20   57.93
   1   5  14  185.21   41.26
  -1  -5 -14   99.34   27.32
  -1  -5 -14   -6.32   31.14
   1   5  15  514.19   36.62
  -1  -5 -15  453.05   41.85
  -1  -5 -15  674.71   50.23
   1   6   0  216.52   24.99
   1   6   0  299.35   21.94
   1   6   0  312.35   28.13
  -1  -6   0  338.66   24.61
  -1  -6   0  332.02   21.98
   1   6   1  785.22   43.24
   1   6   1  761.54   34.53
   1   6   1  651.83   34.65
  -1  -6  -1  529.05   36.14
  -1  -6  -1  610.63   29.03
  -1  -6  -1  560.62   31.09
   1   6   2 8438.02  293.29
   1   6   2 8547.87  283.58
  -1  -6  -2 8368.32  279.62
  -1  -6  -2 8091.57  287.04
  -1  -6  -2 9424.95  287.57
  -1  -6  -2 8778.56  278.74
   1   6   3  170.84   24.19
   1   6   3  186.19   22.84
   1   6   3  124.63   18.82
  -1  -6  -3  126.84   18.08
  -1  -6  -3  145.92   24.15
  -1  -6  -3  132.53   22.10
   1   6   4 8400.31  293.16
   1   6   4 8828.58  283.78
   1   6   4 8827.32  281.31
  -1  -6  -4 8273.79  271.75
  -1  -6  -4 8258.19  288.14
  -1  -6  -4 8431.63  276.81
   1   6   5  -40.78   26.97
   1   6   5   -9.80   25.10
   1   6   5   23.99   17.50
  -1  -6  -5   21.06   15.43
  -1  -6  -5    9.82   24.68
   1   6   6 1862.88   82.37
   1   6   6 2346.11   83.07
   1   6   6 1978.37   74.83
  -1  -6  -6 1862.74   78.44
  -1  -6  -6 2106.88   81.98
  -1  -6  -6 2118.08   84.54
   1   6   7   38.91   26.69
   1   6   7   54.86   26.57
   1   6   7  -12.81   17.39
  -1  -6  -7    6.95   12.77
  -1  -6  -7  -40.60   20.43
  -1  -6  -7   -6.51   24.91
   1   6   8  -33.40   22.97
   1   6   8  -21.35   26.32
   1   6   8   21.80   14.56
  -1  -6  -8   75.52   30.95
  -1  -6  -8  100.80   22.68
   1   6   9 2046.41   87.63
   1   6   9 2180.41   92.42
  -1  -6  -9 2042.94   89.39
  -1  -6  -9 2123.67   91.04
   1   6  10  295.64   30.69
   1   6  10  245.60   36.92
  -1  -6 -10  417.51   33.71
  -1  -6 -10  298.18   36.23
   1   6  11 1438.76   67.17
   1   6  11 1173.25   64.54
  -1  -6 -11 1385.16   70.16
  -1  -6 -11 1567.96   67.84
   1   6  12  276.13   30.97
  -1  -6 -12  337.48   38.90
   1   6  13  142.63   36.39
   1   6  13  174.72   29.77
  -1  -6 -13   99.59   33.86
   1   6  14  478.61   33.25
   1   6  14  398.83   42.36
  -1  -6 -14  662.90   47.45
  -1  -6 -14  714.82   44.81
   1   7   0  191.97   28.04
   1   7   0  190.82   20.17
  -1  -7   0  279.46   27.29
  -1  -7   0  217.94   22.58
   1   7   1  714.60   40.78
   1   7   1  675.42   34.08
   1   7   1  679.22   37.02
  -1  -7  -1  665.84   35.09
  -1  -7  -1  782.56   38.90
  -1  -7  -1  543.33   35.14
   1   7   2  617.29   34.43
   1   7   2  506.40   35.53
  -1  -7  -2  538.91   33.16
  -1  -7  -2  723.54   35.86
  -1  -7  -2  647.01   39.57
   1   7   3   72.10   19.87
   1   7   3   60.77   18.07
  -1  -7  -3   90.71   22.08
  -1  -7  -3   58.85   19.84
   1   7   4 2399.11   94.71
   1   7   4 2267.97   89.65
   1   7   4 2385.40   88.25
  -1  -7  -4 2013.09   79.78
  -1  -7  -4 2275.67   88.09
  -1  -7  -4 2606.03   92.46
   1   7   5   88.01   26.11
   1   7   5   11.45   21.45
  -1  -7  -5   70.63   17.41
  -1  -7  -5  189.73   33.81
  -1  -7  -5   75.84   26.52
   1   7   6  537.13   32.65
   1   7   6  372.28   34.09
   1   7   6  506.78   30.77
  -1  -7  -6  487.56   33.55
  -1  -7  -6  497.99   35.92
  -1  -7  -7  936.00   46.70
   1   7   7  888.65   48.94
   1   7   7  810.52   48.51
   1   7   7  657.83   43.07
  -1  -7  -7  940.63   51.36
   1   7   8  113.81   25.35
   1   7   8  142.61   31.53
  -1  -7  -8  228.17   34.75
  -1  -7  -8  141.74   25.43
   1   7   9 1443.77   69.02
   1   7   9 1131.42   63.73
  -1  -7  -9 1654.04   72.79
  -1  -7  -9 1301.72   71.39
   1   7  10 1035.06   61.38
   1   7  10 1010.37   62.82
  -1  -7 -10 1245.99   59.00
  -1  -7 -10 1021.18   60.74
   1   7  11 1310.89   67.18
  -1  -7 -11 1312.22   62.45
  -1  -7 -11 1159.82   61.78
   1   7  12  267.33   37.55
   1   7  12  291.58   35.24
  -1  -7 -12  311.84   39.35
   1   8   0  191.99   19.49
  -1  -8   0   52.34   21.88
  -1  -8   0  121.28   18.28
  -1  -8   0  158.69   23.15
   1   8   1  -14.21   26.04
   1   8   1  107.39   25.08
   1   8   1  132.21   19.14
  -1  -8  -1   32.03   22.99
   1   8   2 1249.58   59.59
   1   8   2 1061.92   58.44
   1   8   2 1318.90   60.75
  -1  -8  -2 1387.65   63.54
  -1  -8  -2 1258.34   57.25
   1   8   3 1067.99   52.75
   1   8   3 1152.10   49.86
  -1  -8  -3 1047.23   58.17
  -1  -8  -3 1080.90   51.61
   1   8   4 1910.11   81.00
   1   8   4 1652.70   74.59
   1   8   4 1825.18   79.01
  -1  -8  -4 1830.29   87.19
  -1  -8  -4 1768.39   73.85
   1   8   5   95.30   26.50
   1   8   5  182.58   23.61
  -1  -8  -5   85.91   34.66
  -1  -8  -5   51.75   20.87
   1   8   6 2264.52   92.35
   1   8   6 2125.96   84.10
   1   8   6 1905.94   80.47
  -1  -8  -6 1884.36   85.78
  -1  -8  -6 2280.17   82.49
   1   8   7  -38.62   22.49
   1   8   7   10.19   27.72
  -1  -8  -7  -29.63   28.17
   1   8   8 1448.54   68.73
   1   8   8 1646.54   70.49
  -1  -8  -8 1318.71   65.56
   1   8   9  448.41   36.29
   1   8   9  276.12   30.55
  -1  -8  -9  538.16   43.33
  -1  -8  -9  365.54   36.06
   1   8  10  213.52   38.77
   1   8  10  234.36   31.22
  -1  -8 -10  336.32   37.39
   1   9   0  304.40   29.60
  -1  -9   0  132.96   25.59
   1   9   1  131.50   25.10
   1   9   1  133.20   27.25
  -1  -9  -1  110.41   26.89
  -1  -9  -1  160.21   26.50
   1   9   2  108.49   26.16
   1   9   2   36.02   18.57
  -1  -9  -2  101.41   24.34
  -1  -9  -2   56.58   25.14
   1   9   3  466.97   45.70
   1   9   3  631.27   36.79
  -1  -9  -3  593.07   40.32
   1   9   4  201.49   34.13
  -1  -9  -4  257.59   32.01
   1   9   5 1272.55   63.04
  -1  -9  -5 1237.29   62.20
  -1  -9  -5 1030.66   50.23
   1   9   6  164.34   32.84
  -1  -9  -6   18.83   33.42
  -1  -9  -6  112.35   27.63
   1  10   0 1647.89   74.41
   2 -11   1 2518.78  108.29
  -2  11  -1 2398.40  103.67
   2 -11   2   58.95   25.00
  -2  11  -2  165.43   32.35
  -2  11  -2   86.21   20.41
   2 -11   3 1187.52   63.42
  -2  11  -3 1015.75   62.68
  -2  11  -3 1139.92   64.56
   2 -10   1  381.50   33.66
   2 -10   1  206.66   37.44
  -2  10  -1  284.31   38.34
  -2  10  -1  343.02   28.86
  -2  10  -1  239.35   31.84
   2 -10   2   38.49   30.59
   2 -10   2   68.94   30.63
  -2  10  -2  -24.21   24.21
  -2  10  -2  109.20   30.39
  -2  10  -2  -39.39   22.27
   2 -10   3  991.71   55.85
  -2  10  -3  806.27   46.06
  -2  10  -3  872.77   50.93
  -2  10  -3 1019.53   54.76
   2 -10   4   75.26   25.95
   2 -10   4  246.71   36.33
  -2  10  -4   48.21   26.41
  -2  10  -4   62.99   25.84
  -2  10  -4  169.91   29.63
   2 -10   5  232.45   33.59
   2 -10   5  179.24   34.03
  -2  10  -5  130.41   34.16
  -2  10  -5  345.32   33.85
  -2  10  -5  225.49   28.58
   2 -10   6 1420.32   75.00
   2 -10   6 1589.07   71.88
  -2  10  -6 1556.39   69.47
  -2  10  -6 1503.61   65.62
  -2  10  -6 1427.85   68.94
   2 -10   7  135.87   29.71
   2 -10   7   89.91   39.47
  -2  10  -7   43.06   22.23
   2 -10   8 2594.40  112.19
   2 -10   8 2506.97  105.41
  -2  10  -8 2831.80  116.07
  -2  10  -8 3075.98  135.37
   2 -10   9  500.44   43.22
   2 -10   9  356.39   36.94
  -2  10  -9  220.29   45.62
   2  -9   1 1760.00   79.71
   2  -9   1 2018.21   82.54
  -2   9  -1 1677.39   78.15
  -2   9  -1 1693.02   73.44
  -2   9  -1 1910.02   80.96
   2  -9   2  138.65   32.92
   2  -9   2   33.13   24.71
  -2   9  -2   70.10   25.39
  -2   9  -2   32.29   28.78
   2  -9   3  691.83   44.74
   2  -9   3  540.34   43.55
  -2   9  -3  691.49   42.71
  -2   9  -3  554.48   39.40
  -2   9  -3  565.65   38.24
   2  -9   4  766.96   51.06
  -2   9  -4  738.59   49.35
  -2   9  -4  623.84   44.69
  -2   9  -4  964.19   52.41
   2  -9   5 1138.86   72.56
   2  -9   5 1475.36   70.69
  -2   9  -5 1268.36   61.07
  -2   9  -5 1228.20   65.42
  -2   9  -5 1255.67   59.89
   2  -9   6  104.73   33.08
   2  -9   6   18.24   30.55
  -2   9  -6  148.02   25.58
  -2   9  -6  118.14   24.39
  -2   9  -6   51.22   24.98
   2  -9   7  -68.19   28.75
  -2   9  -7   93.34   21.52
  -2   9  -7   30.17   22.78
  -2   9  -7   27.56   27.10
   2  -9   8 1256.91   65.34
   2  -9   8 1166.42   64.54
  -2   9  -8 1025.58   52.26
  -2   9  -8 1062.35   62.27
   2  -9   9  213.34   38.15
   2  -9   9  199.04   35.61
  -2   9  -9  209.64   28.73
  -2   9  -9  224.60   34.66
   2  -9  10  795.82   51.50
  -2   9 -10  770.59   48.48
   2  -9  11 1263.86   69.39
   2  -9  11 1242.48   67.76
  -2   9 -11 1424.97   70.24
  -2   9 -12   78.27   29.78
  -2   9 -12  123.20   36.23
   2  -8   1  790.04   46.00
   2  -8   1  678.09   41.56
  -2   8  -1  771.91   42.26
  -2   8  -1  683.82   38.80
  -2   8  -1  908.78   47.03
   2  -8   2 5245.24  185.26
   2  -8   2 5037.83  177.16
  -2   8  -2 5228.52  182.73
  -2   8  -2 5121.23  183.69
  -2   8  -2 5307.85  180.16
   2  -8   3 1560.90   63.30
   2  -8   3 1508.21   60.10
  -2   8  -3 1314.17   60.59
  -2   8  -3 1547.44   61.57
  -2   8  -3 1436.65   56.67
   2  -8   4 6572.62  229.36
   2  -8   4 6686.93  234.20
  -2   8  -4 7045.13  241.49
  -2   8  -4 7150.26  239.79
  -2   8  -4 7393.27  227.79
   2  -8   5   15.03   28.06
   2  -8   5   45.90   20.56
  -2   8  -5  -21.92   22.66
  -2   8  -5   49.67   22.00
   2  -8   6  422.81   35.15
   2  -8   6  324.79   35.19
  -2   8  -6  403.82   29.64
  -2   8  -6  326.52   27.48
  -2   8  -6  371.18   33.27
   2  -8   7  268.48   30.67
   2  -8   7  270.69   31.93
  -2   8  -7  308.35   27.54
  -2   8  -7  182.58   28.05
  -2   8  -7  233.06   31.40
   2  -8   8  249.37   38.83
   2  -8   8  317.39   29.73
  -2   8  -8  228.81   21.64
  -2   8  -8  273.88   29.83
  -2   8  -8  232.89   34.79
   2  -8   9  795.00   57.34
  -2   8  -9  949.38   50.35
  -2   8  -9  668.98   45.09
   2  -8  10  150.65   29.95
  -2   8 -10   41.32   24.85
  -2   8 -10  109.19   24.91
   2  -8  11 1038.06   55.39
   2  -8  11  809.64   59.01
  -2   8 -11  961.14   48.94
  -2   8 -11  768.37   54.85
   2  -8  12  182.25   38.82
  -2   8 -12  112.29   33.89
  -2   8 -12  214.23   28.56
   2  -8  13  135.80   41.40
  -2   8 -13  151.86   30.69
  -2   8 -13   76.72   26.58
  -2   8 -13  126.85   27.25
   2  -8  14  570.68   52.58
  -2   8 -14  564.60   35.49
  -2   8 -14  402.66   42.89
  -2   8 -14  664.30   39.06
   2  -7   1  407.93   37.92
   2  -7   1  354.62   15.43
   2  -7   1  402.32   29.67
  -2   7  -1  344.28   29.38
  -2   7  -1  360.81   28.34
  -2   7  -1  345.32   29.07
   2  -7   2 2758.93  109.65
   2  -7   2 2734.15   89.53
   2  -7   2 2947.30  105.41
  -2   7  -2 2609.95  100.14
  -2   7  -2 2827.18  101.25
  -2   7  -2 2637.02   98.55
   2  -7   3  288.30   34.05
   2  -7   3  194.48   13.60
   2  -7   3  222.32   28.20
  -2   7  -3  291.22   24.03
  -2   7  -3  246.96   23.88
   2  -7   4 4684.84  162.80
   2  -7   4 4489.89  146.93
   2  -7   4 3880.09  156.36
  -2   7  -4 4621.73  156.14
  -2   7  -4 4550.05  156.96
  -2   7  -4 4723.96  152.58
   2  -7   5 3778.77  145.64
   2  -7   5 3382.49  119.70
   2  -7   5 3463.23  126.80
  -2   7  -5 3562.17  131.69
  -2   7  -5 4020.17  139.92
  -2   7  -5 3742.92  133.50
   2  -7   6  -23.92   22.98
   2  -7   6   41.19   14.60
   2  -7   6   47.57   20.39
  -2   7  -6  -43.98   21.86
   2  -7   7 7770.37  253.39
   2  -7   7 7688.44  247.86
   2  -7   7 7053.48  252.43
  -2   7  -7 7828.45  261.90
  -2   7  -7 7104.97  264.12
  -2   7  -7 7034.91  246.11
   2  -7   8 1377.95   59.67
   2  -7   8 1186.93   51.37
   2  -7   8 1243.31   59.37
  -2   7  -8 1281.58   54.65
  -2   7  -8 1249.90   57.73
  -2   7  -8 1121.51   57.92
   2  -7   9 3353.75  119.47
   2  -7   9 3017.79  110.25
  -2   7  -9 3038.21  114.99
  -2   7  -9 2970.35  121.87
  -2   7  -9 3462.11  135.38
  -2   7  -9 3398.34  123.68
   2  -7  10 5329.25  195.54
   2  -7  10 5358.49  189.32
  -2   7 -10 5587.36  205.83
  -2   7 -10 5508.88  192.31
  -2   7 -10 5337.89  187.45
   2  -7  11  672.70   47.41
   2  -7  11  616.24   37.72
  -2   7 -11  650.64   48.60
  -2   7 -11  608.19   45.23
  -2   7 -11  786.35   42.16
   2  -7  12  566.07   39.70
  -2   7 -12  420.45   42.25
  -2   7 -12  493.05   42.16
  -2   7 -12  635.50   38.05
   2  -7  13  109.65   31.55
   2  -7  13   94.44   20.80
  -2   7 -13  132.25   33.33
  -2   7 -13  143.96   32.91
  -2   7 -13  173.81   30.75
  -2   7 -14  -45.30   24.57
  -2   7 -14   61.40   33.67
  -2   7 -14   99.56   30.40
   2  -7  15  502.33   63.43
  -2   7 -15  704.31   43.69
  -2   7 -15  533.71   47.11
  -2   7 -15  573.17   44.22
   2  -7  16  335.24   45.50
  -2   7 -16  404.19   40.45
   2  -6   1   86.28   24.71
  -2   6  -1   51.10   16.59
  -2   6  -1   70.43   19.01
  -2   6  -1   38.22    8.01
  -2   6  -1   78.11   18.60
   2  -6   2 6613.41  239.19
   2  -6   2 6578.36  212.64
   2  -6   2 7098.10  233.24
  -2   6  -2 7079.00  226.44
  -2   6  -2 6496.98  229.63
  -2   6  -2 6501.59  215.06
  -2   6  -2 6595.23  213.10
   2  -6   3 3675.80  125.73
   2  -6   3 3695.11  115.59
   2  -6   3 3619.32  130.84
  -2   6  -3 3767.28  123.83
  -2   6  -3 3721.87  127.43
  -2   6  -3 3280.26  118.54
  -2   6  -3 3505.81  124.45
   2  -6   4 5454.53  181.82
   2  -6   4 5634.86  176.53
   2  -6   4 5588.79  203.32
  -2   6  -4 5807.13  195.86
  -2   6  -4 5100.84  197.49
  -2   6  -4 5127.51  177.05
  -2   6  -4 5396.36  185.18
   2  -6   5  702.97   28.43
   2  -6   5  584.11   40.79
  -2   6  -5  515.80   29.43
  -2   6  -5  624.39   33.17
  -2   6  -5  631.09   26.93
  -2   6  -5  580.57   35.99
   2  -6   6 4220.97  155.20
   2  -6   6 4560.89  150.02
   2  -6   6 4856.44  165.82
  -2   6  -6 4569.68  157.10
  -2   6  -6 4307.59  162.39
  -2   6  -6 4681.98  161.39
   2  -6   7  114.86   21.13
  -2   6  -7  131.03   18.19
  -2   6  -7  139.57   27.49
  -2   6  -7   46.88   25.51
  -2   6  -7  173.56   26.82
   2  -6   8 5521.24  184.57
   2  -6   8 5344.97  191.58
  -2   6  -8 5449.92  188.93
  -2   6  -8 5328.09  199.46
  -2   6  -8 5441.86  197.52
  -2   6  -8 5299.36  190.70
   2  -6   9  263.85   29.69
   2  -6   9  243.58   24.61
  -2   6  -9  370.58   20.07
  -2   6  -9  448.71   28.13
  -2   6  -9  313.10   31.73
   2  -6  10 5345.32  177.49
   2  -6  10 4929.80  170.99
  -2   6 -10 4814.42  183.99
  -2   6 -10 5310.23  184.08
  -2   6 -10 4921.09  173.50
   2  -6  11  480.49   37.65
   2  -6  11  410.44   29.42
  -2   6 -11  502.30   36.43
  -2   6 -11  373.60   35.41
   2  -6  12 3722.64  143.53
   2  -6  12 3887.30  141.04
  -2   6 -12 3616.02  133.90
  -2   6 -12 3803.47  144.64
  -2   6 -12 3644.14  134.37
   2  -6  13 1885.47  103.61
   2  -6  13 2166.71   89.72
  -2   6 -13 2012.79   87.13
  -2   6 -13 2176.98   96.65
  -2   6 -13 2198.59   87.29
   2  -6  14  592.78   53.11
   2  -6  14  865.93   47.34
  -2   6 -14  943.73   52.93
  -2   6 -14  585.71   44.94
  -2   6 -14  807.36   48.62
   2  -6  15 2472.89  114.38
   2  -6  15 2617.50  103.24
  -2   6 -15 2927.78  119.18
  -2   6 -15 3019.82  129.59
  -2   6 -15 2682.26  112.75
   2  -6  16   54.40   42.81
   2  -6  16  145.11   29.01
  -2   6 -16   -9.47   34.89
  -2   6 -16  247.17   33.17
   2  -6  17 1026.41   67.25
  -2   6 -17  937.68   67.85
   2  -5   1 9311.21  319.09
   2  -5   1 9925.70  299.03
   2  -5   1 9555.00  308.32
  -2   5  -1 9737.19  328.73
  -2   5  -1 9256.77  324.65
  -2   5  -1 9953.61  302.13
  -2   5  -1 9019.75  313.71
   2  -5   2  976.66   51.02
   2  -5   2 1043.72   34.35
   2  -5   2  919.83   40.23
  -2   5  -2 1048.33   41.98
  -2   5  -2  938.26   40.38
  -2   5  -2  984.66   36.39
  -2   5  -2  912.85   38.18
   2  -5   3 5903.34  208.94
   2  -5   3 6535.20  199.52
   2  -5   3 6124.34  204.12
  -2   5  -3 6637.83  211.45
  -2   5  -3 5910.78  207.53
  -2   5  -3 6519.97  206.38
  -2   5  -3 6358.32  222.49
   2  -5   411493.01  366.15
   2  -5   411801.27  367.92
   2  -5   411011.81  377.78
  -2   5  -412086.64  373.96
  -2   5  -411129.39  380.05
  -2   5  -411546.04  375.65
  -2   5  -411719.20  371.98
   2  -5   5 3202.22  115.78
   2  -5   5 3396.49  111.63
  -2   5  -5 3395.34  108.62
  -2   5  -5 3436.58  107.82
  -2   5  -5 3036.30  116.14
  -2   5  -5 3219.64  115.58
  -2   5  -5 2822.67  106.14
   2  -5   6  315.96   14.07
   2  -5   6  424.69   27.52
   2  -5   6  346.45   22.85
  -2   5  -6  396.08   20.81
  -2   5  -6  370.01   23.25
  -2   5  -6  427.03   28.40
  -2   5  -6  485.79   28.91
   2  -5   7  111.07   23.60
   2  -5   7  129.16   18.67
  -2   5  -7  130.79   16.19
  -2   5  -7   38.15   17.98
   2  -5   8  165.59   10.58
   2  -5   8  161.84   24.45
  -2   5  -8  219.67   21.20
  -2   5  -8  175.21   21.14
  -2   5  -8  153.67   15.74
   2  -5   9 3013.23  122.32
   2  -5   9 3207.97  107.97
  -2   5  -9 3120.62  105.08
  -2   5  -9 3063.29  125.56
  -2   5  -9 2842.71  105.36
   2  -5  10 6358.05  230.51
   2  -5  10 6959.29  231.30
  -2   5 -10 6526.00  214.87
  -2   5 -10 6316.20  246.22
  -2   5 -10 6588.85  229.42
   2  -5  11  138.61   30.60
   2  -5  11  273.41   25.87
  -2   5 -11  344.37   30.05
  -2   5 -11  339.73   31.09
  -2   5 -11  232.71   26.18
   2  -5  12 4626.41  167.74
   2  -5  12 4235.96  160.79
  -2   5 -12 4186.94  151.89
  -2   5 -12 3899.83  153.97
  -2   5 -12 3992.17  165.37
   2  -5  13  171.49   31.55
  -2   5 -13  315.61   37.44
  -2   5 -13  171.78   24.13
   2  -5  14  418.00   41.19
   2  -5  14  203.49   31.09
  -2   5 -14  207.22   33.78
  -2   5 -14  300.89   32.82
  -2   5 -14  283.47   26.29
   2  -5  15 2824.25  129.03
   2  -5  15 2447.58  108.90
  -2   5 -15 2619.66   96.30
  -2   5 -15 2819.82  118.00
  -2   5 -15 2856.62  113.14
  -2   5 -16  244.42   29.29
   2  -5  17 2682.34  126.77
   2  -5  17 2665.64  126.28
  -2   5 -17 2110.31  105.51
  -2   5 -17 2365.65  120.14
   2  -5  18  436.81   46.84
  -2   5 -18  415.31   36.62
  -2   5 -18  589.34   52.43
   2  -4   1  297.66   17.07
   2  -4   1  388.31   26.06
   2  -4   1  327.46   20.68
  -2   4  -1  355.70   20.99
  -2   4  -1  299.96   21.13
  -2   4  -1  282.85   20.67
   2  -4   2 6372.14  207.76
   2  -4   2 5779.47  209.92
   2  -4   2 6090.78  198.32
   2  -4   2 6158.61  227.70
  -2   4  -2 6231.19  203.44
  -2   4  -2 6280.30  206.82
  -2   4  -2 6275.80  201.66
  -2   4  -2 6132.28  209.13
   2  -4   3 5096.59  159.30
   2  -4   3 4952.57  175.16
   2  -4   3 5517.76  171.07
  -2   4  -3 5417.35  167.33
  -2   4  -3 5044.29  183.22
  -2   4  -3 5206.12  169.64
  -2   4  -3 4812.00  181.08
  -2   4  -3 4962.34  172.88
   2  -4   4 1837.26   65.59
   2  -4   4 1934.55   78.21
   2  -4   4 1744.61   66.46
  -2   4  -4 2117.96   74.02
  -2   4  -4 1897.85   70.13
  -2   4  -4 1723.00   70.94
  -2   4  -4 2129.41   72.80
  -2   4  -4 2036.94   73.55
   2  -4   5  833.39   45.42
   2  -4   5  832.38   36.43
  -2   4  -5  916.74   34.93
  -2   4  -5  729.17   37.85
  -2   4  -5  771.01   33.65
  -2   4  -5  818.48   41.07
  -2   4  -5  876.49   39.50
   2  -4   610021.23  304.02
   2  -4   6 9454.55  332.95
   2  -4   6 9756.13  319.08
  -2   4  -610132.39  315.55
  -2   4  -6 9905.26  344.20
  -2   4  -6 9519.06  324.45
  -2   4  -610334.32  318.42
   2  -4   7  770.42   29.30
   2  -4   7  746.59   37.38
   2  -4   7  760.41   37.79
  -2   4  -7  742.51   35.15
  -2   4  -7  780.28   32.49
  -2   4  -7  856.01   37.61
   2  -4   8 5126.86  178.28
   2  -4   8 4199.48  164.44
  -2   4  -8 4987.33  150.41
  -2   4  -8 4729.55  167.02
  -2   4  -8 4497.58  171.50
  -2   4  -8 4802.04  172.47
   2  -4   9 5170.98  183.09
   2  -4   9 5219.89  180.17
  -2   4  -9 4946.29  178.03
  -2   4  -9 4778.51  186.56
  -2   4  -9 5340.70  179.54
   2  -4  10  915.26   47.67
   2  -4  10  886.52   42.46
  -2   4 -10  947.52   43.13
  -2   4 -10  947.99   45.25
  -2   4 -10  920.26   43.30
   2  -4  1112030.32  431.45
   2  -4  1113068.36  412.43
  -2   4 -1112672.61  405.47
  -2   4 -1113183.35  419.41
  -2   4 -1113313.73  444.04
   2  -4  12  293.15   34.13
   2  -4  12  245.67   33.67
  -2   4 -12  224.97   28.31
   2  -4  13 1000.20   49.79
  -2   4 -13  811.54   47.48
  -2   4 -13  737.92   51.32
   2  -4  14  -18.05   29.80
  -2   4 -14    5.50   19.95
  -2   4 -14   92.16   32.34
  -2   4 -14   30.22   16.59
   2  -4  15  978.77   58.43
   2  -4  15  886.59   53.37
  -2   4 -15  719.16   45.97
  -2   4 -15 1059.40   54.73
   2  -4  16  791.64   58.27
   2  -4  16  781.46   55.90
  -2   4 -16  756.97   43.29
  -2   4 -16  829.88   54.04
   2  -4  17  198.56   42.45
   2  -4  17  333.25   39.77
  -2   4 -17  156.99   32.20
  -2   4 -17  274.30   32.68
   2  -4  18  409.40   46.06
   2  -4  18  349.80   48.88
  -2   4 -18  514.01   39.57
  -2   4 -18  296.18   39.72
   2  -3   110678.94  328.84
   2  -3   110295.43  325.33
   2  -3   1 9787.80  340.32
   2  -3   1 9596.03  306.12
   2  -3   110461.56  328.52
   2  -3   1 9529.43  319.63
   2  -3   1 9984.09  321.47
  -2   3  -1 9829.07  328.28
  -2   3  -1 9259.72  335.84
  -2   3  -1 9964.21  333.50
  -2   3  -110077.45  303.88
  -2   3  -1 9723.87  318.26
   2  -3   2 1132.93   42.01
   2  -3   2 1279.89   51.55
   2  -3   2 1111.88   51.90
   2  -3   2 1208.10   43.04
   2  -3   2 1170.21   52.74
   2  -3   2 1255.09   46.79
  -2   3  -2 1207.86   44.69
  -2   3  -2 1182.15   50.06
  -2   3  -2 1333.55   56.20
  -2   3  -2 1266.59   43.56
  -2   3  -2 1101.91   50.07
  -2   3  -2 1159.07   43.71
   2  -3   327012.38  830.90
   2  -3   326301.81  820.03
   2  -3   327141.58  826.24
   2  -3   327080.06  847.62
  -2   3  -326749.97  826.83
  -2   3  -326382.29  860.19
  -2   3  -326427.19  844.27
  -2   3  -325890.77  820.54
  -2   3  -325626.48  830.68
   2  -3   429936.89  902.96
   2  -3   428714.24  910.37
   2  -3   428225.50  929.17
   2  -3   433199.30  954.98
  -2   3  -429360.23  912.57
  -2   3  -428331.30  919.07
  -2   3  -427997.95  930.71
  -2   3  -428054.43  932.64
  -2   3  -429685.33  923.68
   2  -3   5 9003.67  275.11
   2  -3   5 8785.73  299.58
   2  -3   5 8904.99  298.92
   2  -3   5 8747.58  284.34
  -2   3  -5 8834.46  282.15
  -2   3  -5 8282.37  307.54
  -2   3  -5 9314.89  293.54
  -2   3  -5 8926.00  282.16
   2  -3   614111.32  432.83
   2  -3   613750.85  470.89
   2  -3   613375.12  460.14
   2  -3   613516.98  444.38
  -2   3  -614762.60  432.22
  -2   3  -614040.33  452.00
  -2   3  -614583.77  472.82
  -2   3  -614467.79  445.30
   2  -3   7 7629.38  286.61
   2  -3   7 7793.52  268.70
  -2   3  -7 8009.54  262.04
  -2   3  -7 7779.65  271.07
  -2   3  -7 8404.45  265.07
   2  -3   8  941.91   46.90
   2  -3   8 1007.54   51.50
  -2   3  -8 1052.05   41.35
  -2   3  -8 1183.94   47.77
  -2   3  -8 1252.63   49.18
   2  -3   910055.13  322.28
   2  -3   9 9789.76  348.16
  -2   3  -9 9733.59  318.03
  -2   3  -9 9923.09  322.91
   2  -3  10  537.78   37.46
  -2   3 -10  482.82   25.40
  -2   3 -10  398.80   32.58
  -2   3 -10  425.61   24.10
   2  -3  11 5299.83  173.25
   2  -3  11 4622.65  188.67
  -2   3 -11 4780.91  171.01
  -2   3 -11 4812.29  187.18
  -2   3 -11 5096.29  173.57
   2  -3  12 1474.54   73.94
   2  -3  12 1662.27   69.21
  -2   3 -12 1424.72   70.16
  -2   3 -12 1712.39   59.75
   2  -3  13 3634.29  138.06
   2  -3  13 3584.37  136.18
  -2   3 -13 3251.42  120.54
  -2   3 -13 3763.01  132.70
  -2   3 -13 3267.30  119.58
   2  -3  14 1620.56   85.42
  -2   3 -14 1628.79   70.27
  -2   3 -14 1470.67   79.66
  -2   3 -14 1687.29   62.91
   2  -3  15   52.62   29.78
  -2   3 -15   89.60   30.64
   2  -3  16  328.38   42.47
   2  -3  16  241.79   36.86
  -2   3 -16  421.95   33.30
  -2   3 -16  371.06   35.14
   2  -3  17  567.44   50.73
  -2   3 -17  810.46   47.51
  -2   3 -17  683.69   48.14
   2  -3  18  497.02   51.18
  -2   3 -18  614.29   45.32
   2  -3  19  196.95   46.06
   2  -3  19  156.41   39.96
   2  -2   1 5965.95  192.95
   2  -2   1 6140.38  202.26
   2  -2   1 6048.87  193.68
   2  -2   1 6205.20  198.53
   2  -2   1 6137.60  191.36
   2  -2   1 6126.41  192.85
   2  -2   1 6164.15  197.62
   2  -2   1 5910.91  192.14
  -2   2  -1 6078.42  198.94
  -2   2  -1 5779.60  201.91
  -2   2  -1 6093.36  196.01
  -2   2  -1 5721.77  195.27
   2  -2   2 4113.82  134.63
   2  -2   2 4012.16  133.68
   2  -2   2 4142.21  142.01
   2  -2   2 3973.31  132.88
   2  -2   2 3911.38  130.46
   2  -2   2 3966.85  133.14
   2  -2   2 4192.47  139.29
  -2   2  -2 4013.48  129.28
  -2   2  -2 4006.30  142.30
  -2   2  -2 3920.59  137.46
  -2   2  -2 4119.68  149.20
  -2   2  -2 4049.30  131.75
   2  -2   313398.51  407.07
   2  -2   312924.70  427.61
   2  -2   313215.56  427.32
   2  -2   312941.21  414.96
   2  -2   313363.29  415.80
   2  -2   313367.17  422.92
  -2   2  -312958.26  422.47
  -2   2  -312987.89  421.20
  -2   2  -313320.73  423.76
  -2   2  -312999.10  415.25
   2  -2   4   23.69    9.25
   2  -2   4   41.81    8.50
   2  -2   4   75.25    8.17
  -2   2  -4   61.75   11.10
  -2   2  -4   58.85   13.06
  -2   2  -4   94.49   12.70
  -2   2  -4   63.83   15.11
  -2   2  -4   18.00    7.44
   2  -2   5 6309.68  199.03
   2  -2   5 6404.33  211.19
   2  -2   5 6867.22  204.27
  -2   2  -5 6675.58  220.41
  -2   2  -5 6315.77  229.52
  -2   2  -5 6199.81  218.72
  -2   2  -5 6542.72  221.68
  -2   2  -5 6704.08  209.08
   2  -2   6 4093.06  148.71
   2  -2   6 4218.75  132.27
  -2   2  -6 3810.01  145.77
  -2   2  -6 4010.61  141.80
  -2   2  -6 3970.43  142.09
  -2   2  -6 4150.49  136.03
   2  -2   7  432.65   26.69
   2  -2   7  289.38   14.58
  -2   2  -7  387.19   21.24
  -2   2  -7  371.06   23.58
  -2   2  -7  316.96   22.99
  -2   2  -7  276.62   17.21
   2  -2   8 1322.03   58.93
  -2   2  -8 1274.16   49.79
  -2   2  -8 1128.53   49.50
  -2   2  -8 1316.20   47.27
   2  -2   9 6929.80  245.37
   2  -2   9 6201.34  218.42
  -2   2  -9 7036.96  231.54
  -2   2  -9 6837.99  236.53
  -2   2  -9 7086.56  231.93
  -2   2  -9 7615.93  234.06
   2  -2  10   48.59   28.24
  -2   2 -10   64.66   17.21
  -2   2 -10   41.24   21.52
  -2   2 -10   47.67   12.86
   2  -2  1111796.40  408.83
  -2   2 -1112317.84  386.90
  -2   2 -1112030.06  407.47
  -2   2 -1111343.68  420.13
  -2   2 -1112628.50  400.94
   2  -2  12   89.83   32.61
  -2   2 -12   62.38   25.61
  -2   2 -12  -35.94   28.87
  -2   2 -12   33.73   11.62
   2  -2  13 4213.44  151.08
  -2   2 -13 4146.09  142.70
  -2   2 -13 3958.51  159.79
  -2   2 -13 3713.42  149.85
  -2   2 -13 3847.48  142.26
   2  -2  14  458.41   42.75
  -2   2 -14  293.33   26.94
  -2   2 -14  403.71   39.43
  -2   2 -14  385.02   31.87
   2  -2  15 2151.43  101.74
  -2   2 -15 2104.77   95.84
  -2   2 -15 2438.13   95.50
  -2   2 -15 2515.99   98.14
   2  -2  16 2957.83  120.62
  -2   2 -16 2974.20  119.75
  -2   2 -16 2960.31  121.72
  -2   2 -16 3329.60  140.38
   2  -2  17 1348.88   74.86
  -2   2 -17 1212.25   60.22
  -2   2 -17 1429.30   72.06
   2  -2  18 1064.02   70.56
  -2   2 -18 1250.63   65.65
  -2   2 -18 1183.45   75.94
  -2   2 -18 1192.61   61.28
   2  -2  19 1403.11   78.94
  -2   2 -19 1369.42   65.43
  -2   2 -19 1259.42   73.12
  -2   2 -19 1447.35   84.36
   2  -1   1 7313.13  236.14
   2  -1   1 7517.65  247.72
   2  -1   1 7531.23  232.80
   2  -1   1 7243.60  252.75
   2  -1   1 7542.82  236.88
   2  -1   1 7593.26  240.82
  -2   1  -1 7313.48  240.52
  -2   1  -1 7492.83  237.44
  -2   1  -1 7103.59  237.92
  -2   1  -1 6923.90  236.79
  -2   1  -1 7544.79  236.32
  -2   1  -1 7476.39  236.54
   2  -1   2 1193.21   45.04
   2  -1   2 1335.36   48.26
   2  -1   2 1368.36   50.58
   2  -1   2 1382.20   50.31
   2  -1   2 1383.94   52.11
   2  -1   2 1421.56   52.02
   2  -1   2 1468.90   52.40
   2  -1   2 1398.15   48.17
  -2   1  -2 1398.00   50.63
  -2   1  -2 1378.21   49.32
  -2   1  -2 1379.49   50.64
  -2   1  -2 1375.46   47.52
   2  -1   3 3756.58  119.15
   2  -1   3 3539.55  124.40
   2  -1   3 3805.03  130.54
   2  -1   3 3631.11  129.92
   2  -1   3 3552.56  125.35
   2  -1   3 3644.58  128.84
   2  -1   3 4248.67  134.62
  -2   1  -3 3574.95  122.53
  -2   1  -3 3640.66  124.24
  -2   1  -3 3490.28  131.99
  -2   1  -3 3790.47  124.47
   2  -1   4 1277.94   42.24
   2  -1   4 1211.25   41.07
   2  -1   4 1243.82   47.85
   2  -1   4 1217.80   50.81
   2  -1   4 1206.47   51.84
   2  -1   4 1319.61   55.05
   2  -1   4 1306.57   42.21
  -2   1  -4 1281.94   50.50
  -2   1  -4 1275.24   50.59
  -2   1  -4 1074.46   50.25
  -2   1  -4 1219.26   45.86
   2  -1   513108.62  403.46
   2  -1   512887.42  406.04
   2  -1   513104.06  424.39
   2  -1   513013.21  431.03
   2  -1   513252.76  403.70
  -2   1  -513344.31  428.41
  -2   1  -512973.49  432.16
  -2   1  -512882.94  418.99
   2  -1   6 8296.77  255.75
   2  -1   6 8312.01  278.90
   2  -1   6 7994.78  281.02
   2  -1   6 8446.62  260.59
  -2   1  -6 8832.41  269.21
  -2   1  -6 7852.08  273.67
  -2   1  -6 8211.92  278.81
   2  -1   7  855.13   27.55
   2  -1   7  856.64   30.58
  -2   1  -7  771.98   27.45
  -2   1  -7  830.42   37.61
  -2   1  -7  689.71   39.37
  -2   1  -7  956.88   41.28
   2  -1   8 1814.01   57.27
   2  -1   8 1908.25   73.94
   2  -1   8 1875.79   61.94
  -2   1  -8 1756.98   57.87
  -2   1  -8 1892.14   68.19
  -2   1  -8 1744.50   79.00
  -2   1  -8 1728.69   71.00
   2  -1   9  109.75    6.06
   2  -1   9   39.01   28.06
  -2   1  -9  131.07    5.86
  -2   1  -9  205.02   20.91
  -2   1  -9   72.11   15.42
  -2   1  -9  118.95   20.48
   2  -1  10 2413.08   95.60
   2  -1  10 2216.17   75.01
  -2   1 -10 2119.37   69.10
  -2   1 -10 2288.54   78.35
  -2   1 -10 2133.72   89.10
  -2   1 -10 2322.59   96.93
   2  -1  11 2239.73   95.76
  -2   1 -11 2198.16   83.64
  -2   1 -11 2229.87   89.67
  -2   1 -11 1765.27   82.45
   2  -1  12  800.94   51.15
  -2   1 -12  711.01   36.04
  -2   1 -12  661.88   46.43
   2  -1  13 1283.25   74.76
  -2   1 -13 1335.28   58.05
   2  -1  14  416.61   36.10
  -2   1 -14  468.26   34.82
  -2   1 -14  428.27   40.57
   2  -1  15   13.66   26.34
  -2   1 -15   97.17   27.26
  -2   1 -15  167.29   33.44
  -2   1 -15  -48.23   24.05
   2  -1  16  916.46   59.96
  -2   1 -16  758.09   42.36
  -2   1 -16  850.67   56.62
  -2   1 -16  975.65   58.12
   2  -1  17  855.53   49.19
  -2   1 -17  968.81   52.13
  -2   1 -17  822.85   53.03
  -2   1 -17  616.46   46.18
   2  -1  18  683.39   51.43
  -2   1 -18  625.95   37.21
  -2   1 -18  552.83   47.14
  -2   1 -18  528.10   43.50
   2  -1  19  250.09   51.96
  -2   1 -19  255.13   31.98
  -2   1 -19  197.41   32.29
   2   0   0 4570.18  149.40
   2   0   0 4589.20  146.89
   2   0   0 4635.00  147.30
   2   0   0 4510.35  146.51
   2   0   0 4630.35  160.25
   2   0   0 4654.13  147.64
   2   0   0 4677.67  151.91
  -2   0   0 4603.45  155.54
  -2   0   0 4700.40  156.12
  -2   0   0 4544.99  153.60
  -2   0   0 4541.79  153.34
   2   0   1 4563.25  154.21
   2   0   1 4519.40  143.41
   2   0   1 4441.92  149.65
   2   0   1 4535.90  155.15
   2   0   1 4455.89  145.43
   2   0   1 4361.46  150.24
  -2   0  -1 4440.04  154.52
  -2   0  -1 4456.30  148.55
  -2   0  -1 4576.63  152.59
  -2   0  -1 4425.41  140.49
  -2   0  -1 4505.09  149.04
   2   0   2 7093.84  251.44
   2   0   2 7198.50  247.17
   2   0   2 7614.70  244.38
   2   0   2 7429.28  240.75
   2   0   2 7527.05  227.15
  -2   0  -2 7597.71  243.43
  -2   0  -2 6855.17  239.13
  -2   0  -2 7259.48  250.93
  -2   0  -2 7533.74  234.93
   2   0   316664.42  527.91
   2   0   316597.38  525.03
   2   0   316663.35  532.76
   2   0   317149.66  545.04
   2   0   316514.89  550.91
   2   0   316763.48  533.10
   2   0   317399.12  519.95
   2   0   316883.84  516.53
  -2   0  -317461.58  531.51
  -2   0  -317354.80  522.91
  -2   0  -316560.47  536.73
  -2   0  -316909.71  524.25
   2   0   4 3558.40  112.81
   2   0   4 3640.52  118.82
   2   0   4 3420.90  128.53
   2   0   4 3343.46  123.14
   2   0   4 3378.44  121.23
  -2   0  -4 3594.94  116.57
  -2   0  -4 3568.10  114.39
  -2   0  -4 3476.21  132.03
  -2   0  -4 3534.59  120.84
   2   0   540752.25 1272.39
   2   0   540555.98 1266.01
   2   0   541521.35 1307.01
  -2   0  -541657.55 1265.55
  -2   0  -541731.14 1260.83
  -2   0  -539766.16 1279.17
  -2   0  -541092.08 1261.60
   2   0   6 3619.46  121.51
   2   0   6 3371.54  116.23
   2   0   6 3664.56  126.20
  -2   0  -6 3591.63  121.47
  -2   0  -6 3802.06  119.11
  -2   0  -6 3655.32  122.52
  -2   0  -6 3341.08  130.59
   2   0   711717.60  370.82
   2   0   711539.29  386.23
   2   0   711413.80  382.07
  -2   0  -711890.93  367.93
  -2   0  -712245.00  366.46
  -2   0  -710544.58  378.25
  -2   0  -711257.67  390.00
   2   0   8 2468.96   83.23
   2   0   8 2178.34   95.84
  -2   0  -8 2266.54   78.80
  -2   0  -8 2622.76   79.46
  -2   0  -8 2137.95   93.43
  -2   0  -8 2511.10   86.20
   2   0   9 1781.59   58.85
   2   0   9 1781.87   66.18
  -2   0  -9 1522.88   55.64
  -2   0  -9 1732.34   62.31
  -2   0  -9 1537.67   69.17
  -2   0  -9 1502.71   64.82
   2   0  10 8812.28  286.19
   2   0  10 9112.22  301.59
  -2   0 -10 8104.38  280.80
  -2   0 -10 9422.77  296.23
  -2   0 -10 9273.16  295.01
  -2   0 -10 8757.15  297.20
   2   0  11  219.93   14.32
   2   0  11  250.07   34.25
  -2   0 -11  229.89   27.24
   2   0  12 3894.32  138.67
   2   0  12 4451.95  154.80
  -2   0 -12 4121.60  145.65
  -2   0 -12 4658.58  162.84
  -2   0 -12 4140.43  152.48
   2   0  13 1302.89   65.87
  -2   0 -13 1121.52   49.42
  -2   0 -13 1140.57   59.32
  -2   0 -13  956.54   50.47
   2   0  14 1554.27   73.60
  -2   0 -14 1563.43   67.20
  -2   0 -14 1504.76   68.20
  -2   0 -14 1642.22   72.77
   2   0  15  733.06   52.71
  -2   0 -15  598.82   34.60
  -2   0 -15  665.11   40.74
  -2   0 -15  408.00   46.22
   2   0  16  747.29   59.67
  -2   0 -16  672.70   42.53
  -2   0 -16  802.59   46.26
   2   0  18 1128.86   72.16
  -2   0 -18  990.28   52.33
  -2   0 -18 1370.88   70.28
  -2   0 -18 1318.23   65.80
   2   1   014600.04  453.99
   2   1   013538.56  437.97
   2   1   014211.82  451.47
   2   1   014127.17  448.10
   2   1   014306.96  458.79
   2   1   014176.25  451.14
  -2  -1   013845.90  448.37
  -2  -1   015033.77  441.17
  -2  -1   014164.05  435.48
  -2  -1   013792.52  464.49
  -2  -1   014443.81  469.46
   2   1   1 1578.00   64.51
   2   1   1 1712.34   60.46
   2   1   1 1649.81   64.79
   2   1   1 1948.81   65.53
   2   1   1 1653.54   56.09
  -2  -1  -1 1595.21   63.40
  -2  -1  -1 1716.28   61.56
  -2  -1  -1 1667.81   67.86
  -2  -1  -1 1683.40   63.05
  -2  -1  -1 1709.98   62.58
   2   1   2  338.90   19.52
   2   1   2  352.74   19.58
   2   1   2  279.37   17.06
   2   1   2  326.04   16.27
  -2  -1  -2  411.60   17.22
  -2  -1  -2  363.23   19.69
  -2  -1  -2  396.40   20.69
  -2  -1  -2  366.51   15.50
  -2  -1  -2  354.72   15.93
   2   1   3 1220.19   42.23
   2   1   3 1224.40   39.11
   2   1   3 1028.51   43.86
   2   1   3  972.48   45.97
   2   1   3 1349.51   46.66
   2   1   3 1123.10   40.25
  -2  -1  -3 1156.09   41.93
  -2  -1  -3 1105.08   44.43
  -2  -1  -3 1293.20   47.79
  -2  -1  -3 1247.17   42.49
   2   1   4  377.28   16.90
   2   1   4  317.68   14.35
   2   1   4  306.69   17.93
   2   1   4  332.33   13.15
  -2  -1  -4  298.49   20.82
  -2  -1  -4  442.92   23.53
   2   1   5 1181.95   47.53
   2   1   5 1171.39   39.62
   2   1   5 1158.97   48.91
  -2  -1  -5 1121.89   44.63
  -2  -1  -5 1298.07   44.20
  -2  -1  -5 1107.55   49.45
  -2  -1  -5 1118.07   49.47
   2   1   6 5981.27  197.07
   2   1   6 6125.41  200.26
   2   1   6 5536.66  206.13
  -2  -1  -6 5897.10  203.51
  -2  -1  -6 6387.90  199.01
  -2  -1  -6 6236.41  213.71
  -2  -1  -6 6325.40  206.02
   2   1   7 6935.75  217.56
   2   1   7 6365.72  206.70
   2   1   7 5999.50  216.01
  -2  -1  -7 6029.73  209.53
  -2  -1  -7 7076.49  214.76
  -2  -1  -7 6151.89  227.90
  -2  -1  -7 6752.91  213.03
   2   1   8 3123.67  108.25
   2   1   8 2667.61  103.21
   2   1   8 2732.37  111.13
  -2  -1  -8 2904.38  100.96
  -2  -1  -8 3394.52  104.35
  -2  -1  -8 3219.97  111.50
  -2  -1  -8 3123.79  114.15
   2   1   9  663.86   28.06
   2   1   9  452.90   37.98
  -2  -1  -9  650.76   35.53
  -2  -1  -9  579.33   29.99
   2   1  10 8672.92  274.40
   2   1  10 7508.32  286.83
  -2  -1 -10 9127.08  276.01
  -2  -1 -10 8262.57  296.68
  -2  -1 -10 8530.43  284.30
   2   1  11 1167.95   48.84
   2   1  11 1158.45   55.63
  -2  -1 -11 1288.69   51.60
  -2  -1 -11 1125.10   54.97
   2   1  12 5624.42  209.87
   2   1  12 5951.77  225.97
  -2  -1 -12 6474.28  215.18
  -2  -1 -12 6950.00  227.65
  -2  -1 -12 6197.39  209.50
   2   1  13 1196.24   57.33
  -2  -1 -13 1259.96   53.22
  -2  -1 -13  894.57   54.11
  -2  -1 -13 1100.01   53.68
   2   1  14 4013.92  163.40
  -2  -1 -14 4573.24  166.00
  -2  -1 -14 4507.91  181.76
  -2  -1 -14 4607.59  172.15
   2   1  15  244.69   32.71
  -2  -1 -15  268.63   28.80
  -2  -1 -15  249.55   36.00
  -2  -1 -15  250.79   33.60
   2   1  16 2952.15  120.30
  -2  -1 -16 2463.57  101.31
  -2  -1 -16 2910.24  110.41
  -2  -1 -16 2709.09  109.04
   2   1  17 1314.11   68.67
  -2  -1 -17 1159.50   61.99
  -2  -1 -17 1237.90   63.74
   2   1  18 1402.64   69.08
  -2  -1 -18 1053.16   56.10
  -2  -1 -18 1135.11   70.86
   2   2   015359.91  508.83
   2   2   016719.24  503.43
   2   2   015694.66  517.57
   2   2   016673.79  515.39
   2   2   016054.25  507.06
  -2  -2   016093.73  497.14
  -2  -2   015615.93  503.10
  -2  -2   015568.19  516.11
  -2  -2   016520.45  506.85
  -2  -2   016097.11  513.06
   2   2   1 4700.35  160.21
   2   2   1 5170.21  163.96
  -2  -2  -1 4964.83  152.38
  -2  -2  -1 4594.53  167.59
  -2  -2  -1 5155.39  166.65
  -2  -2  -1 4838.06  166.08
  -2  -2  -1 4997.01  165.95
   2   2   2 1134.89   46.97
   2   2   2 1075.66   41.67
   2   2   2 1083.40   40.23
  -2  -2  -2 1142.73   35.23
  -2  -2  -2 1065.35   41.00
  -2  -2  -2 1103.52   49.14
  -2  -2  -2 1100.22   45.47
  -2  -2  -2 1147.10   40.04
   2   2   3  226.90   18.93
   2   2   3  246.45   16.73
   2   2   3  262.31   12.96
  -2  -2  -3  268.34   10.11
  -2  -2  -3  264.77   19.17
  -2  -2  -3  208.62   18.12
  -2  -2  -3  255.84   15.85
   2   2   4 3790.27  129.20
   2   2   4 3484.27  133.52
   2   2   4 3849.23  123.70
  -2  -2  -4 3679.18  119.37
  -2  -2  -4 3779.46  132.55
  -2  -2  -4 3546.68  123.60
  -2  -2  -4 3723.91  125.66
   2   2   5 4696.68  184.62
   2   2   5 5181.20  172.22
   2   2   5 5524.38  195.77
   2   2   5 5682.04  173.52
  -2  -2  -5 5682.00  191.86
  -2  -2  -5 5703.30  192.55
  -2  -2  -5 5398.38  174.47
   2   2   611087.65  350.01
   2   2   610550.34  340.53
   2   2   610395.88  340.01
   2   2   611295.42  344.44
  -2  -2  -611213.36  345.02
  -2  -2  -610005.27  335.59
  -2  -2  -611417.32  357.65
  -2  -2  -610539.80  338.42
   2   2   7 2605.93   89.97
   2   2   7 2272.72   86.25
   2   2   7 2498.69   96.19
   2   2   7 2634.95   83.55
  -2  -2  -7 2622.38   93.45
  -2  -2  -7 2538.25   92.89
  -2  -2  -7 2735.56  101.31
  -2  -2  -7 2500.63   81.37
   2   2   8  664.26   29.90
   2   2   8  514.10   24.13
   2   2   8  555.85   37.00
  -2  -2  -8  641.85   29.04
  -2  -2  -8  590.25   31.98
  -2  -2  -8  695.71   35.93
  -2  -2  -8  550.40   19.15
  -2  -2  -8  531.60   19.28
   2   2   9 1060.06   44.61
   2   2   9 1179.26   61.76
  -2  -2  -9 1174.10   46.55
  -2  -2  -9  858.82   51.48
  -2  -2  -9 1172.46   53.62
   2   2  10 4987.33  178.35
   2   2  10 5110.86  169.01
  -2  -2 -10 5087.02  170.67
  -2  -2 -10 4926.01  189.56
  -2  -2 -10 5175.09  171.69
   2   2  11  481.07   27.05
   2   2  11  379.65   35.71
  -2  -2 -11  460.73   23.55
  -2  -2 -11  436.96   29.57
  -2  -2 -11  432.61   37.94
   2   2  12 2965.71  108.52
   2   2  12 3015.75  115.90
  -2  -2 -12 3039.31  108.84
  -2  -2 -12 3170.63  116.77
  -2  -2 -12 2767.11  109.18
   2   2  13  932.71   46.00
   2   2  13 1187.98   58.04
  -2  -2 -13 1089.63   47.90
  -2  -2 -13 1089.03   55.37
   2   2  14  427.75   44.79
  -2  -2 -14  279.63   26.24
  -2  -2 -14  289.82   30.85
  -2  -2 -14  318.31   29.70
   2   2  15 1122.00   58.89
  -2  -2 -15 1156.21   59.07
  -2  -2 -15 1041.38   57.13
  -2  -2 -16  483.55   43.15
   2   2  17  301.84   46.12
  -2  -2 -17  488.35   46.74
  -2  -2 -17  392.30   42.93
   2   3   0 1213.59   52.22
   2   3   0 1305.83   46.23
   2   3   0 1129.34   46.52
   2   3   0 1493.16   51.00
  -2  -3   0 1435.15   50.07
  -2  -3   0 1243.72   51.59
  -2  -3   0 1163.87   48.03
  -2  -3   0 1432.43   54.39
   2   3   1 9999.43  335.25
   2   3   110894.96  330.09
   2   3   1 9887.37  331.93
   2   3   110654.19  338.58
  -2  -3  -110267.80  327.09
  -2  -3  -110487.52  346.70
  -2  -3  -110384.78  340.60
  -2  -3  -110827.49  350.35
   2   3   2 2127.45   88.18
   2   3   2 2242.62   79.79
   2   3   2 2425.01   83.72
  -2  -3  -2 2332.05   73.98
  -2  -3  -2 2243.97   85.91
  -2  -3  -2 2388.67   93.02
  -2  -3  -2 2457.55   81.49
  -2  -3  -2 2224.59   81.25
  -2  -3  -3  761.75   35.14
  -2  -3  -3  610.21   30.11
  -2  -3  -3  620.76   26.26
   2   3   3  736.54   30.60
   2   3   3  697.02   29.20
  -2  -3  -3  690.47   22.86
  -2  -3  -3  626.60   35.69
   2   3   413550.05  453.35
   2   3   413568.54  445.74
   2   3   414444.71  448.96
  -2  -3  -414725.59  431.08
  -2  -3  -412996.40  436.58
  -2  -3  -414953.03  454.00
  -2  -3  -413281.92  443.48
   2   3   5  427.97   25.58
   2   3   5  420.98   19.12
  -2  -3  -5  426.90   17.05
  -2  -3  -5  580.67   40.29
  -2  -3  -5  402.60   25.35
  -2  -3  -5  335.24   19.10
   2   3   623842.28  745.56
   2   3   623498.98  735.85
   2   3   624344.86  738.91
  -2  -3  -622442.96  728.16
  -2  -3  -625518.18  751.53
  -2  -3  -623078.57  760.96
  -2  -3  -624368.70  739.44
  -2  -3  -621382.97  740.34
   2   3   7  220.14   20.28
   2   3   7  228.36   31.18
  -2  -3  -7  186.23   11.67
  -2  -3  -7  233.61   16.55
  -2  -3  -7  258.13   27.14
  -2  -3  -7  131.29   22.77
   2   3   8 1509.66   61.66
   2   3   8 1431.13   64.76
   2   3   8 1449.49   53.54
  -2  -3  -8 1732.86   56.01
  -2  -3  -8 1521.80   59.98
  -2  -3  -8 1481.88   62.18
   2   3   9  518.38   39.42
  -2  -3  -9  313.89   19.36
  -2  -3  -9  268.86   29.54
  -2  -3  -9  382.05   28.58
  -2  -3  -9  338.61   15.14
   2   3  10 3925.72  129.19
   2   3  10 3385.96  135.32
  -2  -3 -10 3446.05  122.00
  -2  -3 -10 3703.73  143.61
  -2  -3 -10 3821.49  134.00
   2   3  11 2401.58   94.73
   2   3  11 2783.41  106.97
  -2  -3 -11 2456.02   87.13
  -2  -3 -11 2451.08  105.77
  -2  -3 -11 2393.60  107.96
   2   3  12 1067.46   54.56
   2   3  12 1098.94   64.39
  -2  -3 -12 1216.87   54.96
  -2  -3 -12 1227.50   58.66
   2   3  13 1162.96   59.25
   2   3  13 1218.01   74.45
  -2  -3 -13 1426.99   66.69
  -2  -3 -13 1478.90   67.12
  -2  -3 -14   76.26   29.09
  -2  -3 -14  100.90   26.03
   2   3  15   64.48   33.80
  -2  -3 -15  160.48   31.93
  -2  -3 -15  140.71   35.25
   2   3  16  120.59   42.61
  -2  -3 -16  163.54   34.76
  -2  -3 -16   60.40   30.50
  -2  -3 -17    0.73   28.95
   2   4   0   19.63    9.98
   2   4   0   13.61   16.66
  -2  -4   0    0.53    7.71
  -2  -4   0   99.18   20.10
  -2  -4   0  -15.85   12.72
   2   4   1 6763.42  239.04
   2   4   1 7297.98  227.59
   2   4   1 7552.03  241.11
  -2  -4  -1 6777.31  222.76
  -2  -4  -1 6792.21  237.88
  -2  -4  -1 6856.76  235.19
  -2  -4  -1 7531.25  237.31
   2   4   2  252.09   26.03
   2   4   2  313.19   20.31
  -2  -4  -2  324.74   18.32
  -2  -4  -2  353.91   23.80
  -2  -4  -2  379.05   24.76
   2   4   3 1249.76   46.45
   2   4   3 1003.83   44.55
  -2  -4  -3  923.37   34.51
  -2  -4  -3 1063.91   40.47
  -2  -4  -3 1115.64   47.16
  -2  -4  -3 1035.56   47.72
   2   4   4 4380.77  149.05
   2   4   4 4440.60  148.29
   2   4   4 3982.28  141.85
  -2  -4  -4 3968.89  134.26
  -2  -4  -4 4389.61  144.05
  -2  -4  -4 4475.80  167.87
  -2  -4  -4 4639.33  160.93
   2   4   5  157.63   24.10
  -2  -4  -5  173.21   12.70
  -2  -4  -5  222.63   21.89
  -2  -4  -5  107.64   20.10
   2   4   6 4369.84  155.15
   2   4   6 4393.34  156.98
   2   4   6 4426.50  145.82
  -2  -4  -6 4512.56  149.68
  -2  -4  -6 4451.62  153.36
  -2  -4  -6 4434.47  156.07
   2   4   7 1210.25   53.88
   2   4   7 1047.50   49.44
   2   4   7 1181.23   45.27
  -2  -4  -7 1041.71   44.81
  -2  -4  -7 1244.47   49.14
  -2  -4  -7 1013.33   48.42
   2   4   8 2871.39  102.19
   2   4   8 2683.34   99.79
   2   4   8 2701.45   95.21
  -2  -4  -8 2741.52   95.78
  -2  -4  -8 2841.23  109.16
  -2  -4  -8 3029.83  104.61
   2   4   9 2328.58   83.16
   2   4   9 2174.51   81.25
  -2  -4  -9 2254.68   81.93
  -2  -4  -9 2357.83   98.23
  -2  -4  -9 2125.18   89.17
   2   4  10  486.08   34.19
   2   4  10  562.89   38.44
  -2  -4 -10  387.93   33.13
  -2  -4 -10  574.90   40.98
   2   4  11 2293.36   86.73
   2   4  11 2170.48   85.49
  -2  -4 -11 1833.61   87.22
  -2  -4 -11 2060.99   78.96
   2   4  12 2192.60   93.27
  -2  -4 -12 2742.81  105.46
  -2  -4 -12 2490.72   95.21
   2   4  13 2075.36   98.07
   2   4  13 2634.50  104.52
  -2  -4 -13 2663.41   94.58
  -2  -4 -13 2243.45  100.40
   2   4  14  907.32   57.27
  -2  -4 -14  940.14   56.16
  -2  -4 -14  967.99   58.67
   2   4  15  401.30   56.31
  -2  -4 -15  494.01   43.49
  -2  -4 -15  637.42   45.09
   2   4  16   89.41   39.49
  -2  -4 -16   46.03   29.14
   2   5   0 9675.99  328.41
   2   5   010681.94  330.35
   2   5   010217.71  325.77
  -2  -5   010153.43  339.26
  -2  -5   010229.16  350.02
  -2  -5   010521.64  332.46
   2   5   1  100.58   25.83
   2   5   1   59.85   12.56
   2   5   1   52.52   18.24
  -2  -5  -1   58.68   19.34
  -2  -5  -1  114.09   18.12
  -2  -5  -1   23.76   16.77
   2   5   2 3144.30  108.22
   2   5   2 3160.03  107.22
  -2  -5  -2 2904.10  104.00
  -2  -5  -2 2850.40  112.49
  -2  -5  -2 2818.89  109.55
  -2  -5  -2 2954.50  111.48
   2   5   3  859.72   37.32
   2   5   3  622.05   45.73
   2   5   3  742.77   33.70
  -2  -5  -3  786.28   35.00
  -2  -5  -3  718.44   40.30
  -2  -5  -3  630.47   38.61
   2   5   4  140.66   19.52
   2   5   4  158.41   25.11
  -2  -5  -4  149.57   15.37
  -2  -5  -4  149.41   18.56
  -2  -5  -4  156.01   27.86
   2   5   5 2308.14   89.90
   2   5   5 2390.03   90.57
   2   5   5 2404.15   84.15
  -2  -5  -5 2290.59   81.94
  -2  -5  -5 2395.13   83.96
  -2  -5  -5 2444.27   91.91
   2   5   6 2518.92   92.63
   2   5   6 2402.44   94.57
   2   5   6 2128.70   79.40
  -2  -5  -6 2059.51   78.34
  -2  -5  -6 2390.50   92.68
  -2  -5  -6 2443.22   91.72
   2   5   7 1571.84   68.72
   2   5   7 1927.20   79.48
   2   5   7 1480.05   60.08
  -2  -5  -7 1527.48   67.33
  -2  -5  -7 1762.33   70.08
   2   5   8 1467.20   60.44
   2   5   8 1507.18   66.27
  -2  -5  -8 1578.53   63.92
  -2  -5  -8 1463.65   67.68
   2   5   9  122.71   26.99
   2   5   9  105.75   36.74
  -2  -5  -9  137.98   26.11
  -2  -5  -9   65.49   25.94
   2   5  10 1256.50   61.24
   2   5  10 1387.86   69.40
  -2  -5 -10 1359.10   65.09
  -2  -5 -10 1369.44   60.55
   2   5  11  746.56   39.65
   2   5  11  662.40   55.65
  -2  -5 -11  703.73   39.83
   2   5  12 1583.27   73.55
   2   5  12 1796.11   76.92
  -2  -5 -12 1407.45   70.12
  -2  -5 -12 1332.20   69.43
   2   5  13  250.63   28.89
   2   5  13  397.33   39.88
  -2  -5 -13  305.21   31.69
  -2  -5 -13  333.21   36.37
   2   5  14 1231.33   63.59
  -2  -5 -14 1180.38   63.49
  -2  -5 -14 1163.15   60.49
   2   6   0 3112.05  108.37
   2   6   0 2971.28   98.69
   2   6   0 2767.22  105.95
  -2  -6   0 2658.08   96.89
  -2  -6   0 3076.43  104.94
  -2  -6   0 3045.39  104.69
   2   6   1   69.63   22.63
   2   6   1   61.13   20.09
  -2  -6  -1  153.83   16.67
  -2  -6  -1  188.56   22.52
  -2  -6  -1   51.02   15.50
  -2  -6  -1  121.17   21.68
   2   6   2  832.34   41.03
   2   6   2  788.69   40.51
  -2  -6  -2  717.92   35.55
  -2  -6  -2  749.86   39.67
  -2  -6  -2  823.54   36.99
  -2  -6  -2  847.30   37.97
   2   6   3 2850.32  101.41
   2   6   3 2637.26  101.74
   2   6   3 2812.89   97.04
  -2  -6  -3 2349.37   92.68
  -2  -6  -3 2684.01   95.06
  -2  -6  -3 2405.56   90.20
   2   6   4   32.07   28.15
   2   6   4  109.40   29.70
   2   6   4  132.01   17.70
  -2  -6  -4  262.75   33.71
  -2  -6  -4  123.70   18.60
   2   6   5 2790.92  109.45
   2   6   5 2948.51  116.50
   2   6   5 2755.55  109.27
  -2  -6  -5 2826.31  107.49
  -2  -6  -5 2938.64  102.17
   2   6   6 1943.28   81.89
   2   6   6 1852.00   71.10
  -2  -6  -6 1648.38   68.47
  -2  -6  -6 1909.73   73.47
   2   6   7 2140.87   85.00
   2   6   7 2177.41   86.26
  -2  -6  -7 2166.58   85.02
  -2  -6  -7 2048.41   83.74
   2   6   8  819.19   46.55
   2   6   8  760.00   53.81
  -2  -6  -8  866.40   52.47
  -2  -6  -8 1002.92   45.49
   2   6   9  270.90   33.15
  -2  -6  -9  222.45   37.32
  -2  -6  -9  377.46   32.43
   2   6  10   50.02   21.39
  -2  -6 -10  -41.43   25.23
   2   6  11  332.39   34.83
   2   6  11  363.84   45.92
  -2  -6 -11  326.33   33.71
  -2  -6 -11  409.49   36.76
   2   6  12 1134.06   55.12
   2   6  12  844.14   56.28
  -2  -6 -12  977.55   53.36
  -2  -6 -12  879.54   47.45
   2   6  13  131.24   23.99
   2   6  13   48.78   34.22
  -2  -6 -13   58.87   28.84
   2   7   0 7243.43  239.56
   2   7   0 6662.65  234.98
   2   7   0 7310.85  238.75
  -2  -7   0 7418.80  239.44
  -2  -7   0 6709.35  240.65
  -2  -7   0 7316.35  244.24
   2   7   1  252.17   24.37
   2   7   1  180.29   20.69
  -2  -7  -1  148.17   28.68
  -2  -7  -1  185.99   23.79
  -2  -7  -1  174.84   26.12
   2   7   2 4946.66  187.68
   2   7   2 5348.33  188.49
   2   7   2 5545.52  184.06
  -2  -7  -2 5964.17  202.24
  -2  -7  -2 5128.88  190.06
   2   7   3   22.84   22.64
   2   7   3   48.63   28.75
   2   7   3    8.34   20.33
  -2  -7  -3   16.09   27.15
  -2  -7  -3  105.11   24.07
   2   7   4 1395.24   62.70
   2   7   4 1285.57   60.52
   2   7   4 1461.60   63.85
  -2  -7  -4 1470.41   67.13
  -2  -7  -4 1200.75   64.18
   2   7   5 1391.00   66.41
   2   7   5 1332.08   59.17
   2   7   5 1120.40   53.12
  -2  -7  -5 1292.14   66.12
  -2  -7  -5 1183.26   55.95
   2   7   6  933.39   54.72
   2   7   6  717.13   50.59
  -2  -7  -6 1033.17   50.27
  -2  -7  -6  909.55   48.15
   2   7   7  901.42   51.32
   2   7   7  621.92   45.57
  -2  -7  -7  723.56   44.07
  -2  -7  -7  832.09   53.43
   2   7   8  910.06   53.04
   2   7   8  882.15   46.30
  -2  -7  -8  787.31   52.52
  -2  -7  -8  756.64   47.92
   2   7   9  109.93   34.99
  -2  -7  -9  249.43   37.27
  -2  -7  -9  219.11   24.40
   2   7  10  142.63   38.40
  -2  -7 -10  335.38   31.14
  -2  -7 -10  204.80   32.01
   2   8   0  547.01   40.09
   2   8   0  410.05   32.17
  -2  -8   0  433.29   32.71
  -2  -8   0  496.26   31.79
  -2  -8   0  604.08   35.62
   2   8   1 1367.46   72.24
   2   8   1 1472.00   59.30
  -2  -8  -1 1572.17   74.25
  -2  -8  -1 1452.76   59.91
   2   8   2  517.82   40.12
   2   8   2  415.76   36.19
   2   8   2  673.68   38.73
  -2  -8  -2  478.40   43.11
  -2  -8  -2  523.41   33.06
   2   8   3  107.66   25.22
   2   8   3   53.84   28.11
   2   8   3  100.34   22.95
  -2  -8  -3   81.62   25.29
   2   8   4  226.82   31.67
   2   8   4  240.17   33.72
   2   8   4  384.29   25.28
  -2  -8  -4  302.03   35.33
  -2  -8  -4  324.27   31.79
   2   8   5  185.98   32.93
   2   8   5  269.77   34.44
  -2  -8  -5  374.22   33.02
   2   8   6 1652.78   83.32
   2   8   6 1809.26   83.62
  -2  -8  -6 1995.98   92.57
   2   8   7  175.62   29.86
   2   8   7  175.93   33.26
  -2  -8  -7   26.15   30.24
  -2  -8  -7   33.97   26.18
   2   8   8  927.74   50.09
  -2  -8  -8  690.57   47.21
   2   9   0  -18.80   27.08
   2   9   1  547.00   42.27
   2   9   1  543.97   38.23
   2   9   2  -42.85   25.73
   2   9   2    7.21   20.96
  -2  -9  -2   62.91   30.86
  -2  -9  -3   92.82   37.12
   3 -11   1  839.60   52.79
   3 -11   1  863.77   51.44
  -3  11  -1  866.44   50.71
  -3  11  -1 1033.66   56.50
  -3  11  -1  826.19   58.30
   3 -11   2 1947.66   93.31
  -3  11  -2 1677.22   81.79
  -3  11  -2 1505.60   78.12
  -3  11  -2 1949.16   89.08
   3 -11   3   83.58   35.92
  -3  11  -3  -70.83   23.84
  -3  11  -3  -38.96   31.44
   3 -11   4 1616.27   75.39
  -3  11  -4 1535.52   79.82
  -3  11  -4 1848.96   83.40
   3 -10   1  568.13   38.77
   3 -10   1  410.68   35.86
  -3  10  -1  459.25   35.42
  -3  10  -1  517.91   35.34
  -3  10  -1  565.33   43.61
   3 -10   2  655.81   48.36
  -3  10  -2  810.75   46.89
  -3  10  -2  781.35   44.89
  -3  10  -2  676.98   44.97
   3 -10   3  196.26   37.78
   3 -10   3   95.45   33.32
  -3  10  -3  119.26   26.78
  -3  10  -3  100.56   26.14
   3 -10   4 1611.49   83.02
   3 -10   4 1751.95   76.70
  -3  10  -4 1794.12   73.94
  -3  10  -4 1528.88   75.61
  -3  10  -4 1322.89   73.85
   3 -10   5  755.21   53.62
   3 -10   5  862.35   49.60
  -3  10  -5  619.84   41.18
  -3  10  -5  679.28   42.30
   3 -10   6  696.90   47.71
   3 -10   6  468.45   42.91
  -3  10  -6  563.81   42.21
  -3  10  -6  540.34   50.19
   3 -10   7 2130.72   96.16
   3 -10   7 1927.42   95.55
  -3  10  -7 1795.48   78.18
  -3  10  -7 1792.61   93.54
   3 -10   8  128.31   36.74
  -3  10  -8   64.35   32.11
   3 -10   9 1331.11   73.40
   3 -10   9 1380.02   72.67
  -3  10  -9 1632.07   77.19
  -3  10  -9 1574.70   74.76
   3  -9   1  193.36   31.50
   3  -9   1  201.36   32.85
   3  -9   2  179.39   32.79
   3  -9   2  220.73   31.96
  -3   9  -2  170.03   31.20
  -3   9  -2  235.86   29.29
   3  -9   3   25.22   28.68
  -3   9  -3   95.16   24.00
  -3   9  -3  115.38   20.76
  -3   9  -3  115.11   24.22
   3  -9   4   84.64   29.39
  -3   9  -4   15.02   20.61
  -3   9  -4   13.58   20.23
  -3   9  -4   39.79   22.91
   3  -9   5 1215.08   60.36
   3  -9   5 1221.06   62.45
  -3   9  -5 1287.08   56.52
  -3   9  -5 1360.68   56.74
  -3   9  -5 1285.09   62.62
   3  -9   6  189.34   30.42
   3  -9   6  225.47   29.45
  -3   9  -6   65.64   23.28
  -3   9  -6   71.77   27.30
  -3   9  -6   29.96   26.45
   3  -9   7  348.48   38.81
   3  -9   7  542.06   36.15
  -3   9  -7  444.29   35.43
  -3   9  -7  319.77   31.46
   3  -9   8  668.95   50.07
   3  -9   8  372.98   41.88
  -3   9  -8  500.66   39.54
  -3   9  -8  560.43   40.67
   3  -9   9  127.07   35.29
   3  -9   9  223.83   36.56
  -3   9  -9  139.37   26.47
  -3   9  -9  131.67   32.34
   3  -9  10  766.40   52.26
   3  -9  10  599.00   45.14
   3  -9  11  469.86   37.92
   3  -9  11  504.97   47.48
  -3   9 -11  267.42   40.78
  -3   9 -11  333.37   39.35
   3  -9  12 2089.81   92.54
   3  -9  12 1913.18   92.23
  -3   9 -12 1558.97   77.31
  -3   9 -12 1712.97   74.84
   3  -8   1 2566.71  105.07
   3  -8   1 2691.42   99.37
  -3   8  -1 2921.11  106.09
  -3   8  -1 2592.22   95.85
  -3   8  -1 2577.07   94.36
  -3   8  -2  209.08   25.44
  -3   8  -2  243.75   23.29
   3  -8   3 5091.75  174.96
   3  -8   3 4226.19  173.20
  -3   8  -3 4650.67  168.71
  -3   8  -3 4870.78  163.26
  -3   8  -3 4742.64  161.79
   3  -8   4 2808.00  113.24
   3  -8   4 2403.54  104.62
  -3   8  -4 2858.88   99.41
  -3   8  -4 2826.67  106.81
  -3   8  -4 2460.47  100.73
   3  -8   5 2854.67  110.43
   3  -8   5 2687.27  110.60
  -3   8  -5 2926.45  105.87
  -3   8  -5 2620.63  102.65
  -3   8  -5 3092.41  108.38
   3  -8   6 2382.85  100.31
   3  -8   6 2706.97   97.98
  -3   8  -6 2594.42  101.90
  -3   8  -6 2653.62  102.91
  -3   8  -6 2364.37  100.10
   3  -8   7  438.86   34.95
   3  -8   7  421.21   39.65
  -3   8  -7  501.33   28.89
  -3   8  -7  467.48   30.20
  -3   8  -7  304.94   32.70
   3  -8   8  228.95   37.72
  -3   8  -8  165.90   29.63
   3  -8   9  126.95   29.95
  -3   8  -9   98.00   26.55
  -3   8  -9    1.26   28.15
   3  -8  10  345.59   35.05
   3  -8  10  381.62   36.26
  -3   8 -10  266.78   29.19
  -3   8 -10  510.80   35.18
   3  -8  11  429.98   39.08
   3  -8  11  401.56   43.52
  -3   8 -11  481.99   43.80
  -3   8 -11  432.15   33.42
   3  -8  12  494.38   43.30
  -3   8 -12  705.89   42.80
  -3   8 -12  531.81   47.80
  -3   8 -12  552.83   42.51
   3  -8  13  395.16   40.56
  -3   8 -13  231.82   31.58
  -3   8 -13  235.58   38.15
  -3   8 -13  314.88   26.29
   3  -8  14   98.28   38.49
  -3   8 -14    3.42   36.33
   3  -7   1 1138.19   50.87
  -3   7  -1 1046.34   44.45
  -3   7  -1 1272.77   54.67
  -3   7  -1  952.19   43.09
   3  -7   2 2675.85   98.94
   3  -7   2 2531.91  102.40
  -3   7  -2 2554.54   92.61
  -3   7  -2 2797.88  105.59
  -3   7  -2 2344.09   89.05
   3  -7   3  738.84   45.15
   3  -7   3  636.18   37.96
  -3   7  -3  850.96   41.27
  -3   7  -3  715.57   39.15
  -3   7  -3  582.53   39.50
   3  -7   4 2491.27  103.47
   3  -7   4 2255.53   76.61
   3  -7   4 2242.54   81.27
  -3   7  -4 2424.29   85.10
  -3   7  -4 2088.32   81.34
  -3   7  -4 2234.94   83.13
   3  -7   5 2181.19   75.13
   3  -7   5 2174.80   84.92
  -3   7  -5 2336.77   86.94
  -3   7  -5 2241.85   88.82
  -3   7  -5 2265.16   79.63
   3  -7   6 5503.57  188.01
   3  -7   6 5283.19  173.68
   3  -7   6 5110.76  193.47
  -3   7  -6 5462.34  190.23
  -3   7  -6 5052.98  187.71
  -3   7  -6 5148.26  177.72
   3  -7   7  348.76   30.11
   3  -7   7  184.50   16.69
   3  -7   7  176.87   26.82
  -3   7  -7  317.73   19.75
   3  -7   8 5865.13  199.24
   3  -7   8 5128.86  186.70
   3  -7   8 5372.12  190.11
  -3   7  -8 5612.94  192.76
  -3   7  -8 5379.65  198.45
  -3   7  -8 5466.57  200.82
   3  -7   9  724.20   38.40
  -3   7  -9  770.02   43.84
  -3   7  -9  907.49   52.59
  -3   7  -9  825.04   48.78
   3  -7  10 1143.51   63.79
   3  -7  10 1028.20   49.65
  -3   7 -10 1101.10   51.56
  -3   7 -10  991.53   75.10
   3  -7  11 2918.19  120.30
   3  -7  11 2885.27  116.49
  -3   7 -11 2870.23  117.55
  -3   7 -11 2853.30  123.84
  -3   7 -11 2922.84  116.41
   3  -7  12  113.08   33.34
  -3   7 -12   21.10   25.22
  -3   7 -12   -3.30   22.69
  -3   7 -12  106.02   25.80
   3  -7  13 1476.70   67.08
  -3   7 -13 1414.93   68.92
  -3   7 -13 1148.95   65.49
  -3   7 -13 1497.16   67.16
  -3   7 -14  174.21   44.21
  -3   7 -14  -24.63   26.31
   3  -7  15  245.64   45.04
  -3   7 -15  177.03   34.26
   3  -6   1   50.57   16.55
   3  -6   1  128.88   24.18
  -3   6  -1   81.34   16.00
  -3   6  -1   54.80   18.64
   3  -6   2   33.90   17.78
  -3   6  -2   71.71   20.44
  -3   6  -2   64.91   17.26
   3  -6   3  976.36   48.40
   3  -6   3 1079.15   36.51
   3  -6   3  966.66   51.54
  -3   6  -3 1192.79   49.61
  -3   6  -3 1239.48   43.23
  -3   6  -3 1028.12   37.58
  -3   6  -3 1129.22   45.40
   3  -6   4 2417.81   97.47
   3  -6   4 2693.69   84.88
   3  -6   4 2581.39   98.08
  -3   6  -4 2340.62   90.96
  -3   6  -4 2353.10   83.06
  -3   6  -4 2517.61   91.58
   3  -6   5  721.37   45.76
   3  -6   5  602.22   27.25
   3  -6   5  737.93   39.45
  -3   6  -5  586.07   30.31
  -3   6  -5  713.82   32.90
  -3   6  -5  594.22   26.39
  -3   6  -5  778.28   40.36
   3  -6   6 6397.98  240.20
   3  -6   6 6819.97  218.88
  -3   6  -6 7075.90  231.64
  -3   6  -6 6604.16  221.68
  -3   6  -6 6225.12  238.81
  -3   6  -6 6900.02  236.65
   3  -6   7  -21.75   28.75
  -3   6  -7   -7.57   12.72
  -3   6  -7  -23.71   19.18
  -3   6  -7   35.56   21.34
   3  -6   8 1144.31   60.24
   3  -6   8 1061.69   50.12
  -3   6  -8 1131.62   44.83
  -3   6  -8 1310.05   52.32
  -3   6  -8 1339.87   55.87
  -3   6  -8 1202.85   52.64
   3  -6   9 2374.04  103.28
   3  -6   9 2735.05   97.96
  -3   6  -9 2491.91   96.85
  -3   6  -9 2453.65   99.76
  -3   6  -9 2678.42  104.15
   3  -6  10  112.00   23.80
   3  -6  10  133.35   21.36
  -3   6 -10   64.60   30.91
  -3   6 -10   -1.07   19.39
   3  -6  11 4693.64  166.55
   3  -6  11 4457.12  165.84
  -3   6 -11 4205.05  160.94
  -3   6 -11 4428.70  160.70
  -3   6 -11 4631.04  162.01
   3  -6  12  118.24   27.52
  -3   6 -12   54.54   31.05
  -3   6 -12  180.16   29.73
  -3   6 -12  148.92   30.21
   3  -6  13 5612.60  206.76
   3  -6  13 5164.30  191.40
  -3   6 -13 4980.41  186.74
  -3   6 -13 5218.49  219.05
  -3   6 -13 5321.65  200.41
   3  -6  14 1185.77   71.75
   3  -6  14 1102.19   56.71
  -3   6 -14 1055.20   55.80
  -3   6 -14 1167.80   64.85
   3  -6  15 1509.03   73.58
   3  -6  15 1439.00   78.71
  -3   6 -15 1295.83   74.10
  -3   6 -15 1517.80   80.77
   3  -6  16 1736.73   85.21
   3  -6  16 1294.37   75.94
  -3   6 -16 1659.82   85.45
  -3   6 -16 1830.15   94.25
   3  -5   1 3200.01  108.09
   3  -5   1 3112.13  107.37
  -3   5  -1 3467.37  117.39
  -3   5  -1 2774.85  111.73
  -3   5  -1 3474.62  116.42
   3  -5   2 5074.09  183.57
   3  -5   2 5467.78  166.29
   3  -5   2 5447.13  165.46
   3  -5   2 5465.08  175.91
  -3   5  -2 5612.23  183.68
  -3   5  -2 5286.26  176.91
  -3   5  -2 5437.68  192.39
   3  -5   3  466.36   32.65
   3  -5   3  434.68   18.76
   3  -5   3  398.73   24.81
  -3   5  -3  550.21   25.51
  -3   5  -3  361.98   25.55
  -3   5  -3  455.53   19.31
  -3   5  -3  421.94   22.28
   3  -5   4 2052.46   72.46
   3  -5   4 2449.36   93.65
  -3   5  -4 2309.48   75.28
  -3   5  -4 2197.01   76.98
  -3   5  -4 2258.59   77.07
  -3   5  -4 2254.27   86.96
   3  -5   5 7475.68  251.41
   3  -5   5 8089.77  261.83
   3  -5   5 8380.50  260.92
  -3   5  -5 8439.37  260.66
  -3   5  -5 8170.15  258.61
  -3   5  -5 7232.26  262.54
  -3   5  -5 7531.56  281.98
  -3   5  -5 8406.85  278.82
   3  -5   6   58.21    7.06
   3  -5   6   40.38   25.23
  -3   5  -6   42.42   11.72
  -3   5  -6   24.26   16.68
   3  -5   7 2722.20   99.72
   3  -5   7 3304.41  120.03
   3  -5   7 2934.38  111.81
  -3   5  -7 3272.37   99.27
  -3   5  -7 3115.93  115.10
  -3   5  -7 2677.68  108.99
  -3   5  -7 3226.05  109.78
   3  -5   8   13.78   31.95
   3  -5   8  239.87   25.71
  -3   5  -8  125.09    7.91
  -3   5  -8  107.08   23.49
  -3   5  -8   97.82   22.70
  -3   5  -8  108.97   19.87
  -3   5  -9  -51.40   21.75
  -3   5  -9   27.37   18.09
   3  -5  10  119.16   23.93
   3  -5  10  171.88   26.07
  -3   5 -10  144.91   24.85
  -3   5 -10  207.79   25.38
  -3   5 -10  107.39   22.61
   3  -5  11  100.55   31.97
   3  -5  11   49.56   30.00
  -3   5 -11   78.97   21.47
  -3   5 -11   83.41   20.23
   3  -5  12   -2.19   24.19
   3  -5  12  136.06   30.54
  -3   5 -12   30.59   19.97
  -3   5 -12  128.55   28.63
  -3   5 -12   96.78   22.76
   3  -5  13 1516.81   76.31
   3  -5  13 1380.22   63.96
  -3   5 -13 1181.22   55.21
  -3   5 -13 1385.53   70.19
  -3   5 -13 1278.16   60.25
   3  -5  14   83.69   42.51
   3  -5  14  189.38   31.54
  -3   5 -14  118.25   29.38
  -3   5 -14  126.35   31.57
   3  -5  15  786.65   59.82
   3  -5  15  827.76   50.57
  -3   5 -15  722.55   48.76
  -3   5 -15  568.29   41.71
   3  -5  16  728.58   52.44
   3  -5  16  598.93   49.90
  -3   5 -16  574.36   41.00
  -3   5 -16  559.35   47.82
   3  -5  17  736.18   63.15
   3  -5  17  717.61   49.50
  -3   5 -17  689.90   45.43
  -3   5 -17  681.03   54.60
   3  -4   1 7018.90  230.03
   3  -4   1 7188.80  251.71
   3  -4   1 7850.10  229.72
   3  -4   1 7531.82  228.27
   3  -4   1 7532.16  248.16
  -3   4  -1 7292.10  243.54
  -3   4  -1 7662.07  270.72
  -3   4  -1 7453.10  256.53
   3  -4   2 2297.80   85.79
   3  -4   2 2305.86   83.75
   3  -4   2 2431.27   77.85
   3  -4   2 2558.05   76.54
   3  -4   2 2408.85   84.06
  -3   4  -2 2427.02   83.52
  -3   4  -2 2326.10   88.19
  -3   4  -2 2296.28   86.96
   3  -4   3 9406.28  311.28
   3  -4   3 9795.47  322.33
   3  -4   310043.94  323.22
  -3   4  -310598.40  320.46
  -3   4  -3 9916.46  324.52
  -3   4  -3 9536.42  314.63
  -3   4  -3 9811.33  322.88
  -3   4  -310005.43  321.97
   3  -4   4   44.30    9.02
   3  -4   4   -9.50   23.01
   3  -4   4   60.40   14.27
  -3   4  -4   51.54    9.37
  -3   4  -4   48.29   13.52
  -3   4  -4   75.39   17.30
   3  -4   510882.37  334.67
   3  -4   511322.77  368.35
   3  -4   510677.11  354.21
  -3   4  -511129.31  338.75
  -3   4  -510996.80  348.73
  -3   4  -510136.04  358.19
  -3   4  -510502.30  347.86
  -3   4  -510600.67  358.60
   3  -4   6  640.27   23.31
   3  -4   6  625.65   35.24
   3  -4   6  851.29   35.94
  -3   4  -6  794.15   30.84
  -3   4  -6  665.21   31.98
  -3   4  -6  670.89   31.97
   3  -4   713669.19  415.00
   3  -4   713443.75  449.72
   3  -4   713211.15  440.25
  -3   4  -713980.27  417.74
  -3   4  -713532.17  436.87
  -3   4  -713306.23  436.33
  -3   4  -714763.46  472.75
   3  -4   8  290.80   30.87
   3  -4   8  297.65   27.94
  -3   4  -8  469.42   32.85
  -3   4  -8  369.78   22.83
   3  -4   9 4110.27  159.54
   3  -4   9 4219.67  144.43
  -3   4  -9 3729.70  148.37
  -3   4  -9 3833.16  139.75
  -3   4  -9 3695.49  138.58
   3  -4  10 2046.54   94.02
   3  -4  10 1978.23   87.18
  -3   4 -10 2230.30   81.21
  -3   4 -10 2173.84   83.60
  -3   4 -10 2224.77   85.74
   3  -4  11   56.04   24.57
  -3   4 -11   80.89   20.72
  -3   4 -11   27.32   27.92
  -3   4 -11   37.61   13.45
   3  -4  12 4293.25  164.07
   3  -4  12 4121.63  167.18
  -3   4 -12 4235.21  150.92
  -3   4 -12 4398.87  159.77
  -3   4 -12 4026.26  143.46
   3  -4  13 1258.32   61.05
   3  -4  13 1241.08   67.93
  -3   4 -13 1295.05   60.61
  -3   4 -13 1318.44   62.20
  -3   4 -14  697.15   41.79
  -3   4 -14  807.72   53.17
   3  -4  15 1107.67   64.50
  -3   4 -15  891.57   57.33
  -3   4 -15 1058.61   57.61
   3  -4  16  259.20   46.56
   3  -4  16  213.37   34.23
  -3   4 -16  276.37   33.08
  -3   4 -16  304.98   35.76
   3  -4  17  298.80   44.15
   3  -4  17  359.10   43.54
  -3   4 -17  353.39   42.57
  -3   4 -17  462.01   43.28
   3  -4  18  137.64   36.36
   3  -3   1 3070.73   97.63
   3  -3   1 2795.34  102.06
   3  -3   1 2924.72   97.93
   3  -3   1 3079.37   97.80
   3  -3   1 3165.11  100.08
   3  -3   1 2838.38  106.68
   3  -3   1 2877.10   99.08
  -3   3  -1 3065.44  101.45
  -3   3  -1 3040.28   97.89
  -3   3  -1 2909.05  105.33
   3  -3   2 1737.49   65.91
   3  -3   2 1955.57   74.95
   3  -3   2 1964.29   65.06
   3  -3   2 1995.68   66.47
  -3   3  -2 1895.08   64.29
  -3   3  -2 1726.97   68.45
  -3   3  -2 1702.47   65.08
  -3   3  -2 1808.68   70.64
   3  -3   3   22.86    7.71
   3  -3   3   40.40   20.07
   3  -3   3    8.37    7.44
   3  -3   3    6.53   11.72
   3  -3   3   18.48    7.91
  -3   3  -3   27.96    7.82
  -3   3  -3   55.44   15.43
   3  -3   4 2163.41   68.11
   3  -3   4 2126.67   84.47
   3  -3   4 2192.64   81.16
   3  -3   4 1948.36   73.24
  -3   3  -4 2201.18   67.71
  -3   3  -4 2062.92   83.93
  -3   3  -4 1849.28   73.13
  -3   3  -4 2074.01   78.42
  -3   3  -4 2024.84   69.63
   3  -3   5 8572.73  268.30
   3  -3   5 8427.88  288.17
   3  -3   5 8565.37  286.34
   3  -3   5 8226.00  280.42
  -3   3  -5 9071.02  290.52
  -3   3  -5 8238.28  274.67
  -3   3  -5 8645.38  285.78
  -3   3  -5 8782.61  272.57
   3  -3   6 1236.32   51.94
   3  -3   6 1147.02   50.22
   3  -3   6 1107.43   46.62
  -3   3  -6 1227.82   47.23
  -3   3  -6 1315.36   52.29
  -3   3  -6 1250.71   46.75
   3  -3   714614.29  492.11
   3  -3   713482.11  455.40
  -3   3  -715306.34  460.36
  -3   3  -714623.56  465.03
  -3   3  -714852.67  461.54
   3  -3   8  118.67   24.14
  -3   3  -8  177.58   18.23
  -3   3  -8   64.24   22.01
  -3   3  -8   88.10   20.78
  -3   3  -8   83.83   12.52
   3  -3   9 4718.09  165.71
   3  -3   9 4170.16  154.59
  -3   3  -9 5260.21  161.28
  -3   3  -9 4502.42  188.93
  -3   3  -9 5095.27  179.71
  -3   3  -9 5139.48  165.53
   3  -3  10 3933.06  146.50
  -3   3 -10 3959.14  139.26
  -3   3 -10 3743.06  130.83
  -3   3 -10 3955.56  138.81
   3  -3  11 1691.92   76.11
  -3   3 -11 1834.51   68.97
  -3   3 -11 1678.31   76.18
  -3   3 -11 1739.00   66.16
   3  -3  12 5705.79  195.60
  -3   3 -12 5207.47  190.21
  -3   3 -12 5916.68  208.83
  -3   3 -12 5416.67  204.11
  -3   3 -12 5237.61  190.64
   3  -3  13 2947.22  124.46
  -3   3 -13 3070.18  115.36
  -3   3 -13 3226.09  120.01
  -3   3 -13 2794.27  110.99
   3  -3  14 4819.92  180.18
  -3   3 -14 4953.00  177.04
  -3   3 -14 4888.15  180.03
  -3   3 -14 4638.20  173.00
   3  -3  15 4185.81  181.75
  -3   3 -15 4103.84  170.47
  -3   3 -15 4540.66  188.76
  -3   3 -15 4687.93  165.30
   3  -3  16   24.09   40.19
  -3   3 -16   78.72   30.53
   3  -3  17  657.88   51.67
   3  -3  17  754.66   61.53
  -3   3 -17  712.27   45.67
   3  -3  18  482.55   54.74
   3  -3  18  435.87   52.50
  -3   3 -18  526.55   40.89
  -3   3 -18  540.17   44.50
   3  -2   1 5851.91  189.88
   3  -2   1 6124.78  194.02
   3  -2   1 5699.34  196.51
   3  -2   1 5805.46  188.35
   3  -2   1 6053.53  191.44
   3  -2   1 5646.20  190.48
   3  -2   1 5553.95  194.11
   3  -2   1 5750.60  191.82
  -3   2  -1 5731.21  191.84
  -3   2  -1 5860.77  195.47
  -3   2  -1 5937.40  192.18
  -3   2  -1 6022.30  194.15
   3  -2   2 2584.62   87.05
   3  -2   2 2502.20   95.64
   3  -2   2 2465.18   84.63
   3  -2   2 2506.90   84.48
   3  -2   2 2356.84   89.85
   3  -2   2 2531.90   90.91
   3  -2   2 2492.92   81.07
  -3   2  -2 2550.39   84.40
  -3   2  -2 2499.94   87.58
  -3   2  -2 2539.69   84.78
  -3   2  -2 2420.10   83.23
  -3   2  -2 2675.78   88.17
   3  -2   3 2688.45   94.93
   3  -2   3 2648.10   94.68
   3  -2   3 2766.84   89.57
   3  -2   3 2631.97   94.65
   3  -2   3 2552.15   89.74
   3  -2   3 2847.58   94.06
  -3   2  -3 2741.34   91.74
  -3   2  -3 2716.39   94.18
  -3   2  -3 2432.64   86.85
  -3   2  -3 2971.72   96.35
  -3   2  -3 2783.14   90.61
   3  -2   4  818.52   28.76
   3  -2   4  827.66   28.98
   3  -2   4  740.96   31.91
   3  -2   4  732.36   32.50
   3  -2   4  757.82   35.25
   3  -2   4  801.48   28.81
  -3   2  -4  817.74   30.92
  -3   2  -4  746.18   34.88
  -3   2  -4  776.24   32.66
   3  -2   5  111.50    7.29
   3  -2   5  218.09   20.63
   3  -2   5  142.29   10.32
  -3   2  -5  108.63   16.94
  -3   2  -5  112.54   16.95
  -3   2  -5  172.97   11.55
   3  -2   6 8020.45  256.10
   3  -2   6 7597.75  241.27
  -3   2  -6 7684.21  248.75
  -3   2  -6 7637.96  251.83
  -3   2  -6 7348.03  250.64
  -3   2  -6 7776.37  241.81
   3  -2   7 7153.63  238.30
   3  -2   7 6922.18  228.80
  -3   2  -7 7402.11  251.25
  -3   2  -7 7246.33  240.20
  -3   2  -7 7763.61  236.05
  -3   2  -7 7519.89  235.23
   3  -2   8  339.75   28.17
   3  -2   8  218.51   11.13
  -3   2  -8  188.54   16.44
  -3   2  -8  222.51   23.60
  -3   2  -8  140.73   22.19
   3  -2   9 2772.41  114.00
   3  -2   9 2856.00  100.68
  -3   2  -9 3255.16  110.16
  -3   2  -9 2986.71  110.71
  -3   2  -9 3424.82  112.45
   3  -2  10 1827.85   90.12
  -3   2 -10 2365.98   75.13
  -3   2 -10 2197.68   83.00
  -3   2 -10 1995.80   90.28
   3  -2  11   70.32   33.60
  -3   2 -11   52.20   20.73
  -3   2 -11   25.71    4.78
   3  -2  12 2106.73   82.32
  -3   2 -12 2093.93   83.56
  -3   2 -12 2027.95   92.76
  -3   2 -12 2053.02   85.67
   3  -2  13 1424.84   72.19
  -3   2 -13 1290.72   56.93
  -3   2 -13 1168.65   58.95
  -3   2 -13 1057.29   59.61
   3  -2  14 1977.39   92.30
  -3   2 -14 1839.32   76.64
  -3   2 -14 1945.37   82.39
  -3   2 -14 1804.35   78.25
   3  -2  15  289.50   46.04
  -3   2 -15  409.36   34.89
  -3   2 -15  284.95   35.64
  -3   2 -15  327.44   38.66
   3  -2  16 2176.43  107.21
  -3   2 -16 1626.95   82.83
  -3   2 -16 2007.96   89.53
  -3   2 -16 1982.48   84.36
   3  -2  17  206.13   44.32
  -3   2 -17  225.73   27.20
  -3   2 -17  107.38   33.09
   3  -2  18 2190.43  109.58
  -3   2 -18 1991.03   80.81
  -3   2 -18 2003.92   96.02
  -3   2 -18 2133.87  100.55
   3  -1   129446.36  940.60
   3  -1   129698.08  937.94
   3  -1   131318.05  937.88
   3  -1   129520.76  969.19
   3  -1   129474.25  956.29
   3  -1   133139.88  943.52
   3  -1   130639.47  938.23
   3  -1   129669.39  947.37
  -3   1  -130624.63  926.81
  -3   1  -129890.85  943.80
  -3   1  -129325.63  946.48
  -3   1  -128979.85  937.81
   3  -1   2 3350.58  105.98
   3  -1   2 3284.62  110.93
   3  -1   2 3167.87  113.17
   3  -1   2 3266.18  115.21
   3  -1   2 2955.16  115.87
   3  -1   2 3264.46  107.09
   3  -1   2 3413.85  112.28
   3  -1   2 3218.05  106.86
  -3   1  -2 3270.65  104.29
  -3   1  -2 3362.62  110.91
  -3   1  -2 3406.34  117.75
   3  -1   312103.60  381.15
   3  -1   312182.34  392.19
   3  -1   311858.87  376.97
   3  -1   311955.19  398.34
   3  -1   311928.04  404.94
   3  -1   312172.63  393.76
   3  -1   312640.93  407.46
   3  -1   312320.88  384.02
   3  -1   312654.49  390.55
  -3   1  -312526.41  379.01
  -3   1  -311530.06  376.93
  -3   1  -311924.46  394.87
   3  -1   4 8504.97  269.94
   3  -1   4 8367.96  268.64
   3  -1   4 8424.26  264.49
   3  -1   4 8274.34  283.17
   3  -1   4 8248.66  261.57
   3  -1   4 8464.92  263.27
  -3   1  -4 8300.65  261.56
  -3   1  -4 7781.38  269.87
  -3   1  -4 8448.21  270.13
   3  -1   5  740.01   28.09
   3  -1   5  829.03   30.54
   3  -1   5  671.11   33.82
   3  -1   5  653.75   32.73
   3  -1   5  853.47   26.24
   3  -1   5  817.56   27.54
  -3   1  -5  793.70   29.13
  -3   1  -5  830.21   36.03
  -3   1  -5  799.35   37.81
   3  -1   612088.89  372.89
   3  -1   611807.94  371.86
   3  -1   611160.36  375.39
   3  -1   611229.24  399.92
   3  -1   612190.64  362.69
   3  -1   612294.53  362.44
  -3   1  -612101.59  383.64
  -3   1  -611688.88  385.35
  -3   1  -612170.49  385.81
   3  -1   7  139.17    8.65
   3  -1   7  157.79   10.20
  -3   1  -7  164.49   14.71
  -3   1  -7  166.53   22.50
  -3   1  -7  166.36   19.03
   3  -1   8 9083.08  291.34
   3  -1   8 9236.82  290.11
   3  -1   8 8999.24  299.41
  -3   1  -8 9419.34  299.82
  -3   1  -8 9056.16  293.13
  -3   1  -8 9263.13  301.92
   3  -1   9  795.20   29.84
   3  -1   9  870.93   30.26
   3  -1   9 1015.13   47.77
  -3   1  -9  881.73   40.50
  -3   1  -9  954.05   44.58
  -3   1  -9  871.20   40.31
   3  -1  10  112.08   28.49
  -3   1 -10  139.03   20.34
  -3   1 -10  268.71   34.70
  -3   1 -10  242.21   24.82
   3  -1  11  308.90   30.08
  -3   1 -11  358.93   27.74
  -3   1 -11  240.90   28.68
   3  -1  12 1179.99   69.36
  -3   1 -12 1323.23   58.06
  -3   1 -12 1429.38   67.23
  -3   1 -12 1378.27   59.29
   3  -1  13  189.03   34.87
  -3   1 -13  100.76   21.90
  -3   1 -13  243.73   28.59
  -3   1 -13   68.72   24.48
   3  -1  14 1726.35   78.50
  -3   1 -14 1651.76   71.02
  -3   1 -14 1705.54   86.81
  -3   1 -14 1709.27   73.31
   3  -1  15  385.27   40.71
  -3   1 -15  429.30   31.96
  -3   1 -15  462.15   40.20
  -3   1 -15  517.28   39.28
  -3   1 -16   47.78   18.37
  -3   1 -16  104.61   34.12
   3  -1  17  442.86   42.63
  -3   1 -17  242.28   30.36
  -3   1 -17  272.64   41.89
  -3   1 -17  426.28   41.31
   3  -1  18  235.22   48.32
  -3   1 -18  193.10   40.56
  -3   1 -18  360.77   39.90
   3   0   0 1108.97   44.06
   3   0   0 1125.32   43.99
   3   0   0 1070.35   37.67
   3   0   0 1107.32   38.48
   3   0   0 1054.15   45.25
   3   0   0 1002.17   36.57
   3   0   0 1009.76   41.47
  -3   0   0  969.31   38.27
  -3   0   0 1017.77   45.41
  -3   0   0 1070.55   41.86
   3   0   1 8863.96  279.79
   3   0   1 9031.17  275.46
   3   0   1 9158.69  274.63
   3   0   1 8757.18  290.82
   3   0   1 8339.13  278.46
   3   0   1 8646.29  280.99
   3   0   1 8687.09  278.27
  -3   0  -1 8448.26  283.51
  -3   0  -1 8916.26  292.62
  -3   0  -1 8671.92  286.13
  -3   0  -1 8656.01  276.40
  -3   0  -1 8858.62  284.85
   3   0   2  325.89   17.51
   3   0   2  294.57   12.84
   3   0   2  300.31   16.60
   3   0   2  308.67   16.54
   3   0   2  377.64   17.13
  -3   0  -2  344.10   17.69
  -3   0  -2  365.63   20.42
  -3   0  -2  271.02   21.97
  -3   0  -2  281.41   14.79
   3   0   3 8220.91  266.39
   3   0   3 7736.30  249.85
   3   0   3 8320.35  279.86
   3   0   3 7890.77  260.10
   3   0   3 8497.26  254.08
   3   0   3 8107.28  252.56
  -3   0  -3 8178.21  259.59
  -3   0  -3 7679.30  264.38
  -3   0  -3 7894.44  258.19
   3   0   4 4931.98  165.12
   3   0   4 4793.07  157.25
   3   0   4 4607.69  163.73
   3   0   4 4454.97  161.88
   3   0   4 4906.80  149.91
   3   0   4 4832.29  148.27
  -3   0  -4 4803.53  164.77
  -3   0  -4 4677.35  174.55
  -3   0  -4 5119.25  160.69
   3   0   5  221.09   14.82
   3   0   5  163.60   10.88
   3   0   5  247.04   24.84
  -3   0  -5  157.39   14.21
  -3   0  -5  177.38   10.37
  -3   0  -5  205.73   20.77
   3   0   616650.69  512.90
   3   0   615553.05  508.17
   3   0   616564.13  549.43
  -3   0  -615289.51  515.43
  -3   0  -617331.33  512.52
  -3   0  -616067.35  521.87
  -3   0  -616811.79  545.18
   3   0   7  524.54   23.28
   3   0   7  460.98   20.40
   3   0   7  589.07   38.22
  -3   0  -7  408.95   21.42
  -3   0  -7  531.87   23.04
  -3   0  -7  527.96   29.38
  -3   0  -7  412.56   25.77
   3   0   811331.05  356.57
   3   0   810942.13  376.04
  -3   0  -811269.30  345.67
  -3   0  -810627.55  352.22
  -3   0  -811279.90  358.35
   3   0   9  981.97   35.53
   3   0   9  772.20   56.15
  -3   0  -9  712.37   33.11
  -3   0  -9  962.24   37.90
  -3   0  -9  885.95   43.88
  -3   0  -9  762.77   38.43
   3   0  10 4539.93  160.93
   3   0  10 5446.95  184.98
  -3   0 -10 5083.65  171.88
  -3   0 -10 4797.19  168.18
  -3   0 -10 4709.09  163.34
   3   0  11  725.54   31.44
   3   0  11  910.67   57.60
  -3   0 -11  810.01   34.45
  -3   0 -11  749.40   44.11
  -3   0 -11  752.15   50.25
   3   0  12 4164.81  159.29
  -3   0 -12 4215.74  146.36
  -3   0 -12 4104.68  151.38
  -3   0 -12 3931.93  141.42
   3   0  13 2737.24  113.22
  -3   0 -13 2565.53   98.34
  -3   0 -13 2640.11  105.04
  -3   0 -13 2293.32   92.89
   3   0  14 2992.83  119.92
  -3   0 -14 2355.19   99.26
  -3   0 -14 2625.56  112.90
  -3   0 -14 2454.24  110.04
   3   0  15 1033.68   69.16
  -3   0 -15  971.21   49.98
  -3   0 -15 1058.66   56.24
  -3   0 -15  985.87   54.77
   3   0  16  935.40   62.59
  -3   0 -16  912.80   56.82
  -3   0 -16  932.27   50.13
  -3   0 -17    8.00   36.25
  -3   0 -17    1.26   31.96
   3   1   0 1755.69   72.17
   3   1   0 1850.90   57.87
   3   1   0 1758.39   63.19
   3   1   0 1836.07   57.59
  -3  -1   0 1781.19   57.31
  -3  -1   0 1724.91   64.50
  -3  -1   0 1557.46   61.80
  -3  -1   0 1756.44   66.09
   3   1   1 6559.89  222.05
   3   1   1 6738.57  221.65
   3   1   1 6668.84  210.71
   3   1   1 6615.35  211.79
  -3  -1  -1 6615.11  218.60
  -3  -1  -1 6725.92  217.86
  -3  -1  -1 6476.84  213.89
  -3  -1  -1 6670.87  213.98
   3   1   2 5221.44  173.32
   3   1   2 5481.39  168.10
   3   1   2 5507.77  171.88
  -3  -1  -2 5044.28  170.99
  -3  -1  -2 4868.06  181.60
  -3  -1  -2 5187.19  170.78
  -3  -1  -2 5196.92  167.65
   3   1   3 2925.34  104.20
   3   1   3 3029.70   99.58
  -3  -1  -3 3104.75  110.89
  -3  -1  -3 3017.96  110.90
  -3  -1  -3 2998.96  106.08
  -3  -1  -3 3133.98  100.76
   3   1   4   27.50   11.76
   3   1   4   50.38   16.37
   3   1   4   58.61   10.94
  -3  -1  -4   20.39    2.67
  -3  -1  -4  -16.57   14.72
  -3  -1  -4   36.41   10.35
  -3  -1  -4   35.00    6.96
   3   1   5  560.71   24.74
   3   1   5  614.80   21.56
   3   1   5  517.16   30.67
  -3  -1  -5  522.49   31.84
   3   1   6 4888.90  157.54
   3   1   6 4293.42  145.31
   3   1   6 4097.70  170.37
  -3  -1  -6 4778.83  158.64
  -3  -1  -6 4697.76  153.39
   3   1   7  782.47   34.60
   3   1   7  837.61   44.18
  -3  -1  -7  732.94   29.14
  -3  -1  -7  758.73   35.49
  -3  -1  -7  766.25   33.01
   3   1   8 5446.17  189.48
   3   1   8 4476.16  193.34
  -3  -1  -8 5494.49  174.86
  -3  -1  -8 5460.93  182.50
  -3  -1  -8 5393.04  179.29
   3   1   9  876.78   40.36
   3   1   9  965.38   55.36
  -3  -1  -9 1093.01   40.61
  -3  -1  -9 1099.46   47.07
  -3  -1  -9  917.94   47.43
   3   1  10  835.55   40.46
   3   1  10  791.53   56.64
  -3  -1 -10  979.63   40.85
  -3  -1 -10 1120.65   46.07
  -3  -1 -10 1078.61   52.85
   3   1  11 2761.03  102.30
   3   1  11 2762.21  111.58
  -3  -1 -11 2786.58  104.51
  -3  -1 -11 2851.12  115.33
  -3  -1 -11 2989.28  115.70
   3   1  12 1168.76   62.25
  -3  -1 -12  861.74   39.10
  -3  -1 -12  979.45   56.45
  -3  -1 -12  990.59   47.36
  -3  -1 -13  756.32   35.72
  -3  -1 -13  695.04   46.31
   3   1  14 1494.77   79.69
  -3  -1 -14 1291.22   72.33
  -3  -1 -14 1177.44   63.80
   3   1  15  380.52   49.10
  -3  -1 -15  670.97   47.62
  -3  -1 -15  493.41   40.31
   3   1  16  624.32   42.58
  -3  -1 -16  505.09   53.42
  -3  -1 -16  682.95   47.92
   3   1  17  939.44   61.21
  -3  -1 -17  949.58   62.60
  -3  -1 -17  750.25   51.40
   3   2   017467.56  543.40
   3   2   017685.56  526.33
   3   2   017230.99  532.65
   3   2   017470.62  549.85
  -3  -2   017639.97  532.00
  -3  -2   017345.46  556.28
  -3  -2   016942.42  561.72
  -3  -2   015316.66  550.15
   3   2   1  219.13   17.38
   3   2   1  216.93   12.41
   3   2   1  190.73   14.19
  -3  -2  -1  205.93   18.81
  -3  -2  -1  141.22   19.21
  -3  -2  -1  206.97   12.79
  -3  -2  -1  179.37   14.78
   3   2   220726.12  638.62
   3   2   219453.31  636.26
   3   2   221332.29  650.16
  -3  -2  -220553.88  649.86
  -3  -2  -220785.25  661.37
  -3  -2  -222227.41  666.79
  -3  -2  -219816.19  643.13
   3   2   3  115.69   18.48
   3   2   3  159.34   13.48
   3   2   3  113.95   10.16
  -3  -2  -3  119.60   17.45
  -3  -2  -3  133.56   17.66
  -3  -2  -3  107.96   14.09
  -3  -2  -3   74.10   12.13
   3   2   4 5419.27  183.35
   3   2   4 5057.97  178.88
   3   2   4 5700.10  176.01
  -3  -2  -4 5431.35  180.41
  -3  -2  -4 5482.47  189.25
  -3  -2  -4 5415.21  176.80
   3   2   5 3115.60  105.22
   3   2   5 2910.40  104.96
   3   2   5 3200.04  103.56
  -3  -2  -5 3141.32  114.17
  -3  -2  -5 3309.65  109.86
  -3  -2  -5 2887.05  102.41
   3   2   6  143.19   18.46
   3   2   6  180.77   26.59
   3   2   6  144.01    8.51
  -3  -2  -6  171.96    8.45
  -3  -2  -6  222.99   25.20
  -3  -2  -6  231.81   19.09
   3   2   7 2354.67   81.58
   3   2   7 2034.98   73.02
   3   2   7 2396.41   96.12
  -3  -2  -7 2133.48   81.74
  -3  -2  -7 2259.19   81.33
   3   2   8   36.18   33.38
  -3  -2  -8    0.73   18.49
  -3  -2  -8   24.59   16.86
   3   2   9 7451.16  239.86
   3   2   9 7511.34  246.31
  -3  -2  -9 6807.24  235.17
  -3  -2  -9 7279.61  258.20
  -3  -2  -9 7177.73  238.00
   3   2  10   22.41   17.54
  -3  -2 -10   72.53   11.51
  -3  -2 -10    1.73   19.19
   3   2  11  109.63   17.07
   3   2  11  108.10   30.12
  -3  -2 -11  191.84   28.87
  -3  -2 -11  151.86   32.58
   3   2  12  244.99   43.07
  -3  -2 -12   32.03   30.44
  -3  -2 -12   99.83   33.37
   3   2  13 1250.81   64.44
  -3  -2 -13 1211.98   57.40
  -3  -2 -13 1261.28   59.61
   3   2  14 2026.02   88.14
  -3  -2 -14 2019.32   87.77
  -3  -2 -14 1858.72   86.80
   3   2  15  423.63   45.84
  -3  -2 -15  189.70   29.96
  -3  -2 -15  351.76   42.17
   3   2  16 1042.75   60.72
  -3  -2 -16  991.08   61.23
   3   3   0 4592.81  166.22
   3   3   0 5054.64  151.66
   3   3   0 4467.13  151.70
   3   3   0 4972.24  160.53
  -3  -3   0 4590.78  153.28
  -3  -3   0 4824.75  164.51
  -3  -3   0 4576.05  171.67
  -3  -3   0 4896.17  160.43
   3   3   1  167.74   20.81
   3   3   1  119.04   14.89
  -3  -3  -1  163.08    8.50
  -3  -3  -1  213.66   21.31
  -3  -3  -1  117.05   20.06
  -3  -3  -1  220.99   16.77
   3   3   2 7583.91  262.11
   3   3   2 8346.47  271.38
  -3  -3  -2 7789.87  260.76
  -3  -3  -2 7940.57  272.99
  -3  -3  -2 8298.82  266.11
   3   3   3 1133.49   43.57
  -3  -3  -3 1085.97   47.43
  -3  -3  -3 1174.71   46.29
   3   3   4 2654.15   92.24
   3   3   4 2467.34   95.38
   3   3   4 2601.85   88.81
  -3  -3  -4 2470.27   95.04
  -3  -3  -4 2563.14   95.41
   3   3   5 4713.31  171.15
   3   3   5 5305.16  184.25
   3   3   5 5091.18  165.76
  -3  -3  -5 4795.86  183.63
  -3  -3  -5 5412.89  187.09
   3   3   6  449.28   27.98
   3   3   6  275.82   30.10
   3   3   6  338.01   17.80
  -3  -3  -6  313.06   11.46
  -3  -3  -6  358.10   11.83
   3   3   7 2891.65  103.34
   3   3   7 2851.66  115.64
   3   3   7 2848.02   93.94
  -3  -3  -7 2716.27   90.57
  -3  -3  -7 2803.00  111.86
  -3  -3  -7 2977.65  104.63
   3   3   8 4508.28  150.29
   3   3   8 4174.87  157.56
  -3  -3  -8 4269.51  155.49
  -3  -3  -8 4587.48  151.85
   3   3   9 2160.57   92.01
   3   3   9 2058.64   90.79
  -3  -3  -9 2289.05   83.12
  -3  -3  -9 2415.11   92.82
   3   3  10  970.06   46.55
   3   3  10  920.31   53.73
  -3  -3 -10 1032.68   47.98
  -3  -3 -10  832.50   45.72
   3   3  11  931.36   48.22
   3   3  11  796.39   53.48
  -3  -3 -11  880.45   54.56
  -3  -3 -11  972.42   56.07
   3   3  12 1306.43   53.27
   3   3  12 1322.33   71.37
  -3  -3 -12 1214.28   66.04
  -3  -3 -12 1396.51   64.91
  -3  -3 -13 2548.36  108.51
  -3  -3 -13 2825.47  107.21
   3   3  14   97.26   39.60
  -3  -3 -14  193.71   32.51
  -3  -3 -14   47.28   30.19
   3   3  15 2068.73   85.67
  -3  -3 -15 2092.12   90.09
  -3  -3 -15 1730.65   83.32
   3   4   0 1457.90   57.52
   3   4   0 1484.69   49.13
   3   4   0 1398.70   52.80
  -3  -4   0 1220.61   46.64
  -3  -4   0 1472.13   59.91
  -3  -4   0 1320.06   57.84
  -3  -4   0 1550.22   54.46
   3   4   1 2732.06  103.75
   3   4   1 2884.26   95.79
  -3  -4  -1 2775.56  100.31
  -3  -4  -1 2562.15   97.97
  -3  -4  -1 2954.18   98.06
   3   4   2 6836.85  226.19
   3   4   2 7043.70  229.85
  -3  -4  -2 6460.84  217.40
  -3  -4  -2 6945.18  219.23
  -3  -4  -2 7139.65  234.84
  -3  -4  -2 7166.27  234.22
  -3  -4  -2 7548.06  233.66
   3   4   3 4046.56  138.38
   3   4   3 4217.57  147.89
  -3  -4  -3 3780.49  129.23
  -3  -4  -3 4177.16  130.89
  -3  -4  -3 4136.89  143.40
  -3  -4  -3 4289.94  148.84
  -3  -4  -3 4660.44  151.21
   3   4   4 2800.53  100.03
   3   4   4 2749.99  105.13
   3   4   4 2913.55   97.09
  -3  -4  -4 2693.00   99.00
  -3  -4  -4 3072.90  106.77
   3   4   5  150.36   25.75
   3   4   5   91.89   20.98
   3   4   5   95.36   15.61
  -3  -4  -5  169.26   25.43
   3   4   6 1582.81   66.42
   3   4   6 1503.47   66.62
   3   4   6 1610.75   58.22
  -3  -4  -6 1827.06   74.77
  -3  -4  -6 1792.60   69.27
   3   4   7 1539.80   59.57
   3   4   7 1520.32   64.45
  -3  -4  -7 1703.80   62.82
  -3  -4  -7 1377.58   62.49
   3   4   8 3445.25  126.35
   3   4   8 3531.32  127.24
  -3  -4  -8 3502.49  119.37
  -3  -4  -8 3107.12  122.82
   3   4   9 1642.77   74.62
  -3  -4  -9 1857.61   77.58
  -3  -4  -9 2113.69   77.50
   3   4  10 1986.05   82.19
   3   4  10 1990.56   85.48
  -3  -4 -10 2359.34   86.93
  -3  -4 -10 2134.23   89.20
   3   4  11   -0.93   21.05
  -3  -4 -11   71.52   23.10
   3   4  12  618.28   38.15
   3   4  12  764.98   51.80
  -3  -4 -12  604.24   43.73
  -3  -4 -12  525.69   43.86
   3   4  13  238.58   36.65
  -3  -4 -13  290.50   34.20
   3   4  14  -34.91   38.11
  -3  -4 -14  151.46   32.92
   3   5   0  613.91   34.95
   3   5   0  423.61   22.27
   3   5   0  415.17   29.48
  -3  -5   0  489.94   31.27
  -3  -5   0  523.29   32.74
  -3  -5   0  536.46   27.75
   3   5   1 6049.56  196.71
   3   5   1 5621.12  192.28
  -3  -5  -1 5541.72  184.11
  -3  -5  -1 5376.85  189.82
  -3  -5  -1 5657.73  195.08
  -3  -5  -1 6050.08  187.64
   3   5   2 1686.08   76.03
   3   5   2 1839.67   68.76
  -3  -5  -2 1815.98   67.16
  -3  -5  -2 1869.31   75.67
  -3  -5  -2 1834.20   71.45
   3   5   3 1286.09   56.75
   3   5   3 1452.01   56.05
  -3  -5  -3 1371.22   57.59
   3   5   4  750.81   45.39
   3   5   4  661.23   39.53
  -3  -5  -4  620.23   40.85
  -3  -5  -4  557.40   38.48
   3   5   5  281.57   24.90
  -3  -5  -5  326.96   29.93
  -3  -5  -5  291.59   26.71
   3   5   6 1018.21   52.14
   3   5   6  857.56   46.93
  -3  -5  -6 1016.10   55.94
  -3  -5  -6 1038.51   48.98
   3   5   7  448.09   28.98
  -3  -5  -7  411.85   37.16
  -3  -5  -7  471.83   30.79
   3   5   8 1706.18   80.03
   3   5   8 2112.83   83.82
  -3  -5  -8 1954.33   81.95
  -3  -5  -8 1835.21   74.42
   3   5   9  131.66   21.87
  -3  -5  -9   14.85   28.64
   3   5  10 1412.78   57.88
   3   5  10 1317.95   65.03
  -3  -5 -10 1205.24   63.75
  -3  -5 -10 1176.02   59.63
   3   5  11    7.78   23.02
   3   5  11  195.46   42.89
  -3  -5 -11   45.27   29.39
  -3  -5 -12  305.37   37.11
  -3  -5 -12   95.52   27.48
   3   5  13  889.40   54.63
  -3  -5 -13  649.89   45.97
   3   6   0 2228.29   87.46
   3   6   0 2100.24   76.37
  -3  -6   0 1949.58   78.45
  -3  -6   0 2306.02   85.63
  -3  -6   0 2073.57   79.53
   3   6   1 1562.18   67.97
  -3  -6  -1 1382.86   58.72
  -3  -6  -1 1522.44   66.31
  -3  -6  -1 1597.72   59.91
   3   6   2 1091.18   54.32
   3   6   2 1218.17   54.80
  -3  -6  -2 1179.15   55.62
  -3  -6  -2 1183.71   57.26
  -3  -6  -2 1131.95   48.43
   3   6   3 2641.54  103.61
   3   6   3 2622.92  106.91
   3   6   3 2655.73  100.64
  -3  -6  -3 2691.18  101.27
  -3  -6  -3 2983.88  103.31
   3   6   4  707.05   38.50
   3   6   4  601.68   32.92
  -3  -6  -4  861.46   45.94
  -3  -6  -4  729.77   39.27
   3   6   5  200.90   34.78
   3   6   5  183.81   36.61
  -3  -6  -5  103.17   35.50
   3   6   6  821.56   48.80
   3   6   6  595.48   52.78
  -3  -6  -6  859.36   53.85
  -3  -6  -6  880.68   42.22
   3   6   7  303.69   33.14
   3   6   7  410.74   43.91
  -3  -6  -7  301.62   38.08
  -3  -6  -7  425.48   28.13
   3   6   8   -4.78   25.43
   3   6   8  115.64   45.31
  -3  -6  -8  110.79   21.32
   3   6   9 1356.66   70.67
  -3  -6  -9 1529.16   70.63
  -3  -6  -9 1396.38   62.06
   3   6  10  154.42   29.69
   3   6  10    5.24   31.25
  -3  -6 -10  142.78   28.75
   3   6  11  222.40   29.17
   3   6  11  351.93   43.17
   3   7   0  214.82   23.36
  -3  -7   0  366.32   31.44
  -3  -7   0  289.39   27.43
   3   7   1 1095.93   53.43
   3   7   1  894.40   47.58
  -3  -7  -1 1018.40   47.72
  -3  -7  -1  970.23   55.46
   3   7   2 1776.74   72.67
   3   7   2 1743.16   79.05
   3   7   2 1644.01   68.24
  -3  -7  -2 1661.05   73.16
   3   7   3  998.51   53.05
   3   7   3 1037.20   58.55
   3   7   3 1118.07   47.11
  -3  -7  -3 1212.33   52.03
   3   7   4 1738.11   75.69
   3   7   4 1673.53   77.66
  -3  -7  -4 1550.99   82.91
   3   7   5 1227.36   63.39
   3   7   5 1237.08   61.43
  -3  -7  -5 1383.93   65.28
   3   7   6   39.42   24.62
   3   7   6   89.95   38.20
  -3  -7  -6  101.90   38.09
   3   7   7 1451.52   68.07
  -3  -7  -7 1529.78   75.17
   3   7   8  203.12   36.57
   3   7   8  319.53   39.71
  -3  -7  -8  181.47   36.56
   3   8   0  163.65   23.59
   3   8   0   24.20   24.73
  -3  -8   0   62.68   25.21
  -3  -8   0   87.57   20.77
   3   8   1  621.46   59.10
   3   8   1  543.42   42.89
   3   8   1  693.11   47.84
  -3  -8  -1  645.67   45.00
   3   8   2  200.55   32.57
   3   8   2   82.37   26.27
   3   8   2   96.73   19.14
  -3  -8  -2   48.00   25.43
   3   8   4  106.96   29.53
   3   8   4   71.20   29.66
  -3  -8  -4  124.64   33.46
   3   8   5  221.32   35.99
   4 -11   1  132.45   35.62
  -4  11  -1   18.76   32.29
  -4  11  -1   35.40   21.52
  -4  11  -1   57.28   31.88
   4 -11   2  243.77   37.58
   4 -11   2  396.10   48.27
  -4  11  -2  313.18   31.39
  -4  11  -2  457.49   32.85
  -4  11  -2  335.08   36.45
   4 -11   3 1526.06   78.04
   4 -11   3 1549.19   81.24
  -4  11  -3 1597.69   75.79
  -4  11  -3 1484.75   71.24
  -4  11  -3 1652.71   90.35
   4 -10   1  324.43   39.01
   4 -10   1  125.39   32.74
  -4  10  -1  257.50   29.67
  -4  10  -1  310.23   33.57
  -4  10  -1  298.77   31.77
  -4  10  -2  -13.82   25.31
  -4  10  -2   70.01   24.77
   4 -10   3  997.77   55.75
   4 -10   3  879.58   54.49
  -4  10  -3  670.63   45.60
  -4  10  -3  840.33   50.16
   4 -10   4  152.75   31.87
   4 -10   4  247.60   39.85
  -4  10  -4  215.00   25.35
  -4  10  -4  145.53   30.64
  -4  10  -4  190.02   37.49
   4 -10   5  960.63   62.67
   4 -10   5  828.92   55.38
  -4  10  -5 1122.94   58.46
  -4  10  -5  926.90   56.46
   4 -10   6  629.84   44.32
  -4  10  -6  771.08   47.04
  -4  10  -6  635.22   47.85
   4 -10   7 1049.13   60.40
  -4  10  -7  972.06   60.01
  -4  10  -7  840.70   54.95
   4 -10   8 1981.65   92.21
   4 -10   8 1733.56   97.27
  -4  10  -8 1874.52   83.47
  -4  10  -8 1659.62   79.11
  -4  10  -9   39.16   31.39
   4  -9   1 1387.70   63.93
   4  -9   1 1338.34   63.48
  -4   9  -1 1500.66   63.69
  -4   9  -1 1431.81   58.75
  -4   9  -1 1248.25   60.47
   4  -9   2 1787.31   78.44
   4  -9   2 1779.21   82.13
  -4   9  -2 1837.87   73.69
  -4   9  -2 1822.55   85.09
  -4   9  -2 2022.14   73.80
   4  -9   3   43.65   23.62
   4  -9   3    5.58   25.91
  -4   9  -3    5.85   29.98
  -4   9  -3   73.97   25.72
   4  -9   4   84.07   26.45
  -4   9  -4  -38.43   24.00
   4  -9   5   35.47   25.13
   4  -9   5  229.04   33.16
  -4   9  -5  144.03   19.80
  -4   9  -5   46.62   26.80
  -4   9  -5  194.15   29.94
   4  -9   6 1273.61   74.81
   4  -9   6 1612.68   69.50
  -4   9  -6 1194.94   63.02
  -4   9  -6 1514.11   63.16
   4  -9   7  371.58   42.67
   4  -9   7  398.16   43.93
  -4   9  -7  348.31   31.48
   4  -9   8    9.52   35.09
  -4   9  -8   23.15   31.07
  -4   9  -8  180.01   35.35
   4  -9   9  300.63   34.39
   4  -9   9  253.62   37.88
  -4   9  -9  286.03   27.54
  -4   9  -9  147.26   34.66
   4  -9  10  107.79   32.88
   4  -9  10  -99.29   27.21
  -4   9 -10  -27.85   27.19
  -4   9 -11  793.61   44.96
  -4   9 -11  758.04   44.04
   4  -8   1 2031.99   86.62
   4  -8   1 1867.28  100.39
  -4   8  -1 2105.73   86.42
  -4   8  -1 2026.47   82.90
  -4   8  -1 2246.82   78.01
   4  -8   2 4084.89  163.94
   4  -8   2 4580.35  156.22
  -4   8  -2 4911.47  163.83
  -4   8  -2 4059.22  151.85
  -4   8  -2 4489.40  158.18
   4  -8   3  705.13   43.71
   4  -8   3  795.23   45.58
  -4   8  -3  708.41   37.17
  -4   8  -3  658.87   36.83
  -4   8  -3  605.03   36.09
   4  -8   4 4209.96  165.35
   4  -8   4 4497.61  163.41
  -4   8  -4 4435.94  154.85
  -4   8  -4 4159.04  153.42
  -4   8  -4 4515.06  160.82
   4  -8   5 1466.20   70.84
   4  -8   5 1470.81   70.76
  -4   8  -5 1623.13   72.42
  -4   8  -5 1674.50   73.19
   4  -8   6 1604.63   79.58
   4  -8   6 1439.82   70.20
  -4   8  -6 1323.31   56.85
  -4   8  -6 1410.15   67.15
  -4   8  -6 1508.13   64.92
   4  -8   7 2498.75  101.42
   4  -8   7 2147.02  104.23
  -4   8  -7 2182.42   89.22
  -4   8  -7 2306.08  100.30
   4  -8   8  -51.03   34.71
  -4   8  -8   62.59   24.57
  -4   8  -8   46.69   28.33
   4  -8   9  630.25   48.74
   4  -8   9  465.53   41.63
  -4   8  -9  392.92   37.09
  -4   8  -9  507.29   35.57
   4  -8  10   35.97   29.89
  -4   8 -10   62.80   25.08
  -4   8 -10   67.93   21.22
   4  -8  11  313.00   49.78
  -4   8 -11  269.19   31.39
  -4   8 -11  260.00   33.78
  -4   8 -12  507.30   42.61
  -4   8 -12  428.94   37.23
   4  -8  13  174.50   30.56
  -4   8 -13   34.85   30.41
   4  -7   1 3003.20  116.31
   4  -7   1 3216.51  130.84
  -4   7  -1 3391.38  114.36
  -4   7  -1 3304.87  116.05
  -4   7  -1 3077.90  113.45
   4  -7   2 4258.96  142.40
   4  -7   2 4197.22  160.33
  -4   7  -2 4254.84  151.93
  -4   7  -2 4179.03  156.80
  -4   7  -2 4486.18  151.08
   4  -7   3  149.15   30.78
   4  -7   3   99.80   26.58
  -4   7  -3  238.03   22.24
  -4   7  -3   97.43   27.98
   4  -7   4 1315.20   59.12
   4  -7   4 1286.21   54.32
  -4   7  -4 1348.73   49.92
  -4   7  -4  994.99   52.52
  -4   7  -4 1141.07   49.33
   4  -7   5 2992.62  123.08
   4  -7   5 2780.99  114.42
  -4   7  -5 3074.56  104.53
  -4   7  -5 3131.23  116.49
  -4   7  -5 3092.43  113.42
   4  -7   6  390.52   38.43
   4  -7   6  297.29   26.74
  -4   7  -6  369.15   20.38
  -4   7  -6  477.70   34.35
   4  -7   7 7233.62  255.57
   4  -7   7 7176.50  261.17
  -4   7  -7 6648.98  248.07
  -4   7  -7 7525.48  252.51
   4  -7   8    0.20   37.49
  -4   7  -8   34.53   21.56
   4  -7   9 6266.20  238.46
  -4   7  -9 6215.65  226.68
  -4   7  -9 6235.01  222.42
  -4   7  -9 7224.84  236.28
  -4   7 -10 1346.65   67.61
  -4   7 -10 1196.70   64.07
  -4   7 -10 1250.95   57.74
   4  -7  11  956.54   65.01
  -4   7 -11 1193.98   56.00
  -4   7 -11 1116.28   57.87
   4  -7  12 2463.31  106.63
  -4   7 -12 2216.54   95.12
  -4   7 -12 2474.87  113.04
  -4   7 -12 1903.05   93.33
   4  -7  13  103.14   30.56
  -4   7 -13   -4.98   24.18
   4  -7  14  496.40   48.82
  -4   7 -14  620.34   46.66
  -4   7 -14  508.37   45.91
  -4   7 -15  192.01   34.45
   4  -6   1 6952.30  231.89
   4  -6   1 6500.08  224.87
  -4   6  -1 6788.96  221.30
  -4   6  -1 6195.13  234.01
  -4   6  -1 7058.10  233.08
   4  -6   2  814.66   43.81
   4  -6   2 1046.26   45.68
  -4   6  -2  947.59   41.71
  -4   6  -2  786.86   46.39
  -4   6  -2  928.55   41.56
   4  -6   3 3976.29  135.70
   4  -6   3 3611.69  119.03
   4  -6   3 3793.25  119.32
   4  -6   3 3782.06  132.41
  -4   6  -3 4078.91  133.44
  -4   6  -3 3801.07  133.87
  -4   6  -3 3801.33  136.20
   4  -6   4  300.88   15.33
   4  -6   4  225.71   27.13
  -4   6  -4  261.07   24.91
  -4   6  -4  286.30   32.46
   4  -6   5 1503.46   65.29
   4  -6   5 1356.85   53.04
   4  -6   5 1539.61   68.47
  -4   6  -5 1596.05   58.56
  -4   6  -5 1527.71   61.01
  -4   6  -5 1574.64   65.24
   4  -6   6   64.29   26.77
  -4   6  -6    3.85   11.43
  -4   6  -6  -10.26   20.12
  -4   6  -6   51.56   18.45
   4  -6   7 2640.29  107.16
   4  -6   7 2511.99   88.02
  -4   6  -7 2531.36   81.25
  -4   6  -7 2256.53   88.51
  -4   6  -7 2392.99   94.18
  -4   6  -7 2452.15   95.45
   4  -6   8   75.62   34.12
   4  -6   8  186.41   21.48
  -4   6  -8  187.24   26.31
  -4   6  -8   94.53   22.22
   4  -6   9  228.87   35.21
   4  -6   9  223.48   24.69
  -4   6  -9  114.37   26.31
  -4   6  -9  238.84   21.74
   4  -6  10  730.40   53.79
  -4   6 -10  453.18   28.40
  -4   6 -10  504.76   41.81
  -4   6 -10  456.97   27.96
   4  -6  11 1703.90   82.15
   4  -6  11 1685.17   73.83
  -4   6 -11 1561.46   71.70
  -4   6 -11 1679.13   75.77
  -4   6 -11 1697.89   77.53
   4  -6  12 2825.25  113.24
   4  -6  12 2397.41  109.11
  -4   6 -12 2489.33  101.36
  -4   6 -12 2699.89  113.61
  -4   6 -12 2523.30   98.26
   4  -6  13  639.77   61.98
   4  -6  13  764.45   47.09
  -4   6 -13  904.67   54.39
   4  -6  14 2039.77   98.22
   4  -6  14 1831.52   93.86
  -4   6 -14 1874.41   89.51
  -4   6 -14 1802.86   97.78
   4  -6  15 1273.88   73.51
   4  -6  15 1194.76   68.66
  -4   6 -15 1130.71   58.37
  -4   6 -15 1420.44   72.46
  -4   6 -16  524.55   37.08
   4  -5   1 7598.87  266.55
   4  -5   1 7871.89  258.85
  -4   5  -1 7999.62  264.40
  -4   5  -1 7631.81  252.33
  -4   5  -1 7641.86  250.33
   4  -5   2  813.77   38.82
   4  -5   2 1038.74   32.86
   4  -5   2 1006.05   32.57
   4  -5   2  951.93   42.83
  -4   5  -2  875.06   36.97
  -4   5  -2  870.18   39.32
  -4   5  -2  825.54   39.47
   4  -5   311358.80  380.08
   4  -5   311027.24  360.16
   4  -5   311693.53  363.76
   4  -5   311895.86  398.81
  -4   5  -311882.71  361.23
  -4   5  -311523.58  392.16
  -4   5  -311474.87  373.18
   4  -5   4  656.70   30.28
   4  -5   4  721.20   41.40
   4  -5   4  758.03   28.20
   4  -5   4  684.51   30.07
  -4   5  -4  756.36   36.29
  -4   5  -4  783.63   36.68
   4  -5   5 3367.96  125.60
   4  -5   5 2998.61  111.62
   4  -5   5 3419.11  118.26
  -4   5  -5 3525.28  114.93
  -4   5  -5 3335.21  125.67
  -4   5  -5 3521.75  131.58
  -4   5  -5 3396.10  123.26
   4  -5   6 1936.03   70.71
   4  -5   6 2280.54   90.87
   4  -5   6 2175.23   81.00
  -4   5  -6 2335.31   75.68
  -4   5  -6 2004.84   80.46
  -4   5  -6 2306.78   82.04
  -4   5  -6 2387.96   88.79
   4  -5   7  139.75   31.00
  -4   5  -7  185.40    9.32
  -4   5  -7  167.36   19.34
   4  -5   8 1008.89   60.79
   4  -5   8  922.15   42.34
  -4   5  -8  864.22   42.45
  -4   5  -8  750.90   38.04
  -4   5  -8 1088.55   42.31
   4  -5   9 4169.47  160.06
   4  -5   9 3782.67  151.30
  -4   5  -9 3666.01  130.90
  -4   5  -9 3827.41  135.98
  -4   5  -9 3848.09  139.75
   4  -5  10  553.55   41.37
   4  -5  10  560.94   40.72
  -4   5 -10  415.28   39.64
  -4   5 -10  539.19   31.37
  -4   5 -10  618.94   32.16
   4  -5  11  242.18   39.75
  -4   5 -11  196.06   26.03
  -4   5 -11  165.60   26.30
   4  -5  12  627.50   46.17
   4  -5  12  408.02   43.13
  -4   5 -12  482.99   35.30
  -4   5 -12  581.12   42.38
   4  -5  13  340.17   43.30
  -4   5 -13  513.86   35.91
  -4   5 -13  426.13   40.59
   4  -5  14  169.27   40.78
   4  -5  14  142.25   32.83
  -4   5 -14  -23.02   25.55
  -4   5 -14   99.88   37.47
   4  -5  15  111.35   31.28
  -4   5 -15   28.69   29.55
  -4   5 -15   13.40   37.82
  -4   5 -16   88.01   28.25
  -4   5 -16  102.12   37.63
   4  -4   117308.42  571.27
   4  -4   117599.45  535.90
   4  -4   118010.68  544.61
   4  -4   116928.49  553.61
  -4   4  -117637.26  550.30
  -4   4  -117332.06  568.50
  -4   4  -117603.70  563.63
   4  -4   2  542.41   21.73
   4  -4   2  583.60   30.07
   4  -4   2  552.69   20.91
   4  -4   2  630.30   27.26
   4  -4   2  452.32   26.39
  -4   4  -2  596.78   25.47
  -4   4  -2  506.59   24.65
  -4   4  -2  606.13   30.02
   4  -4   312414.23  416.33
   4  -4   313385.53  430.07
   4  -4   312734.75  419.48
   4  -4   313631.89  426.04
  -4   4  -313863.89  422.61
  -4   4  -313292.23  429.48
  -4   4  -313286.03  419.20
  -4   4  -314734.78  438.86
   4  -4   4  539.87   23.02
   4  -4   4  560.42   33.49
   4  -4   4  611.42   26.86
   4  -4   4  635.56   29.27
  -4   4  -4  704.74   26.24
  -4   4  -4  602.54   26.96
  -4   4  -4  552.60   29.35
  -4   4  -4  611.39   29.98
   4  -4   5 2415.11   85.98
   4  -4   5 2699.85  105.74
   4  -4   5 2798.15  100.92
  -4   4  -5 2785.29   90.92
  -4   4  -5 2735.14   92.42
  -4   4  -5 2462.16   92.49
  -4   4  -5 2820.44   96.26
   4  -4   6 5768.12  189.64
   4  -4   6 6186.81  211.40
   4  -4   6 6215.09  210.02
  -4   4  -6 6126.21  206.11
  -4   4  -6 6068.08  207.54
  -4   4  -6 6130.49  202.97
   4  -4   7 1015.15   52.56
   4  -4   7 1131.00   49.55
  -4   4  -7 1070.07   46.86
  -4   4  -7 1110.84   48.51
  -4   4  -7 1030.66   44.60
   4  -4   8 9143.53  326.83
   4  -4   8 9805.43  313.79
  -4   4  -8 9639.00  322.38
  -4   4  -8 9505.87  314.08
  -4   4  -8 9789.75  322.85
   4  -4   9 2691.66  115.80
   4  -4   9 2697.99  108.74
  -4   4  -9 2722.96   97.74
  -4   4  -9 2597.73  102.78
  -4   4  -9 2584.60  100.21
   4  -4  10 5427.17  194.35
   4  -4  10 5344.68  191.44
  -4   4 -10 5297.97  176.19
  -4   4 -10 4971.85  191.66
  -4   4 -10 5056.22  177.96
   4  -4  11 3394.14  131.48
   4  -4  11 3025.73  126.30
  -4   4 -11 3490.42  121.07
  -4   4 -11 3098.15  117.87
  -4   4 -11 2986.82  116.35
   4  -4  12  185.53   33.70
   4  -4  12   56.80   30.12
  -4   4 -12  159.26   29.17
   4  -4  13  407.62   42.69
  -4   4 -13  575.06   40.29
  -4   4 -13  543.39   33.75
   4  -4  14  -57.49   40.08
   4  -4  14  -83.99   27.95
  -4   4 -14  114.43   30.59
  -4   4 -14   67.65   33.93
   4  -4  15   16.28   38.21
   4  -4  15  120.85   35.41
  -4   4 -15  116.01   22.49
   4  -4  16  680.76   52.72
   4  -4  16  531.74   44.15
  -4   4 -16  398.07   33.31
  -4   4 -16  372.95   36.33
   4  -4  17  -53.21   37.41
  -4   4 -17   38.07   26.50
   4  -3   1  862.49   33.02
   4  -3   1  837.88   39.64
   4  -3   1  854.07   30.66
   4  -3   1  883.03   32.06
   4  -3   1  833.27   39.57
  -4   3  -1  844.37   32.88
  -4   3  -1  757.91   37.38
  -4   3  -1  866.49   34.06
   4  -3   2 3831.53  131.32
   4  -3   2 4203.23  143.89
   4  -3   2 4048.52  135.16
   4  -3   2 3980.79  129.14
  -4   3  -2 4060.73  134.66
  -4   3  -2 3712.76  137.40
  -4   3  -2 4071.54  140.42
  -4   3  -2 4192.77  135.24
   4  -3   3 6654.57  229.92
   4  -3   3 6903.52  242.29
   4  -3   3 6935.63  229.62
   4  -3   3 7288.82  246.46
  -4   3  -3 7484.02  235.01
  -4   3  -3 7386.31  244.05
  -4   3  -3 7175.72  238.98
  -4   3  -3 7370.89  227.40
   4  -3   4 2044.85   71.88
   4  -3   4 2133.83   79.48
   4  -3   4 2005.55   76.49
  -4   3  -4 2109.87   71.19
  -4   3  -4 2231.87   77.21
  -4   3  -4 1998.44   72.48
  -4   3  -4 2132.98   75.68
   4  -3   5 3814.03  126.18
   4  -3   5 4002.71  129.86
   4  -3   5 4120.64  132.66
   4  -3   5 3429.00  127.22
  -4   3  -5 4341.86  133.94
  -4   3  -5 4060.54  132.91
  -4   3  -5 3688.93  132.37
  -4   3  -5 4137.14  128.71
   4  -3   6  922.69   32.72
   4  -3   6 1024.68   33.26
   4  -3   6 1101.86   48.06
   4  -3   6  835.90   35.89
  -4   3  -6  901.67   40.69
  -4   3  -6  942.28   43.64
  -4   3  -6 1071.45   43.16
  -4   3  -6 1049.78   38.03
   4  -3   7  476.88   32.49
  -4   3  -7  364.03   28.90
  -4   3  -7  505.80   23.39
   4  -3   8 3292.18  128.55
  -4   3  -8 3375.75  118.88
  -4   3  -8 3433.53  122.40
  -4   3  -8 3404.55  125.26
  -4   3  -8 3466.83  118.24
   4  -3   9 1059.16   48.51
  -4   3  -9 1069.77   45.01
  -4   3  -9  921.36   50.50
  -4   3  -9  945.98   47.87
  -4   3  -9  932.01   37.54
   4  -3  10 2219.50   93.67
  -4   3 -10 2214.91   84.53
  -4   3 -10 2312.25   90.05
  -4   3 -10 2085.80   80.85
  -4   3 -10 2191.04   77.19
   4  -3  11  109.96   28.94
  -4   3 -11   35.64   18.59
  -4   3 -11  -16.35   26.13
  -4   3 -11  -37.36   22.25
   4  -3  12 2331.12   93.41
  -4   3 -12 2269.50   87.51
  -4   3 -12 2415.80  102.78
  -4   3 -12 2232.32   94.83
   4  -3  13  749.26   50.27
  -4   3 -13  590.75   35.91
  -4   3 -13  885.55   52.12
  -4   3 -13  587.90   40.02
   4  -3  14 3456.92  149.35
  -4   3 -14 3509.47  132.54
  -4   3 -14 3431.68  142.09
  -4   3 -14 3097.90  125.56
   4  -3  15 1502.76   76.73
  -4   3 -15 1441.42   69.30
  -4   3 -15 1392.15   69.09
  -4   3 -15 1280.05   70.19
   4  -3  16 3206.36  137.11
  -4   3 -16 2698.97  117.16
  -4   3 -16 2735.80  120.67
  -4   3 -16 2963.76  126.81
   4  -3  17  526.26   54.56
  -4   3 -17  445.67   33.89
  -4   3 -17  342.66   52.86
   4  -2   1   25.99    8.31
   4  -2   1   32.40    9.13
   4  -2   1   47.73    9.04
   4  -2   1   24.76    9.30
  -4   2  -1   76.46   11.53
  -4   2  -1   19.14   10.20
  -4   2  -1   35.71   10.59
  -4   2  -1    0.13   10.80
   4  -2   212849.78  416.35
   4  -2   213596.27  430.39
   4  -2   213380.58  428.08
   4  -2   212613.03  414.70
   4  -2   213299.83  424.44
   4  -2   213510.78  426.64
  -4   2  -213609.79  413.15
  -4   2  -212640.15  417.44
  -4   2  -213906.40  439.97
  -4   2  -214048.95  423.57
   4  -2   3  418.58   19.94
   4  -2   3  453.29   19.11
   4  -2   3  427.73   19.92
   4  -2   3  464.83   20.04
  -4   2  -3  535.22   23.33
  -4   2  -3  596.33   29.91
  -4   2  -3  483.19   22.03
   4  -2   410249.32  343.22
   4  -2   410705.76  340.53
   4  -2   410578.16  366.67
   4  -2   410298.10  340.68
  -4   2  -410854.11  339.21
  -4   2  -410833.81  343.77
  -4   2  -411289.01  371.41
  -4   2  -410809.33  337.55
   4  -2   5   70.19    6.34
   4  -2   5   37.33   19.76
   4  -2   5   46.40    7.52
  -4   2  -5   96.17   12.12
  -4   2  -5   39.54   17.91
  -4   2  -5   37.14   16.60
   4  -2   6   49.38    7.21
   4  -2   6  -19.24   18.91
  -4   2  -6   35.93   14.50
  -4   2  -6   66.11   19.38
  -4   2  -6   63.46   18.13
  -4   2  -6   66.85    9.23
   4  -2   7  337.50   12.87
   4  -2   7  309.74   13.41
   4  -2   7  291.21   31.62
  -4   2  -7  346.46   21.38
  -4   2  -7  355.48   28.04
   4  -2   8  963.24   56.62
   4  -2   8  951.49   34.40
  -4   2  -8 1057.93   44.71
  -4   2  -8  994.53   50.68
  -4   2  -8 1056.99   49.00
  -4   2  -8 1158.10   35.94
   4  -2   9  112.18   32.50
  -4   2  -9   53.94   19.24
  -4   2  -9  115.04   25.24
  -4   2  -9   32.71   20.66
   4  -2  10 4294.48  171.96
  -4   2 -10 4659.51  154.94
  -4   2 -10 4349.41  148.32
  -4   2 -10 4416.95  154.48
   4  -2  11  714.29   53.32
  -4   2 -11  795.34   36.21
  -4   2 -11  549.65   35.29
   4  -2  12   34.45   35.31
  -4   2 -12   74.82   20.83
  -4   2 -12  -15.80   31.67
  -4   2 -13  800.66   45.45
  -4   2 -13  833.78   51.37
   4  -2  14  211.61   36.65
  -4   2 -14  302.93   25.81
  -4   2 -14  265.86   33.58
  -4   2 -15  107.97   32.23
  -4   2 -16  170.50   34.74
  -4   2 -16  211.79   38.84
  -4   2 -17  -16.17   28.16
   4  -1   1  695.25   33.06
   4  -1   1  785.25   37.41
   4  -1   1  742.37   30.72
   4  -1   1  938.39   33.99
   4  -1   1  791.22   34.43
   4  -1   1  734.26   29.96
   4  -1   1  870.86   34.33
   4  -1   1  980.67   39.41
  -4   1  -1  864.31   31.91
  -4   1  -1  834.21   33.78
  -4   1  -1  838.20   34.68
   4  -1   218600.47  644.63
   4  -1   221151.88  648.66
   4  -1   220320.43  628.61
   4  -1   220072.05  636.17
   4  -1   220279.73  636.41
   4  -1   220831.31  633.80
  -4   1  -220573.67  629.96
  -4   1  -220189.48  636.89
  -4   1  -219940.12  658.82
  -4   1  -221134.09  643.73
   4  -1   3  733.30   28.66
   4  -1   3  825.13   33.20
   4  -1   3  712.27   25.85
   4  -1   3  772.63   33.92
   4  -1   3  633.96   28.43
   4  -1   3  686.19   28.04
   4  -1   3  848.47   30.38
  -4   1  -3  706.76   29.24
  -4   1  -3  859.14   35.76
  -4   1  -3  700.68   30.97
   4  -1   410008.30  342.95
   4  -1   410994.48  343.80
   4  -1   410240.88  331.52
   4  -1   410114.56  350.74
   4  -1   410726.93  328.32
   4  -1   410672.09  329.46
  -4   1  -410713.71  336.92
  -4   1  -410099.18  335.42
  -4   1  -411056.74  344.08
   4  -1   5   41.64    7.70
   4  -1   5   72.78   10.51
   4  -1   5   45.47    8.20
   4  -1   5    1.13   18.18
   4  -1   5   42.81    6.46
   4  -1   5   81.46    7.31
  -4   1  -5   55.92    8.46
   4  -1   6 5362.79  181.56
   4  -1   6 5954.44  187.74
   4  -1   6 5024.68  189.39
   4  -1   6 6002.26  198.59
  -4   1  -6 6268.73  185.27
  -4   1  -6 5375.53  194.39
  -4   1  -6 6428.06  205.17
   4  -1   7 2865.00  110.84
   4  -1   7 3533.55  109.87
   4  -1   7 3460.39  121.38
  -4   1  -7 3468.01  111.78
  -4   1  -7 3444.89  127.36
  -4   1  -7 3382.39  115.10
   4  -1   8 2608.73   90.68
   4  -1   8 2407.28  101.15
  -4   1  -8 2526.23   88.23
  -4   1  -8 2892.41  100.64
  -4   1  -8 2562.53   93.41
   4  -1   9 6038.72  204.95
   4  -1   9 6167.55  215.13
  -4   1  -9 6541.99  208.92
  -4   1  -9 6366.04  215.65
  -4   1  -9 6787.52  224.97
   4  -1  10 4299.32  167.61
  -4   1 -10 4509.87  154.09
  -4   1 -10 4304.46  155.43
  -4   1 -10 4530.76  156.53
   4  -1  11 1698.84   78.24
  -4   1 -11 1638.07   67.33
  -4   1 -11 1560.88   74.47
  -4   1 -11 1631.06   68.17
   4  -1  12 3099.69  124.50
  -4   1 -12 2906.18  108.39
  -4   1 -12 2665.35  110.95
  -4   1 -12 2404.49  101.84
   4  -1  13   16.28   31.70
  -4   1 -13   91.52   20.36
  -4   1 -13  -22.98   23.64
   4  -1  14  147.48   32.41
  -4   1 -14  160.58   32.64
   4  -1  15  295.82   41.41
  -4   1 -15  101.65   29.52
  -4   1 -15  166.87   30.97
   4  -1  16 1104.93   69.64
  -4   1 -16 1259.03   62.45
  -4   1 -16  934.67   56.17
   4  -1  17  404.59   49.15
  -4   1 -17  296.30   32.25
   4   0   0 4750.80  164.47
   4   0   0 5056.88  153.70
   4   0   0 4788.10  153.44
   4   0   0 4545.10  155.35
   4   0   0 4604.11  150.70
   4   0   0 4615.79  158.84
  -4   0   0 4808.02  157.16
  -4   0   0 4948.06  168.92
  -4   0   0 4433.94  155.78
   4   0   1  407.07   24.48
   4   0   1  419.81   15.42
   4   0   1  378.98   16.07
   4   0   1  352.54   16.76
   4   0   1  372.69   21.22
  -4   0  -1  370.57   20.30
  -4   0  -1  453.87   27.03
  -4   0  -1  424.84   19.34
   4   0   212488.06  394.12
   4   0   212135.55  372.82
   4   0   212485.87  371.60
   4   0   211058.00  380.29
   4   0   211885.17  381.84
   4   0   212061.42  375.64
  -4   0  -211592.81  380.99
  -4   0  -211357.61  384.37
  -4   0  -212736.88  384.69
   4   0   3 2823.36   92.51
   4   0   3 2650.12   89.58
   4   0   3 2804.92   89.99
   4   0   3 2885.79  100.54
   4   0   3 2563.90   90.50
   4   0   3 2655.64   92.12
   4   0   3 2715.34   91.40
  -4   0  -3 2768.24   97.45
  -4   0  -3 2762.59   95.09
   4   0   4 8603.86  272.49
   4   0   4 8044.20  263.05
   4   0   4 8357.91  289.59
   4   0   4 8247.07  266.10
   4   0   4 8509.47  262.28
  -4   0  -4 7909.71  270.86
  -4   0  -4 8739.69  274.68
   4   0   5 4879.98  165.24
   4   0   5 4593.86  154.75
   4   0   5 4960.13  176.41
  -4   0  -5 5011.64  163.08
  -4   0  -5 5173.82  170.29
   4   0   6 1568.73   53.55
   4   0   6 1356.96   47.23
   4   0   6 1376.74   63.52
  -4   0  -6 1389.69   50.74
  -4   0  -6 1274.40   51.36
  -4   0  -6 1367.24   53.54
   4   0   7 3139.39  101.48
   4   0   7 2562.76  100.07
   4   0   7 3108.67  120.21
  -4   0  -7 3231.73  102.23
  -4   0  -7 2935.86  116.01
  -4   0  -7 2857.25  104.68
   4   0   8  828.16   35.66
   4   0   8 1066.90   45.97
  -4   0  -8  854.22   35.14
  -4   0  -8  921.38   49.32
  -4   0  -8  792.86   38.60
   4   0   9 1726.30   64.20
   4   0   9 1905.71   82.41
  -4   0  -9 1698.79   64.10
  -4   0  -9 1612.42   74.05
  -4   0  -9 1829.21   68.29
   4   0  10 1880.10   71.09
   4   0  10 1894.59   87.45
  -4   0 -10 1733.71   69.77
  -4   0 -10 2165.89   73.40
  -4   0 -10 1761.86   74.53
   4   0  11 1470.19   71.00
  -4   0 -11 1299.67   52.16
  -4   0 -11 1410.30   62.94
  -4   0 -11 1272.38   59.20
   4   0  12  213.10   40.89
  -4   0 -12  161.94   26.18
  -4   0 -12  161.41   36.38
   4   0  13 2945.16  122.98
  -4   0 -13 3355.21  123.35
  -4   0 -13 2868.30  118.12
   4   0  14   72.19   34.20
  -4   0 -14  111.67   33.83
   4   0  15 3537.18  139.86
  -4   0 -15 3419.14  155.51
  -4   0 -15 3876.33  141.34
   4   0  16   60.98   42.51
  -4   0 -16   53.19   31.25
  -4   0 -16   -2.47   28.25
   4   1   0 1173.56   46.95
   4   1   0 1151.76   35.87
   4   1   0 1092.63   35.70
   4   1   0 1156.89   38.00
   4   1   0 1092.04   45.80
  -4  -1   0 1155.18   41.55
  -4  -1   0 1020.78   45.76
   4   1   1 1497.67   61.18
   4   1   1 1456.64   52.69
   4   1   1 1567.37   57.71
  -4  -1  -1 1628.58   59.51
  -4  -1  -1 1537.59   56.77
  -4  -1  -1 1559.04   51.85
  -4  -1  -1 1326.99   54.28
   4   1   2 1134.21   40.86
   4   1   2 1045.22   37.33
   4   1   2 1093.44   39.05
  -4  -1  -2 1121.02   45.77
  -4  -1  -2  911.12   45.23
  -4  -1  -2 1200.10   40.87
  -4  -1  -2  959.80   41.25
   4   1   3 5516.15  184.89
   4   1   3 4815.15  170.69
   4   1   3 5604.75  178.63
  -4  -1  -3 6046.34  185.80
  -4  -1  -3 5290.85  198.26
  -4  -1  -3 5829.67  176.57
  -4  -1  -3 4948.01  177.20
   4   1   4   48.07   15.56
   4   1   4    4.06   19.21
   4   1   4    8.77    7.64
  -4  -1  -4   68.06   15.79
  -4  -1  -4    9.08   13.58
   4   1   5 6543.02  212.08
   4   1   5 6564.72  234.02
   4   1   5 6254.49  203.28
   4   1   5 6539.71  202.75
  -4  -1  -5 6382.97  217.67
  -4  -1  -5 6818.43  222.01
   4   1   6 2110.07   78.01
   4   1   6 1889.18   63.98
   4   1   6 1980.67   82.02
  -4  -1  -6 2028.82   63.75
  -4  -1  -6 2143.22   82.06
  -4  -1  -6 2253.57   83.49
   4   1   7  943.23   44.15
   4   1   7 1004.31   56.65
  -4  -1  -7 1043.80   34.22
  -4  -1  -7 1018.82   46.19
  -4  -1  -7  956.52   41.20
   4   1   8  383.76   25.72
   4   1   8  387.24   35.04
  -4  -1  -8  425.28   34.71
  -4  -1  -8  512.92   30.33
   4   1   9  747.26   33.02
   4   1   9  955.67   52.28
  -4  -1  -9  617.18   40.07
  -4  -1  -9  894.44   43.50
   4   1  10 3651.64  127.07
   4   1  10 3612.52  148.88
  -4  -1 -10 3996.99  144.51
  -4  -1 -10 3788.26  136.76
   4   1  11  762.00   49.68
  -4  -1 -11  746.55   45.40
  -4  -1 -11  546.38   36.92
   4   1  12 3731.03  149.09
  -4  -1 -12 3904.46  141.88
  -4  -1 -12 3161.71  135.25
   4   1  13  -11.33   31.46
  -4  -1 -13   36.66   32.90
  -4  -1 -13  -31.18   25.05
   4   1  14  386.09   47.72
  -4  -1 -14  412.75   43.41
  -4  -1 -14  439.98   39.84
   4   1  15  264.67   51.54
  -4  -1 -15  340.42   36.47
  -4  -1 -15  350.07   38.72
  -4  -1 -16   62.62   25.57
   4   2   0 2929.72  105.44
   4   2   0 2647.07   91.39
   4   2   0 2570.68   95.06
  -4  -2   0 3087.14  102.45
  -4  -2   0 2885.22  107.52
   4   2   1 7190.33  233.40
   4   2   1 6652.98  221.46
   4   2   1 7290.29  234.83
  -4  -2  -1 6782.48  233.22
  -4  -2  -1 7105.46  242.29
  -4  -2  -1 7190.44  223.97
   4   2   2  842.15   36.70
   4   2   2  706.32   27.12
  -4  -2  -2  835.42   40.48
  -4  -2  -2  869.55   38.87
  -4  -2  -2  865.96   34.89
  -4  -2  -2  728.13   33.79
   4   2   3 6205.06  211.25
   4   2   3 5859.12  195.04
  -4  -2  -3 6006.83  206.77
  -4  -2  -3 5613.70  201.16
  -4  -2  -3 6037.89  190.05
   4   2   4 4011.84  126.04
   4   2   4 4155.16  144.25
   4   2   4 3949.29  123.67
  -4  -2  -4 3989.86  140.27
  -4  -2  -4 3491.69  122.09
  -4  -2  -4 3336.49  125.93
   4   2   5 4043.25  139.98
   4   2   5 4116.98  157.89
   4   2   5 4249.27  134.30
  -4  -2  -5 3987.41  147.17
  -4  -2  -5 4219.76  142.05
   4   2   6  176.89   23.17
   4   2   6  130.75   25.22
  -4  -2  -6  121.29   21.17
  -4  -2  -6   63.07   16.90
   4   2   7  891.99   39.15
   4   2   7  786.76   38.42
  -4  -2  -7  744.08   41.11
  -4  -2  -7  784.76   37.27
   4   2   8  194.52   20.43
   4   2   8  132.97   33.74
  -4  -2  -8  173.99   26.98
  -4  -2  -8  231.59   22.60
   4   2   9 3823.92  140.80
   4   2   9 3617.42  146.68
  -4  -2  -9 3457.80  141.13
  -4  -2  -9 4101.70  140.11
   4   2  10  849.30   41.56
   4   2  10  874.46   57.28
  -4  -2 -10  852.98   47.55
  -4  -2 -10 1073.22   49.96
   4   2  11 1439.51   77.16
  -4  -2 -11 1397.11   72.60
  -4  -2 -11 1661.41   65.58
   4   2  12 1131.40   67.85
  -4  -2 -12  998.73   62.98
  -4  -2 -12 1244.92   65.93
  -4  -2 -13   79.14   33.72
  -4  -2 -13   12.63   27.40
   4   2  14  -27.73   34.59
  -4  -2 -14   39.46   25.58
   4   2  15  809.65   46.70
  -4  -2 -15  580.91   37.41
   4   3   0 3128.75  112.05
   4   3   0 2711.17   98.34
   4   3   0 3119.49  105.87
  -4  -3   0 3219.67  107.86
  -4  -3   0 3414.40  113.80
  -4  -3   0 3074.55  100.60
   4   3   1  665.79   32.33
   4   3   1  566.78   22.74
   4   3   1  668.27   28.14
  -4  -3  -1  641.46   32.47
  -4  -3  -1  717.26   35.97
  -4  -3  -1  706.29   30.33
   4   3   2 5167.98  181.19
   4   3   2 5410.80  181.04
  -4  -3  -2 5778.98  191.84
  -4  -3  -2 5514.98  199.08
  -4  -3  -2 5858.74  183.86
   4   3   3 4272.16  150.69
   4   3   3 4006.77  133.33
  -4  -3  -3 4074.12  148.19
  -4  -3  -3 4012.03  150.30
  -4  -3  -3 4128.74  139.84
   4   3   4 6084.30  198.23
   4   3   4 5399.69  196.25
   4   3   4 5449.68  184.59
  -4  -3  -4 5906.61  193.25
  -4  -3  -4 5778.78  192.35
   4   3   5 3441.04  118.40
   4   3   5 3381.32  124.57
   4   3   5 3260.46  112.44
  -4  -3  -5 3400.14  117.22
  -4  -3  -5 3272.80  124.20
   4   3   6 3651.95  143.98
   4   3   6 3977.25  137.17
  -4  -3  -6 4166.73  143.73
  -4  -3  -6 4260.77  147.23
   4   3   7  -34.43   32.24
  -4  -3  -7   10.23   18.33
  -4  -3  -7   82.06   20.79
   4   3   8 1161.66   55.56
   4   3   8 1140.29   63.18
  -4  -3  -8 1316.93   56.79
  -4  -3  -8 1125.53   52.19
   4   3   9  855.63   43.74
   4   3   9  991.99   56.79
  -4  -3  -9  691.41   45.77
  -4  -3  -9  659.75   40.34
   4   3  10  105.45   21.05
   4   3  10  160.42   38.23
  -4  -3 -10  213.53   32.83
  -4  -3 -10   76.39   23.48
   4   3  11 1612.64   84.37
  -4  -3 -11 1468.28   76.42
  -4  -3 -11 1908.41   77.35
   4   3  12   32.70   40.55
  -4  -3 -12   -0.13   32.19
  -4  -3 -12  104.39   26.84
   4   3  13  324.70   42.11
  -4  -3 -13  280.00   38.14
  -4  -3 -13  184.58   28.73
   4   3  14  145.44   37.91
  -4  -3 -14  180.41   31.76
  -4  -3 -14  257.46   35.78
   4   4   0  466.18   38.11
   4   4   0  592.26   31.75
  -4  -4   0  535.39   34.39
  -4  -4   0  590.12   33.06
  -4  -4   0  613.89   25.10
   4   4   1  898.25   43.35
   4   4   1  973.91   43.27
  -4  -4  -1  946.98   48.82
  -4  -4  -1  925.63   42.94
   4   4   2 1279.00   49.85
   4   4   2 1159.83   50.30
  -4  -4  -2 1171.38   56.68
  -4  -4  -2 1314.03   57.85
  -4  -4  -2 1081.05   43.99
   4   4   3   -3.32   13.20
  -4  -4  -3   -5.24   21.44
   4   4   4 2534.29   95.69
   4   4   4 2644.24  107.30
   4   4   4 2557.16   93.48
  -4  -4  -4 2380.05   91.74
  -4  -4  -4 2743.97   99.69
  -4  -4  -5  228.16   27.95
   4   4   6 2161.19   86.72
   4   4   6 2069.08   97.60
  -4  -4  -6 2136.59   84.47
   4   4   7  475.15   31.11
   4   4   7  711.69   49.07
  -4  -4  -7  459.66   39.58
  -4  -4  -7  529.60   34.18
   4   4   8   -2.52   22.19
  -4  -4  -8   63.89   19.50
   4   4   9 2545.88  106.78
   4   4   9 2431.63  113.40
  -4  -4  -9 2960.84  117.87
  -4  -4  -9 2844.18  108.17
   4   4  10  147.37   19.03
   4   4  10  199.56   44.56
   4   4  11 2649.64  118.18
   4   4  11 3413.85  142.85
  -4  -4 -11 3155.57  119.99
  -4  -4 -11 3075.35  121.10
  -4  -4 -12  -47.51   29.56
  -4  -4 -12  101.34   27.88
  -4  -4 -13  964.24   52.96
   4   5   0 1414.44   62.02
   4   5   0 1174.89   55.29
  -4  -5   0 1092.53   51.08
  -4  -5   0 1248.03   55.35
   4   5   1   35.39   23.70
  -4  -5  -1   91.58   21.40
  -4  -5  -1   79.03   29.73
  -4  -5  -1   75.42   13.39
   4   5   2 1245.32   54.19
   4   5   2 1073.14   50.08
  -4  -5  -2 1193.55   57.38
  -4  -5  -2 1342.22   61.29
  -4  -5  -2 1059.41   45.01
   4   5   3 1006.39   54.01
   4   5   3  752.83   40.36
   4   5   3  793.10   36.83
  -4  -5  -3  762.25   46.07
  -4  -5  -3  708.41   35.13
   4   5   4  165.32   30.93
   4   5   4   63.96   25.69
  -4  -5  -4  158.41   26.81
  -4  -5  -4  253.33   22.52
   4   5   5 2615.19  101.42
   4   5   5 2584.85  100.78
  -4  -5  -5 2611.33   99.83
  -4  -5  -5 2577.89   96.75
   4   5   6  -65.16   21.57
   4   5   6   49.29   31.10
  -4  -5  -6   27.64   28.37
  -4  -5  -6    8.21   23.13
   4   5   7   11.15   28.94
   4   5   7  129.57   32.63
  -4  -5  -7   99.70   30.89
  -4  -5  -7   64.05   21.83
   4   5   8  210.41   42.64
  -4  -5  -8  160.01   30.35
  -4  -5  -8  205.58   23.45
   4   5   9   74.46   27.70
   4   5   9   14.78   34.52
  -4  -5  -9   -6.97   30.46
   4   5  10 1375.55   75.40
  -4  -5 -10 1019.89   55.49
   4   5  11  472.04   53.12
  -4  -5 -11  295.29   35.34
   4   6   0  721.65   43.90
   4   6   0  759.22   47.19
  -4  -6   0  851.64   46.54
  -4  -6   0  770.89   47.27
   4   6   1 3125.22  116.66
   4   6   1 3072.45  119.55
  -4  -6  -1 3161.80  125.83
  -4  -6  -1 3252.67  123.19
   4   6   2   14.00   24.22
   4   6   2   18.57   18.77
  -4  -6  -2  144.15   28.73
   4   6   3 3326.54  130.77
   4   6   3 3219.20  128.38
  -4  -6  -3 3253.38  123.30
   4   6   4  325.73   42.49
  -4  -6  -4  365.91   33.50
   4   6   5 3213.95  128.93
   4   6   5 2921.09  116.45
  -4  -6  -5 2825.49  110.80
   4   6   6  149.71   33.98
   4   6   6   17.57   37.46
  -4  -6  -6   50.43   23.89
   4   6   7 1304.43   67.45
   4   6   7 1204.57   70.50
  -4  -6  -7 1335.02   71.88
   4   6   8   35.17   28.34
  -4  -6  -8  -10.34   28.51
   4   7   0  -64.55   31.22
  -4  -7   0   30.64   22.87
  -4  -7   0    8.22   22.33
   4   7   1  164.85   35.94
   4   7   1  172.32   22.69
  -4  -7  -1   48.78   31.51
   4   7   2   74.90   26.34
   4   7   2    0.46   28.56
   4   7   3  340.01   39.43
   4   7   3  489.13   42.04
  -4  -7  -3  350.91   42.94
   4   7   4  -45.26   30.73
   4   7   4  181.12   42.18
  -4  -7  -4    7.82   28.31
   4   7   5  859.98   48.61
   4   7   5  820.65   50.16
  -4  -7  -5  756.96   43.77
   4   7   6  -67.56   24.42
   4   8   0  666.08   42.04
  -4  -8   0  575.43   40.47
  -4  -8   0  838.06   41.33
   4   8   1   17.06   30.22
  -4  -8  -1  200.03   24.74
   5 -11   1  672.52   60.84
   5 -11   1  825.75   47.21
   5 -11   1  681.29   51.72
   5 -11   2  110.63   34.49
  -5  11  -2  139.25   26.30
   5 -11   3  326.93   39.99
   5 -10   1  102.41   31.59
   5 -10   1   88.01   25.80
  -5  10  -1   -1.46   27.49
  -5  10  -1  107.81   27.48
   5 -10   2  499.52   40.85
   5 -10   2  580.15   45.31
  -5  10  -2  511.15   36.78
  -5  10  -2  526.73   36.95
  -5  10  -2  443.12   41.52
   5 -10   3  477.09   43.68
  -5  10  -3  468.25   32.38
  -5  10  -3  420.22   35.41
   5 -10   4  466.46   41.41
   5 -10   4  297.61   38.31
  -5  10  -4  326.11   37.59
  -5  10  -4  434.97   39.19
   5 -10   6    7.91   24.20
  -5  10  -6  100.09   28.03
  -5  10  -6   72.21   28.82
   5 -10   7  559.70   51.23
   5 -10   7  755.49   54.19
  -5  10  -7  756.82   44.35
  -5  10  -7  764.45   42.17
  -5  10  -8   34.07   22.18
   5  -9   1  990.25   52.70
   5  -9   1  750.59   45.61
  -5   9  -1  712.55   45.43
  -5   9  -1  807.89   44.68
   5  -9   2  767.59   48.25
   5  -9   2  701.17   41.88
  -5   9  -2  803.31   45.17
  -5   9  -2  783.97   47.07
   5  -9   3 2512.19  109.29
   5  -9   3 2241.23  101.98
  -5   9  -3 2332.38   91.81
  -5   9  -3 2170.22  103.30
  -5   9  -3 2321.48   96.75
   5  -9   4   16.95   30.89
   5  -9   4    5.39   32.11
  -5   9  -4   90.21   27.30
  -5   9  -4  -32.16   24.42
   5  -9   5  369.94   39.80
   5  -9   5  388.40   40.38
  -5   9  -5  240.69   34.30
  -5   9  -5  328.68   33.80
   5  -9   6  -71.11   25.02
   5  -9   6    8.37   27.85
  -5   9  -6   10.44   21.94
   5  -9   7   98.96   29.72
   5  -9   7  170.85   33.27
  -5   9  -7   92.23   26.40
  -5   9  -7  174.77   26.49
   5  -9   8  537.78   48.81
   5  -9   8  415.47   38.28
  -5   9  -8  521.88   41.79
  -5   9  -8  557.77   35.98
   5  -9   9  -20.26   39.79
   5  -9   9  162.11   33.30
  -5   9  -9   88.98   28.46
  -5   9  -9   95.61   26.04
   5  -9  10  959.04   64.41
  -5   9 -10 1041.47   58.84
  -5   9 -10 1071.79   55.44
   5  -8   1 3465.09  128.45
   5  -8   1 3607.60  136.56
  -5   8  -1 3853.54  133.80
  -5   8  -1 3634.43  143.39
  -5   8  -1 3601.16  137.16
   5  -8   2  638.70   40.98
   5  -8   2  510.46   40.19
  -5   8  -2  450.95   29.40
  -5   8  -2  511.32   33.06
  -5   8  -2  533.20   33.38
   5  -8   3 6658.47  246.40
   5  -8   3 6155.51  227.43
  -5   8  -3 6709.09  226.03
  -5   8  -3 6247.25  228.10
  -5   8  -3 6394.12  220.09
   5  -8   4   95.49   27.60
  -5   8  -4   50.78   22.38
   5  -8   5 7014.94  256.32
   5  -8   5 7013.99  245.82
  -5   8  -5 6307.48  225.75
  -5   8  -5 6880.17  245.82
  -5   8  -5 6613.23  230.62
   5  -8   6 1675.18   88.19
   5  -8   6 1653.45   81.46
  -5   8  -6 1819.19   78.86
  -5   8  -6 1935.89   77.98
   5  -8   7 1666.26   77.39
   5  -8   7 1543.40   77.96
  -5   8  -7 1886.41   80.76
  -5   8  -7 1622.20   71.70
   5  -8   8 1575.38   80.67
   5  -8   8 1253.87   71.71
  -5   8  -8 1448.37   63.90
  -5   8  -8 1519.89   68.54
   5  -8   9  236.69   36.93
   5  -8   9  176.94   34.14
  -5   8  -9  267.43   31.17
  -5   8  -9  235.13   31.38
   5  -8  10  483.38   50.02
   5  -8  10  477.49   46.78
  -5   8 -10  316.36   33.89
   5  -8  11   57.18   29.62
  -5   8 -11   28.88   31.67
   5  -8  12   87.09   31.63
  -5   8 -12  148.17   33.79
  -5   8 -12  174.55   29.00
   5  -7   1  331.83   28.86
   5  -7   1  372.25   31.66
  -5   7  -1  310.87   26.48
  -5   7  -1  270.64   28.55
  -5   7  -1  212.77   22.92
   5  -7   2  234.08   28.52
   5  -7   2  289.56   30.88
  -5   7  -2  211.79   21.44
  -5   7  -2  319.72   28.54
   5  -7   3 1403.44   72.32
   5  -7   3 1578.36   67.13
  -5   7  -3 1466.06   57.99
  -5   7  -3 1562.66   63.72
   5  -7   4  -18.26   27.09
   5  -7   4   50.30   29.97
  -5   7  -4   74.14   17.31
  -5   7  -4  118.54   26.86
  -5   7  -4   40.55   22.60
   5  -7   5 1915.23   81.80
   5  -7   5 1698.35   74.57
  -5   7  -5 1450.53   60.13
  -5   7  -5 1677.81   70.47
  -5   7  -5 1852.59   76.03
   5  -7   6  144.94   28.10
   5  -7   6  -59.27   31.99
   5  -7   7  411.22   40.11
   5  -7   7  277.70   38.79
  -5   7  -7  274.84   28.91
  -5   7  -7  435.21   33.26
   5  -7   8 3665.65  144.69
  -5   7  -8 3560.85  127.96
  -5   7  -8 3226.75  126.75
   5  -7   9  755.98   51.27
  -5   7  -9  795.51   40.57
  -5   7  -9  498.65   44.45
  -5   7  -9  605.21   38.23
   5  -7  10 3556.65  132.29
  -5   7 -10 3171.27  127.94
  -5   7 -10 3640.64  134.72
  -5   7 -10 3482.06  137.70
   5  -7  11 3033.97  123.54
  -5   7 -11 2697.06  118.27
  -5   7 -11 2931.52  125.89
   5  -7  12  982.00   60.24
  -5   7 -12  990.39   53.43
  -5   7 -12  973.31   55.15
   5  -7  13 1868.33   95.87
  -5   7 -13 1774.10   94.39
  -5   7 -13 1886.64   79.60
  -5   7 -14  147.61   28.49
   5  -6   1 2077.98   83.69
   5  -6   1 2182.71   84.64
  -5   6  -1 2226.75   81.70
  -5   6  -1 2034.85   84.08
  -5   6  -1 2164.43   83.05
   5  -6   2 3872.94  140.17
   5  -6   2 3241.44  129.99
  -5   6  -2 3796.65  125.73
  -5   6  -2 3442.07  135.34
  -5   6  -2 3672.48  134.69
   5  -6   3  434.16   18.47
   5  -6   3  494.76   32.04
  -5   6  -3  497.90   25.02
  -5   6  -3  418.67   27.96
  -5   6  -3  551.00   35.94
   5  -6   4 2589.45  110.54
   5  -6   4 2730.71   87.95
   5  -6   4 2762.65   98.48
  -5   6  -4 2664.25   91.14
  -5   6  -4 2295.22  106.67
   5  -6   5 2694.99   97.38
   5  -6   5 2596.46   93.19
   5  -6   5 2596.40  105.54
  -5   6  -5 2638.89   92.30
  -5   6  -5 2399.89   93.71
  -5   6  -5 2696.52  109.58
   5  -6   6  201.86   27.92
   5  -6   6  139.58   16.48
  -5   6  -6  161.79   11.90
  -5   6  -6  182.68   16.92
  -5   6  -6  152.79   25.01
  -5   6  -6  187.11   20.94
   5  -6   7  218.18   36.77
   5  -6   7  279.71   22.83
  -5   6  -7  277.37   26.79
  -5   6  -7  268.69   32.14
  -5   6  -7  259.51   21.76
   5  -6   8  640.76   53.72
   5  -6   8  794.05   38.33
  -5   6  -8  773.83   39.65
  -5   6  -8  777.88   42.82
  -5   6  -8  725.96   39.88
   5  -6   9  645.92   49.69
   5  -6   9  724.86   42.38
  -5   6  -9  766.73   44.19
  -5   6  -9  857.11   42.93
  -5   6  -9  825.79   38.96
   5  -6  10   -0.20   27.68
   5  -6  10  -37.90   20.11
  -5   6 -10   22.00   29.00
  -5   6 -10 -103.41   30.40
   5  -6  11  434.38   45.18
   5  -6  11  239.18   26.73
  -5   6 -11  336.24   31.61
  -5   6 -11  345.66   38.46
   5  -6  12  103.88   42.90
  -5   6 -12   62.91   34.32
  -5   6 -12  -67.31   35.01
  -5   6 -13   83.30   23.46
  -5   6 -13   68.64   29.13
   5  -6  14  894.21   61.20
  -5   6 -14  947.44   55.39
  -5   6 -14  727.17   56.87
  -5   6 -15  402.57   39.72
   5  -5   1  679.15   34.85
   5  -5   1  576.04   21.78
   5  -5   1  681.59   25.22
   5  -5   1  768.36   41.34
  -5   5  -1  548.20   32.47
  -5   5  -1  598.28   33.89
  -5   5  -1  740.75   36.56
   5  -5   2 7257.55  236.73
   5  -5   2 6611.64  221.37
   5  -5   2 7313.71  228.99
   5  -5   2 7067.69  238.76
  -5   5  -2 7513.97  235.00
  -5   5  -2 6907.43  246.04
  -5   5  -2 7360.68  234.65
   5  -5   3  893.57   45.45
   5  -5   3  795.47   35.18
   5  -5   3  840.18   41.95
  -5   5  -3  764.54   33.09
  -5   5  -3  862.99   40.73
  -5   5  -3  777.03   37.71
   5  -5   413750.57  473.44
   5  -5   413823.79  449.70
  -5   5  -414569.36  441.89
  -5   5  -413945.00  445.37
  -5   5  -413859.80  436.84
   5  -5   5 3003.50  110.68
   5  -5   5 2904.24  100.63
  -5   5  -5 2670.71   97.27
  -5   5  -5 2793.17  105.93
  -5   5  -5 2987.63  109.47
  -5   5  -5 2880.86  106.54
   5  -5   6 5392.89  186.76
   5  -5   6 5315.95  181.28
  -5   5  -6 5643.48  178.87
  -5   5  -6 5500.47  182.53
  -5   5  -6 5107.70  182.53
  -5   5  -6 5509.36  194.06
   5  -5   7 4201.81  169.53
   5  -5   7 3954.83  146.12
  -5   5  -7 4223.09  158.76
  -5   5  -7 4272.09  145.65
  -5   5  -7 4417.65  148.66
   5  -5   8   13.39   32.95
   5  -5   8   93.66   28.22
  -5   5  -8   85.43   20.53
  -5   5  -8   61.85   23.57
  -5   5  -8  -22.76   17.10
   5  -5   9  333.74   37.46
   5  -5   9  235.55   30.01
  -5   5  -9  288.85   26.81
  -5   5  -9  298.60   27.62
  -5   5  -9  261.24   17.13
   5  -5  10 1195.93   59.37
   5  -5  10  802.98   58.08
  -5   5 -10 1126.36   53.61
  -5   5 -10  931.98   51.77
   5  -5  11  133.35   28.90
  -5   5 -11  124.77   22.74
   5  -5  12   68.22   33.75
   5  -5  12   32.31   13.43
  -5   5 -12  125.40   31.39
   5  -5  13  169.69   44.70
   5  -5  13  167.91   30.76
  -5   5 -13  142.79   28.55
   5  -5  14  113.93   39.86
   5  -5  14   78.31   31.59
  -5   5 -14   44.60   22.90
  -5   5 -14   43.66   34.05
   5  -5  15   91.97   34.02
   5  -5  15  209.22   28.06
  -5   5 -15  199.10   28.35
  -5   5 -15  128.68   39.76
   5  -4   1 4353.58  151.77
   5  -4   1 3598.80  130.25
   5  -4   1 4142.92  133.43
   5  -4   1 4026.97  146.95
  -5   4  -1 4244.76  141.45
  -5   4  -1 4021.44  139.34
  -5   4  -1 4234.10  136.24
   5  -4   2 5038.49  167.97
   5  -4   2 4343.65  156.57
   5  -4   2 5046.46  166.28
   5  -4   2 4950.26  178.74
  -5   4  -2 5008.30  164.80
  -5   4  -2 5205.92  172.93
  -5   4  -2 5140.84  168.82
   5  -4   3   45.73   21.63
  -5   4  -3  118.54   16.84
  -5   4  -3  100.98   17.13
   5  -4   4 4603.83  175.29
   5  -4   4 4850.68  164.31
  -5   4  -4 5030.55  164.52
  -5   4  -4 4739.42  155.14
  -5   4  -4 4627.02  166.89
  -5   4  -4 4664.56  164.39
   5  -4   5  419.38   18.21
   5  -4   5  523.53   21.83
   5  -4   5  474.94   36.25
   5  -4   5  508.46   32.70
  -5   4  -5  432.15   27.24
  -5   4  -5  504.45   34.26
   5  -4   6 2309.20   80.45
   5  -4   6 2812.23   92.31
   5  -4   6 2366.00   91.57
  -5   4  -6 2487.71   88.91
  -5   4  -6 2526.94   92.30
  -5   4  -6 2445.47   87.98
   5  -4   7  262.92   29.15
  -5   4  -7  296.33   22.79
  -5   4  -7  277.27   24.69
  -5   4  -7  282.90   20.42
   5  -4   8 3529.82  137.82
   5  -4   8 3480.13  126.39
  -5   4  -8 3629.69  125.19
  -5   4  -8 3224.20  118.23
  -5   4  -8 3304.87  120.28
   5  -4   9 2684.69  100.34
   5  -4   9 2878.97  114.60
  -5   4  -9 2829.44  100.66
  -5   4  -9 2368.80   94.42
   5  -4  10 4757.42  183.66
   5  -4  10 5062.18  197.87
  -5   4 -10 5207.32  178.15
  -5   4 -10 4773.86  168.36
   5  -4  11 1502.94   65.30
   5  -4  11 1173.47   63.27
  -5   4 -11 1183.44   59.47
  -5   4 -11 1191.01   58.24
   5  -4  12 5886.59  203.37
   5  -4  12 5432.32  222.41
  -5   4 -12 5130.75  197.62
  -5   4 -12 5410.85  195.09
   5  -4  13  143.80   32.04
  -5   4 -13  300.87   32.69
  -5   4 -13  301.42   39.71
   5  -4  14 1510.84   82.78
   5  -4  14 1405.17   80.72
  -5   4 -14 1141.51   58.92
  -5   4 -14 1413.32   73.10
   5  -4  15   76.97   32.18
  -5   4 -15   64.29   26.45
  -5   4 -15    5.11   42.16
   5  -4  16   98.03   32.41
   5  -3   1  872.23   38.67
   5  -3   1  990.67   37.03
  -5   3  -1  988.69   38.58
  -5   3  -1  916.65   40.52
  -5   3  -1  907.16   40.78
   5  -3   2   86.61   21.60
   5  -3   2   56.95   14.40
  -5   3  -2   78.38   12.92
  -5   3  -2  153.40   16.32
  -5   3  -2  129.89   16.58
  -5   3  -2  152.13   15.44
   5  -3   3  104.94   13.15
   5  -3   3   21.22   21.82
   5  -3   3   53.85   14.33
  -5   3  -3   80.73   14.20
   5  -3   4 5051.38  185.09
   5  -3   4 6098.30  192.21
   5  -3   4 5939.22  186.16
  -5   3  -4 6090.30  202.83
  -5   3  -4 5760.59  197.11
  -5   3  -4 5833.96  198.65
  -5   3  -4 5766.58  189.93
   5  -3   5  433.14   20.01
   5  -3   5  457.94   20.54
   5  -3   5  437.18   26.53
  -5   3  -5  452.60   32.22
  -5   3  -5  429.70   25.08
  -5   3  -5  550.31   23.17
   5  -3   6 4136.13  132.94
   5  -3   6 4316.29  152.69
  -5   3  -6 4114.16  145.83
  -5   3  -6 3773.48  146.83
  -5   3  -6 4212.87  141.84
  -5   3  -6 4184.60  141.83
   5  -3   7 3321.81  106.66
   5  -3   7 3146.76  124.00
  -5   3  -7 3341.18  125.44
  -5   3  -7 3373.98  124.29
  -5   3  -7 3578.13  133.19
  -5   3  -7 3542.99  112.62
   5  -3   8  136.01   25.49
  -5   3  -8  -12.32   16.45
  -5   3  -8   15.01   25.24
  -5   3  -8    3.92   30.32
  -5   3  -8   61.46    9.19
   5  -3   9  834.74   49.85
  -5   3  -9  768.63   37.93
  -5   3  -9  816.13   46.50
  -5   3  -9  874.48   45.48
   5  -3  10  541.12   42.95
  -5   3 -10  586.52   31.07
  -5   3 -10  734.74   48.03
  -5   3 -10  568.55   39.60
   5  -3  11   12.23   32.77
  -5   3 -11   86.97   26.91
  -5   3 -11   65.90   24.41
  -5   3 -12  373.16   30.22
  -5   3 -12  267.84   38.74
  -5   3 -12  318.57   31.08
   5  -3  13  431.14   45.09
  -5   3 -13  247.76   28.10
  -5   3 -13  298.76   36.20
  -5   3 -13  404.51   37.27
   5  -3  14  165.60   38.32
  -5   3 -14  140.40   27.80
   5  -3  15 2074.19  100.08
  -5   3 -15 1973.44   99.89
  -5   3 -15 1937.52   93.79
   5  -3  16   99.77   32.82
  -5   3 -16   82.38   36.50
   5  -2   1  144.50   14.30
   5  -2   1  189.32   17.84
   5  -2   1  111.23   17.97
  -5   2  -1  127.37   14.75
  -5   2  -1  217.92   18.27
  -5   2  -1  165.48   15.06
   5  -2   2 2989.73   98.27
   5  -2   2 2697.40  105.48
   5  -2   2 2950.01  100.42
  -5   2  -2 2777.86   95.66
  -5   2  -2 2930.74  102.70
  -5   2  -2 2827.55  100.52
   5  -2   3 6666.12  213.62
   5  -2   3 6338.75  215.29
   5  -2   3 5504.62  197.99
   5  -2   3 6456.98  202.62
  -5   2  -3 6494.24  204.40
  -5   2  -3 6388.79  210.23
  -5   2  -3 6405.98  216.92
   5  -2   4 4481.58  156.47
   5  -2   4 4481.50  154.36
   5  -2   4 4731.54  151.13
  -5   2  -4 4665.18  149.70
  -5   2  -4 4623.46  154.01
  -5   2  -4 4479.81  154.26
   5  -2   5 9913.32  309.00
   5  -2   5 9104.14  319.97
   5  -2   5 9269.28  300.24
  -5   2  -5 9401.38  301.46
  -5   2  -5 9605.79  312.86
  -5   2  -5 9281.83  310.34
   5  -2   6 4574.75  143.13
   5  -2   6 4544.66  163.63
   5  -2   6 3940.14  141.34
   5  -2   6 4450.92  145.33
  -5   2  -6 4619.08  144.96
  -5   2  -6 4706.81  159.32
  -5   2  -6 4292.75  152.32
   5  -2   7  514.84   22.47
   5  -2   7  522.27   43.55
   5  -2   7  517.88   20.57
  -5   2  -7  581.06   26.88
  -5   2  -7  658.19   35.59
   5  -2   8  691.09   49.85
  -5   2  -8  746.68   32.84
  -5   2  -8  698.91   42.50
  -5   2  -8  776.61   44.01
   5  -2   9  393.10   38.61
  -5   2  -9  223.02   18.87
  -5   2  -9  271.08   30.50
   5  -2  10  618.75   43.84
  -5   2 -10  448.98   27.51
  -5   2 -10  467.58   41.93
  -5   2 -10  491.44   35.52
  -5   2 -11  258.44   30.88
  -5   2 -11   93.33   23.63
   5  -2  12 1461.76   77.94
  -5   2 -12 1389.04   53.59
  -5   2 -12 1512.05   65.67
  -5   2 -12 1433.45   66.03
   5  -2  13  118.76   34.10
  -5   2 -13   73.74   33.56
   5  -2  14  615.73   61.00
  -5   2 -14  632.97   46.17
  -5   2 -14  745.36   50.07
  -5   2 -15  149.17   33.06
  -5   2 -15  244.21   35.70
   5  -2  16 -115.50   39.23
   5  -1   1 5047.29  169.36
   5  -1   1 4761.18  155.47
   5  -1   1 5271.77  163.30
   5  -1   1 4479.43  157.64
   5  -1   1 5317.31  166.18
  -5   1  -1 4970.85  169.69
  -5   1  -1 5179.13  174.37
  -5   1  -1 5065.63  162.17
   5  -1   2 2684.18  101.23
   5  -1   2 2419.45   84.73
   5  -1   2 2686.60   89.83
   5  -1   2 2330.90   85.31
   5  -1   2 2261.36   81.85
   5  -1   2 2763.48   88.38
  -5   1  -2 2597.75   91.49
  -5   1  -2 2665.41   99.57
  -5   1  -2 2778.04   87.30
   5  -1   3 5706.83  195.44
   5  -1   3 5443.50  189.44
   5  -1   3 6539.71  196.20
   5  -1   3 6179.17  201.94
   5  -1   3 5487.20  189.47
   5  -1   3 6494.79  202.81
  -5   1  -3 5935.25  197.30
  -5   1  -3 6357.71  196.46
   5  -1   4 1224.24   48.68
   5  -1   4 1257.57   52.82
   5  -1   4 1066.69   42.29
   5  -1   4 1124.28   45.22
  -5   1  -4 1244.47   44.67
  -5   1  -4 1094.94   52.99
  -5   1  -4 1232.82   50.60
   5  -1   5 3084.13  103.77
   5  -1   5 3009.09  105.90
   5  -1   5 2598.26   96.22
   5  -1   5 3002.79   96.52
  -5   1  -5 3129.16  101.49
  -5   1  -5 3197.29  113.19
  -5   1  -5 3113.64  106.53
   5  -1   6  642.19   28.72
   5  -1   6  703.20   39.67
  -5   1  -6  684.98   29.53
  -5   1  -6  610.34   38.07
  -5   1  -6  641.12   32.32
   5  -1   7 1969.72   68.02
   5  -1   7 2197.47   80.49
  -5   1  -7 1999.39   71.92
  -5   1  -7 1689.17   78.31
  -5   1  -7 2026.02   76.74
  -5   1  -8  107.42   11.99
  -5   1  -8  145.31   22.58
   5  -1   9 4689.66  181.52
  -5   1  -9 4589.48  158.15
  -5   1  -9 4374.39  164.25
  -5   1  -9 4714.91  161.34
   5  -1  10  270.66   40.54
  -5   1 -10   74.03   29.49
  -5   1 -10  212.75   30.63
   5  -1  11 4358.79  179.95
  -5   1 -11 3745.24  154.07
  -5   1 -11 4327.39  149.85
   5  -1  12  331.53   41.16
  -5   1 -12  403.02   38.42
  -5   1 -12  493.50   38.53
   5  -1  13 2954.98  141.09
  -5   1 -13 2909.68  118.77
  -5   1 -13 3041.02  134.52
   5  -1  14   34.19   38.38
  -5   1 -14   88.43   37.19
   5  -1  15  297.63   45.47
  -5   1 -15  362.45   37.05
  -5   1 -15  260.21   32.42
   5   0   0  164.06   19.39
   5   0   0   80.34    5.86
   5   0   0   91.06    9.66
   5   0   0   58.84    7.26
   5   0   0   91.92   14.37
  -5   0   0   69.94   17.78
   5   0   1 4797.47  164.78
   5   0   1 4976.13  153.35
   5   0   1 5170.48  157.42
   5   0   1 4512.06  155.47
   5   0   1 5263.06  169.90
  -5   0  -1 4805.11  163.10
  -5   0  -1 4623.80  161.59
  -5   0  -1 5128.73  157.88
   5   0   2   66.12   17.16
   5   0   2   19.51    4.81
   5   0   2   23.40    7.31
   5   0   2   20.64   11.22
  -5   0  -2   37.93   14.44
  -5   0  -2   48.22   11.40
   5   0   3 1039.40   47.36
   5   0   3 1266.41   39.63
   5   0   3 1325.38   40.63
   5   0   3 1271.59   50.63
   5   0   3 1142.64   43.13
   5   0   3 1336.93   44.54
  -5   0  -3 1114.09   46.92
  -5   0  -3 1291.34   46.86
   5   0   4 3373.03  115.06
   5   0   4 3360.20  106.64
   5   0   4 3660.04  107.58
   5   0   4 3239.90  121.01
   5   0   4 3035.96  112.44
   5   0   4 3553.30  112.03
  -5   0  -4 3613.72  116.34
  -5   0  -4 3449.61  114.29
   5   0   5 6559.52  215.50
   5   0   5 5728.07  197.36
   5   0   5 6461.80  199.62
   5   0   5 6777.88  215.32
   5   0   5 5873.84  195.93
   5   0   5 6401.12  198.53
  -5   0  -5 6340.49  219.54
  -5   0  -5 6773.87  206.96
   5   0   6 6443.35  215.91
   5   0   6 6573.20  226.14
  -5   0  -6 6029.42  201.09
  -5   0  -6 6300.03  227.60
  -5   0  -6 6753.88  215.39
   5   0   7  313.21   21.08
   5   0   7  320.82   37.44
  -5   0  -7  354.71   32.48
   5   0   8 5138.35  171.33
   5   0   8 5274.51  184.89
  -5   0  -8 5246.64  177.99
  -5   0  -8 5545.65  180.78
   5   0   9   82.68   27.45
  -5   0  -9  -44.68   24.62
  -5   0  -9   67.93   24.22
   5   0  10  962.94   54.50
  -5   0 -10  887.50   50.27
  -5   0 -10  711.62   47.47
   5   0  11  695.91   50.77
  -5   0 -11  464.18   41.48
  -5   0 -11  608.16   39.36
  -5   0 -12   56.45   33.25
  -5   0 -12   28.72   26.39
   5   0  13  322.45   43.70
  -5   0 -13  398.01   35.39
   5   0  14   39.01   38.88
  -5   0 -14   66.46   23.98
   5   0  15   42.51   37.99
  -5   0 -15   86.33   32.83
  -5   0 -15  109.04   32.27
   5   1   0 1856.71   68.85
   5   1   0 1729.16   58.20
   5   1   0 1826.08   67.68
  -5  -1   0 1886.61   72.40
  -5  -1   0 1935.78   68.56
  -5  -1   0 1812.40   57.62
   5   1   1 2443.18   85.79
   5   1   1 2076.63   75.74
   5   1   1 2464.31   84.55
  -5  -1  -1 2467.28   82.20
  -5  -1  -1 2339.80   86.08
   5   1   2   39.90   13.68
   5   1   2    1.13    8.31
   5   1   2  -18.60   12.67
  -5  -1  -2   74.00   16.01
  -5  -1  -2   63.07   10.81
   5   1   3 2583.92   89.18
   5   1   3 2644.83   92.18
  -5  -1  -3 2701.18   99.21
  -5  -1  -3 2398.36   98.20
  -5  -1  -3 2823.97   93.62
   5   1   4 2914.56  110.78
   5   1   4 3430.81  131.17
   5   1   4 2976.98  100.13
  -5  -1  -4 3063.02  113.02
  -5  -1  -4 2925.64  100.73
   5   1   5 3976.94  135.40
   5   1   5 4163.25  147.98
  -5  -1  -5 3779.72  145.87
  -5  -1  -5 3677.53  129.08
   5   1   6  339.54   24.32
   5   1   6  503.38   39.93
  -5  -1  -6  424.79   26.10
   5   1   7 1938.59   77.77
   5   1   7 2117.21   91.35
  -5  -1  -7 2492.33  117.47
  -5  -1  -7 1921.98   77.51
   5   1   8  557.35   27.32
   5   1   8  502.36   47.46
  -5  -1  -8  433.13   34.19
  -5  -1  -8  621.30   37.39
   5   1   9  322.90   21.60
   5   1   9  214.82   32.55
  -5  -1  -9  211.68   27.47
  -5  -1  -9  271.74   26.45
   5   1  10  151.49   34.30
  -5  -1 -10  129.63   32.61
   5   1  11 2773.15  109.08
  -5  -1 -11 2222.94  103.23
  -5  -1 -11 2548.85   96.60
   5   1  13 1779.28   83.73
  -5  -1 -13 1345.17   76.54
  -5  -1 -13 1430.36   75.32
   5   1  14  431.87   46.69
  -5  -1 -14  175.63   32.70
  -5  -1 -14  308.13   34.64
   5   2   0 6961.23  219.35
   5   2   0 6458.79  212.17
   5   2   0 6965.98  232.31
  -5  -2   0 7198.68  240.61
  -5  -2   0 7246.23  249.14
  -5  -2   0 6818.94  210.90
   5   2   1 4796.25  172.70
   5   2   1 4899.61  164.36
  -5  -2  -1 4960.39  160.04
  -5  -2  -1 5133.08  190.31
   5   2   2 6582.44  218.43
   5   2   2 6270.92  207.11
  -5  -2  -2 6409.98  219.69
  -5  -2  -2 6693.36  241.07
  -5  -2  -2 6331.32  203.38
   5   2   3   40.00   17.10
   5   2   3   21.35   11.91
  -5  -2  -3   26.34   17.56
  -5  -2  -3   91.48   20.71
  -5  -2  -3   81.62   13.22
   5   2   4 1188.41   52.44
   5   2   4 1389.71   61.51
   5   2   4 1328.40   46.95
  -5  -2  -4 1280.53   54.55
  -5  -2  -4 1436.03   48.96
   5   2   5 1088.93   47.94
   5   2   5 1133.20   61.02
  -5  -2  -5 1243.05   55.04
  -5  -2  -5 1100.31   45.78
   5   2   6  596.13   34.37
   5   2   6  397.71   45.85
  -5  -2  -6  452.65   34.63
  -5  -2  -6  604.03   30.95
   5   2   7 1095.40   51.25
   5   2   7 1186.17   63.86
  -5  -2  -7 1066.40   49.57
  -5  -2  -7 1114.07   52.00
   5   2   8  266.31   24.60
   5   2   8  237.03   39.91
  -5  -2  -8  280.76   23.30
  -5  -2  -8  320.08   31.43
   5   2   9  477.51   31.24
   5   2   9  617.23   49.52
  -5  -2  -9  591.88   36.90
  -5  -2  -9  645.80   40.15
   5   2  10 1617.78   78.76
  -5  -2 -10 1343.53   66.85
  -5  -2 -10 1259.84   62.14
  -5  -2 -11  -13.59   21.83
   5   2  12  974.05   74.29
  -5  -2 -12 1203.03   59.67
  -5  -2 -12 1193.42   55.82
   5   2  13   80.39   33.74
  -5  -2 -13  145.48   29.28
   5   3   0 3110.11   98.97
   5   3   0 2686.79  106.38
  -5  -3   0 2858.54  110.77
  -5  -3   0 2777.84  105.89
   5   3   1  778.46   37.50
   5   3   1  689.71   35.55
  -5  -3  -1  731.96   39.65
  -5  -3  -1  765.99   47.81
   5   3   2  467.30   36.43
   5   3   2  458.42   24.11
  -5  -3  -2  377.70   30.54
  -5  -3  -2  574.54   37.28
  -5  -3  -2  535.85   23.35
   5   3   3 1867.63   72.25
   5   3   3 1854.44   67.39
  -5  -3  -3 2024.91   80.38
  -5  -3  -3 1888.50   70.80
   5   3   4  145.76   26.90
  -5  -3  -4  148.31   28.73
  -5  -3  -4   68.16   14.26
   5   3   5 6261.53  201.02
   5   3   5 6037.27  206.74
  -5  -3  -5 5948.12  209.68
  -5  -3  -5 5702.54  195.75
   5   3   6  195.31   26.61
   5   3   6  124.88   28.19
   5   3   7 6492.26  230.73
   5   3   7 6419.58  222.59
  -5  -3  -7 7106.85  237.29
  -5  -3  -7 5814.05  217.29
   5   3   8  107.22   22.18
  -5  -3  -8  111.05   21.18
   5   3   9 2076.10   78.05
  -5  -3  -9 2168.37   91.55
  -5  -3  -9 1850.92   76.69
   5   3  10  290.49   40.01
  -5  -3 -10  238.61   33.31
  -5  -3 -10  275.42   30.93
   5   3  11  106.70   30.41
  -5  -3 -11   98.43   26.98
  -5  -3 -11   60.34   28.93
   5   3  12   16.41   32.76
   5   4   0  443.26   30.17
   5   4   0  425.48   28.70
  -5  -4   0  567.19   32.99
  -5  -4   0  450.48   35.47
   5   4   1 1694.09   71.15
   5   4   1 1465.06   60.78
  -5  -4  -1 1470.86   67.68
  -5  -4  -1 1616.47   68.56
   5   4   2   26.09   14.34
  -5  -4  -2  100.12   20.80
   5   4   3  214.21   31.43
  -5  -4  -3  363.44   33.64
   5   4   4  558.57   37.30
   5   4   4  520.12   41.18
  -5  -4  -4  439.30   33.36
   5   4   5  117.78   29.33
   5   4   5  234.21   40.54
  -5  -4  -5  189.58   32.16
   5   4   6  620.97   39.07
   5   4   6  543.90   41.73
   5   4   7  199.75   21.84
   5   4   7  196.35   31.74
  -5  -4  -7  127.13   26.57
   5   4   8  215.62   27.29
   5   4   8  265.43   38.17
  -5  -4  -8  156.22   30.68
   5   4   9  575.05   39.70
   5   4   9  564.59   50.66
  -5  -4  -9  716.46   44.21
   5   4  10  331.03   39.04
  -5  -4 -10  194.23   36.66
   5   5   0 1302.23   62.97
   5   5   0 1320.15   62.65
  -5  -5   0 1647.67   63.29
  -5  -5   0 1361.08   69.07
   5   5   1 5076.07  178.61
   5   5   1 4819.36  179.57
  -5  -5  -1 5308.33  177.27
  -5  -5  -1 5171.41  180.71
   5   5   2  150.21   33.62
  -5  -5  -2   85.13   26.15
  -5  -5  -2  142.47   24.95
   5   5   3 1871.64   85.70
   5   5   3 2157.78   85.69
  -5  -5  -3 1768.24   79.84
   5   5   4   92.27   30.60
   5   5   5   -7.76   28.14
   5   5   5  -43.90   32.29
  -5  -5  -5   16.48   32.89
   5   5   6  216.13   30.46
   5   5   6  213.54   37.70
  -5  -5  -6  161.82   36.86
   5   5   7  104.01   31.71
   5   5   7  268.45   46.03
   5   5   8  269.87   38.62
   5   5   8  325.48   52.33
  -5  -5  -8  381.20   38.15
   5   6   0  -72.07   30.13
   5   6   0   63.55   20.72
  -5  -6   0   83.86   22.21
  -5  -6   0   30.92   25.29
   5   6   1 1529.70   75.43
  -5  -6  -1 1293.99   64.31
  -5  -6  -1 1444.92   67.80
   5   6   3  515.67   48.83
   5   6   3  639.53   51.91
  -5  -6  -3  522.48   43.62
   5   6   4 1126.26   60.80
   5   6   4 1204.12   67.84
  -5  -6  -4  968.56   52.95
   5   6   5  290.87   38.97
   5   6   5  384.26   39.18
  -5  -6  -5  160.15   29.65
   5   6   6 1801.40   84.31
   5   6   6 1610.72   94.14
  -5  -6  -6 1801.04   84.44
   5   7   0  420.83   48.42
  -5  -7   0  432.29   37.53
  -5  -7   0  373.22   35.73
  -5  -7  -1   99.51   22.93
  -5  -7  -2   36.70   23.18
   6 -10   1   66.49   27.07
   6 -10   1   88.09   37.20
   6 -10   1  -14.73   27.99
  -6  10  -1   27.76   21.84
   6 -10   2   16.03   33.13
   6 -10   2  -19.78   30.40
  -6  10  -2  140.83   29.66
  -6  10  -2   75.67   25.49
   6 -10   3  138.82   30.25
  -6  10  -3   53.86   20.50
  -6  10  -3   30.99   25.17
   6 -10   4  328.25   30.22
   6 -10   4  185.43   29.76
  -6  10  -4  302.22   32.29
   6 -10   5  163.01   29.66
   6 -10   5  420.12   42.78
  -6  10  -5  198.66   31.92
  -6  10  -5  248.21   38.87
   6 -10   6  351.47   34.52
   6 -10   6  180.96   35.37
  -6  10  -6  295.02   38.77
  -6  10  -6  311.53   33.35
  -6  10  -7   11.57   23.40
   6  -9   1 3927.10  151.98
   6  -9   1 3545.39  144.05
  -6   9  -1 3747.42  130.03
  -6   9  -1 3359.28  148.34
  -6   9  -1 3474.20  138.00
   6  -9   2  990.72   57.04
  -6   9  -2 1126.64   52.17
  -6   9  -2 1342.51   63.52
   6  -9   3  911.27   51.34
   6  -9   3 1100.38   58.88
  -6   9  -3  792.72   44.53
  -6   9  -3 1048.00   52.39
  -6   9  -3  856.93   45.63
   6  -9   4  766.43   65.20
  -6   9  -4 1049.24   52.86
  -6   9  -4 1019.94   56.03
   6  -9   5  232.80   37.98
   6  -9   5   65.79   37.58
  -6   9  -5  150.31   30.48
  -6   9  -5  238.68   30.14
   6  -9   6  261.15   36.07
   6  -9   6  161.88   33.04
  -6   9  -6  377.87   31.97
   6  -9   7  181.21   38.20
   6  -9   7    9.81   36.85
  -6   9  -7   31.36   23.72
   6  -9   8   49.62   27.30
   6  -9   8  175.33   36.27
  -6   9  -8  207.72   32.04
   6  -9   9  246.44   27.66
   6  -9   9  279.77   40.72
  -6   9  -9  288.12   36.17
   6  -8   1  104.33   28.10
   6  -8   1  131.94   23.09
  -6   8  -1   50.26   20.29
  -6   8  -1   14.68   20.59
  -6   8  -1   40.54   23.62
   6  -8   2   61.52   26.62
   6  -8   2   93.64   24.75
  -6   8  -2  129.82   21.08
   6  -8   3  230.08   32.35
   6  -8   3  218.60   32.40
  -6   8  -3  242.39   21.41
  -6   8  -3  286.01   30.61
  -6   8  -3  235.08   29.21
   6  -8   4 5485.18  196.15
   6  -8   4 5709.78  208.12
  -6   8  -4 6282.48  220.23
  -6   8  -4 5273.38  196.52
   6  -8   5  404.02   34.93
  -6   8  -5  237.90   29.76
  -6   8  -5  338.96   33.24
   6  -8   6 4950.40  198.94
   6  -8   6 4648.67  174.99
  -6   8  -6 4919.85  179.86
  -6   8  -6 5424.96  198.31
   6  -8   7 1614.09   86.64
   6  -8   7 1673.91   78.79
  -6   8  -7 1725.68   78.61
  -6   8  -7 1772.01   86.36
   6  -8   8  760.11   62.78
   6  -8   8  823.05   56.09
  -6   8  -8  660.18   47.03
   6  -8   9 3626.80  148.56
   6  -8   9 3800.01  132.43
  -6   8  -9 3354.78  133.04
  -6   8  -9 3010.80  132.67
   6  -8  10    6.42   33.02
   6  -8  11  254.02   38.48
   6  -8  11  112.08   38.17
  -6   8 -11  214.19   29.63
   6  -7   1 1453.95   59.03
   6  -7   1 1218.14   62.28
  -6   7  -1 1225.12   57.93
  -6   7  -1 1374.05   53.41
  -6   7  -1 1200.66   57.38
   6  -7   2  248.35   29.48
   6  -7   2  277.50   35.58
  -6   7  -2  173.37   20.80
  -6   7  -2  201.51   29.54
   6  -7   3  120.31   28.96
   6  -7   3   -9.95   30.73
  -6   7  -3  -47.54   16.80
  -6   7  -3   18.16   22.02
   6  -7   4  710.07   43.65
  -6   7  -4  699.80   38.14
   6  -7   7   80.12   33.22
   6  -7   7   19.66   23.96
  -6   7  -7    2.86   25.28
  -6   7  -7   89.96   21.25
   6  -7   8   50.99   35.34
   6  -7   8  -42.65   27.84
  -6   7  -8   33.01   28.69
  -6   7  -8   84.93   21.59
   6  -7   9  137.70   33.44
  -6   7  -9  146.84   37.39
  -6   7  -9   49.57   19.92
   6  -7  10 2348.25  112.45
  -6   7 -10 2163.12   94.30
  -6   7 -10 2111.61   96.52
   6  -7  11 2304.96  115.02
  -6   7 -11 2257.25   96.71
  -6   7 -11 2166.55   99.30
   6  -7  12 2404.98  128.47
  -6   7 -12 2551.88  112.93
  -6   7 -12 2498.97  124.25
   6  -6   1 1225.89   50.00
   6  -6   1 1006.04   53.70
  -6   6  -1 1117.22   50.64
  -6   6  -1 1004.24   50.72
  -6   6  -1 1347.65   59.77
   6  -6   2 5325.01  191.39
   6  -6   2 5573.42  192.45
  -6   6  -2 5461.15  183.15
  -6   6  -2 5249.28  186.01
  -6   6  -2 5357.64  183.36
   6  -6   3 2913.47  109.30
   6  -6   3 2655.39  105.33
  -6   6  -3 2831.49  100.66
  -6   6  -3 2829.87   98.70
  -6   6  -3 2611.40  108.27
   6  -6   4    2.54   28.97
   6  -6   4   16.18   23.47
  -6   6  -4    8.69   11.41
  -6   6  -4  -27.43   19.66
   6  -6   5  511.09   38.93
   6  -6   5  443.73   34.56
  -6   6  -5  469.87   23.96
   6  -6   6 1232.44   57.67
   6  -6   6  959.33   54.78
  -6   6  -6  872.64   48.19
  -6   6  -6  993.17   46.84
   6  -6   7   33.23   33.56
  -6   6  -7   66.65   20.16
  -6   6  -7   18.93   19.32
   6  -6   8  866.38   55.05
  -6   6  -8  576.55   38.78
  -6   6  -8  576.29   38.39
  -6   6  -8  774.68   38.81
  -6   6  -9  199.51   28.52
  -6   6  -9   71.03   27.09
   6  -6  10  122.19   30.77
  -6   6 -10  124.91   18.87
  -6   6 -10  106.91   24.63
   6  -6  11  -17.40   29.31
  -6   6 -11   20.53   32.81
   6  -6  12  332.54   36.74
  -6   6 -12  117.03   31.30
   6  -6  13  -20.91   38.58
  -6   6 -13   43.87   22.17
  -6   6 -13  116.17   48.45
   6  -5   1   56.53   22.68
   6  -5   1   -4.39   12.45
  -6   5  -1   92.73   15.48
   6  -5   2 2320.63   89.54
   6  -5   2 2107.77   78.17
   6  -5   2 2390.48   86.58
  -6   5  -2 2223.66   79.89
  -6   5  -2 2473.83   89.48
  -6   5  -2 2125.79   80.39
   6  -5   3 2843.31  106.47
   6  -5   3 2469.38   95.68
   6  -5   3 2923.55  113.64
  -6   5  -3 2900.66  102.07
  -6   5  -3 3069.60  108.19
  -6   5  -3 3141.09  112.01
   6  -5   4 1312.73   62.26
   6  -5   4 1228.39   54.28
   6  -5   4 1333.66   59.25
  -6   5  -4 1314.15   50.14
  -6   5  -4 1297.56   57.93
  -6   5  -4 1211.70   54.49
   6  -5   5 3998.18  137.73
   6  -5   5 4400.19  160.37
   6  -5   5 4124.48  146.93
  -6   5  -5 4373.70  156.30
  -6   5  -5 4406.72  150.90
  -6   5  -5 4427.01  153.59
   6  -5   6 7092.66  244.54
   6  -5   6 6596.15  236.97
  -6   5  -6 7080.65  231.94
  -6   5  -6 7156.95  240.63
  -6   5  -6 6962.65  238.05
   6  -5   7 3472.82  135.26
   6  -5   7 3150.36  118.95
  -6   5  -7 3132.34  120.04
  -6   5  -7 3126.76  124.67
  -6   5  -7 3596.86  121.52
   6  -5   8 7764.41  271.75
   6  -5   8 6998.45  263.27
  -6   5  -8 7230.04  257.91
  -6   5  -8 7296.25  238.52
  -6   5  -8 7222.34  247.74
   6  -5   9  155.86   33.85
  -6   5  -9   84.33   26.85
   6  -5  10 1985.63  101.38
   6  -5  10 1813.82   85.07
  -6   5 -10 1761.24   73.69
  -6   5 -10 2111.92   91.81
   6  -5  11  668.07   48.36
  -6   5 -11  663.26   40.43
  -6   5 -11  767.31   49.51
   6  -5  12   86.90   27.05
   6  -5  12   12.62   27.71
  -6   5 -12  -49.41   19.23
  -6   5 -12   97.79   35.57
   6  -5  13  -44.48   33.34
   6  -5  13   -2.65   28.47
  -6   5 -13  -25.19   26.25
   6  -5  14   44.21   40.83
  -6   5 -14   51.99   21.55
   6  -4   1   26.69   18.84
   6  -4   1   95.09   16.65
   6  -4   1   20.23   16.58
  -6   4  -1   49.58   15.51
   6  -4   2 6177.72  210.88
   6  -4   2 6270.52  204.59
   6  -4   2 5856.23  199.57
  -6   4  -2 6221.20  213.01
  -6   4  -2 6141.73  203.67
  -6   4  -2 6304.67  215.56
   6  -4   3 6846.95  252.20
   6  -4   3 7530.47  245.83
   6  -4   3 7381.62  239.18
  -6   4  -3 7022.33  241.58
  -6   4  -3 7539.45  248.27
   6  -4   4  665.04   32.27
   6  -4   4  530.73   35.25
   6  -4   4  599.36   34.28
  -6   4  -4  672.41   35.08
  -6   4  -4  695.77   31.40
  -6   4  -4  614.80   31.76
   6  -4   5  734.51   27.74
   6  -4   5  797.46   46.98
   6  -4   5  639.36   38.85
  -6   4  -5  807.46   38.48
  -6   4  -5  775.65   36.84
  -6   4  -5  625.79   32.29
   6  -4   6  750.26   48.28
   6  -4   6  740.90   40.63
  -6   4  -6  670.62   33.55
  -6   4  -6  717.55   34.39
  -6   4  -6  736.36   32.70
   6  -4   7  458.13   40.02
   6  -4   7  492.50   36.22
  -6   4  -7  574.74   31.83
  -6   4  -7  615.73   37.02
  -6   4  -7  563.15   26.05
   6  -4   8  104.56   32.31
   6  -4   8   65.57   27.72
  -6   4  -8  -15.97   18.57
   6  -4   9  797.74   53.89
   6  -4   9  589.73   48.67
  -6   4  -9  563.39   33.68
  -6   4  -9  755.89   44.64
   6  -4  10  125.54   33.66
   6  -4  10  224.94   36.02
  -6   4 -10   90.39   25.13
  -6   4 -10   84.14   36.97
   6  -4  11 5146.69  195.46
   6  -4  11 4939.43  186.75
  -6   4 -11 4682.56  178.47
  -6   4 -11 5230.29  180.35
   6  -4  12  105.57   33.86
   6  -4  12   87.05   31.10
  -6   4 -12   85.35   22.77
  -6   4 -12   46.04   36.90
   6  -4  13 3176.89  139.11
   6  -4  13 3379.71  147.19
  -6   4 -13 3869.50  136.35
   6  -4  14  347.67   48.05
   6  -4  14  333.31   42.52
  -6   4 -14  374.22   33.94
   6  -3   1 9348.06  300.97
   6  -3   1 8908.85  301.60
   6  -3   1 9510.60  303.61
   6  -3   1 9205.62  302.68
   6  -3   1 9219.53  297.52
   6  -3   1 9268.86  302.62
   6  -3   2 6647.13  227.58
   6  -3   2 6690.30  211.16
   6  -3   2 6664.56  217.21
   6  -3   2 6410.63  221.29
   6  -3   2 6343.99  211.18
   6  -3   2 6739.16  227.35
   6  -3   3  343.45   22.22
   6  -3   3  443.90   26.70
   6  -3   3  446.73   27.74
  -6   3  -3  362.35   22.02
   6  -3   4  762.45   34.63
   6  -3   4  904.29   45.79
   6  -3   4  828.83   37.00
  -6   3  -4  901.32   38.16
  -6   3  -4  826.33   37.38
   6  -3   5 1492.82   59.27
   6  -3   5 1691.02   68.79
   6  -3   5 1514.61   58.10
  -6   3  -5 1566.70   58.59
  -6   3  -5 1652.22   69.94
  -6   3  -5 1459.96   61.16
   6  -3   6 2036.44   72.62
   6  -3   6 1984.87   78.89
   6  -3   6 1898.29   69.29
  -6   3  -6 2042.83   73.29
  -6   3  -6 1715.83   81.44
  -6   3  -6 1982.05   74.74
   6  -3   7 1186.70   58.47
  -6   3  -7  994.81   46.38
  -6   3  -7 1083.26   54.38
  -6   3  -7  950.68   48.20
   6  -3   8 3105.43  121.87
  -6   3  -8 2794.87  116.94
  -6   3  -8 3085.31  118.62
  -6   3  -8 2871.70  114.63
   6  -3   9  -27.03   29.43
  -6   3  -9   85.11   20.05
  -6   3  -9   20.67   27.98
   6  -3  10  880.84   49.17
  -6   3 -10  862.32   38.96
  -6   3 -10  680.11   45.65
  -6   3 -10  978.19   50.21
   6  -3  11  312.26   39.42
  -6   3 -11  438.13   38.30
  -6   3 -11  520.75   42.58
   6  -3  12  292.71   38.99
  -6   3 -12  287.75   41.19
  -6   3 -12  217.91   36.91
   6  -3  13   60.67   34.95
  -6   3 -13   72.30   37.77
   6  -3  14  243.37   44.09
  -6   3 -14   92.94   28.79
   6  -2   1 4888.04  159.27
   6  -2   1 4673.00  150.25
   6  -2   1 4401.33  155.54
   6  -2   1 4624.36  157.54
  -6   2  -1 4507.54  161.80
  -6   2  -1 4388.36  152.68
   6  -2   2  183.53   16.63
   6  -2   2  241.94   18.39
   6  -2   2  143.43   21.74
   6  -2   2  120.34   17.75
  -6   2  -2  126.37   20.05
   6  -2   3 2594.00   95.63
   6  -2   3 2790.07   96.76
   6  -2   3 2812.41  103.51
   6  -2   3 2621.69   91.20
  -6   2  -3 2711.92   94.76
   6  -2   4  405.04   20.79
   6  -2   4  317.85   30.33
   6  -2   4  332.87   20.46
  -6   2  -4  392.26   19.87
  -6   2  -4  419.73   23.07
  -6   2  -4  326.66   24.51
   6  -2   5 5232.36  187.23
   6  -2   5 5474.70  191.85
   6  -2   5 5477.99  175.90
  -6   2  -5 5325.98  180.03
  -6   2  -5 5577.91  185.05
  -6   2  -5 5551.44  180.63
   6  -2   6  721.01   35.32
   6  -2   6  602.54   42.58
  -6   2  -6  764.10   30.58
  -6   2  -6  514.50   40.37
  -6   2  -6  788.44   40.96
   6  -2   7 6921.41  228.90
  -6   2  -7 6633.11  220.78
  -6   2  -7 6263.26  234.78
  -6   2  -7 6524.96  213.63
   6  -2   8   88.74   24.00
  -6   2  -8  113.60   15.31
   6  -2   9 3752.00  149.08
  -6   2  -9 3330.42  136.35
  -6   2  -9 3724.63  133.40
   6  -2  10  188.16   37.35
  -6   2 -10   56.33   20.66
  -6   2 -10   93.03   27.07
   6  -2  11  -57.12   30.96
  -6   2 -11   61.51   20.88
  -6   2 -12   12.70   26.86
  -6   2 -13  673.73   44.14
  -6   2 -13  684.74   45.30
   6  -2  14  235.65   50.26
  -6   2 -14  218.19   41.09
  -6   2 -14   62.86   24.55
   6  -1   1 3801.03  147.10
   6  -1   1 3700.49  129.27
   6  -1   1 4143.61  143.99
  -6   1  -1 3924.08  140.25
  -6   1  -1 4233.33  148.86
  -6   1  -1 3820.72  130.38
   6  -1   2 8147.78  280.48
   6  -1   2 8511.06  268.94
   6  -1   2 8486.24  277.18
  -6   1  -2 8316.08  286.83
  -6   1  -2 8333.77  287.77
  -6   1  -2 9009.26  268.82
   6  -1   3 1207.56   47.00
   6  -1   3 1092.28   43.32
   6  -1   3 1204.86   57.98
   6  -1   3 1251.37   46.31
  -6   1  -3 1105.76   47.51
  -6   1  -3 1205.61   48.45
   6  -1   410582.48  325.41
   6  -1   410187.90  318.35
   6  -1   4 9504.21  333.83
   6  -1   410230.45  319.03
  -6   1  -4 9888.88  328.88
  -6   1  -4 9937.16  324.99
   6  -1   5   78.59   13.55
   6  -1   5   80.86   10.61
  -6   1  -5   51.08   23.18
   6  -1   6  174.63   17.53
   6  -1   6  144.84   35.33
  -6   1  -6  200.77   27.37
  -6   1  -6  179.92   23.40
   6  -1   7 1342.90   53.77
   6  -1   7 1311.43   66.59
   6  -1   8  312.68   32.15
  -6   1  -8  195.24   30.20
  -6   1  -8  250.99   22.07
  -6   1  -9  185.07   25.65
   6  -1  10 1098.44   73.90
  -6   1 -10 1300.78   61.77
  -6   1 -10 1310.64   54.31
   6  -1  11    4.99   40.86
  -6   1 -11  145.77   37.31
  -6   1 -11  186.35   30.64
   6  -1  12 1647.96   91.14
  -6   1 -12 1947.22   86.34
  -6   1 -12 1937.77   87.08
   6  -1  13  857.09   58.56
  -6   1 -13  870.03   56.78
  -6   1 -13  645.41   43.27
  -6   1 -14 1174.64   63.20
  -6   1 -14 1094.30   65.91
   6   0   0 1447.92   65.66
   6   0   0 1352.99   48.83
   6   0   0 1539.22   49.79
   6   0   0 1301.65   48.15
   6   0   0 1605.60   49.22
   6   0   0 1569.85   60.85
  -6   0   0 1621.85   59.88
   6   0   1 2038.27   80.29
   6   0   1 2137.79   68.04
   6   0   1 2145.37   76.35
  -6   0  -1 2061.00   76.47
  -6   0  -1 1920.84   78.14
  -6   0  -1 2207.85   70.04
   6   0   2 2041.86   77.06
   6   0   2 2321.02   81.56
  -6   0  -2 2094.28   79.00
  -6   0  -2 2239.94   82.70
  -6   0  -2 2121.07   76.27
   6   0   3 1088.57   48.49
   6   0   3  952.82   45.74
   6   0   3  869.06   36.37
  -6   0  -3  964.41   43.98
  -6   0  -3  877.70   36.49
   6   0   4  944.04   42.07
   6   0   4  943.93   51.17
   6   0   4  783.57   32.86
  -6   0  -4  859.56   42.36
  -6   0  -4  963.66   36.25
   6   0   5 1283.21   53.42
   6   0   5 1339.12   56.57
  -6   0  -5 1274.78   56.92
  -6   0  -5 1210.60   51.25
   6   0   6  689.07   48.25
  -6   0  -6 1065.84   50.44
  -6   0  -6  900.04   40.20
   6   0   7 2738.61  100.39
   6   0   7 2896.78  113.18
  -6   0  -7 2764.40  110.48
  -6   0  -7 2626.15  100.27
   6   0   8  255.03   39.85
  -6   0  -8  357.13   34.93
   6   0   9 4720.60  158.12
  -6   0  -9 4338.58  162.75
  -6   0  -9 4112.62  155.25
   6   0  10  274.18   37.60
  -6   0 -10  358.44   30.33
  -6   0 -10  389.60   34.98
   6   0  11 1801.22   87.78
  -6   0 -11 1699.22   72.61
  -6   0 -11 1500.06   77.51
   6   0  12  153.90   46.82
  -6   0 -12   53.56   32.14
  -6   0 -12  -52.03   23.65
  -6   0 -13  189.00   40.26
  -6   0 -13   55.83   27.95
   6   1   0 2425.34   85.38
   6   1   0 2089.34   77.56
  -6  -1   0 2014.69   83.54
  -6  -1   0 1795.23   78.00
   6   1   1 1120.10   53.60
   6   1   1  829.10   38.72
  -6  -1  -1  988.33   50.67
  -6  -1  -1 1045.54   32.87
   6   1   2  313.35   23.63
   6   1   2  259.21   17.51
  -6  -1  -2  242.58   26.32
  -6  -1  -2  264.54   31.88
  -6  -1  -2  265.20   13.92
   6   1   3  754.51   31.91
   6   1   3  588.95   27.55
  -6  -1  -3  566.74   34.72
  -6  -1  -3  660.29   25.89
   6   1   4   46.41   21.94
   6   1   4  110.62   31.33
  -6  -1  -4  112.97   23.30
  -6  -1  -4  103.19   14.15
   6   1   5    1.46   14.87
  -6  -1  -5   19.82   14.41
   6   1   6 2439.00   90.66
   6   1   6 2347.70   96.83
  -6  -1  -6 2034.17   87.75
  -6  -1  -6 1982.84   76.13
   6   1   7   15.05   18.70
   6   1   7  -75.90   36.06
  -6  -1  -7  -49.57   26.18
   6   1   8 3642.55  134.01
  -6  -1  -8 3630.31  127.54
  -6  -1  -8 3269.73  124.47
   6   1   9  478.96   40.91
  -6  -1  -9  310.31   32.52
  -6  -1  -9  251.39   25.53
   6   1  10  524.00   48.91
  -6  -1 -10  288.32   31.18
  -6  -1 -10  344.57   28.17
  -6  -1 -11  130.84   38.57
  -6  -1 -11    2.61   25.90
   6   1  12  332.12   44.86
   6   2   0  453.22   31.08
   6   2   0  467.01   26.84
  -6  -2   0  406.51   28.97
  -6  -2   0  573.18   30.16
   6   2   110029.10  331.88
   6   2   110270.57  329.94
  -6  -2  -110010.95  326.85
  -6  -2  -110304.20  324.51
   6   2   2  861.20   40.94
   6   2   2  671.10   31.68
  -6  -2  -2  799.01   40.54
  -6  -2  -2  653.95   33.30
   6   2   3 7415.45  249.24
  -6  -2  -3 7448.30  261.84
   6   2   4   55.08   21.40
   6   2   4   77.77   24.69
  -6  -2  -4  104.00   21.36
   6   2   5 2340.96   97.65
   6   2   5 2635.89  110.99
  -6  -2  -5 2667.04  104.10
   6   2   6  306.36   25.68
   6   2   6  206.64   33.98
   6   2   7   84.12   23.73
   6   2   8   32.21   36.90
  -6  -2  -8  -17.19   27.81
   6   2   9  -24.22   35.61
  -6  -2  -9  147.29   31.50
   6   2  10   36.11   28.75
  -6  -2 -10   57.99   31.48
   6   2  11  217.76   46.22
  -6  -2 -11  298.24   46.24
   6   3   0 1000.92   51.83
   6   3   0 1225.06   53.93
  -6  -3   0 1245.86   50.52
  -6  -3   0 1043.71   52.88
   6   3   1  997.58   48.28
   6   3   1  884.41   42.99
  -6  -3  -1 1011.66   47.52
  -6  -3  -1  739.47   46.56
   6   3   2  746.71   42.74
  -6  -3  -2  912.78   51.45
  -6  -3  -2  940.27   47.93
   6   3   3  276.17   34.39
   6   3   3  209.50   33.57
  -6  -3  -3  116.79   23.27
   6   3   4   30.42   27.63
  -6  -3  -4   83.22   26.79
   6   3   5  375.45   30.87
   6   3   5  453.35   44.74
  -6  -3  -5  314.84   40.72
   6   3   6 1264.27   58.31
   6   3   6 1287.68   72.12
  -6  -3  -6 1179.02   64.10
   6   3   7  414.00   44.52
  -6  -3  -7  243.30   35.98
   6   3   8 1700.87   73.73
  -6  -3  -8 1604.10   77.77
   6   3   9  857.89   60.53
  -6  -3  -9  908.89   52.76
  -6  -3 -10 1718.78   81.67
   6   4   0  119.99   29.23
   6   4   0    3.13   16.98
  -6  -4   0    0.67   21.32
  -6  -4   0  -54.05   30.44
   6   4   1   56.65   29.36
  -6  -4  -1  -66.64   26.37
   6   4   2  233.34   31.34
  -6  -4  -2  134.86   21.76
  -6  -4  -2   96.54   24.42
   6   4   3   50.57   32.36
   6   4   3  -28.35   37.80
  -6  -4  -3  143.97   25.69
   6   4   4  -25.09   28.02
   6   4   4  231.35   44.51
  -6  -4  -4   83.06   23.11
   6   4   5  -43.05   26.60
   6   4   6   57.40   21.28
   6   4   6  133.76   34.70
  -6  -4  -6   15.10   22.72
   6   4   7  112.32   28.23
   6   4   7  403.69   42.69
  -6  -4  -7  239.96   31.79
   6   4   8  154.14   27.51
   6   5   0 1748.37   78.70
  -6  -5   0 1680.93   74.61
  -6  -5   0 1662.75   76.04
   6   5   1  231.79   40.17
  -6  -5  -1  200.18   29.48
   6   5   2 4133.97  145.51
  -6  -5  -2 3899.80  150.55
   6   5   3   -9.90   25.04
   6   5   3   94.61   41.50
  -6  -5  -3  -19.00   28.60
   6   5   4 2565.15  106.67
   6   5   4 2782.06  115.98
  -6  -5  -4 2402.42  109.27
   6   5   5  202.78   31.98
  -6  -5  -5  238.40   40.46
   6   6   0   32.41   30.62
  -6  -6   0  -16.34   24.00
   6   6   1  103.96   29.50
  -6  -6  -1  217.45   28.72
   7 -10   1  122.94   31.57
  -7  10  -1   55.50   31.73
   7 -10   2   97.58   30.96
   7 -10   2  -14.44   31.87
   7 -10   2  -20.23   28.45
  -7  10  -2   90.37   22.78
   7 -10   3  120.40   30.84
   7 -10   3   69.71   30.31
  -7  10  -3  124.02   27.97
  -7  10  -3  253.78   35.35
   7 -10   4   82.72   21.85
   7 -10   4   51.46   28.71
  -7  10  -4   23.40   27.45
   7  -9   1  125.93   26.35
   7  -9   1  251.16   31.37
  -7   9  -1  204.36   21.11
  -7   9  -1  307.84   35.39
   7  -9   2 3717.85  155.22
   7  -9   2 3799.90  156.11
  -7   9  -2 4465.60  164.36
  -7   9  -2 3799.44  144.85
   7  -9   3 2114.10   92.78
   7  -9   3 2023.71   92.05
  -7   9  -3 2395.22   98.63
  -7   9  -3 1833.05   89.73
   7  -9   4 1146.86   65.87
   7  -9   4  973.67   58.71
  -7   9  -4 1054.34   56.86
  -7   9  -4 1198.05   61.14
   7  -9   5 1642.22   85.46
   7  -9   5 1681.19   87.46
  -7   9  -5 1446.38   89.12
  -7   9  -5 1856.15   82.86
   7  -9   6   69.59   37.85
   7  -9   6   94.91   28.48
  -7   9  -6   97.21   31.25
   7  -9   7  417.28   41.06
   7  -9   7  268.92   41.17
  -7   9  -7  154.81   29.74
  -7   9  -7  234.20   26.44
   7  -8   1  209.97   31.47
   7  -8   1   28.85   21.85
   7  -8   1  189.50   39.66
  -7   8  -1   32.83   23.40
  -7   8  -1  110.07   25.25
   7  -8   2  171.08   28.16
   7  -8   2  211.05   27.92
  -7   8  -2  108.76   18.53
  -7   8  -2  107.60   23.02
  -7   8  -2   -1.93   28.12
   7  -8   3  -39.78   26.92
  -7   8  -3  -79.33   24.40
   7  -8   4   -0.27   28.36
   7  -8   4  121.44   41.17
  -7   8  -4  189.07   31.51
   7  -8   5 1550.94   88.49
   7  -8   5 1593.77   81.60
  -7   8  -5 1742.09   78.80
  -7   8  -5 1757.40   77.25
   7  -8   6 1624.86   95.63
   7  -8   6 1155.67   63.73
  -7   8  -6 1593.47   70.58
  -7   8  -6 1131.09   64.25
   7  -8   7 2141.25  101.10
   7  -8   7 1891.53   88.44
  -7   8  -7 1686.49   89.98
   7  -8   8 2676.70  128.65
   7  -8   8 2927.29  116.45
  -7   8  -8 3141.56  125.99
   7  -8   9   96.04   39.62
  -7   8  -9  196.45   28.53
   7  -7   1  372.97   34.10
   7  -7   1  242.63   31.44
  -7   7  -1  222.41   29.04
   7  -7   2 1258.91   60.25
   7  -7   2 1329.24   60.29
  -7   7  -2 1084.25   46.85
  -7   7  -2 1087.96   51.83
  -7   7  -2 1093.02   55.88
   7  -7   3  424.71   31.41
   7  -7   3  508.07   40.80
  -7   7  -3  412.08   23.70
  -7   7  -3  368.34   33.79
  -7   7  -3  501.79   35.92
   7  -7   4  185.39   26.68
   7  -7   4  253.13   32.61
  -7   7  -4  177.56   30.78
  -7   7  -4  137.93   25.53
   7  -7   5  538.64   42.56
   7  -7   5  460.27   36.46
  -7   7  -5  349.15   37.70
  -7   7  -5  442.12   32.73
   7  -7   6  141.93   28.76
   7  -7   6  106.11   27.67
  -7   7  -6  102.74   30.73
  -7   7  -6  138.75   24.00
   7  -7   7   -2.05   28.04
   7  -7   7   21.56   30.03
  -7   7  -7   73.12   28.29
  -7   7  -7   19.91   18.84
   7  -7   8  -42.82   29.85
   7  -7   8  136.86   34.17
   7  -7   9   21.00   24.30
   7  -7  10  193.75   42.36
   7  -7  11  245.98   37.87
  -7   7 -11  400.26   35.86
  -7   7 -11  214.80   44.57
   7  -6   1 3950.54  159.16
   7  -6   1 4152.21  163.35
   7  -6   1 4483.10  162.21
  -7   6  -1 4169.11  151.68
  -7   6  -1 4624.52  160.06
   7  -6   2 4345.83  167.24
   7  -6   2 4033.84  162.88
  -7   6  -2 4382.01  150.72
  -7   6  -2 3986.14  152.02
  -7   6  -2 4149.67  159.01
   7  -6   3 2793.52  107.67
   7  -6   3 3150.03  118.87
  -7   6  -3 2750.40  104.15
  -7   6  -3 3023.94  113.70
  -7   6  -3 2784.36  107.39
   7  -6   4 3973.73  158.18
   7  -6   4 4350.02  152.79
  -7   6  -4 4583.25  159.55
  -7   6  -4 4147.63  152.67
   7  -6   5   -2.59   30.16
   7  -6   5  133.67   29.79
  -7   6  -5   76.23   24.41
   7  -6   6  665.51   42.23
   7  -6   6  841.28   42.89
  -7   6  -6  733.72   40.81
  -7   6  -6  677.64   37.11
   7  -6   7  129.66   33.45
  -7   6  -7  161.30   26.04
   7  -6   8  115.27   31.17
  -7   6  -8   64.26   25.45
  -7   6  -8   24.52   34.17
  -7   6  -9   69.50   28.47
  -7   6  -9  -45.96   29.45
  -7   6 -10  -47.26   19.93
   7  -6  12  175.91   35.21
   7  -5   1  682.14   37.62
   7  -5   1  870.65   42.16
   7  -5   1  842.68   37.15
  -7   5  -1  871.76   37.41
  -7   5  -1  827.04   40.89
   7  -5   2  122.00   18.61
   7  -5   2   12.68   28.89
  -7   5  -2   84.19   17.72
   7  -5   3  351.68   25.71
   7  -5   3  305.42   26.84
  -7   5  -3  386.30   30.64
  -7   5  -3  295.85   23.51
   7  -5   4   42.34   13.23
   7  -5   4   31.23   26.98
   7  -5   4   60.03   19.52
   7  -5   4   20.39   21.25
  -7   5  -4   62.72   23.09
   7  -5   5 1059.53   50.66
   7  -5   5  952.85   48.53
  -7   5  -5  940.54   48.47
  -7   5  -5 1015.42   44.48
   7  -5   6 1088.34   62.33
   7  -5   6  973.62   50.13
  -7   5  -6  971.69   53.78
  -7   5  -6 1315.87   54.73
  -7   5  -6 1170.91   47.74
   7  -5   7 4326.13  157.04
   7  -5   7 3776.03  152.81
  -7   5  -7 4134.98  146.37
  -7   5  -7 3774.32  148.01
  -7   5  -8  454.66   31.53
  -7   5  -8  258.91   33.93
   7  -5   9 4933.35  180.03
   7  -5   9 4228.53  183.38
  -7   5  -9 4900.16  166.95
  -7   5  -9 4820.96  178.59
  -7   5 -10  -15.52   26.10
   7  -5  11 2350.16  124.28
  -7   5 -11 2475.28  101.78
   7  -5  12  144.70   31.90
   7  -4   1    9.83   23.51
   7  -4   1   65.24   20.88
   7  -4   1   45.78   14.93
   7  -4   2  679.84   36.76
   7  -4   2  681.90   38.71
   7  -4   2  800.81   37.09
   7  -4   2  726.11   40.17
   7  -4   3  787.67   32.74
   7  -4   3  853.77   37.27
   7  -4   3  947.77   53.63
   7  -4   3  752.97   41.65
   7  -4   3  666.41   41.08
   7  -4   3  759.45   41.61
   7  -4   4 2232.23   83.77
   7  -4   4 2521.40   89.19
   7  -4   4 2412.22  100.08
   7  -4   4 2107.32   80.77
  -7   4  -4 2086.23   82.37
   7  -4   5  254.41   27.08
   7  -4   5  314.79   21.98
  -7   4  -5  344.49   26.44
  -7   4  -5  251.79   25.42
   7  -4   6 1364.31   67.87
   7  -4   6 1636.95   63.31
  -7   4  -6 1364.11   56.80
  -7   4  -6 1513.68   61.19
   7  -4   7  131.66   32.32
   7  -4   7   74.16   26.10
  -7   4  -7   80.04   24.05
  -7   4  -7  196.25   30.32
   7  -4   8    3.39   31.67
  -7   4  -8   37.75   19.14
   7  -4  10  178.63   39.93
   7  -4  10  115.69   28.23
  -7   4 -10  168.43   27.66
   7  -4  11  111.80   35.41
   7  -4  11   21.75   33.33
  -7   4 -11   44.78   32.08
   7  -4  12  564.67   52.81
  -7   4 -12  736.36   48.00
   7  -3   1 2529.54   90.77
   7  -3   1 2542.11   93.92
   7  -3   1 2559.83   93.04
   7  -3   1 2429.81   90.24
   7  -3   1 2363.32   87.38
   7  -3   1 2410.80   86.89
   7  -3   2 1819.94   75.79
   7  -3   2 1934.58   75.44
   7  -3   2 1918.98   77.74
   7  -3   2 1949.55   81.09
   7  -3   2 2158.80   82.12
   7  -3   2 2042.41   80.03
   7  -3   3 5115.06  172.69
   7  -3   3 5210.14  172.01
   7  -3   3 5123.58  190.24
   7  -3   3 5111.22  165.82
   7  -3   4 2021.21   79.99
   7  -3   4 2316.59   80.69
   7  -3   4 2270.01   97.58
   7  -3   4 2126.48   77.98
  -7   3  -4 2602.56   86.73
  -7   3  -4 2127.65   83.29
   7  -3   5 4213.85  149.71
   7  -3   5 4612.85  165.71
  -7   3  -5 4512.42  152.60
  -7   3  -5 4749.21  165.22
  -7   3  -5 4387.84  152.91
   7  -3   6  611.17   41.88
  -7   3  -6  635.40   42.57
  -7   3  -6  573.51   33.30
   7  -3   7  146.34   27.58
  -7   3  -7   33.37   26.53
  -7   3  -7   74.10   22.47
   7  -3   8  100.70   26.67
  -7   3  -8  123.55   32.52
  -7   3  -8  102.15   23.67
   7  -3   9 1259.24   77.19
  -7   3  -9 1538.48   70.13
  -7   3  -9 1576.04   68.85
   7  -3  10  285.24   35.49
  -7   3 -10  216.73   25.73
   7  -3  11  675.78   53.37
  -7   3 -11  513.28   41.77
  -7   3 -11  570.29   36.56
   7  -3  12  130.66   37.46
  -7   3 -12  223.87   23.26
  -7   3 -12  219.39   33.07
   7  -2   1   23.41   21.21
   7  -2   1   -4.51   15.17
   7  -2   1   16.31   13.19
  -7   2  -1   63.75   18.13
  -7   2  -1   49.92   19.88
   7  -2   2  841.96   45.21
   7  -2   2  740.98   35.45
   7  -2   2  834.47   38.91
   7  -2   2  833.22   34.56
   7  -2   2  692.00   34.97
  -7   2  -2  923.55   42.25
   7  -2   3  104.75   19.10
   7  -2   3  101.74   13.98
   7  -2   3   19.63   23.41
   7  -2   3   43.14   14.67
  -7   2  -3   20.57   13.42
   7  -2   4   40.78   16.61
   7  -2   4   33.26   26.24
  -7   2  -4   45.78   24.12
  -7   2  -4   46.80   20.39
   7  -2   5  100.26   18.24
   7  -2   5   42.01   27.10
  -7   2  -5  -16.49   22.67
  -7   2  -5   -9.61   18.03
   7  -2   6 2571.75   98.99
  -7   2  -6 2507.26  105.19
  -7   2  -6 2329.03   95.47
   7  -2   7  125.00   32.45
  -7   2  -7  191.98   31.06
  -7   2  -7  107.16   23.11
   7  -2   8 5689.13  204.18
  -7   2  -8 5458.28  204.35
  -7   2  -8 5491.38  195.80
   7  -2   9  899.46   54.71
  -7   2  -9  787.14   59.47
  -7   2  -9  703.97   45.56
   7  -2  10 2335.79  111.25
  -7   2 -10 2104.58   94.84
  -7   2 -10 2013.11   83.60
   7  -2  12  153.63   37.60
  -7   2 -12  166.29   27.94
  -7   2 -12  307.11   27.99
   7  -1   1 1353.52   54.71
   7  -1   1 1219.11   45.51
   7  -1   1 1245.28   49.29
  -7   1  -1 1440.91   54.16
  -7   1  -1 1279.83   56.47
   7  -1   2  194.23   23.08
   7  -1   2  183.06   19.14
  -7   1  -2  178.32   19.26
  -7   1  -2  220.59   16.22
   7  -1   3 6232.47  222.65
   7  -1   3 6497.61  213.89
   7  -1   3 5773.96  207.80
  -7   1  -3 6544.44  210.98
  -7   1  -3 5942.60  199.97
   7  -1   4  274.83   23.13
   7  -1   4  277.64   29.21
  -7   1  -4  200.86   27.77
  -7   1  -4  309.08   18.24
   7  -1   5 3455.04  120.57
   7  -1   5 3738.78  133.99
  -7   1  -5 3699.28  129.30
  -7   1  -5 3494.92  121.95
   7  -1   6  480.44   39.88
  -7   1  -6  262.34   29.43
  -7   1  -6  376.19   26.42
   7  -1   7 2576.12  103.75
  -7   1  -7 2473.27   94.97
  -7   1  -7 2279.54   94.04
  -7   1  -8   55.97   18.70
   7  -1   9  327.91   49.24
  -7   1  -9  494.56   44.48
  -7   1  -9  305.38   28.98
   7  -1  10   31.55   32.47
  -7   1 -10   21.69   31.17
  -7   1 -10  -18.91   21.50
   7  -1  11  150.52   42.07
  -7   1 -11  321.47   32.23
  -7   1 -11  187.60   26.32
   7   0   0  496.16   34.98
   7   0   0  520.19   28.90
  -7   0   0  474.28   27.63
  -7   0   0  531.71   31.56
   7   0   1   99.15   20.63
   7   0   1   92.80   17.88
  -7   0  -1  161.73   22.29
  -7   0  -1  171.37   22.26
   7   0   2 2788.11  102.81
   7   0   2 2368.31   90.90
  -7   0  -2 2579.04   96.47
  -7   0  -2 2608.47   93.86
   7   0   3  129.45   21.97
   7   0   3   51.40   27.16
   7   0   4 2055.04   86.58
   7   0   4 2731.28  106.15
  -7   0  -4 2256.27   82.44
   7   0   5   61.16   30.28
  -7   0  -5   77.60   27.19
   7   0   6  311.69   24.73
   7   0   6  254.52   37.23
  -7   0  -6  360.46   30.46
   7   0   7   25.53   29.03
  -7   0  -7  137.49   27.71
   7   0   8  614.09   49.61
  -7   0  -8  721.76   47.90
   7   0   9  404.41   48.70
  -7   0  -9  488.32   42.56
   7   0  10 1555.65   92.35
  -7   0 -10 1872.38   82.39
   7   1   0  142.42   25.12
   7   1   0  182.35   20.58
  -7  -1   0  196.18   24.30
  -7  -1   0   51.05   26.19
   7   1   1 3209.58  117.81
   7   1   1 2874.01  112.31
  -7  -1  -1 3180.60  114.16
  -7  -1  -1 3103.32  119.92
   7   1   2  164.84   24.13
  -7  -1  -2  161.16   22.44
   7   1   3  196.83   38.01
  -7  -1  -3  174.15   24.63
   7   1   4  153.92   22.12
   7   1   4  153.01   37.17
  -7  -1  -4  163.91   30.66
   7   1   5   27.77   18.30
   7   1   5  113.90   27.35
  -7  -1  -5   86.85   27.34
   7   1   6  100.37   20.40
  -7  -1  -6  168.68   31.11
   7   1   8  217.01   38.33
   7   1   9  655.95   62.20
  -7  -1  -9  920.39   47.69
   7   1  10  452.07   54.23
   7   2   0  222.26   20.90
  -7  -2   0  189.84   27.97
  -7  -2  -1   72.42   19.19
  -7  -2  -1  145.75   25.55
   7   2   2 1799.81   77.74
  -7  -2  -2 1661.84   71.92
   7   2   3  317.37   28.74
   7   2   3  508.27   49.51
  -7  -2  -3  392.12   34.07
   7   2   4 4789.44  180.21
   7   2   4 5678.76  199.84
  -7  -2  -4 4835.77  179.36
   7   2   5  739.33   43.80
   7   2   5  684.18   50.60
  -7  -2  -5  713.45   43.88
   7   2   6 1917.37   82.13
   7   2   6 2206.37   97.32
  -7  -2  -6 1752.96   79.40
   7   2   7  812.10   54.68
  -7  -2  -7  885.06   50.85
  -7  -2  -8  721.92   50.11
   7   3   0  212.14   28.75
  -7  -3   0  224.40   27.57
  -7  -3   0  293.35   26.69
   7   3   1  363.71   29.21
  -7  -3  -1  310.03   26.97
  -7  -3  -1  328.34   35.27
   7   3   2  268.02   29.70
  -7  -3  -2  283.28   28.49
  -7  -3  -2  322.97   31.64
   7   3   3  362.05   36.04
   7   3   3  431.44   37.75
  -7  -3  -3  424.55   35.99
   7   3   4  105.83   26.81
   7   3   4   83.56   28.58
  -7  -3  -4  121.15   28.64
   7   3   5  156.43   26.31
   7   3   5  215.98   38.98
  -7  -3  -5  199.19   31.96
   7   3   6   35.61   19.00
   7   3   6   45.09   46.08
  -7  -3  -6   -2.74   28.85
  -7  -3  -7  116.56   22.42
   7   4   0 3205.82  131.33
  -7  -4   0 3299.33  123.94
  -7  -4   0 3098.56  125.41
   7   4   1  483.01   41.70
  -7  -4  -1  350.17   32.38
  -7  -4  -1  461.84   34.43
   7   4   2  260.89   35.79
   7   4   2  194.09   35.08
  -7  -4  -2  136.44   28.75
   7   4   3  -25.44   21.59
   7   4   3  106.09   34.97
   7   4   4  114.43   27.07
   7   4   4  138.60   31.18
  -7  -4  -4   39.23   27.94
   7   5   0  743.63   46.49
   8  -9   1 1600.12   78.20
   8  -9   1 1272.25   80.03
   8  -9   1 1281.42   66.71
  -8   9  -1 1293.43   62.85
   8  -9   2 1062.41   66.88
   8  -9   2 1163.87   63.41
   8  -9   2  983.41   57.98
  -8   9  -2  865.34   59.27
   8  -9   3 2366.02  108.39
   8  -9   3 2006.65   95.96
   8  -9   3 1792.64   93.10
  -8   9  -3 2386.47  100.02
   8  -9   4 1560.08   87.12
   8  -9   4 1847.62   84.90
  -8   9  -4 1655.04   85.82
  -8   9  -4 1527.23   81.33
   8  -9   5  232.21   32.32
   8  -9   5  432.08   38.54
  -8   9  -5  307.16   33.81
  -8   9  -5  440.77   33.67
   8  -8   1  157.33   32.00
  -8   8  -1   60.04   20.88
  -8   8  -1   48.50   33.67
   8  -8   2   96.07   29.44
   8  -8   2   71.98   27.26
  -8   8  -2   94.98   28.41
   8  -8   3  -62.63   23.00
   8  -8   3  -29.25   24.26
   8  -8   3  112.43   27.35
  -8   8  -3   25.81   18.92
   8  -8   4   11.18   27.76
   8  -8   4  138.16   33.90
  -8   8  -4  -53.24   29.63
   8  -8   5  180.73   30.25
   8  -8   5   68.43   34.48
  -8   8  -5   25.38   22.27
  -8   8  -5   63.55   26.76
   8  -8   6  371.68   41.42
   8  -8   6  634.54   45.35
  -8   8  -6  534.13   40.74
   8  -8   7  322.43   41.47
   8  -8   7  384.53   38.29
  -8   8  -7  348.79   35.57
   8  -7   1  137.81   31.40
   8  -7   1   44.00   25.20
  -8   7  -1   93.34   17.81
  -8   7  -1   42.22   25.86
   8  -7   2  218.06   29.00
   8  -7   2  385.10   27.43
   8  -7   2  267.34   32.59
  -8   7  -2  250.68   30.90
   8  -7   3  478.88   32.59
   8  -7   3  358.34   29.47
   8  -7   3  406.22   34.32
  -8   7  -3  527.48   32.48
   8  -7   4  101.26   29.65
  -8   7  -4  -34.27   19.95
  -8   7  -4  -57.38   21.33
   8  -7   5   15.67   25.30
  -8   7  -5   77.56   17.24
   8  -7   6  211.18   33.48
   8  -7   6  202.19   33.54
  -8   7  -6  312.47   29.52
   8  -7   7  169.97   24.03
   8  -7   7  199.64   29.36
  -8   7  -7  174.70   25.87
   8  -7   8   32.40   30.88
   8  -7   8  -55.03   24.58
   8  -7   9  -13.61   25.18
   8  -7   9   63.83   27.46
  -8   7  -9   22.45   24.31
   8  -6   1 1707.88   76.16
   8  -6   1 1665.25   80.60
   8  -6   1 1489.79   70.97
  -8   6  -1 1673.66   67.14
  -8   6  -1 1654.06   72.25
   8  -6   2 2720.88  106.08
   8  -6   2 2665.93  118.64
   8  -6   2 2930.92  114.57
  -8   6  -2 2787.04  109.59
  -8   6  -2 2804.17  109.81
   8  -6   3 3458.01  127.07
   8  -6   3 3235.95  133.45
   8  -6   3 3350.95  127.68
  -8   6  -3 3387.97  130.39
   8  -6   4  106.22   27.97
   8  -6   4  240.65   24.89
  -8   6  -4  134.95   24.27
   8  -6   5 6393.89  233.54
   8  -6   5 6596.03  235.76
  -8   6  -5 6353.78  232.13
   8  -6   6   17.68   19.60
  -8   6  -6   51.07   26.20
   8  -6   7 1277.87   75.82
   8  -6   7 1331.91   69.91
  -8   6  -7 1296.78   65.34
   8  -6   8  445.92   35.16
   8  -6   8  317.92   36.75
  -8   6  -8  241.40   28.62
   8  -6   9  237.33   42.88
  -8   6  -9  121.03   25.88
   8  -5   1  -21.69   18.77
   8  -5   1   68.01   23.03
   8  -5   1   28.56   18.75
   8  -5   2 1233.63   53.14
   8  -5   2 1598.39   67.73
   8  -5   2 1403.63   67.76
   8  -5   2 1497.12   62.59
   8  -5   2 1392.63   58.37
   8  -5   3   -1.13   17.52
   8  -5   3   31.69   21.83
   8  -5   4  120.30   26.35
   8  -5   4  235.79   27.54
   8  -5   4   74.67   20.37
   8  -5   5  -39.44   25.85
   8  -5   5  120.29   31.88
   8  -5   6  336.28   33.34
   8  -5   6  370.01   36.38
  -8   5  -6  470.18   30.04
   8  -5   7  102.69   30.81
   8  -5   8 1571.28   77.96
  -8   5  -8 1280.16   66.53
   8  -5   9  124.97   34.28
   8  -5  10 2603.42  110.12
  -8   5 -10 2382.63  101.80
   8  -4   1 1276.99   54.69
   8  -4   1 1244.74   55.34
   8  -4   1 1074.43   50.43
   8  -4   1 1080.75   56.24
   8  -4   1 1133.40   48.90
   8  -4   1 1224.29   57.75
   8  -4   2  709.18   37.15
   8  -4   2  642.98   37.15
   8  -4   2  711.05   41.53
   8  -4   2  636.95   41.38
   8  -4   2  779.71   41.50
   8  -4   2  649.95   38.74
   8  -4   3  835.42   45.45
   8  -4   3  972.99   47.29
   8  -4   3  971.40   50.73
   8  -4   3 1007.46   47.01
   8  -4   3 1031.37   53.99
   8  -4   3  826.66   49.37
   8  -4   4   78.00   26.20
   8  -4   5 1658.48   72.68
   8  -4   5 1792.81   80.25
   8  -4   6   76.83   29.33
   8  -4   6   59.39   30.16
  -8   4  -6  131.12   24.60
   8  -4   7  802.06   50.91
   8  -4   7  559.14   43.06
  -8   4  -7  786.91   43.78
   8  -4   8  371.96   41.06
   8  -4   8  248.99   39.99
  -8   4  -8  432.85   32.56
   8  -4   9  146.97   27.75
  -8   4  -9   99.76   25.72
   8  -4  10  -22.32   33.55
   8  -4  10   40.31   31.80
  -8   4 -10   58.95   22.67
   8  -3   1  349.36   26.97
   8  -3   1  309.08   22.49
   8  -3   1  213.36   30.67
   8  -3   1  349.01   27.60
   8  -3   2 3637.52  119.69
   8  -3   2 3163.73  107.01
   8  -3   2 3132.85  128.00
   8  -3   2 3318.84  130.06
   8  -3   2 3162.00  113.59
   8  -3   2 2957.63  121.18
   8  -3   3    7.90   14.48
   8  -3   3   13.01   25.96
   8  -3   3   19.21   25.37
   8  -3   3   65.96   18.31
   8  -3   4 1460.60   70.11
   8  -3   4 1321.18   58.56
  -8   3  -5  515.48   35.64
  -8   3  -5  436.90   29.97
   8  -3   6 2342.39   94.37
  -8   3  -6 2203.61   91.17
  -8   3  -6 2135.41   77.34
  -8   3  -7  -56.58   21.47
  -8   3  -7   36.92   21.57
   8  -3   8  696.90   51.35
  -8   3  -8  509.41   37.80
  -8   3  -8  637.96   42.47
   8  -3   9  168.49   33.98
  -8   3  -9   16.09   34.24
  -8   3  -9   -6.95   26.48
   8  -3  10  -32.59   31.93
  -8   3 -10  202.23   52.26
   8  -2   1 6950.59  235.08
   8  -2   1 6580.83  219.01
  -8   2  -1 6169.39  207.11
   8  -2   2  390.00   31.04
  -8   2  -2  286.53   26.58
   8  -2   3 2594.02   97.31
   8  -2   3 2361.20  101.26
  -8   2  -3 2455.89   94.67
   8  -2   4   -9.35   17.97
   8  -2   4  122.44   30.78
  -8   2  -4   85.91   21.26
   8  -2   5   -9.13   29.72
  -8   2  -5   90.25   23.46
   8  -2   6  456.24   37.51
  -8   2  -6  398.31   33.99
  -8   2  -7  259.12   32.12
   8  -2   8  184.46   37.22
  -8   2  -8  201.20   30.65
   8  -2   9 1050.05   72.24
  -8   2  -9 1196.04   65.23
   8  -2  10  179.04   37.07
  -8   2 -10   94.32   23.85
   8  -1   1   36.57   16.46
  -8   1  -1   -4.91   15.46
  -8   1  -1   63.95   27.20
   8  -1   2   57.83   24.76
  -8   1  -2  115.72   18.98
   8  -1   3   -3.92   21.79
   8  -1   4 1698.32   66.86
   8  -1   4 1789.05   75.93
  -8   1  -4 1712.25   66.12
   8  -1   5  426.21   37.64
  -8   1  -5  239.38   30.94
   8  -1   6 1510.49   80.23
  -8   1  -6 1147.12   59.65
   8  -1   7 1334.23   71.45
  -8   1  -7 1218.70   53.57
   8  -1   9  603.30   53.57
  -8   1  -9  374.27   34.12
   8   0   0   41.56   21.88
   8   0   0  -10.23   18.74
  -8   0   0   37.09   13.91
   8   0   1  130.25   27.67
  -8   0  -1   -3.65   22.61
   8   0   2   69.29   20.90
  -8   0  -2   18.62   20.15
   8   0   3  707.59   45.36
  -8   0  -3  645.18   38.97
   8   0   5 1229.30   67.73
  -8   0  -5 1134.75   59.20
   8   0   6  484.50   48.15
  -8   0  -6  230.60   34.35
   8   0   8  148.73   35.22
   8   1   0 5711.21  217.16
  -8  -1   0 5607.58  196.75
   8   1   1  192.16   29.07
  -8  -1  -1  194.85   21.68
   8   1   2 2403.72  102.94
   8   1   2 2544.43  100.57
  -8  -1  -2 2142.43   85.51
   8   1   3  445.44   40.67
  -8  -1  -3  367.41   32.86
   8   1   4  698.10   43.27
   8   1   4  554.06   42.16
  -8  -1  -4  623.96   37.55
   8   1   5   92.69   33.98
  -8  -1  -6   33.91   24.82
   8   1   7   57.64   32.38
  -8  -1  -7   -9.29   24.49
   8   2   0  160.53   29.62
  -8  -2   0   44.32   26.01
   8   2   1   12.39   21.72
   8   2   2   22.08   21.82
   8   2   2  148.63   41.28
   8   2   3   65.25   26.02
   8   2   3  131.44   34.02
  -8  -2  -3  -32.09   26.30
   8   2   4  205.32   27.97
   8   2   4  285.86   43.29
  -8  -2  -4  245.17   29.18
   8   3   0  102.69   34.32
  -8  -3   0  -41.82   21.08
   8   3   1   24.90   23.90
  -8  -3  -1   23.42   26.27
   8   3   2  290.61   34.25
   8   3   2  149.92   32.11
   8   3   3  -38.49   26.14
   9  -9   1  -13.64   25.83
   9  -9   1  124.53   33.55
   9  -8   1   -4.57   27.50
   9  -8   1  106.27   32.62
  -9   8  -1  -39.86   25.24
   9  -8   2  350.22   37.38
   9  -8   2  314.91   36.26
  -9   8  -2  302.19   33.88
   9  -8   3  116.12   35.18
   9  -8   3  111.36   26.72
  -9   8  -3  102.48   21.11
   9  -8   4   74.52   29.28
   9  -8   4   83.11   20.43
   9  -7   1 3413.70  128.56
   9  -7   1 3248.33  117.35
  -9   7  -1 3275.21  135.41
   9  -7   2   78.62   26.05
   9  -7   2  202.86   28.45
  -9   7  -2   87.84   28.33
   9  -7   3  749.09   42.22
  -9   7  -3  535.56   41.42
   9  -7   4   91.27   31.29
   9  -7   4   87.01   22.74
   9  -7   5   78.34   20.16
   9  -7   6   23.60   19.09
   9  -7   6   36.34   26.74
   9  -7   6  -59.16   23.00
   9  -6   1  123.87   25.92
   9  -6   1  156.62   26.62
   9  -6   1  214.58   26.91
   9  -6   2  382.19   33.63
   9  -6   2  433.43   31.98
   9  -6   3  356.15   36.09
   9  -6   4 1576.88   74.52
   9  -6   4 1658.50   74.85
   9  -6   4 1799.25   67.18
   9  -6   5   28.22   28.88
   9  -6   5  110.45   24.46
   9  -6   6 1823.31   94.88
   9  -6   6 2157.61   85.55
   9  -5   1 2006.79   78.77
   9  -5   1 1887.42   76.63
   9  -5   1 1993.12   77.92
   9  -5   5   22.92   20.27
   9  -4   1   79.56   21.45
   9  -4   1  156.56   23.97
   9  -4   1  189.93   28.11
   9  -4   2 1771.92   72.01
   9  -4   3  534.61   36.37
   9  -4   4   98.41   25.36
   9  -4   6  487.87   44.40
   9  -4   8  251.74   29.68
   9  -3   1  536.99   32.14
   9  -3   1  646.27   37.75
   9  -3   3  442.51   35.63
   9  -3   4  216.91   32.23
   9  -3   5 2818.84  117.29
   9  -3   5 2784.53  111.35
   9  -3   6  504.27   41.84
   9  -3   7  420.03   36.56
   9  -2   1  276.76   28.56
   9  -2   2 2616.06  106.60
   9  -2   2 2789.47  113.80
   9  -2   3  629.02   43.36
   9  -2   4 1182.09   63.64
   9  -2   5  113.91   32.40
   9  -2   6  503.94   51.22
  -9   2  -6  693.41   39.44
   9  -2   7   94.52   28.20
  -9   2  -7  -28.42   22.38
   9  -1   2  404.70   28.79
   9  -1   2  372.94   36.85
   9  -1   3  235.81   31.99
   9  -1   4   88.28   30.97
   9  -1   5  361.04   43.78
   9   0   0  415.93   42.44
  -9   0   0  505.19   38.47
   9   0   1   86.61   21.75
   9   0   2  184.48   34.41
   9   0   2  295.02   35.11
   9   0   3   42.75   18.89
   9   0   4  161.23   36.75
   9   0   5   40.16   27.76
   9   1   0  322.85   31.92
  -9  -1   0  435.35   39.78
   9   1   1 1619.41   76.90
   9   1   2 1133.95   75.26
   9   1   2 1601.76   74.22
   9   1   3  838.97   46.53
   9   1   3  760.68   51.26
  10  -7   1  125.55   27.53
  10  -3   1  -66.66   21.76
  10  -3   2  538.02   41.21
  10  -3   3  149.07   29.08
  10  -2   1  390.89   34.06
  10  -2   2  265.73   32.84
  10  -2   3  496.81   39.25
;
_shelx_hkl_checksum              51631
_shelx_res_file
;
    compound_4.res created by SHELXL-2014/7
TITL compound_4.res in P-1
REM  Yadorkari-X generated
CELL 0.71075 7.8394 8.0986 15.0650 90.9410 101.8880 111.0930
ZERR 2.0 0.0001 0.0002 0.0004 0.0010 0.0010 0.0010
LATT 1
REM  SPGR P-1 triclinic
SFAC Br Se C H
UNIT 4 4 40 24
SIZE 0.04 0.03 0.01
TEMP -170.0
L.S. 10
FMAP 2
PLAN -20
ACTA
CONF
LIST 4
BOND $H
SHEL 999 0.78
WGHT    0.012800    4.934300
FVAR       1.31761
SE1   2    0.265809    0.378238    0.220837    11.00000    0.02142    0.02588 =
         0.02092    0.00804    0.00830    0.01372
C1    3    0.494638    0.407343    0.179330    11.00000    0.01760    0.02282 =
         0.01690    0.00233    0.00245    0.00999
C2    3    0.569064    0.278779    0.197638    11.00000    0.02539    0.02221 =
         0.01737    0.00290   -0.00086    0.01375
AFIX  43
H1    4    0.512922    0.186007    0.232409    11.00000   -1.20000
AFIX   0
C3    3    0.728455    0.281310    0.165706    11.00000    0.02059    0.02647 =
         0.02251    0.00111    0.00059    0.01308
AFIX  43
H2    4    0.779151    0.192419    0.180913    11.00000   -1.20000
AFIX   0
C4    3    0.808086    0.407605    0.114400    11.00000    0.01255    0.03819 =
         0.01335   -0.00234    0.00257    0.01083
AFIX  43
H3    4    0.910590    0.404394    0.090975    11.00000   -1.20000
AFIX   0
C6    3    0.828236    0.683019    0.042281    11.00000    0.01955    0.03540 =
         0.02041    0.00673    0.00712    0.00772
AFIX  43
H4    4    0.930992    0.677094    0.020004    11.00000   -1.20000
AFIX   0
C5    3    0.738299    0.548030    0.094809    11.00000    0.01694    0.02832 =
         0.01440    0.00073    0.00199    0.00819
C7    3    0.769987    0.820759    0.023243    11.00000    0.02470    0.02773 =
         0.02286    0.00811    0.00429    0.00066
AFIX  43
H5    4    0.829386    0.908137   -0.013330    11.00000   -1.20000
AFIX   0
C8    3    0.622278    0.832286    0.057966    11.00000    0.02873    0.02002 =
         0.02127    0.00446    0.00119    0.00641
AFIX  43
H6    4    0.583672    0.929957    0.046468    11.00000   -1.20000
AFIX   0
C9    3    0.532438    0.703566    0.108586    11.00000    0.01854    0.02470 =
         0.01661   -0.00015    0.00177    0.00986
C10   3    0.580014    0.552224    0.128896    11.00000    0.01947    0.01998 =
         0.01152    0.00162   -0.00087    0.00746
BR1   1    0.340069    0.750079    0.152706    11.00000    0.03129    0.02743 =
         0.02955    0.00727    0.00904    0.01879
SE2   2    0.166080    0.085313    0.258556    11.00000    0.02022    0.02331 =
         0.01690    0.00346    0.00514    0.00678
C11   3    0.291404    0.114131    0.388249    11.00000    0.01769    0.01790 =
         0.01943    0.00154    0.00485    0.00872
C12   3    0.446835    0.266077    0.419758    11.00000    0.02098    0.01889 =
         0.01992    0.00548    0.00770    0.01000
AFIX  43
H7    4    0.498078    0.344187    0.377500    11.00000   -1.20000
AFIX   0
C13   3    0.531488    0.308320    0.513046    11.00000    0.02103    0.01634 =
         0.02743    0.00298    0.00558    0.00901
AFIX  43
H8    4    0.641016    0.412392    0.533016    11.00000   -1.20000
AFIX   0
C14   3    0.457724    0.201306    0.574864    11.00000    0.02160    0.02377 =
         0.01933    0.00295    0.00170    0.01313
AFIX  43
H9    4    0.511526    0.234581    0.638108    11.00000   -1.20000
AFIX   0
C15   3    0.300408    0.039631    0.545696    11.00000    0.02456    0.01933 =
         0.02347    0.00593    0.00830    0.01556
C16   3    0.228371   -0.070591    0.611430    11.00000    0.02936    0.02474 =
         0.02182    0.00764    0.00937    0.01788
AFIX  43
H10   4    0.283194   -0.033280    0.674300    11.00000   -1.20000
AFIX   0
C17   3    0.081639   -0.229606    0.586562    11.00000    0.02756    0.02649 =
         0.03155    0.01503    0.01603    0.01618
AFIX  43
H11   4    0.033167   -0.301164    0.631655    11.00000   -1.20000
AFIX   0
C18   3    0.003699   -0.285857    0.494309    11.00000    0.02046    0.02034 =
         0.03360    0.00633    0.00925    0.00877
AFIX  43
H12   4   -0.097247   -0.397190    0.476388    11.00000   -1.20000
AFIX   0
C19   3    0.071754   -0.181636    0.429415    11.00000    0.02024    0.01965 =
         0.02624    0.00336    0.00722    0.01054
C20   3    0.218198   -0.010658    0.449967    11.00000    0.02017    0.01744 =
         0.01917    0.00534    0.00643    0.01122
BR2   1   -0.031564   -0.290265    0.307176    11.00000    0.04181    0.02344 =
         0.02686   -0.00139    0.00320   -0.00435
HKLF 4 1 1 0 0 0 1 0 0 0 1
REM  compound_4.res in P-1
REM R1 =  0.0391 for    3566 Fo > 4sig(Fo)  and  0.0432 for all    3813 data
REM    217 parameters refined using      0 restraints
END
WGHT      0.0128      4.9344
REM Highest difference peak  1.684,  deepest hole -1.276,  1-sigma level  0.122
Q1    1  -0.1129 -0.2615  0.3165  11.00000  0.05    1.68
Q2    1   0.4518  0.2020  0.2001  11.00000  0.05    1.20
Q3    1   0.2635  0.6862  0.0937  11.00000  0.05    0.90
Q4    1   0.2456  0.7150  0.1828  11.00000  0.05    0.80
Q5    1   0.4644  0.7704  0.3200  11.00000  0.05    0.68
Q6    1   0.4703  0.7263  0.1398  11.00000  0.05    0.62
Q7    1   0.9296  0.3576  0.0547  11.00000  0.05    0.61
Q8    1   0.1745  0.3078  0.1763  11.00000  0.05    0.57
Q9    1   0.2019  0.4402  0.2370  11.00000  0.05    0.56
Q10   1   0.2385  0.0431  0.2541  11.00000  0.05    0.55
Q11   1   0.7773  0.3180  0.1092  11.00000  0.05    0.53
Q12   1   0.8024  0.4035  0.1507  11.00000  0.05    0.49
Q13   1   0.2864  0.4727  0.2783  11.00000  0.05    0.48
Q14   1   0.0635 -0.0185  0.2347  11.00000  0.05    0.47
Q15   1   0.2114  0.2251  0.2385  11.00000  0.05    0.44
Q16   1   0.1228  0.0055  0.1984  11.00000  0.05    0.44
Q17   1   0.1334  0.0744  0.2112  11.00000  0.05    0.43
Q18   1   0.5020  0.8393  0.1846  11.00000  0.05    0.42
Q19   1   0.0144 -0.1981  0.3789  11.00000  0.05    0.42
Q20   1   0.0815  0.1166  0.2765  11.00000  0.05    0.39
;
_shelx_res_checksum              28639
loop_
_space_group_symop_operation_xyz
'x, y, z'
'-x, -y, -z'
loop_
_atom_site_type_symbol
_atom_site_label
_atom_site_fract_x
_atom_site_fract_y
_atom_site_fract_z
_atom_site_U_iso_or_equiv
_atom_site_adp_type
_atom_site_calc_flag
_atom_site_occupancy
Se Se1 0.26581(6) 0.37824(6) 0.22084(3) 0.02072(11) Uani d 1
C C1 0.4946(6) 0.4073(6) 0.1793(3) 0.0186(9) Uani d 1
C C2 0.5691(6) 0.2788(6) 0.1976(3) 0.0211(9) Uani d 1
H H1 0.5129 0.1860 0.2324 0.025 Uiso calc 1
C C3 0.7285(6) 0.2813(6) 0.1657(3) 0.0226(9) Uani d 1
H H2 0.7792 0.1924 0.1809 0.027 Uiso calc 1
C C4 0.8081(6) 0.4076(6) 0.1144(3) 0.0211(9) Uani d 1
H H3 0.9106 0.4044 0.0910 0.025 Uiso calc 1
C C6 0.8282(7) 0.6830(7) 0.0423(3) 0.0254(10) Uani d 1
H H4 0.9310 0.6771 0.0200 0.030 Uiso calc 1
C C5 0.7383(6) 0.5480(6) 0.0948(3) 0.0202(9) Uani d 1
C C7 0.7700(7) 0.8208(7) 0.0232(3) 0.0278(11) Uani d 1
H H5 0.8294 0.9081 -0.0133 0.033 Uiso calc 1
C C8 0.6223(7) 0.8323(6) 0.0580(3) 0.0248(10) Uani d 1
H H6 0.5837 0.9300 0.0465 0.030 Uiso calc 1
C C9 0.5324(6) 0.7036(6) 0.1086(3) 0.0198(9) Uani d 1
C C10 0.5800(6) 0.5522(6) 0.1289(3) 0.0176(9) Uani d 1
Br Br1 0.34007(7) 0.75008(6) 0.15271(3) 0.02680(12) Uani d 1
Se Se2 0.16608(6) 0.08531(6) 0.25856(3) 0.02035(11) Uani d 1
C C11 0.2914(6) 0.1141(6) 0.3882(3) 0.0176(8) Uani d 1
C C12 0.4468(6) 0.2661(6) 0.4198(3) 0.0187(9) Uani d 1
H H7 0.4981 0.3442 0.3775 0.022 Uiso calc 1
C C13 0.5315(6) 0.3083(6) 0.5130(3) 0.0210(9) Uani d 1
H H8 0.6410 0.4124 0.5330 0.025 Uiso calc 1
C C14 0.4577(6) 0.2013(6) 0.5749(3) 0.0207(9) Uani d 1
H H9 0.5115 0.2346 0.6381 0.025 Uiso calc 1
C C15 0.3004(6) 0.0396(6) 0.5457(3) 0.0199(9) Uani d 1
C C16 0.2284(7) -0.0706(6) 0.6114(3) 0.0225(9) Uani d 1
H H10 0.2832 -0.0333 0.6743 0.027 Uiso calc 1
C C17 0.0816(7) -0.2296(6) 0.5866(3) 0.0252(10) Uani d 1
H H11 0.0332 -0.3012 0.6317 0.030 Uiso calc 1
C C18 0.0037(7) -0.2859(6) 0.4943(3) 0.0239(10) Uani d 1
H H12 -0.0972 -0.3972 0.4764 0.029 Uiso calc 1
C C19 0.0718(6) -0.1816(6) 0.4294(3) 0.0208(9) Uani d 1
C C20 0.2182(6) -0.0107(6) 0.4500(3) 0.0174(8) Uani d 1
Br Br2 -0.03156(8) -0.29027(7) 0.30718(4) 0.03614(14) Uani d 1
loop_
_atom_site_aniso_label
_atom_site_aniso_U_11
_atom_site_aniso_U_22
_atom_site_aniso_U_33
_atom_site_aniso_U_12
_atom_site_aniso_U_13
_atom_site_aniso_U_23
Se1 0.0214(2) 0.0259(2) 0.0209(2) 0.01372(19) 0.00830(17) 0.00804(17)
C1 0.018(2) 0.023(2) 0.017(2) 0.0100(18) 0.0025(17) 0.0023(17)
C2 0.025(2) 0.022(2) 0.017(2) 0.0138(19) -0.0009(18) 0.0029(17)
C3 0.021(2) 0.026(2) 0.023(2) 0.0131(19) 0.0006(18) 0.0011(18)
C4 0.013(2) 0.038(3) 0.013(2) 0.0108(19) 0.0026(16) -0.0023(18)
C6 0.020(2) 0.035(3) 0.020(2) 0.008(2) 0.0071(18) 0.007(2)
C5 0.017(2) 0.028(2) 0.014(2) 0.0082(18) 0.0020(17) 0.0007(17)
C7 0.025(2) 0.028(2) 0.023(2) 0.001(2) 0.0043(19) 0.0081(19)
C8 0.029(3) 0.020(2) 0.021(2) 0.0064(19) 0.0012(19) 0.0045(18)
C9 0.019(2) 0.025(2) 0.017(2) 0.0099(18) 0.0018(17) -0.0002(17)
C10 0.019(2) 0.020(2) 0.0115(19) 0.0075(17) -0.0009(16) 0.0016(16)
Br1 0.0313(3) 0.0274(2) 0.0295(3) 0.0188(2) 0.0090(2) 0.00727(19)
Se2 0.0202(2) 0.0233(2) 0.0169(2) 0.00678(18) 0.00514(17) 0.00346(17)
C11 0.018(2) 0.018(2) 0.019(2) 0.0087(17) 0.0048(17) 0.0015(16)
C12 0.021(2) 0.019(2) 0.020(2) 0.0100(18) 0.0077(17) 0.0055(17)
C13 0.021(2) 0.016(2) 0.027(2) 0.0090(18) 0.0056(19) 0.0030(18)
C14 0.022(2) 0.024(2) 0.019(2) 0.0131(18) 0.0017(18) 0.0030(17)
C15 0.025(2) 0.019(2) 0.023(2) 0.0156(18) 0.0083(18) 0.0059(17)
C16 0.029(2) 0.025(2) 0.022(2) 0.018(2) 0.0094(19) 0.0076(18)
C17 0.028(2) 0.026(2) 0.032(3) 0.016(2) 0.016(2) 0.015(2)
C18 0.020(2) 0.020(2) 0.034(3) 0.0088(18) 0.009(2) 0.0063(19)
C19 0.020(2) 0.020(2) 0.026(2) 0.0105(18) 0.0072(18) 0.0034(18)
C20 0.020(2) 0.017(2) 0.019(2) 0.0112(17) 0.0064(17) 0.0053(16)
Br2 0.0418(3) 0.0234(2) 0.0269(3) -0.0043(2) 0.0032(2) -0.00139(19)
loop_
_atom_type_symbol
_atom_type_description
_atom_type_scat_dispersion_real
_atom_type_scat_dispersion_imag
_atom_type_scat_source
Br Br -0.2901 2.4595 'International Tables Vol C Tables 4.2.6.8 and 6.1.1.4'
Se Se -0.0929 2.2259 'International Tables Vol C Tables 4.2.6.8 and 6.1.1.4'
C C 0.0033 0.0016 'International Tables Vol C Tables 4.2.6.8 and 6.1.1.4'
H H 0.0000 0.0000 'International Tables Vol C Tables 4.2.6.8 and 6.1.1.4'
loop_
_geom_angle_atom_site_label_1
_geom_angle_atom_site_label_2
_geom_angle_atom_site_label_3
_geom_angle
C1 Se1 Se2 103.37(13)
C2 C1 C10 120.4(4)
C2 C1 Se1 116.9(3)
C10 C1 Se1 122.6(3)
C1 C2 C3 121.4(4)
C1 C2 H1 119.3
C3 C2 H1 119.3
C4 C3 C2 120.8(4)
C4 C3 H2 119.6
C2 C3 H2 119.6
C3 C4 C5 120.0(4)
C3 C4 H3 120.0
C5 C4 H3 120.0
C7 C6 C5 121.3(4)
C7 C6 H4 119.3
C5 C6 H4 119.3
C6 C5 C4 119.0(4)
C6 C5 C10 120.7(4)
C4 C5 C10 120.4(4)
C6 C7 C8 119.4(4)
C6 C7 H5 120.3
C8 C7 H5 120.3
C9 C8 C7 120.5(4)
C9 C8 H6 119.8
C7 C8 H6 119.8
C8 C9 C10 123.7(4)
C8 C9 Br1 113.4(3)
C10 C9 Br1 122.9(3)
C9 C10 C1 128.9(4)
C9 C10 C5 114.3(4)
C1 C10 C5 116.8(4)
C11 Se2 Se1 102.15(13)
C12 C11 C20 120.3(4)
C12 C11 Se2 117.5(3)
C20 C11 Se2 122.1(3)
C11 C12 C13 121.4(4)
C11 C12 H7 119.3
C13 C12 H7 119.3
C14 C13 C12 120.3(4)
C14 C13 H8 119.8
C12 C13 H8 119.8
C13 C14 C15 120.5(4)
C13 C14 H9 119.7
C15 C14 H9 119.7
C16 C15 C14 119.3(4)
C16 C15 C20 120.8(4)
C14 C15 C20 119.8(4)
C17 C16 C15 121.4(5)
C17 C16 H10 119.3
C15 C16 H10 119.3
C16 C17 C18 119.3(4)
C16 C17 H11 120.4
C18 C17 H11 120.4
C19 C18 C17 120.4(4)
C19 C18 H12 119.8
C17 C18 H12 119.8
C18 C19 C20 123.7(4)
C18 C19 Br2 114.7(3)
C20 C19 Br2 121.5(3)
C19 C20 C11 128.4(4)
C19 C20 C15 114.3(4)
C11 C20 C15 117.2(4)
loop_
_geom_bond_atom_site_label_1
_geom_bond_atom_site_label_2
_geom_bond_distance
Se1 C1 1.956(4)
Se1 Se2 2.3354(6)
C1 C2 1.371(6)
C1 C10 1.441(6)
C2 C3 1.422(6)
C2 H1 0.9500
C3 C4 1.341(7)
C3 H2 0.9500
C4 C5 1.439(6)
C4 H3 0.9500
C6 C7 1.363(7)
C6 C5 1.422(6)
C6 H4 0.9500
C5 C10 1.448(6)
C7 C8 1.396(7)
C7 H5 0.9500
C8 C9 1.372(6)
C8 H6 0.9500
C9 C10 1.425(6)
C9 Br1 1.916(4)
Se2 C11 1.966(4)
C11 C12 1.374(6)
C11 C20 1.431(6)
C12 C13 1.403(6)
C12 H7 0.9500
C13 C14 1.357(6)
C13 H8 0.9500
C14 C15 1.423(6)
C14 H9 0.9500
C15 C16 1.412(6)
C15 C20 1.439(6)
C16 C17 1.365(7)
C16 H10 0.9500
C17 C18 1.393(7)
C17 H11 0.9500
C18 C19 1.368(6)
C18 H12 0.9500
C19 C20 1.424(6)
C19 Br2 1.908(5)
loop_
_geom_torsion_atom_site_label_1
_geom_torsion_atom_site_label_2
_geom_torsion_atom_site_label_3
_geom_torsion_atom_site_label_4
_geom_torsion
C10 C1 C2 C3 -1.7(7)
Se1 C1 C2 C3 176.1(3)
C1 C2 C3 C4 -1.8(7)
C2 C3 C4 C5 3.1(7)
C7 C6 C5 C4 -178.8(4)
C7 C6 C5 C10 0.7(7)
C3 C4 C5 C6 178.3(4)
C3 C4 C5 C10 -1.1(7)
C5 C6 C7 C8 1.7(7)
C6 C7 C8 C9 -1.9(7)
C7 C8 C9 C10 -0.3(7)
C7 C8 C9 Br1 178.0(4)
C8 C9 C10 C1 -178.6(4)
Br1 C9 C10 C1 3.2(7)
C8 C9 C10 C5 2.5(6)
Br1 C9 C10 C5 -175.6(3)
C2 C1 C10 C9 -175.2(4)
Se1 C1 C10 C9 7.0(7)
C2 C1 C10 C5 3.6(6)
Se1 C1 C10 C5 -174.2(3)
C6 C5 C10 C9 -2.7(6)
C4 C5 C10 C9 176.8(4)
C6 C5 C10 C1 178.4(4)
C4 C5 C10 C1 -2.2(6)
C20 C11 C12 C13 -3.6(6)
Se2 C11 C12 C13 172.1(3)
C11 C12 C13 C14 -1.8(7)
C12 C13 C14 C15 3.7(7)
C13 C14 C15 C16 179.0(4)
C13 C14 C15 C20 -0.3(6)
C14 C15 C16 C17 -177.8(4)
C20 C15 C16 C17 1.4(7)
C15 C16 C17 C18 1.3(7)
C16 C17 C18 C19 -0.9(7)
C17 C18 C19 C20 -2.1(7)
C17 C18 C19 Br2 173.2(3)
C18 C19 C20 C11 -175.4(4)
Br2 C19 C20 C11 9.5(6)
C18 C19 C20 C15 4.5(6)
Br2 C19 C20 C15 -170.6(3)
C12 C11 C20 C19 -173.3(4)
Se2 C11 C20 C19 11.2(6)
C12 C11 C20 C15 6.8(6)
Se2 C11 C20 C15 -168.8(3)
C16 C15 C20 C19 -4.1(6)
C14 C15 C20 C19 175.2(4)
C16 C15 C20 C11 175.8(4)
C14 C15 C20 C11 -4.9(6)
