#------------------------------------------------------------------------------
#$Date: 2019-12-25 22:18:48 +0200 (Wed, 25 Dec 2019) $
#$Revision: 245868 $
#$URL: file:///home/coder/svn-repositories/cod/cif/2/31/14/2311417.cif $
#------------------------------------------------------------------------------
#
# This file is available in the Crystallography Open Database (COD),
# http://www.crystallography.net/. The original data for this entry
# were provided by IUCr Journals, http://journals.iucr.org/.
#
# The file may be used within the scientific community so long as
# proper attribution is given to the journal article from which the
# data were obtained.
#
data_2311417
loop_
_publ_author_name
'Tanaka, Syuto'
'Masu, Hyuma'
'Sasanuma, Yuji'
_publ_section_title
;
 Crystal structures of 2-(benzene-carbo-thio-yloxy)ethyl
 benzene-carbo-thio-ate and 2-(benzene-carbo-thio-yloxy)ethyl benzoate.
;
_journal_issue                   'Pt 10'
_journal_name_full
'Acta crystallographica. Section E, Crystallographic communications'
_journal_page_first              1430
_journal_page_last               1433
_journal_paper_doi               10.1107/S2056989017012701
_journal_volume                  73
_journal_year                    2017
_chemical_formula_iupac          'C16 H14 O3 S'
_chemical_formula_moiety         'C16 H14 O3 S'
_chemical_formula_sum            'C16 H14 O3 S'
_chemical_formula_weight         286.33
_chemical_name_common            EMTB
_chemical_name_systematic
;
2-(Benzenecarbothioyloxy)ethyl benzoate
;
_space_group_crystal_system      monoclinic
_space_group_IT_number           14
_space_group_name_Hall           '-P 2ybc'
_space_group_name_H-M_alt        'P 1 21/c 1'
_atom_sites_solution_hydrogens   geom
_cell_angle_alpha                90
_cell_angle_beta                 113.831(6)
_cell_angle_gamma                90
_cell_formula_units_Z            2
_cell_length_a                   8.800(5)
_cell_length_b                   11.403(6)
_cell_length_c                   7.506(4)
_cell_measurement_reflns_used    1991
_cell_measurement_temperature    173
_cell_measurement_theta_max      27.6261
_cell_measurement_theta_min      2.5410
_cell_volume                     689.0(6)
_computing_cell_refinement
;
SAINT (Bruker, 2012)
;
_computing_data_collection
;
APEX2 (Bruker, 2012)
;
_computing_data_reduction
;
SAINT (Bruker, 2012)
;
_computing_molecular_graphics
;
<i>XSHEL</i> (Bruker, 2012)
;
_computing_publication_material
;
<i>XCIF</i> (Bruker, 2012)
;
_computing_structure_refinement
;
SHELXL-2013 (Sheldrick, 2015)
;
_computing_structure_solution
;
SHELXS-97 (Sheldrick, 2008)
;
_diffrn_ambient_temperature      173
_diffrn_detector_area_resol_mean 8.3333
_diffrn_measured_fraction_theta_full 0.975
_diffrn_measured_fraction_theta_max 0.949
_diffrn_measurement_device_type  'Bruker APEXII CCD area detector'
_diffrn_measurement_method       '\f and \w scans'
_diffrn_radiation_monochromator  graphite
_diffrn_radiation_type           MoK\a
_diffrn_radiation_wavelength     0.71073
_diffrn_reflns_av_R_equivalents  0.0153
_diffrn_reflns_limit_h_max       11
_diffrn_reflns_limit_h_min       -11
_diffrn_reflns_limit_k_max       14
_diffrn_reflns_limit_k_min       -6
_diffrn_reflns_limit_l_max       9
_diffrn_reflns_limit_l_min       -8
_diffrn_reflns_number            3265
_diffrn_reflns_theta_full        25.000
_diffrn_reflns_theta_max         27.652
_diffrn_reflns_theta_min         2.530
_exptl_absorpt_coefficient_mu    0.239
_exptl_absorpt_correction_T_max  0.98
_exptl_absorpt_correction_T_min  0.84
_exptl_absorpt_correction_type   multi-scan
_exptl_absorpt_process_details
;
(SADABS; Sheldrick, 1996)
;
_exptl_crystal_colour            yellow
_exptl_crystal_density_diffrn    1.380
_exptl_crystal_density_method    'not measured'
_exptl_crystal_description       prismatic
_exptl_crystal_F_000             300
_exptl_crystal_size_max          0.400
_exptl_crystal_size_mid          0.400
_exptl_crystal_size_min          0.100
_refine_diff_density_max         0.190
_refine_diff_density_min         -0.161
_refine_ls_extinction_method     none
_refine_ls_goodness_of_fit_ref   1.079
_refine_ls_hydrogen_treatment    constr
_refine_ls_matrix_type           full
_refine_ls_number_parameters     100
_refine_ls_number_reflns         1523
_refine_ls_number_restraints     0
_refine_ls_restrained_S_all      1.079
_refine_ls_R_factor_all          0.0452
_refine_ls_R_factor_gt           0.0382
_refine_ls_shift/su_max          0.002
_refine_ls_shift/su_mean         0.000
_refine_ls_structure_factor_coef Fsqd
_refine_ls_weighting_details
'w=1/[\s^2^(Fo^2^)+(0.0288P)^2^+0.2342P] where P=(Fo^2^+2Fc^2^)/3'
_refine_ls_weighting_scheme      calc
_refine_ls_wR_factor_gt          0.0855
_refine_ls_wR_factor_ref         0.0897
_reflns_number_gt                1335
_reflns_number_total             1523
_reflns_threshold_expression     'I > 2\s(I)'
_cod_data_source_file            is5479sup1.cif
_cod_data_source_block           model_E
_cod_database_code               2311417
_shelx_hkl_file
;
   0   0   1   -0.04    0.01
   0   0   2   36.96    0.53
   0   0  -2   37.23    0.57
   0   0   3    0.01    0.01
   0   0  -3    0.01    0.02
   0   0   4   41.42    0.62
   0   0  -4   41.39    0.69
   0   0  -5    0.00    0.03
   0   0  -6    0.39    0.07
   0   1   0    0.02    0.01
   0   1  -1  189.41    2.68
   0   1   1  198.82    2.77
   0   1  -1  198.12    2.67
   0  -1  -1  193.38    2.70
   0   1  -2    4.20    0.12
   0   1   2    4.37    0.10
   0  -1   2    4.19    0.08
   0  -1  -2    4.20    0.10
   0   1  -3   61.36    0.95
   0   1   3   62.35    0.90
   0  -1  -3   62.28    0.92
   0  -1   3   61.00    0.86
   0   1  -4    1.25    0.08
   0   1   4    1.20    0.06
   0  -1  -4    1.19    0.07
   0  -1   4    1.12    0.05
   0   1  -5    0.02    0.03
   0  -1  -5    0.00    0.03
   0   1  -6    7.69    0.25
   0  -1  -6    7.45    0.23
   0   1  -7    0.03    0.04
   0   2   0    6.89    0.14
   0   2  -1  296.54    4.20
   0   2   1  292.14    4.14
   0   2  -2   16.55    0.26
   0   2   2   17.00    0.30
   0   2  -2   16.94    0.32
   0  -2  -2   17.45    0.28
   0   2  -3   22.30    0.43
   0   2  -3   22.02    0.33
   0   2   3   22.87    0.39
   0  -2  -3   22.40    0.37
   0   2  -4   28.30    0.54
   0   2   4   28.54    0.49
   0  -2  -4   28.49    0.48
   0   2  -5    0.08    0.04
   0  -2  -5    0.06    0.03
   0   2  -6    1.11    0.12
   0   2  -7    0.40    0.08
   0   3   0    0.40    0.04
   0   3  -1   98.73    1.43
   0   3   1  100.79    1.43
   0   3  -1   98.50    1.40
   0   3  -2   12.60    0.28
   0   3   2   12.66    0.26
   0  -3  -2   12.99    0.22
   0   3   3   49.72    0.79
   0   3  -3   50.65    0.83
   0  -3  -3   49.60    0.74
   0   3  -4   12.34    0.31
   0   3   4   12.02    0.28
   0  -3  -4   12.00    0.25
   0   3   5    0.07    0.03
   0   3  -5    0.12    0.06
   0   3  -6    3.21    0.18
   0   3  -7    1.00    0.13
   0   3  -8    1.72    0.20
   0   4   0   70.11    1.05
   0   4  -1   16.37    0.33
   0   4  -1   16.63    0.31
   0   4   1   16.64    0.33
   0   4   2    7.97    0.21
   0   4  -2    7.77    0.17
   0   4  -2    7.78    0.22
   0   4  -3   18.18    0.31
   0   4   3   18.24    0.37
   0   4  -3   18.30    0.40
   0  -4  -3   17.83    0.31
   0   4  -4    4.89    0.20
   0   4   4    5.01    0.17
   0  -4  -4    5.41    0.14
   0   4   5    1.06    0.10
   0   4  -5    1.25    0.13
   0   4  -6    6.77    0.27
   0   4  -7    0.30    0.09
   0   4  -8    0.01    0.06
   0   5   0    0.18    0.04
   0   5  -1    7.26    0.20
   0   5  -1    7.26    0.19
   0   5   1    7.29    0.21
   0   5  -2   53.15    0.82
   0   5   2   53.63    0.87
   0   5  -2   52.88    0.89
   0   5  -3   20.08    0.45
   0   5  -3   20.35    0.36
   0   5   3   20.68    0.43
   0   5  -4    2.02    0.14
   0   5   4    2.48    0.13
   0   5   5    2.72    0.14
   0   5  -5    2.60    0.16
   0   5  -6    2.11    0.16
   0   5  -7    0.08    0.07
   0   5  -8    0.84    0.14
   0   6   0   17.06    0.37
   0   6  -1    1.10    0.08
   0   6   1    1.04    0.09
   0   6  -1    0.85    0.08
   0   6   2    5.64    0.20
   0   6  -2    4.94    0.19
   0   6  -2    5.51    0.17
   0   6  -3    8.45    0.21
   0   6  -3    8.25    0.27
   0   6   3    7.78    0.25
   0   6  -4   10.13    0.32
   0   6   4   10.68    0.30
   0   6   5   11.10    0.33
   0   6  -5   11.93    0.37
   0   6  -6    0.55    0.11
   0   6  -7    3.59    0.23
   0   6  -8   -0.02    0.05
   0   7   0    0.10    0.04
   0   7  -1   26.55    0.52
   0   7  -1   25.99    0.53
   0   7   1   26.85    0.54
   0   7  -2    7.46    0.25
   0   7  -2    7.53    0.22
   0   7   2    7.33    0.24
   0   7  -3   11.81    0.35
   0   7   3   12.37    0.34
   0   7  -3   12.39    0.29
   0   7   4    0.85    0.11
   0   7  -4    1.02    0.13
   0   7  -5    3.25    0.20
   0   7   5    3.63    0.19
   0   7  -6    1.09    0.15
   0   7  -7    0.75    0.14
   0   8   0    0.22    0.06
   0   8   1   12.05    0.34
   0   8  -1   12.03    0.33
   0   8  -1   12.41    0.32
   0   8   2    0.28    0.07
   0   8  -2    0.15    0.06
   0   8  -2    0.31    0.06
   0   8   3    2.34    0.16
   0   8  -3    2.20    0.12
   0   8  -3    1.96    0.15
   0   8   4    7.59    0.28
   0   8  -4    7.11    0.29
   0   8  -5    0.13    0.07
   0   8   5    0.08    0.06
   0   8  -6    5.18    0.27
   0   8  -7    0.23    0.09
   0   9   0    0.06    0.05
   0   9   0    0.15    0.05
   0   9  -1    0.04    0.04
   0   9  -1    0.03    0.05
   0   9   1    0.01    0.05
   0   9  -2    5.68    0.22
   0   9  -2    5.31    0.24
   0   9   2    6.10    0.25
   0   9  -3   11.89    0.38
   0   9  -3   11.60    0.33
   0   9   3   12.03    0.37
   0   9   4    1.97    0.19
   0   9  -4    1.74    0.18
   0   9  -5    0.61    0.12
   0   9   5    0.51    0.10
   0   9  -6    0.24    0.10
   0   9   6    0.62    0.12
   0   9  -7    1.51    0.27
   0  10   0    6.24    0.26
   0  10   0    6.48    0.24
   0  10  -1    1.26    0.14
   0  10  -1    1.14    0.13
   0  10   1    1.03    0.13
   0  10  -2    8.34    0.31
   0  10  -2    8.32    0.28
   0  10   2    8.73    0.32
   0  10   3    0.02    0.05
   0  10  -3    0.02    0.06
   0  10   4    2.55    0.19
   0  10  -4    2.43    0.19
   0  10   5    0.30    0.09
   0  10  -5    0.41    0.11
   0  10   6   -0.01    0.06
   0  10  -6    0.01    0.07
   0  11   0    0.00    0.04
   0  11   0    0.01    0.05
   0  11   1   24.48    0.61
   0  11  -1   25.97    0.60
   0  11  -1   24.54    0.58
   0  11   2    0.58    0.11
   0  11  -2    0.47    0.09
   0  11  -2    0.57    0.11
   0  11  -3   -0.01    0.05
   0  11   3    0.00    0.06
   0  11  -4    0.08    0.07
   0  11   4    0.06    0.07
   0  11   5    0.77    0.14
   0  11  -5    0.88    0.15
   0  11   6    0.24    0.10
   0  12   0   27.94    0.67
   0  12   1    9.98    0.37
   0  12  -1   10.04    0.36
   0  12  -1    9.67    0.36
   0  12  -2    0.22    0.07
   0  12   2    0.47    0.11
   0  12  -2    0.49    0.11
   0  12   3    0.43    0.11
   0  12  -3    0.16    0.09
   0  12  -4   -0.04    0.06
   0  12   4    0.06    0.08
   0  12   5    1.97    0.22
   0  12  -5    1.70    0.23
   0  13   0    0.50    0.11
   0  13   1    0.00    0.07
   0  13  -1    0.05    0.08
   0  13  -1    0.08    0.07
   0  13  -2    5.32    0.28
   0  13  -2    5.42    0.26
   0  13   2    4.56    0.27
   0  13   3    0.69    0.13
   0  13  -3    1.08    0.16
   0  13  -4    0.45    0.13
   0  13   4    0.29    0.10
   0  14   0    0.44    0.11
   0  14  -1    3.55    0.24
   0  14   1    3.65    0.25
   0  14  -2    1.00    0.16
   0  14   2    0.98    0.16
   0  14  -3    1.82    0.22
   1   0  -6   10.77    0.28
   1   0  -5    0.01    0.02
   1   0  -4   62.87    0.95
  -1   0   4   61.09    0.91
  -1   0   3    0.04    0.02
   1   0  -3    0.03    0.02
   1   0  -2  129.80    1.82
  -1   0   2  133.40    1.82
  -1   0   1   -0.01    0.01
  -1   0   0   38.61    0.57
  -1   0   0   39.53    0.56
  -1   0  -1    0.03    0.02
   1   0   1    0.02    0.01
   1   0   2   39.03    0.55
  -1   0  -2   38.04    0.61
  -1   0  -3    0.00    0.02
   1   0   3    0.02    0.01
  -1   0  -4    8.79    0.24
  -1   0  -5    0.01    0.03
  -1   0  -6    1.43    0.12
   1   1  -7    0.13    0.09
   1   1  -6    2.09    0.13
   1   1  -5   47.73    0.81
  -1   1   5   49.69    0.76
   1  -1  -5   47.46    0.77
  -1   1   4    3.66    0.12
   1   1  -4    4.00    0.14
   1  -1  -4    3.59    0.11
  -1  -1   4    3.53    0.10
   1   1  -3   31.30    0.52
  -1   1   3   31.32    0.50
   1  -1  -3   31.98    0.49
  -1  -1   3   31.57    0.49
  -1   1   2  529.36    7.18
   1  -1  -2  511.35    7.01
  -1  -1   2  493.64    7.09
  -1   1   1   16.42    0.24
  -1   1   1   16.71    0.27
  -1  -1   1   16.96    0.27
   1   1   0   34.33    0.51
  -1   1   0   34.35    0.49
  -1   1   0   34.31    0.50
  -1  -1   0   33.08    0.50
  -1   1  -1  137.38    1.89
   1   1   1  137.26    1.90
  -1   1  -1  136.37    1.92
  -1  -1  -1  139.69    1.91
  -1   1  -2    1.03    0.07
   1   1   2    0.89    0.05
  -1  -1  -2    0.90    0.05
  -1   1  -3    0.88    0.07
   1   1   3    0.77    0.05
  -1  -1  -3    0.93    0.06
  -1   1  -4   11.03    0.28
  -1  -1  -4   11.32    0.27
  -1   1  -5    2.14    0.13
  -1  -1  -5    2.06    0.12
  -1   1  -6    8.23    0.28
  -1  -1  -6    8.27    0.26
  -1   1  -7   11.79    0.37
   1   2  -7    1.66    0.13
   1   2  -6    3.64    0.17
  -1   2   5    2.97    0.12
   1   2  -5    2.85    0.14
   1  -2  -5    2.82    0.10
   1   2  -4    1.81    0.10
  -1   2   4    1.76    0.09
   1  -2  -4    1.69    0.07
  -1  -2   4    1.88    0.07
  -1   2   3    9.56    0.21
   1   2  -3    9.15    0.23
   1  -2  -3    9.43    0.17
  -1   2   2 1000.00   13.83
   1   2  -2  991.00   13.74
  -1   2   1  530.01    7.10
   1   2  -1  509.25    7.33
  -1   2   1  521.47    7.27
  -1   2   0    5.74    0.12
   1   2   0    5.71    0.13
  -1   2   0    5.54    0.12
   1   2   1   49.31    0.74
  -1   2  -1   49.06    0.69
  -1   2  -1   48.33    0.75
  -1  -2  -1   49.25    0.72
   1   2   2  105.08    1.52
  -1   2  -2  108.59    1.56
  -1  -2  -2  106.58    1.52
  -1   2  -3    3.35    0.14
   1   2   3    3.24    0.11
  -1  -2  -3    3.50    0.12
   1   2   4    3.46    0.12
  -1   2  -4    3.45    0.15
  -1  -2  -4    3.68    0.14
  -1   2  -5    0.05    0.04
  -1  -2  -5    0.05    0.04
  -1   2  -6    4.26    0.20
  -1   2  -7    2.31    0.17
   1   3  -7    0.14    0.06
   1   3  -6    1.05    0.12
  -1   3   5    0.26    0.05
   1   3  -5    0.28    0.06
   1   3  -4   54.93    0.91
  -1   3   4   56.06    0.88
   1   3  -4   53.34    0.81
   1  -3  -4   54.06    0.79
   1   3  -3    6.36    0.19
   1   3  -3    6.42    0.15
  -1   3   3    6.55    0.18
   1  -3  -3    6.65    0.11
   1   3  -2   29.61    0.48
  -1   3   2   29.92    0.50
  -1   3   1  279.74    3.89
  -1   3   1  276.00    3.84
   1   3  -1  280.61    3.98
  -1   3   0    3.80    0.11
  -1   3   0    3.76    0.11
   1   3   0    3.83    0.12
  -1   3  -1    9.67    0.18
   1   3   1    9.62    0.21
  -1   3  -1    9.90    0.22
  -1  -3  -1    9.74    0.20
  -1   3  -2   16.65    0.34
  -1   3  -2   16.10    0.26
   1   3   2   16.47    0.32
  -1  -3  -2   16.21    0.30
  -1   3  -3   10.09    0.27
   1   3   3   10.01    0.24
  -1  -3  -3   10.09    0.23
  -1   3  -4   41.89    0.77
   1   3   4   42.76    0.70
  -1  -3  -4   42.04    0.70
  -1   3  -5    0.09    0.05
  -1  -3  -5    0.07    0.04
  -1   3  -6    1.62    0.16
  -1   3  -7    0.30    0.08
  -1   3  -8    8.68    0.35
   1   4  -8    0.99    0.14
   1   4  -7    0.86    0.12
   1   4  -6    7.48    0.27
  -1   4   5    2.05    0.12
   1   4  -5    2.33    0.14
   1   4  -4    1.81    0.12
   1   4  -4    1.91    0.08
  -1   4   4    1.81    0.11
  -1   4   3   26.18    0.49
   1   4  -3   26.36    0.51
   1   4  -3   25.42    0.44
  -1   4   2   32.01    0.56
   1   4  -2   32.06    0.53
  -1   4   1   46.30    0.74
  -1   4   1   46.40    0.69
  -1   4   0    0.66    0.05
   1   4   0    0.82    0.07
  -1   4   0    0.72    0.05
   1   4   1   29.49    0.52
  -1   4  -1   29.16    0.52
  -1   4  -1   29.46    0.48
   1   4   2   84.25    1.27
  -1   4  -2   83.68    1.20
  -1   4  -2   85.07    1.29
  -1  -4  -2   83.02    1.23
  -1   4  -3    5.84    0.20
   1   4   3    5.62    0.18
  -1   4  -3    5.49    0.11
  -1  -4  -3    5.54    0.15
   1   4   4    7.01    0.21
  -1   4  -4    7.19    0.25
  -1  -4  -4    7.43    0.20
  -1   4  -5    4.89    0.22
  -1   4  -6    0.09    0.06
  -1   4  -7    7.54    0.31
  -1   4  -8    2.01    0.20
   1   5  -8    0.06    0.06
   1   5  -7    3.15    0.20
  -1   5   6    0.85    0.13
   1   5  -6    0.89    0.12
  -1   5   5    0.64    0.09
   1   5  -5    0.65    0.10
  -1   5   4    2.89    0.14
   1   5  -4    2.88    0.15
   1   5  -3   24.98    0.51
  -1   5   3   24.55    0.49
   1   5  -3   24.14    0.44
  -1   5   2    0.23    0.05
   1   5  -2    0.24    0.04
  -1   5   1   28.69    0.47
   1   5  -1   28.40    0.51
  -1   5   1   29.70    0.52
  -1   5   0   36.38    0.60
   1   5   0   37.11    0.63
  -1   5   0   35.46    0.61
  -1   5  -1   74.04    1.15
   1   5   1   74.97    1.15
  -1   5  -1   72.58    1.10
  -1   5  -2    7.59    0.18
  -1   5  -2    7.77    0.23
   1   5   2    8.06    0.23
  -1   5  -3    0.28    0.03
  -1   5  -3    0.12    0.05
   1   5   3    0.26    0.06
  -1  -5  -3    0.25    0.04
  -1   5  -4   14.76    0.39
   1   5   4   14.80    0.36
  -1  -5  -4   14.83    0.34
  -1   5  -5    0.48    0.10
  -1   5  -6    1.46    0.16
  -1   5  -7    0.00    0.06
  -1   5  -8    0.96    0.14
   1   6  -8    0.04    0.06
   1   6  -7    1.24    0.16
   1   6  -6    1.24    0.15
  -1   6   6    1.54    0.14
   1   6  -5    3.58    0.20
  -1   6   5    3.78    0.18
  -1   6   4    0.90    0.10
   1   6  -4    0.54    0.09
   1   6  -4    0.82    0.08
  -1   6   3    1.29    0.12
   1   6  -3    1.18    0.08
   1   6  -3    1.36    0.11
  -1   6   2    3.59    0.16
   1   6  -2    3.54    0.14
  -1   6   1   48.49    0.82
  -1   6   1   49.13    0.77
   1   6  -1   49.66    0.82
  -1   6   0   25.65    0.49
   1   6   0   25.83    0.50
  -1   6   0   25.88    0.48
   1   6   1    0.13    0.04
  -1   6  -1    0.15    0.04
  -1   6  -1    0.17    0.04
   1   6   2    7.37    0.23
  -1   6  -2    7.24    0.24
  -1   6  -2    7.32    0.19
  -1   6  -3    0.54    0.08
   1   6   3    0.67    0.09
   1   6   4    0.16    0.06
  -1   6  -4    0.22    0.06
   1   6   5   14.03    0.38
  -1   6  -5   14.67    0.43
  -1   6  -6    1.47    0.16
  -1   6  -7    0.09    0.07
   1   7  -8    1.56    0.19
   1   7  -7    0.46    0.11
  -1   7   6    0.43    0.09
   1   7  -6    0.64    0.11
   1   7  -5    3.47    0.21
  -1   7   5    3.53    0.19
  -1   7   4    7.91    0.28
   1   7  -4    8.54    0.30
   1   7  -3    0.34    0.06
   1   7  -3    0.41    0.08
  -1   7   3    0.53    0.08
   1   7  -2    0.11    0.05
  -1   7   2    0.14    0.04
  -1   7   2    0.26    0.06
  -1   7   1    1.26    0.08
   1   7  -1    1.29    0.10
  -1   7   1    1.17    0.11
   1   7   0    9.20    0.27
  -1   7   0    9.27    0.25
  -1   7   0    8.98    0.26
  -1   7  -1   35.84    0.67
   1   7   1   35.82    0.68
  -1   7  -1   36.59    0.65
   1   7   2   25.22    0.54
  -1   7  -2   26.45    0.55
  -1   7  -2   25.92    0.49
  -1   7  -3    2.64    0.16
   1   7   3    2.67    0.16
  -1   7  -4    0.02    0.06
   1   7   4    0.01    0.04
   1   7   5    0.26    0.07
  -1   7  -5    0.37    0.09
  -1   7  -6    0.16    0.08
  -1   7  -7    0.54    0.12
   1   8  -7    1.30    0.17
   1   8  -6    0.02    0.06
  -1   8   6   -0.02    0.04
   1   8  -5    4.19    0.24
  -1   8   5    3.79    0.21
   1   8  -4    3.76    0.21
  -1   8   4    3.74    0.20
   1   8  -3    0.72    0.11
   1   8  -3    0.76    0.09
  -1   8   3    0.71    0.10
   1   8  -2    5.06    0.20
  -1   8   2    4.90    0.21
   1   8  -1    3.17    0.16
  -1   8   1    3.24    0.17
  -1   8   1    3.25    0.14
   1   8   0    6.13    0.23
  -1   8   0    5.73    0.21
  -1   8   0    6.51    0.23
   1   8   1    0.04    0.04
  -1   8  -1   -0.03    0.03
  -1   8  -1    0.06    0.04
  -1   8  -2    1.57    0.11
  -1   8  -2    1.14    0.12
   1   8   2    1.43    0.14
  -1   8  -3   12.52    0.38
   1   8   3   12.63    0.37
   1   8   4    0.40    0.09
  -1   8  -4    0.60    0.11
  -1   8  -5    0.25    0.09
   1   8   5    0.36    0.09
  -1   8  -6    1.56    0.18
  -1   8  -7    1.94    0.21
   1   9  -7    0.02    0.07
  -1   9   6    0.16    0.07
   1   9  -6    0.04    0.07
   1   9  -5    1.72    0.19
  -1   9   5    1.62    0.17
   1   9  -4    0.55    0.11
  -1   9   4    0.47    0.09
  -1   9   3   10.58    0.35
   1   9  -3   10.67    0.31
   1   9  -3   11.17    0.36
   1   9  -2    0.92    0.11
  -1   9   2    0.77    0.11
   1   9  -2    0.69    0.10
  -1   9   1   43.09    0.75
   1   9  -1   40.63    0.78
  -1   9   1   41.07    0.80
  -1   9   0   16.71    0.42
  -1   9   0   16.72    0.40
   1   9   0   16.44    0.43
  -1   9  -1    0.64    0.09
   1   9   1    0.54    0.09
  -1   9  -1    0.64    0.10
  -1   9  -2    2.63    0.14
  -1   9  -2    2.63    0.17
   1   9   2    2.53    0.17
  -1   9  -3   10.20    0.35
   1   9   3   10.17    0.34
  -1   9  -4    0.05    0.06
   1   9   4    0.05    0.06
   1   9   5    1.17    0.15
  -1   9  -5    1.17    0.17
  -1   9  -6    0.41    0.11
   1  10  -6    2.18    0.23
  -1  10   6    2.08    0.20
  -1  10   5    0.90    0.14
   1  10  -5    1.14    0.16
   1  10  -4    0.33    0.09
  -1  10   4    0.14    0.07
   1  10  -3    1.85    0.18
  -1  10   3    1.90    0.18
   1  10  -3    1.76    0.14
   1  10  -2    6.24    0.25
  -1  10   2    6.00    0.26
   1  10  -2    6.31    0.27
  -1  10   1   41.98    0.83
   1  10  -1   40.87    0.81
   1  10   0    2.37    0.17
  -1  10   0    2.74    0.16
  -1  10   0    2.59    0.17
  -1  10  -1    1.30    0.13
  -1  10  -1    1.37    0.14
   1  10   1    1.61    0.16
   1  10   2    0.54    0.11
  -1  10  -2    0.45    0.08
  -1  10  -2    0.48    0.10
  -1  10  -3    4.80    0.25
   1  10   3    4.84    0.25
   1  10   4    2.85    0.20
  -1  10  -4    2.40    0.20
  -1  10  -5    0.02    0.07
   1  10   5    0.15    0.07
  -1  10  -6    2.00    0.26
   1  11  -6    0.18    0.10
  -1  11   6    0.31    0.10
   1  11  -5    5.32    0.30
  -1  11   5    5.12    0.28
   1  11  -4    1.67    0.19
  -1  11   4    1.56    0.18
   1  11  -3    0.00    0.05
   1  11  -3    0.09    0.07
  -1  11   3    0.06    0.07
  -1  11   2    2.87    0.20
   1  11  -2    2.97    0.20
   1  11  -2    2.64    0.18
  -1  11   1    0.23    0.08
   1  11  -1    0.26    0.07
   1  11  -1    0.27    0.08
  -1  11   0   10.66    0.34
   1  11   0   10.49    0.36
  -1  11   0   11.21    0.36
   1  11   1    2.51    0.19
  -1  11  -1    2.34    0.17
  -1  11  -1    2.43    0.17
  -1  11  -2    0.68    0.12
   1  11   2    0.84    0.13
  -1  11  -2    0.87    0.12
  -1  11  -3   -0.05    0.05
   1  11   3   -0.01    0.06
  -1  11  -4    1.51    0.19
   1  11   4    1.02    0.15
   1  11   5    2.28    0.23
  -1  11  -5    2.04    0.22
   1  12  -5   -0.01    0.07
  -1  12   5   -0.03    0.08
  -1  12   4    3.21    0.23
   1  12  -4    3.24    0.24
  -1  12   3    0.51    0.12
   1  12  -3    0.53    0.12
   1  12  -2    3.68    0.23
   1  12  -2    4.04    0.22
  -1  12   2    4.22    0.24
   1  12  -1    3.37    0.21
  -1  12   1    3.39    0.22
   1  12  -1    3.37    0.21
   1  12   0    3.48    0.22
  -1  12   0    3.48    0.22
  -1  12  -1    4.62    0.24
  -1  12  -1    4.95    0.25
   1  12   1    5.00    0.26
   1  12   2    0.00    0.06
  -1  12  -2    0.01    0.06
   1  12   3    0.14    0.08
  -1  12  -3    0.30    0.10
   1  12   4    0.05    0.07
  -1  12  -4    0.02    0.07
   1  13  -4    0.16    0.10
  -1  13   4    0.16    0.08
  -1  13   3    3.55    0.25
   1  13  -3    4.00    0.26
   1  13  -2    4.88    0.28
   1  13  -2    5.03    0.26
  -1  13   2    4.71    0.28
   1  13  -1    0.16    0.08
  -1  13   1    0.25    0.09
   1  13  -1    0.11    0.07
   1  13   0    4.98    0.27
  -1  13   0    4.91    0.26
  -1  13  -1    0.27    0.09
   1  13   1    0.27    0.10
   1  13   2    0.17    0.08
  -1  13  -2   -0.05    0.06
  -1  13  -3    0.11    0.08
   1  13   3    0.23    0.10
   1  14  -3    4.88    0.30
   1  14  -2    2.70    0.22
   1  14  -2    2.70    0.21
  -1  14   2    2.26    0.23
   1  14  -1    0.05    0.07
  -1  14   1    0.10    0.08
  -1  14   0    0.10    0.08
   1  14   0    0.02    0.06
  -1  14  -1    0.29    0.09
   1  14   1    0.58    0.12
   1  14   2    0.00    0.13
  -1  14  -2   -0.03    0.08
   2   0  -6    0.54    0.07
   2   0  -5    0.03    0.03
  -2   0   5   -0.02    0.02
   2   0  -4   47.85    0.75
  -2   0   4   47.81    0.75
  -2   0   3   -0.01    0.02
  -2   0   2   16.44    0.30
  -2   0   1    0.01    0.02
  -2   0   1   -0.01    0.01
  -2   0   0  228.81    3.31
  -2   0   0  226.76    3.22
  -2   0  -1   -0.02    0.01
   2   0   1    0.01    0.01
  -2   0  -2    7.07    0.19
  -2   0  -3    0.02    0.03
   2   0   3    0.03    0.01
  -2   0  -4    6.03    0.21
  -2   0  -5   -0.06    0.04
  -2   0  -6    0.27    0.08
   2   1  -6   32.98    0.62
   2   1  -5    0.57    0.07
  -2   1   5    0.76    0.08
   2  -1  -5    0.63    0.06
  -2  -1   5    0.57    0.06
   2   1  -4    9.25    0.23
  -2   1   4    9.60    0.22
  -2  -1   4    9.20    0.21
   2  -1  -4    9.63    0.20
  -2   1   3   11.26    0.24
  -2  -1   3   11.24    0.23
   2  -1  -3   11.10    0.20
  -2   1   2  105.88    1.52
  -2  -1   2  107.92    1.52
  -2   1   1   17.92    0.31
  -2   1   1   18.21    0.29
  -2  -1   1   17.56    0.31
  -2   1   0   31.24    0.49
   2   1   0   31.51    0.50
  -2   1   0   32.14    0.48
  -2  -1   0   30.52    0.49
   2   1   1    0.62    0.05
  -2   1  -1    0.67    0.04
  -2   1  -1    0.65    0.06
  -2  -1  -1    0.67    0.05
   2   1   2   89.52    1.29
  -2   1  -2   89.14    1.35
   2  -1   2   91.48    1.25
  -2  -1  -2   90.90    1.34
   2   1   3    8.56    0.18
  -2   1  -3    8.48    0.24
  -2  -1  -3    9.08    0.23
  -2   1  -4    9.87    0.28
  -2  -1  -4   10.02    0.27
  -2   1  -5    8.04    0.27
  -2  -1  -5    8.36    0.26
  -2   1  -6   35.96    0.74
  -2  -1  -6   36.76    0.72
  -2   1  -7    9.46    0.35
   2   2  -7    3.97    0.19
   2   2  -6    1.62    0.12
  -2   2   5    5.05    0.17
   2   2  -5    5.03    0.18
  -2  -2   5    4.88    0.15
  -2   2   4   10.79    0.25
   2   2  -4   10.81    0.26
   2  -2  -4   10.39    0.19
  -2  -2   4   10.55    0.23
  -2   2   3    0.61    0.06
  -2  -2   3    0.64    0.05
  -2   2   2   61.68    0.93
  -2  -2   2   61.95    0.93
  -2   2   1   29.03    0.47
  -2   2   1   29.50    0.44
   2   2   0   84.80    1.24
  -2   2   0   85.81    1.22
  -2   2   0   84.62    1.23
  -2  -2   0   86.84    1.24
  -2   2  -1    4.56    0.10
   2   2   1    4.58    0.13
  -2   2  -1    4.46    0.14
  -2  -2  -1    4.63    0.13
   2   2   2   51.51    0.80
  -2   2  -2   52.52    0.73
  -2   2  -2   51.18    0.84
  -2  -2  -2   51.40    0.82
  -2   2  -3    6.77    0.22
   2   2   3    7.13    0.18
  -2  -2  -3    6.98    0.20
  -2   2  -4    1.97    0.13
  -2  -2  -4    1.89    0.11
  -2   2  -5   19.77    0.48
  -2  -2  -5   20.16    0.45
  -2   2  -6    1.23    0.14
  -2   2  -7    2.04    0.17
   2   3  -7    1.14    0.13
   2   3  -6   -0.01    0.04
  -2   3   6    0.07    0.04
  -2   3   5    2.70    0.13
   2   3  -5    2.53    0.11
   2   3  -5    2.85    0.15
   2   3  -4  119.74    1.75
   2   3  -4  123.41    1.82
  -2   3   4  120.12    1.78
   2   3  -3   13.19    0.28
  -2   3   3   14.17    0.30
   2   3  -2   45.10    0.71
  -2   3   2   44.70    0.72
  -2   3   1   64.44    0.97
   2   3  -1   64.45    0.98
  -2   3   1   65.57    0.93
  -2   3   0   23.76    0.40
  -2   3   0   23.55    0.40
   2   3   0   22.97    0.42
  -2   3  -1    1.74    0.06
  -2   3  -1    1.62    0.09
   2   3   1    1.71    0.09
  -2  -3  -1    1.64    0.08
  -2   3  -2   25.47    0.38
   2   3   2   24.90    0.46
  -2   3  -2   24.88    0.48
  -2  -3  -2   25.32    0.45
  -2   3  -3    0.29    0.06
   2   3   3    0.41    0.06
  -2  -3  -3    0.29    0.05
  -2   3  -4    1.33    0.13
  -2  -3  -4    1.35    0.10
  -2   3  -5    1.19    0.13
  -2  -3  -5    1.01    0.10
  -2   3  -6    4.31    0.22
  -2   3  -7    0.01    0.06
   2   4  -8    0.63    0.11
   2   4  -7    0.22    0.07
  -2   4   6    2.88    0.15
   2   4  -6    2.78    0.17
   2   4  -5    0.02    0.03
  -2   4   5    0.05    0.04
   2   4  -5    0.04    0.04
  -2   4   4   90.49    1.41
   2   4  -4   90.03    1.36
   2   4  -4   92.87    1.44
  -2   4   3  268.16    3.79
   2   4  -3  271.81    3.76
  -2   4   2   13.08    0.21
   2   4  -2   13.05    0.29
  -2   4   2   12.95    0.29
  -2   4   1   10.78    0.25
  -2   4   1   10.79    0.21
   2   4   0   32.73    0.56
  -2   4   0   31.75    0.54
  -2   4   0   31.84    0.53
  -2   4  -1    4.38    0.12
   2   4   1    4.33    0.15
  -2   4  -1    4.28    0.15
   2   4   2    7.08    0.21
  -2   4  -2    6.98    0.15
  -2   4  -2    7.10    0.22
  -2  -4  -2    7.19    0.19
  -2   4  -3   34.93    0.66
   2   4   3   34.02    0.62
  -2  -4  -3   33.74    0.60
  -2   4  -4   20.47    0.48
   2   4   4   19.72    0.42
  -2  -4  -4   19.52    0.41
  -2   4  -5    2.41    0.16
  -2   4  -6    1.35    0.16
  -2   4  -7    0.03    0.07
   2   5  -8    0.02    0.07
   2   5  -7    1.59    0.17
   2   5  -6    7.93    0.30
  -2   5   6    8.23    0.27
  -2   5   5    4.40    0.19
   2   5  -5    4.35    0.21
  -2   5   4    0.30    0.06
   2   5  -4    0.22    0.06
   2   5  -4    0.19    0.04
  -2   5   3   57.77    0.96
   2   5  -3   58.21    0.93
   2   5  -2    7.98    0.22
  -2   5   2    8.08    0.23
  -2   5   2    7.80    0.16
   2   5  -1    0.27    0.05
  -2   5   1    0.29    0.05
  -2   5   1    0.22    0.03
  -2   5   0  119.99    1.75
  -2   5   0  120.33    1.75
   2   5   0  120.52    1.79
  -2   5  -1   35.80    0.59
  -2   5  -1   35.13    0.63
   2   5   1   36.53    0.64
  -2   5  -2    4.96    0.19
  -2   5  -2    4.61    0.13
   2   5   2    4.55    0.17
  -2  -5  -2    4.89    0.16
   2   5   3    7.41    0.23
  -2   5  -3    7.40    0.25
  -2  -5  -3    7.28    0.21
   2   5   4    2.38    0.13
  -2   5  -4    2.39    0.16
  -2  -5  -4    2.62    0.13
  -2   5  -5    0.17    0.07
  -2   5  -6    5.40    0.27
  -2   5  -7    0.19    0.08
   2   6  -8    0.21    0.09
   2   6  -7    1.07    0.14
  -2   6   6    0.84    0.11
   2   6  -6    1.34    0.16
   2   6  -5   -0.10    0.06
  -2   6   5    0.13    0.05
   2   6  -4   15.86    0.36
  -2   6   4   16.09    0.40
   2   6  -4   15.89    0.42
  -2   6   3    9.27    0.28
   2   6  -2    2.13    0.12
  -2   6   2    1.90    0.07
  -2   6   2    1.90    0.12
  -2   6   1   31.67    0.59
  -2   6   1   31.82    0.54
  -2   6   0    3.37    0.13
  -2   6   0    3.33    0.14
   2   6   0    3.40    0.15
   2   6   1   22.51    0.48
  -2   6  -1   23.12    0.43
  -2   6  -1   22.78    0.47
  -2   6  -2    0.99    0.11
  -2   6  -2    0.88    0.07
   2   6   2    0.85    0.10
  -2   6  -3    0.28    0.07
   2   6   3    0.21    0.06
   2   6   4    7.19    0.25
  -2   6  -4    6.99    0.27
  -2   6  -5    3.94    0.23
  -2   6  -6    0.06    0.07
  -2   6  -7    0.09    0.08
   2   7  -8    0.09    0.08
   2   7  -7    0.04    0.07
  -2   7   6   -0.02    0.04
   2   7  -6    0.06    0.06
  -2   7   5    8.50    0.30
   2   7  -5    8.12    0.31
   2   7  -4    1.05    0.10
   2   7  -4    1.20    0.14
  -2   7   4    1.31    0.14
   2   7  -3   32.80    0.62
  -2   7   3   32.67    0.65
  -2   7   2   40.29    0.75
   2   7  -2   40.52    0.73
  -2   7   1    2.50    0.11
   2   7  -1    2.75    0.14
  -2   7   1    2.77    0.14
   2   7   0   31.88    0.62
  -2   7   0   31.55    0.59
  -2   7   0   31.20    0.58
  -2   7  -1    4.30    0.18
  -2   7  -1    4.61    0.17
   2   7   1    4.45    0.19
  -2   7  -2   19.30    0.39
  -2   7  -2   19.42    0.46
   2   7   2   19.71    0.46
  -2   7  -3   10.02    0.33
   2   7   3    9.94    0.31
   2   7   4    0.09    0.06
  -2   7  -4    0.20    0.07
  -2   7  -5    0.71    0.12
  -2   7  -6    0.50    0.12
  -2   7  -7    0.21    0.10
   2   8  -8    0.51    0.12
   2   8  -7    0.54    0.12
  -2   8   6    0.00    0.05
   2   8  -6    0.08    0.08
  -2   8   5    0.01    0.04
   2   8  -5   -0.05    0.05
  -2   8   4    1.26    0.14
   2   8  -4    1.39    0.15
   2   8  -4    1.31    0.12
   2   8  -3   65.32    1.11
  -2   8   3   67.55    1.16
  -2   8   2   21.73    0.50
   2   8  -2   22.16    0.49
  -2   8   1    0.42    0.08
   2   8  -1    0.31    0.07
  -2   8   1    0.28    0.05
  -2   8   0    0.99    0.10
   2   8   0    1.05    0.11
  -2   8   0    1.02    0.10
  -2   8  -1   18.43    0.40
  -2   8  -1   18.02    0.43
   2   8   1   17.67    0.44
  -2   8  -2    0.51    0.09
  -2   8  -2    0.46    0.07
   2   8   2    0.63    0.10
   2   8   3    4.41    0.22
  -2   8  -3    4.93    0.23
   2   8   4    1.12    0.13
  -2   8  -4    1.47    0.16
  -2   8  -5    1.63    0.18
  -2   8  -6    1.83    0.20
   2   9  -7    0.53    0.12
  -2   9   7    0.36    0.10
  -2   9   6    2.67    0.19
   2   9  -6    2.82    0.22
  -2   9   5    0.07    0.06
   2   9  -5    0.10    0.08
  -2   9   4    1.37    0.15
   2   9  -4    1.91    0.19
   2   9  -4    1.65    0.13
  -2   9   3    3.16    0.19
   2   9  -3    3.04    0.17
   2   9  -2    7.04    0.26
  -2   9   2    6.78    0.26
  -2   9   1    5.60    0.26
   2   9  -1    6.01    0.24
  -2   9   1    5.75    0.23
  -2   9   0    0.16    0.05
  -2   9   0    0.08    0.05
   2   9   0    0.09    0.06
  -2   9  -1    2.56    0.15
  -2   9  -1    2.64    0.16
   2   9   1    2.83    0.17
   2   9   2    0.19    0.07
  -2   9  -2    0.31    0.08
   2   9   3    0.78    0.12
  -2   9  -3    0.74    0.12
   2   9   4    0.99    0.14
  -2   9  -4    1.11    0.15
  -2   9  -5    1.31    0.17
  -2   9  -6    3.51    0.26
   2  10  -7    1.00    0.25
  -2  10   7    1.18    0.16
  -2  10   6    1.04    0.15
   2  10  -6    1.14    0.17
   2  10  -5    0.31    0.10
  -2  10   5    0.68    0.12
  -2  10   4    3.13    0.20
   2  10  -4    3.07    0.21
   2  10  -3    0.88    0.12
   2  10  -3    1.07    0.14
  -2  10   3    0.92    0.12
   2  10  -2   14.98    0.42
  -2  10   2   14.48    0.42
   2  10  -1   10.79    0.35
  -2  10   1   10.91    0.35
  -2  10   0    0.49    0.09
  -2  10   0    0.58    0.09
   2  10   0    0.52    0.10
  -2  10  -1    6.33    0.25
  -2  10  -1    5.99    0.23
   2  10   1    5.71    0.26
   2  10   2    0.20    0.07
  -2  10  -2    0.20    0.07
   2  10   3    0.32    0.09
  -2  10  -3    0.34    0.09
   2  10   4    1.60    0.18
  -2  10  -4    1.43    0.17
  -2  10  -5    1.51    0.18
   2  10   5    1.34    0.17
   2  11  -6    0.48    0.13
  -2  11   6    0.53    0.13
  -2  11   5    0.56    0.12
   2  11  -5    0.59    0.13
   2  11  -4    0.85    0.14
  -2  11   4    0.88    0.15
   2  11  -3    0.14    0.07
   2  11  -3    0.32    0.09
  -2  11   3    0.15    0.08
  -2  11   2    5.27    0.26
   2  11  -2    5.34    0.25
  -2  11   1    5.71    0.26
   2  11  -1    6.03    0.27
   2  11   0    0.18    0.08
  -2  11   0    0.05    0.06
  -2  11  -1    3.15    0.18
   2  11   1    2.49    0.19
  -2  11  -1    2.73    0.18
  -2  11  -2    1.30    0.16
   2  11   2    1.10    0.15
  -2  11  -3    0.83    0.14
   2  11   3    0.62    0.12
  -2  11  -4    0.44    0.11
   2  11   4    0.59    0.12
   2  11   5    0.16    0.09
   2  12  -5    2.85    0.27
  -2  12   5    2.79    0.22
   2  12  -4    0.19    0.10
  -2  12   4    0.29    0.10
  -2  12   3    0.32    0.10
   2  12  -3    0.61    0.12
   2  12  -3    0.58    0.12
   2  12  -2    0.97    0.14
  -2  12   2    0.62    0.12
   2  12  -2    0.75    0.13
  -2  12   1    0.52    0.11
   2  12  -1    0.64    0.12
   2  12   0    0.31    0.10
  -2  12   0    0.25    0.09
  -2  12  -1    2.97    0.20
   2  12   1    3.31    0.22
  -2  12  -1    2.88    0.19
  -2  12  -2    1.47    0.17
   2  12   2    1.28    0.16
  -2  12  -3    0.07    0.08
   2  12   3    0.13    0.07
   2  12   4    0.94    0.16
  -2  12  -4    0.99    0.16
  -2  13   4    0.69    0.14
   2  13  -4    0.62    0.16
   2  13  -3    0.57    0.13
   2  13  -3    0.70    0.13
  -2  13   3    0.58    0.13
  -2  13   2    0.62    0.13
   2  13  -2    0.50    0.11
   2  13  -2    0.51    0.11
  -2  13   1    4.75    0.27
   2  13  -1    4.70    0.26
  -2  13   0    0.16    0.08
   2  13   0    0.13    0.08
   2  13   1    0.18    0.09
  -2  13  -1    0.04    0.08
   2  13   2    0.29    0.10
  -2  13  -2    0.26    0.09
   2  13   3    2.19    0.24
  -2  13  -3    2.38    0.24
   2  14  -3    0.24    0.11
   2  14  -2    0.25    0.09
   2  14  -2    0.09    0.09
  -2  14   2    0.16    0.09
   2  14  -1    0.96    0.15
  -2  14   1    0.96    0.15
  -2  14   0    0.06    0.08
   2  14   0    0.05    0.07
   2  14   1    0.33    0.10
  -3   0   6    0.03    0.03
   3   0  -6    0.10    0.04
  -3   0   5    0.03    0.03
   3   0  -5    0.01    0.02
  -3   0   4    1.93    0.10
  -3   0   3   -0.04    0.01
  -3   0   2   38.97    0.63
  -3   0   1    0.32    0.04
  -3   0   0  137.63    1.95
  -3   0   0  137.63    1.96
  -3   0  -1   -0.02    0.02
  -3   0  -2   34.83    0.62
   3   0   2   35.45    0.56
  -3   0  -3    0.06    0.04
  -3   0  -4   86.75    1.40
  -3   0  -5    0.06    0.06
  -3   0  -6    1.84    0.18
  -3   1   6    3.35    0.15
   3   1  -6    3.14    0.14
  -3   1   5    0.04    0.03
   3   1  -5    0.06    0.03
   3  -1  -5    0.05    0.02
  -3  -1   5    0.05    0.03
  -3   1   4   33.71    0.59
  -3  -1   4   33.17    0.58
  -3   1   3    0.40    0.06
  -3  -1   3    0.38    0.05
  -3   1   2  103.69    1.51
  -3   1   2  104.14    1.47
  -3  -1   2  104.85    1.52
  -3   1   1    0.07    0.02
  -3   1   1    0.06    0.02
  -3  -1   1    0.10    0.03
  -3   1   0   66.63    0.97
  -3   1   0   65.58    1.00
  -3  -1   0   64.98    0.99
  -3   1  -1    0.57    0.06
  -3   1  -1    0.79    0.05
   3   1   1    0.77    0.06
  -3  -1  -1    0.83    0.07
   3   1   2    5.89    0.16
  -3   1  -2    6.03    0.20
   3  -1   2    5.99    0.14
  -3  -1  -2    6.12    0.19
  -3   1  -3    6.54    0.22
  -3  -1  -3    6.77    0.22
  -3   1  -4    5.33    0.22
  -3  -1  -4    5.23    0.21
  -3   1  -5   35.74    0.73
  -3  -1  -5   35.11    0.71
  -3   1  -6    0.26    0.08
  -3  -1  -6    0.24    0.08
  -3   1  -7    0.58    0.11
   3   2  -7    1.42    0.12
  -3   2   6    3.29    0.15
   3   2  -6    3.49    0.16
  -3   2   5    1.84    0.11
   3   2  -5    1.77    0.11
  -3  -2   5    1.90    0.10
  -3   2   4   39.25    0.67
  -3  -2   4   39.30    0.66
   3  -2  -4   38.61    0.58
  -3   2   3    0.67    0.07
  -3  -2   3    0.72    0.07
  -3   2   2   38.04    0.63
  -3   2   2   38.35    0.57
  -3  -2   2   38.07    0.63
  -3   2   1    0.50    0.05
  -3   2   1    0.54    0.04
  -3   2   0   15.62    0.29
  -3   2   0   14.99    0.30
   3   2   0   14.90    0.31
  -3  -2   0   15.47    0.31
  -3   2  -1   93.64    1.34
   3   2   1   96.47    1.39
  -3   2  -1   92.22    1.41
  -3  -2  -1   92.50    1.39
  -3   2  -2   71.65    1.02
   3   2   2   71.81    1.08
  -3   2  -2   69.98    1.13
  -3  -2  -2   70.92    1.12
   3   2   3    3.43    0.13
  -3   2  -3    3.84    0.17
  -3  -2  -3    3.56    0.16
  -3   2  -4    3.61    0.19
  -3  -2  -4    3.36    0.17
  -3   2  -5    3.85    0.21
  -3  -2  -5    3.85    0.20
  -3   2  -6    0.47    0.10
  -3  -2  -6    0.50    0.12
  -3   2  -7    0.02    0.06
   3   3  -7    0.09    0.05
  -3   3   6    0.34    0.07
   3   3  -6    0.18    0.06
  -3   3   5    0.84    0.10
   3   3  -5    0.68    0.09
  -3  -3   5    0.68    0.08
  -3   3   4   21.50    0.44
  -3  -3   4   21.29    0.42
  -3   3   3    0.20    0.05
  -3   3   2   65.97    1.03
  -3   3   2   67.10    0.96
   3   3  -2   66.96    1.04
  -3   3   1   51.69    0.81
   3   3  -1   52.39    0.84
  -3   3   1   52.10    0.79
  -3   3   0   19.30    0.35
   3   3   0   19.39    0.39
  -3   3   0   19.31    0.37
  -3  -3   0   19.67    0.39
  -3   3  -1    7.48    0.21
  -3   3  -1    7.04    0.16
   3   3   1    6.95    0.20
  -3  -3  -1    7.25    0.20
   3   3   2   23.17    0.45
  -3   3  -2   23.12    0.37
  -3   3  -2   22.76    0.47
  -3  -3  -2   22.62    0.45
  -3   3  -3   12.91    0.34
   3   3   3   12.50    0.29
  -3  -3  -3   12.94    0.32
  -3   3  -4   43.85    0.84
  -3  -3  -4   44.48    0.80
  -3   3  -5    1.36    0.16
  -3  -3  -5    1.43    0.13
  -3   3  -6    1.55    0.16
  -3   3  -7   -0.02    0.06
   3   4  -8    0.57    0.11
   3   4  -7    7.35    0.29
  -3   4   6    1.54    0.12
   3   4  -6    1.34    0.15
   3   4  -5    1.11    0.10
   3   4  -5    1.30    0.12
  -3   4   5    1.25    0.12
  -3   4   4   30.99    0.59
   3   4  -4   30.62    0.57
   3   4  -3   10.54    0.26
  -3   4   3   10.21    0.27
  -3   4   2    1.50    0.06
   3   4  -2    1.63    0.10
  -3   4   2    1.56    0.09
  -3   4   1   61.45    0.96
  -3   4   1   61.97    0.93
   3   4  -1   62.21    0.99
  -3   4   0    4.37    0.14
  -3   4   0    4.15    0.14
   3   4   0    4.49    0.16
   3   4   1    8.01    0.23
  -3   4  -1    8.72    0.24
  -3   4  -1    8.33    0.19
  -3  -4  -1    8.54    0.23
  -3   4  -2    7.34    0.16
   3   4   2    7.16    0.22
  -3   4  -2    7.70    0.24
  -3  -4  -2    7.18    0.22
   3   4   3    6.37    0.21
  -3   4  -3    6.48    0.24
  -3  -4  -3    6.40    0.21
  -3   4  -4    0.88    0.11
  -3  -4  -4    1.15    0.11
  -3   4  -5    1.92    0.16
  -3  -4  -5    2.14    0.22
  -3   4  -6    0.15    0.08
  -3   4  -7    0.02    0.05
   3   5  -8    0.45    0.11
   3   5  -7    0.18    0.08
  -3   5   7    0.22    0.07
  -3   5   6   19.07    0.46
   3   5  -6   19.29    0.50
   3   5  -5    3.43    0.15
  -3   5   5    3.09    0.17
   3   5  -5    3.54    0.19
  -3   5   4   49.37    0.87
   3   5  -4   49.01    0.83
  -3   5   3    0.10    0.04
   3   5  -3    0.03    0.04
   3   5  -2   12.45    0.31
  -3   5   2   12.11    0.30
  -3   5   2   11.92    0.23
   3   5  -1    4.36    0.17
  -3   5   1    4.36    0.14
  -3   5   1    4.34    0.16
  -3   5   0   34.09    0.60
   3   5   0   34.86    0.64
  -3   5   0   34.31    0.59
  -3   5  -1   18.91    0.37
   3   5   1   20.23    0.43
  -3   5  -1   19.57    0.42
  -3   5  -2    1.95    0.13
  -3   5  -2    1.86    0.09
   3   5   2    1.88    0.12
  -3  -5  -2    2.07    0.12
  -3   5  -3    1.28    0.13
   3   5   3    1.17    0.11
  -3  -5  -3    1.23    0.10
  -3   5  -4    1.42    0.16
  -3  -5  -4    1.22    0.12
  -3   5  -5    0.02    0.05
  -3   5  -6    0.71    0.13
  -3   5  -7    1.16    0.17
   3   6  -8    0.24    0.09
   3   6  -7    0.24    0.09
  -3   6   7    0.18    0.07
   3   6  -6    4.96    0.25
  -3   6   6    4.52    0.22
   3   6  -5  147.14    2.29
  -3   6   5  148.08    2.26
   3   6  -5  149.52    2.20
  -3   6   4   13.50    0.37
   3   6  -4   14.12    0.35
  -3   6   3    3.48    0.17
   3   6  -3    3.34    0.15
  -3   6   2    2.53    0.09
  -3   6   2    2.70    0.14
  -3   6   1   33.54    0.62
   3   6  -1   33.73    0.64
  -3   6   1   35.01    0.59
   3   6   0   20.18    0.45
  -3   6   0   20.44    0.41
  -3   6   0   20.34    0.42
  -3   6  -1    2.21    0.13
  -3   6  -1    2.18    0.11
   3   6   1    2.28    0.13
   3   6   2    7.30    0.25
  -3   6  -2    7.16    0.25
  -3   6  -3    9.71    0.32
   3   6   3    9.82    0.30
  -3  -6  -3    9.76    0.29
  -3   6  -4    4.95    0.24
  -3   6  -5    0.31    0.09
  -3   6  -6    1.07    0.15
   3   7  -8    1.83    0.21
  -3   7   7    1.21    0.15
   3   7  -7    0.91    0.15
   3   7  -6    0.12    0.07
  -3   7   6    0.04    0.06
   3   7  -5    0.07    0.07
   3   7  -5    0.09    0.05
  -3   7   5    0.08    0.05
   3   7  -4    4.75    0.20
  -3   7   4    4.56    0.21
  -3   7   3    3.36    0.17
   3   7  -3    3.92    0.18
  -3   7   2   16.80    0.41
   3   7  -2   17.20    0.41
  -3   7   1    1.99    0.12
   3   7  -1    1.99    0.13
  -3   7   1    2.32    0.11
  -3   7   0    0.28    0.05
  -3   7   0    0.21    0.05
   3   7   0    0.23    0.07
   3   7   1    5.82    0.23
  -3   7  -1    5.83    0.19
  -3   7  -1    5.82    0.22
  -3   7  -2    8.29    0.28
   3   7   2    8.23    0.28
   3   7   3    1.20    0.13
  -3   7  -3    1.25    0.14
   3   7   4    3.77    0.20
  -3   7  -4    3.33    0.21
  -3   7  -5    0.07    0.06
  -3   7  -6    0.42    0.10
   3   8  -8    0.70    0.13
  -3   8   7    0.65    0.12
   3   8  -7    0.54    0.13
   3   8  -6    9.06    0.36
  -3   8   6    9.12    0.34
   3   8  -5    0.41    0.10
  -3   8   5    0.24    0.08
  -3   8   4   18.21    0.47
   3   8  -4   18.11    0.44
  -3   8   3    6.95    0.27
   3   8  -3    6.99    0.25
  -3   8   2   19.10    0.46
   3   8  -2   20.06    0.47
   3   8  -1    6.22    0.24
  -3   8   1    6.01    0.20
  -3   8   1    6.27    0.23
   3   8   0    2.03    0.14
  -3   8   0    2.06    0.12
  -3   8   0    2.30    0.13
   3   8   1    0.54    0.10
  -3   8  -1    0.52    0.08
  -3   8  -1    0.54    0.09
  -3   8  -2    2.63    0.17
   3   8   2    2.44    0.16
  -3   8  -3    1.87    0.16
   3   8   3    2.19    0.16
  -3   8  -4    0.19    0.08
   3   8   4    0.30    0.08
  -3   8  -5    1.37    0.18
  -3   9   7    0.52    0.12
   3   9  -7    0.42    0.12
  -3   9   6    2.19    0.21
   3   9  -6    1.72    0.20
  -3   9   5    0.12    0.07
   3   9  -5    0.07    0.06
  -3   9   4    6.65    0.28
   3   9  -4    6.36    0.25
  -3   9   3   11.62    0.37
   3   9  -3   11.77    0.35
   3   9  -2    2.18    0.15
  -3   9   2    2.33    0.16
  -3   9   1    2.83    0.17
   3   9  -1    2.99    0.18
  -3   9   0    3.45    0.17
  -3   9   0    3.80    0.18
   3   9   0    3.69    0.20
  -3   9  -1   10.05    0.32
  -3   9  -1   10.25    0.30
   3   9   1   10.07    0.34
   3   9   2    0.06    0.06
  -3   9  -2    0.05    0.05
  -3   9  -3    0.32    0.09
   3   9   3    0.39    0.10
  -3   9  -4    4.77    0.26
   3   9   4    4.55    0.24
  -3   9  -5    0.13    0.09
  -3  10   7    0.68    0.13
   3  10  -7    0.91    0.15
  -3  10   6    1.59    0.19
   3  10  -6    0.88    0.15
   3  10  -5    0.31    0.11
  -3  10   5    0.32    0.09
  -3  10   4    0.46    0.10
   3  10  -4    0.52    0.10
  -3  10   3    1.65    0.17
   3  10  -3    1.40    0.15
   3  10  -2    0.92    0.13
  -3  10   2    1.18    0.15
   3  10  -1    5.79    0.26
  -3  10   1    5.24    0.24
   3  10   0    0.07    0.06
  -3  10   0   -0.01    0.04
  -3  10   0    0.00    0.04
  -3  10  -1    3.00    0.16
  -3  10  -1    2.80    0.18
   3  10   1    2.92    0.19
  -3  10  -2    0.02    0.05
   3  10   2    0.02    0.06
   3  10   3    2.50    0.23
  -3  10  -3    2.26    0.18
   3  10   4    0.76    0.13
  -3  10  -4    0.50    0.11
   3  11  -6    0.81    0.15
  -3  11   6    1.12    0.18
   3  11  -5    0.24    0.10
  -3  11   5    0.15    0.08
   3  11  -4    0.68    0.13
  -3  11   4    0.62    0.12
   3  11  -4    0.68    0.11
  -3  11   3    7.56    0.32
   3  11  -3    7.25    0.30
   3  11  -2    0.02    0.05
  -3  11   2    0.05    0.06
  -3  11   1    1.13    0.15
   3  11  -1    1.02    0.14
   3  11   0    0.23    0.08
  -3  11   0    0.36    0.09
  -3  11  -1    1.34    0.15
   3  11   1    1.65    0.18
  -3  11  -2    0.34    0.09
   3  11   2    0.36    0.11
   3  11   3    1.27    0.17
  -3  11  -3    1.17    0.16
   3  11   4    0.41    0.11
  -3  11  -4    0.15    0.09
   3  12  -5    0.31    0.12
  -3  12   5    0.22    0.10
  -3  12   4    0.97    0.15
   3  12  -4    1.19    0.18
   3  12  -3    1.04    0.15
  -3  12   3    1.07    0.16
   3  12  -2    0.11    0.08
  -3  12   2    0.02    0.06
   3  12  -1    3.79    0.23
  -3  12   1    3.37    0.22
   3  12   0    0.77    0.13
  -3  12   0    0.67    0.12
   3  12   1    0.08    0.07
  -3  12  -1   -0.03    0.06
  -3  12  -2    2.93    0.21
   3  12   2    2.74    0.22
   3  12   3    0.01    0.08
  -3  12  -3    0.10    0.08
  -3  13   4    0.64    0.13
   3  13  -4    0.47    0.13
   3  13  -3    2.32    0.21
  -3  13   3    2.12    0.22
   3  13  -3    2.16    0.23
   3  13  -2    0.06    0.06
  -3  13   2    0.02    0.07
   3  13  -1    0.16    0.08
  -3  13   1    0.19    0.08
  -3  13   0    0.69    0.12
   3  13   0    0.55    0.12
   3  13   1    0.93    0.16
   3  13   2    1.79    0.21
  -3  13  -2    1.88    0.21
   3  14  -3    0.08    0.06
  -3  14   2    0.03    0.06
   3  14  -2    0.00    0.05
  -3  14   1    2.18    0.22
   3  14  -1    2.09    0.22
  -3  14   0    0.89    0.14
   3  14   0    0.83    0.18
  -4   0   6   14.06    0.35
  -4   0   5   -0.01    0.03
  -4   0   4    1.17    0.09
  -4   0   3    0.00    0.02
  -4   0   2   11.08    0.27
  -4   0   2   11.46    0.25
  -4   0   1   -0.02    0.02
  -4   0   1    0.00    0.02
  -4   0   0  379.48    5.18
  -4   0   0  368.72    5.23
  -4   0  -1   -0.02    0.02
  -4   0  -2    0.96    0.10
   4   0   2    0.94    0.07
  -4   0  -3    0.09    0.05
  -4   0  -4    0.28    0.07
  -4   0  -5    0.08    0.06
  -4   0  -6    4.93    0.26
   4   1  -6    5.83    0.20
  -4   1   6    5.56    0.21
  -4  -1   6    5.90    0.21
  -4   1   5    0.98    0.10
  -4  -1   5    0.70    0.08
  -4   1   4   32.22    0.59
  -4  -1   4   32.92    0.59
  -4   1   3   18.41    0.39
  -4  -1   3   19.13    0.39
  -4   1   2   11.94    0.28
  -4   1   2   11.84    0.25
  -4  -1   2   12.01    0.28
  -4   1   1   31.49    0.55
  -4   1   1   32.22    0.55
  -4  -1   1   31.86    0.56
  -4  -1   1   32.42    0.56
  -4   1   0    0.85    0.08
  -4   1   0    0.94    0.07
  -4  -1   0    0.64    0.07
   4   1   1   17.31    0.36
  -4   1  -1   18.19    0.34
  -4   1  -1   17.74    0.39
  -4  -1  -1   17.46    0.38
  -4   1  -2    1.90    0.12
   4   1   2    2.05    0.10
  -4  -1  -2    1.88    0.12
  -4   1  -3   22.82    0.52
  -4  -1  -3   23.53    0.51
  -4   1  -4    3.74    0.20
  -4  -1  -4    3.65    0.19
  -4   1  -5    1.03    0.14
  -4  -1  -5    1.09    0.14
  -4   1  -6    1.67    0.18
  -4  -1  -6    1.92    0.19
  -4   2   7    0.08    0.05
  -4   2   6    1.56    0.14
   4   2  -6    1.52    0.11
  -4  -2   6    1.64    0.11
  -4   2   5    0.95    0.10
  -4  -2   5    0.96    0.10
  -4   2   4    0.84    0.09
  -4  -2   4    1.06    0.10
  -4   2   3   51.97    0.86
  -4  -2   3   52.74    0.86
  -4   2   2   37.38    0.60
  -4   2   2   38.09    0.64
  -4  -2   2   36.95    0.65
  -4   2   1   21.21    0.40
  -4   2   1   20.78    0.39
  -4  -2   1   21.16    0.42
   4   2   0    3.32    0.14
  -4   2   0    3.17    0.13
  -4   2   0    3.21    0.12
  -4  -2   0    3.30    0.14
  -4   2  -1    3.57    0.12
   4   2   1    3.55    0.14
  -4   2  -1    3.74    0.16
  -4  -2  -1    3.88    0.16
   4   2   2   61.69    0.98
  -4   2  -2   59.00    0.99
  -4   2  -2   62.56    1.04
  -4  -2  -2   63.03    1.03
  -4   2  -3    8.76    0.29
  -4  -2  -3    8.38    0.27
  -4   2  -4    5.03    0.23
  -4  -2  -4    5.38    0.23
  -4   2  -5    1.54    0.17
  -4  -2  -5    0.96    0.13
  -4   2  -6    0.27    0.09
  -4  -2  -6    0.10    0.07
   4   3  -7    0.47    0.09
  -4   3   7    0.48    0.09
   4   3  -6   29.17    0.61
  -4   3   6   29.21    0.61
  -4  -3   6   30.30    0.58
  -4   3   5    2.28    0.14
  -4  -3   5    2.70    0.14
  -4   3   4    1.29    0.10
  -4  -3   4    1.33    0.10
  -4   3   3   18.79    0.32
  -4   3   3   18.63    0.40
  -4  -3   3   19.05    0.40
  -4   3   2   46.71    0.78
   4   3  -2   46.93    0.80
  -4   3   2   46.42    0.72
   4   3  -1   33.44    0.61
  -4   3   1   33.60    0.57
  -4   3   1   33.15    0.58
  -4   3   0    9.48    0.25
  -4   3   0    9.86    0.23
   4   3   0   10.30    0.27
  -4  -3   0    9.62    0.26
   4   3   1    2.72    0.13
  -4   3  -1    2.73    0.11
  -4   3  -1    2.97    0.14
  -4  -3  -1    2.86    0.14
   4   3   2    4.62    0.17
  -4   3  -2    4.51    0.19
  -4  -3  -2    4.52    0.18
  -4  -3  -3   40.58    0.75
  -4   3  -4    0.42    0.09
  -4  -3  -4    0.48    0.09
  -4   3  -5    0.27    0.08
  -4  -3  -5    0.44    0.09
  -4   3  -6    0.18    0.08
   4   4  -7   10.49    0.35
  -4   4   7   10.64    0.34
   4   4  -6   51.12    0.90
  -4   4   6   50.61    0.93
   4   4  -6   51.99    0.95
  -4   4   5    3.04    0.16
   4   4  -5    3.14    0.16
   4   4  -4    9.14    0.27
  -4   4   4    8.80    0.27
  -4   4   3   12.82    0.32
  -4   4   3   12.39    0.23
   4   4  -3   12.54    0.32
  -4   4   2   44.80    0.70
   4   4  -2   45.86    0.79
  -4   4   2   45.02    0.77
   4   4  -1    8.16    0.24
  -4   4   1    7.92    0.21
  -4   4   1    7.94    0.22
  -4   4   0    9.03    0.24
   4   4   0    8.59    0.25
  -4   4   0    8.41    0.22
  -4  -4   0    8.61    0.25
  -4   4  -1    0.16    0.04
   4   4   1    0.15    0.05
  -4   4  -1    0.10    0.04
  -4  -4  -1    0.11    0.04
  -4   4  -2   35.57    0.69
   4   4   2   34.15    0.66
  -4  -4  -2   35.95    0.67
   4   4   3    3.62    0.16
  -4   4  -3    3.32    0.19
  -4  -4  -3    3.12    0.17
  -4   4  -4    0.53    0.10
  -4  -4  -4    0.53    0.09
  -4   4  -5    0.30    0.09
  -4  -4  -5    0.36    0.08
  -4   4  -6    5.92    0.30
   4   5  -8    0.34    0.09
   4   5  -7    6.35    0.28
  -4   5   7    6.09    0.26
   4   5  -6    0.62    0.11
   4   5  -6    0.46    0.09
  -4   5   6    0.49    0.09
  -4   5   5    0.20    0.07
   4   5  -5    0.20    0.06
  -4   5   4    5.63    0.21
   4   5  -4    5.50    0.21
   4   5  -3    0.46    0.08
  -4   5   3    0.33    0.06
   4   5  -2    0.40    0.07
  -4   5   2    0.26    0.04
  -4   5   2    0.32    0.06
   4   5  -1    0.76    0.10
  -4   5   1    0.64    0.07
  -4   5   1    0.78    0.08
  -4   5   0   22.68    0.46
   4   5   0   23.00    0.49
  -4   5   0   23.09    0.45
  -4   5  -1    6.26    0.22
  -4   5  -1    6.79    0.19
   4   5   1    6.43    0.23
  -4  -5  -1    6.49    0.23
   4   5   2   29.10    0.58
  -4   5  -2   27.70    0.59
  -4  -5  -2   27.43    0.58
  -4   5  -3    0.63    0.10
   4   5   3    0.71    0.09
  -4  -5  -3    0.71    0.10
  -4   5  -4    5.16    0.25
  -4  -5  -4    5.30    0.23
  -4   5  -5    0.73    0.13
  -4   5  -6    0.15    0.07
   4   6  -8   -0.01    0.06
   4   6  -7    3.89    0.23
  -4   6   7    4.07    0.22
  -4   6   6    0.30    0.08
   4   6  -6    0.23    0.08
  -4   6   5   19.27    0.48
   4   6  -5   19.01    0.45
   4   6  -4   10.07    0.30
  -4   6   4    9.80    0.31
  -4   6   3    1.53    0.12
   4   6  -3    1.46    0.12
  -4   6   2    0.90    0.10
  -4   6   2    0.83    0.06
   4   6  -2    0.90    0.11
  -4   6   1    0.97    0.10
   4   6  -1    1.07    0.11
  -4   6   1    0.96    0.08
  -4   6   0    1.74    0.11
  -4   6   0    1.55    0.10
   4   6   0    1.58    0.12
  -4   6  -1    1.37    0.09
  -4   6  -1    1.33    0.13
   4   6   1    1.56    0.15
  -4   6  -2    1.60    0.13
   4   6   2    1.63    0.13
   4   6   3   13.02    0.36
  -4   6  -3   12.59    0.39
  -4  -6  -3   12.08    0.35
  -4   6  -4    0.57    0.11
  -4  -6  -4    0.50    0.09
  -4   6  -5    0.09    0.08
  -4   6  -6    0.36    0.11
   4   7  -8    1.90    0.21
   4   7  -7    9.01    0.37
  -4   7   7    8.78    0.34
  -4   7   6    0.32    0.08
   4   7  -6    0.35    0.10
  -4   7   5   12.57    0.38
   4   7  -5   13.10    0.37
  -4   7   4    0.13    0.06
   4   7  -4    0.22    0.07
  -4   7   3    0.14    0.06
   4   7  -3    0.10    0.05
  -4   7   2    3.34    0.17
   4   7  -2    3.60    0.18
  -4   7   1   10.61    0.27
  -4   7   1   10.52    0.30
   4   7  -1   10.95    0.33
  -4   7   0    0.50    0.08
   4   7   0    0.42    0.08
  -4   7   0    0.57    0.08
  -4   7  -1    0.81    0.08
  -4   7  -1    0.86    0.11
   4   7   1    0.73    0.11
   4   7   2    3.55    0.19
  -4   7  -2    3.60    0.19
   4   7   3    2.69    0.17
  -4   7  -3    2.86    0.19
  -4   7  -4    0.22    0.08
  -4   7  -5    5.88    0.31
   4   8  -8    3.17    0.24
   4   8  -7    8.84    0.38
  -4   8   7    8.73    0.35
  -4   8   6    6.75    0.29
   4   8  -6    6.41    0.31
   4   8  -5    0.17    0.06
  -4   8   5    0.30    0.08
  -4   8   4    0.42    0.10
   4   8  -4    0.37    0.09
   4   8  -3   10.14    0.32
  -4   8   3    9.83    0.33
   4   8  -2    2.53    0.17
  -4   8   2    2.64    0.16
  -4   8   1    0.01    0.04
  -4   8   1    0.04    0.03
   4   8  -1    0.06    0.05
   4   8   0    0.44    0.09
  -4   8   0    0.44    0.08
  -4   8   0    0.41    0.07
  -4   8  -1   13.56    0.38
   4   8   1   14.03    0.41
  -4   8  -1   14.61    0.42
  -4   8  -2    0.27    0.08
   4   8   2    0.29    0.08
  -4   8  -3    0.00    0.05
   4   8   3    0.10    0.06
  -4   8  -4   12.19    0.42
  -4   8  -5    0.21    0.10
   4   9  -7    1.88    0.22
  -4   9   7    1.72    0.19
  -4   9   6    0.96    0.15
   4   9  -6    1.23    0.17
   4   9  -5    0.27    0.07
  -4   9   5    0.25    0.08
   4   9  -4    7.01    0.28
  -4   9   4    6.85    0.29
   4   9  -3    2.09    0.16
  -4   9   3    1.66    0.16
   4   9  -2    0.09    0.06
  -4   9   2   -0.01    0.05
   4   9  -1    5.18    0.24
  -4   9   1    5.41    0.23
   4   9   0    1.95    0.15
  -4   9   0    1.86    0.13
  -4   9   0    2.20    0.14
   4   9   1    2.56    0.18
  -4   9  -1    2.46    0.17
   4   9   2    0.27    0.08
  -4   9  -2    0.24    0.08
  -4   9  -3   19.45    0.54
   4   9   3   19.42    0.53
  -4   9  -4   12.95    0.45
   4  10  -7    0.29    0.11
  -4  10   7    0.25    0.10
   4  10  -6    1.66    0.21
  -4  10   6    1.93    0.21
  -4  10   5    0.08    0.07
  -4  10   4    2.72    0.20
   4  10  -4    2.88    0.19
   4  10  -3    5.56    0.26
  -4  10   3    5.27    0.26
   4  10  -2    1.53    0.16
  -4  10   2    1.20    0.14
   4  10  -1    0.64    0.12
  -4  10   1    0.93    0.12
   4  10   0    4.48    0.24
  -4  10   0    4.27    0.22
  -4  10   0    4.48    0.21
  -4  10  -1   -0.02    0.04
   4  10   1    0.06    0.06
  -4  10  -2    3.63    0.22
   4  10   2    3.48    0.22
   4  10   3    4.12    0.25
  -4  10  -3    4.64    0.26
  -4  10  -4    0.20    0.10
   4  11  -6    0.18    0.10
  -4  11   6    0.32    0.12
   4  11  -5    1.40    0.18
  -4  11   5    1.60    0.19
   4  11  -4    0.05    0.06
  -4  11   4   -0.06    0.06
   4  11  -3    0.42    0.10
  -4  11   3    0.28    0.10
  -4  11   2    0.56    0.11
   4  11  -2    0.57    0.11
   4  11  -1    6.74    0.30
  -4  11   1    7.03    0.29
   4  11   0    0.96    0.14
  -4  11   0    1.13    0.15
  -4  11  -1    2.41    0.18
   4  11   1    2.60    0.20
   4  11   2    0.05    0.07
  -4  11  -2    0.02    0.06
  -4  11  -3    0.41    0.11
   4  11   3    0.30    0.09
  -4  12   5    1.43    0.19
   4  12  -5    1.39    0.19
  -4  12   4    0.35    0.11
   4  12  -4    0.38    0.09
   4  12  -3    1.41    0.17
  -4  12   3    1.04    0.15
  -4  12   2    0.38    0.10
   4  12  -2    0.29    0.10
  -4  12   1    0.29    0.09
   4  12  -1    0.12    0.08
  -4  12   0    3.45    0.21
   4  12   0    2.93    0.22
   4  12   1    3.32    0.23
   4  12   2    0.29    0.10
  -4  12  -2    0.33    0.10
   4  13  -4    0.05    0.08
   4  13  -4    0.15    0.09
   4  13  -3    1.43    0.19
  -4  13   3    1.07    0.17
   4  13  -2    0.40    0.11
  -4  13   2    0.33    0.10
   4  13  -1    0.43    0.11
  -4  13   1    0.33    0.10
   4  13   0   -0.01    0.07
   4  13   1    0.04    0.06
  -5   0   7   -0.03    0.04
  -5   0   6    1.31    0.13
  -5   0   5    0.03    0.04
  -5   0   4   32.18    0.61
  -5   0   3   -0.03    0.03
  -5   0   2    0.10    0.04
  -5   0   2    0.18    0.04
  -5   0   1   -0.01    0.02
  -5   0   1   -0.01    0.02
  -5   0   0   53.73    0.91
  -5   0   0   54.33    0.88
  -5   0  -1    0.04    0.04
   5   0   1   -0.02    0.03
  -5   0  -2    9.46    0.30
  -5   0  -3   -0.03    0.04
  -5   0  -4    5.73    0.26
  -5   0  -5   -0.01    0.06
  -5   0  -6    0.50    0.11
  -5   1   7    4.87    0.22
  -5  -1   7    4.86    0.21
  -5   1   6    0.10    0.06
  -5  -1   6    0.08    0.05
  -5   1   5   23.25    0.51
  -5  -1   5   24.27    0.51
  -5   1   4   19.77    0.44
  -5  -1   4   19.78    0.44
  -5   1   3    7.39    0.23
  -5   1   2   55.40    0.93
  -5   1   2   56.45    0.90
  -5  -1   2   56.55    0.93
  -5  -1   2   57.13    0.94
  -5   1   1    7.21    0.21
  -5   1   1    7.66    0.22
  -5  -1   1    7.58    0.22
  -5  -1   1    7.21    0.22
  -5   1   0    1.96    0.12
  -5   1   0    2.15    0.11
  -5  -1   0    2.11    0.12
  -5   1  -1   26.41    0.48
   5   1   1   25.41    0.50
  -5   1  -1   25.80    0.54
  -5  -1  -1   25.04    0.53
  -5   1  -2    3.47    0.18
  -5  -1  -2    3.32    0.18
  -5   1  -3    0.30    0.08
  -5  -1  -3    0.31    0.08
  -5   1  -4    0.91    0.13
  -5  -1  -4    0.71    0.12
  -5   1  -5    0.02    0.07
  -5  -1  -5   -0.07    0.05
  -5   1  -6    2.49    0.20
  -5  -1  -6    2.52    0.21
  -5   2   7    3.28    0.19
  -5   2   6   -0.01    0.05
  -5  -2   6    0.01    0.04
  -5   2   5    0.00    0.03
  -5  -2   5    0.08    0.04
  -5   2   4   20.26    0.45
  -5  -2   4   21.02    0.45
  -5   2   3    0.23    0.04
  -5   2   3    0.21    0.05
  -5  -2   3    0.21    0.05
  -5   2   2   61.53    0.96
  -5   2   2   61.49    1.00
  -5  -2   2   60.65    1.01
  -5   2   1    9.01    0.24
  -5   2   1    8.76    0.24
  -5   2   0   14.19    0.34
   5   2   0   13.75    0.34
  -5   2   0   14.10    0.32
  -5  -2   0   13.57    0.34
  -5   2  -1    3.00    0.16
   5   2   1    3.11    0.15
  -5   2  -1    3.07    0.13
  -5  -2  -1    3.28    0.16
   5   2   2    0.62    0.08
  -5   2  -2    0.48    0.09
  -5  -2  -2    0.71    0.10
  -5   2  -3    0.43    0.09
  -5  -2  -3    0.36    0.08
  -5   2  -4   14.61    0.44
  -5  -2  -4   14.61    0.42
  -5   2  -5   -0.03    0.06
  -5  -2  -5   -0.07    0.05
  -5   2  -6   -0.01    0.06
  -5  -2  -6    0.18    0.08
   5   3  -7    0.27    0.07
  -5   3   7    0.24    0.08
  -5   3   6    2.03    0.15
  -5  -3   6    2.02    0.14
  -5   3   5    1.47    0.12
  -5  -3   5    1.76    0.12
  -5   3   4    2.28    0.13
  -5  -3   4    2.00    0.13
  -5   3   3    1.05    0.07
  -5   3   3    1.04    0.10
  -5  -3   3    0.94    0.10
  -5   3   2    0.20    0.05
  -5   3   2    0.22    0.04
   5   3  -2    0.28    0.06
  -5   3   1   16.46    0.36
  -5   3   1   16.96    0.37
   5   3  -1   17.36    0.40
  -5  -3   1   17.07    0.40
  -5   3   0    3.78    0.16
  -5   3   0    4.02    0.15
   5   3   0    3.99    0.17
  -5  -3   0    3.71    0.17
  -5   3  -1   10.07    0.30
   5   3   1    9.92    0.29
  -5   3  -1   10.18    0.25
  -5  -3  -1   10.19    0.30
   5   3   2   11.58    0.31
  -5   3  -2   11.52    0.35
  -5  -3  -2   11.75    0.33
  -5   3  -3    0.99    0.12
  -5  -3  -3    0.99    0.12
  -5   3  -4    0.73    0.12
  -5  -3  -4    0.54    0.10
  -5   3  -5    0.23    0.09
  -5  -3  -5    0.17    0.07
  -5   3  -6    0.08    0.07
  -5   4   7    8.20    0.30
   5   4  -7    7.81    0.30
   5   4  -6    4.64    0.21
  -5   4   6    4.75    0.22
  -5   4   5    1.74    0.16
   5   4  -5    1.56    0.12
  -5   4   4    2.91    0.16
   5   4  -4    3.14    0.17
  -5   4   3    5.59    0.17
  -5   4   3    5.68    0.21
   5   4  -3    6.05    0.22
   5   4  -2    0.18    0.05
  -5   4   2    0.24    0.06
  -5   4   2    0.20    0.04
  -5   4   1    2.61    0.13
  -5   4   1    2.44    0.12
   5   4  -1    2.40    0.14
  -5   4   0   16.92    0.37
  -5   4   0   17.24    0.40
   5   4   0   16.98    0.41
  -5  -4   0   18.14    0.43
   5   4   1    5.71    0.22
  -5   4  -1    5.28    0.17
  -5   4  -1    5.24    0.22
  -5  -4  -1    5.45    0.22
  -5   4  -2   15.80    0.42
   5   4   2   15.53    0.39
  -5  -4  -2   14.31    0.39
  -5   4  -3    1.54    0.16
  -5  -4  -3    1.63    0.15
  -5   4  -4    0.15    0.08
  -5  -4  -4    0.24    0.08
  -5   4  -5    0.28    0.10
  -5  -4  -5    0.32    0.09
  -5   5   8    0.13    0.07
   5   5  -8    0.27    0.09
   5   5  -7   10.60    0.37
  -5   5   7   10.53    0.36
   5   5  -6    2.44    0.16
  -5   5   6    2.54    0.17
  -5   5   5    1.69    0.16
   5   5  -5    2.03    0.14
  -5   5   4    4.16    0.19
   5   5  -4    4.61    0.20
   5   5  -3   19.25    0.46
  -5   5   3   20.03    0.46
  -5   5   2    1.61    0.11
  -5   5   2    1.74    0.09
   5   5  -2    1.62    0.12
  -5   5   1    0.58    0.07
   5   5  -1    0.73    0.10
  -5   5   1    0.53    0.08
  -5   5   0    0.55    0.08
  -5   5   0    0.58    0.08
   5   5   0    0.48    0.08
  -5   5  -1   62.01    1.08
   5   5   1   61.30    1.08
  -5   5  -1   63.80    1.08
  -5  -5  -1   62.96    1.09
  -5   5  -2    4.78    0.22
   5   5   2    4.82    0.21
  -5  -5  -2    4.81    0.22
  -5   5  -3    5.97    0.26
  -5  -5  -3    5.74    0.24
  -5   5  -4    0.85    0.13
  -5  -5  -4    1.15    0.14
  -5   5  -5    2.23    0.23
  -5   6   8    0.24    0.09
   5   6  -8    0.18    0.08
   5   6  -7    1.31    0.16
  -5   6   7    1.33    0.16
  -5   6   6    0.90    0.13
   5   6  -6    0.86    0.12
   5   6  -5    4.12    0.20
  -5   6   5    3.92    0.21
   5   6  -4    7.54    0.27
  -5   6   4    7.66    0.27
   5   6  -3    0.28    0.07
  -5   6   3    0.39    0.08
  -5   6   2    0.29    0.06
  -5   6   2    0.32    0.06
   5   6  -2    0.20    0.06
  -5   6   1    7.04    0.22
   5   6  -1    6.83    0.26
  -5   6   1    7.09    0.23
  -5   6   0   21.43    0.46
   5   6   0   22.33    0.52
  -5   6   0   21.70    0.48
  -5   6  -1    0.34    0.08
   5   6   1    0.21    0.08
  -5   6  -2    5.36    0.24
   5   6   2    5.30    0.23
  -5  -6  -2    4.52    0.22
  -5   6  -3    2.26    0.18
  -5  -6  -3    1.69    0.16
  -5   6  -4    1.01    0.15
  -5  -6  -4    1.02    0.13
  -5   6  -5    2.03    0.22
  -5   7   8    1.55    0.19
   5   7  -8    2.09    0.22
  -5   7   7    1.63    0.19
   5   7  -7    1.29    0.17
  -5   7   6    4.98    0.25
   5   7  -6    4.94    0.23
  -5   7   5    0.20    0.07
   5   7  -5    0.36    0.09
   5   7  -4    0.12    0.06
  -5   7   4    0.17    0.07
   5   7  -3    2.49    0.16
  -5   7   3    2.53    0.16
   5   7  -2    6.29    0.25
  -5   7   2    6.04    0.23
  -5   7   1    7.34    0.25
  -5   7   1    7.64    0.24
   5   7  -1    7.10    0.28
   5   7   0    9.38    0.33
  -5   7   0    9.75    0.28
  -5   7   0    9.75    0.30
   5   7   1   35.53    0.75
  -5   7  -1   36.12    0.73
  -5   7  -2   51.62    0.97
   5   7   2   48.39    0.95
  -5   7  -3    0.34    0.09
  -5   7  -4    0.85    0.14
  -5   8   8    0.04    0.08
   5   8  -8    0.25    0.10
   5   8  -7    2.24    0.24
  -5   8   7    2.54    0.23
  -5   8   6    0.99    0.15
   5   8  -5    0.79    0.12
  -5   8   5    1.06    0.14
  -5   8   4    0.99    0.13
   5   8  -4    1.13    0.14
   5   8  -3    0.34    0.08
  -5   8   3    0.32    0.08
   5   8  -2    2.69    0.18
  -5   8   2    2.80    0.17
  -5   8   1    0.86    0.11
  -5   8   1    0.61    0.13
   5   8  -1    0.74    0.11
  -5   8   0    6.39    0.23
  -5   8   0    6.64    0.25
   5   8   0    6.09    0.27
   5   8   1    1.58    0.16
  -5   8  -1    1.90    0.15
  -5   8  -2    6.50    0.29
   5   8   2    6.13    0.27
  -5   8  -3    0.08    0.08
   5   8   3    0.16    0.08
  -5   8  -4    0.23    0.10
   5   9  -7    1.17    0.17
  -5   9   7    1.01    0.15
  -5   9   6   -0.01    0.05
  -5   9   5    0.14    0.07
   5   9  -5    0.21    0.08
   5   9  -4    0.39    0.09
  -5   9   4    0.32    0.09
  -5   9   3    2.84    0.19
   5   9  -3    2.66    0.19
  -5   9   2    2.40    0.17
   5   9  -2    2.25    0.21
   5   9  -1    0.50    0.10
  -5   9   1    0.66    0.10
   5   9   0    2.15    0.20
  -5   9   0    2.10    0.15
  -5   9   0    1.93    0.14
  -5   9  -1    2.25    0.17
   5   9   1    1.95    0.19
  -5   9  -2    0.11    0.07
   5   9   2    0.20    0.08
   5   9   3    0.51    0.11
  -5   9  -3    0.31    0.10
  -5   9  -4    0.62    0.14
  -5  10   7    0.24    0.11
   5  10  -6    0.10    0.07
  -5  10   6    0.03    0.06
   5  10  -5    0.89    0.13
  -5  10   5    0.81    0.14
   5  10  -4    0.55    0.11
  -5  10   4    0.66    0.12
   5  10  -3    0.29    0.09
  -5  10   3    0.18    0.07
  -5  10   2    2.31    0.21
   5  10  -2    2.14    0.21
   5  10  -1   11.74    0.41
  -5  10   1   13.30    0.39
   5  10   0    0.10    0.07
  -5  10   0    0.15    0.07
  -5  10  -1    1.78    0.18
   5  10   1    1.70    0.19
  -5  10  -2    0.11    0.06
   5  10   2   -0.01    0.05
  -5  10  -3    4.60    0.28
   5  10   3    3.91    0.25
   5  11  -6    1.12    0.21
  -5  11   6    0.75    0.16
  -5  11   5    1.11    0.16
   5  11  -5    1.22    0.16
  -5  11   4    1.66    0.19
   5  11  -4    1.70    0.18
   5  11  -3    1.71    0.19
  -5  11   3    1.92    0.20
   5  11  -2    0.07    0.07
  -5  11   2   -0.04    0.05
   5  11  -1    0.81    0.14
  -5  11   1    0.64    0.11
   5  11   0    1.22    0.17
   5  11   1    2.15    0.22
  -5  11  -1    2.55    0.19
   5  11   2    0.32    0.10
  -5  11  -2    0.31    0.10
   5  12  -4    0.21    0.08
  -5  12   4    0.23    0.09
  -5  12   3    0.28    0.09
   5  12  -3    0.45    0.11
  -5  12   2    0.54    0.12
   5  12  -2    0.59    0.13
  -5  12   1    2.84    0.20
   5  12  -1    3.36    0.23
   5  12   0    0.07    0.07
   5  12   1    0.10    0.08
   5  13  -3    4.23    0.26
  -5  13   3    4.17    0.27
   5  13  -2    0.05    0.06
  -5  13   2    0.10    0.06
   5  13  -1    0.11    0.08
  -5  13   1    0.34    0.10
  -6   0   7   -0.04    0.04
  -6   0   6   14.11    0.39
  -6   0   5   -0.03    0.04
  -6   0   4    0.83    0.10
  -6   0   3    0.00    0.03
  -6   0   2   19.65    0.44
  -6   0   2   19.32    0.42
  -6   0   1   -0.01    0.03
  -6   0   1    0.07    0.04
  -6   0   0    0.20    0.05
  -6   0   0    0.29    0.07
   6   0   1   -0.03    0.03
  -6   0  -1   -0.05    0.03
  -6   0  -2   18.87    0.48
  -6   0  -3   -0.07    0.04
  -6   0  -4    0.61    0.11
  -6   0  -5    0.04    0.07
  -6   1   7    2.06    0.16
  -6  -1   7    2.01    0.15
  -6   1   6    0.63    0.10
  -6  -1   6    0.69    0.11
  -6   1   5    5.93    0.23
  -6  -1   5    5.78    0.23
  -6   1   4   10.58    0.31
  -6  -1   4   10.69    0.31
  -6   1   3    2.23    0.13
  -6   1   3    2.29    0.12
  -6  -1   3    1.96    0.13
  -6   1   2    1.72    0.12
  -6   1   2    1.47    0.10
  -6  -1   2    1.40    0.11
  -6  -1   2    1.55    0.12
  -6   1   1    2.72    0.14
  -6   1   1    2.68    0.14
  -6  -1   1    2.64    0.14
  -6  -1   1    2.40    0.14
  -6   1   0    9.85    0.28
   6   1   0   10.77    0.30
  -6   1   0    9.85    0.30
  -6  -1   0    9.69    0.30
   6   1   1    0.24    0.06
  -6   1  -1    0.19    0.05
  -6   1  -1    0.19    0.07
  -6  -1  -1    0.16    0.06
  -6   1  -2    0.94    0.12
  -6  -1  -2    0.70    0.11
  -6   1  -3    1.20    0.15
  -6  -1  -3    1.11    0.14
  -6   1  -4    1.60    0.18
  -6  -1  -4    1.80    0.18
  -6   1  -5    0.56    0.12
  -6  -1  -5    0.60    0.12
  -6   2   8    2.77    0.19
  -6   2   7    1.35    0.15
  -6  -2   7    1.24    0.14
  -6   2   6    6.62    0.27
  -6  -2   6    7.28    0.27
  -6   2   5    0.20    0.07
  -6  -2   5    0.14    0.06
  -6   2   4    0.34    0.07
  -6  -2   4    0.28    0.07
  -6   2   3    1.09    0.12
  -6   2   3    1.17    0.08
  -6  -2   3    1.35    0.13
  -6   2   2    5.86    0.19
  -6   2   2    6.34    0.22
  -6  -2   2    6.04    0.22
  -6   2   1    0.56    0.08
   6   2  -1    0.74    0.10
  -6   2   1    0.61    0.08
  -6  -2   1    0.89    0.11
  -6   2   0   16.53    0.40
   6   2   0   16.39    0.40
  -6   2   0   16.59    0.38
  -6  -2   0   15.64    0.40
  -6   2  -1    0.75    0.09
  -6   2  -1    0.89    0.11
   6   2   1    0.56    0.09
  -6  -2  -1    0.91    0.11
  -6   2  -2    6.41    0.26
  -6  -2  -2    6.50    0.26
  -6   2  -3    0.15    0.07
  -6  -2  -3    0.07    0.06
  -6   2  -4    0.86    0.14
  -6  -2  -4    0.75    0.12
  -6   2  -5    2.17    0.22
  -6  -2  -5    2.50    0.20
  -6   3   8    2.21    0.21
  -6   3   7    1.95    0.19
  -6  -3   7    1.46    0.15
  -6   3   6    6.33    0.26
  -6  -3   6    6.30    0.25
  -6   3   5    0.14    0.05
  -6  -3   5    0.12    0.05
  -6   3   4   19.08    0.45
  -6  -3   4   18.32    0.45
  -6   3   3    3.61    0.17
  -6   3   3    3.74    0.14
  -6  -3   3    3.75    0.18
   6   3  -2    1.75    0.13
  -6   3   2    1.72    0.11
  -6   3   2    1.66    0.12
  -6   3   1   38.80    0.70
  -6   3   1   38.65    0.70
   6   3  -1   37.84    0.74
  -6  -3   1   36.83    0.73
  -6   3   0    3.17    0.17
  -6   3   0    3.06    0.15
   6   3   0    3.19    0.17
  -6  -3   0    3.50    0.18
   6   3   1    7.33    0.26
  -6   3  -1    7.26    0.27
  -6  -3  -1    7.52    0.27
  -6   3  -2    0.66    0.10
  -6  -3  -2    0.60    0.10
  -6   3  -3    3.46    0.22
  -6  -3  -3    3.61    0.21
  -6   3  -4    4.69    0.27
  -6  -3  -4    5.14    0.26
  -6   3  -5    0.04    0.06
  -6  -3  -5   -0.02    0.06
  -6   4   8    0.08    0.06
   6   4  -7    0.10    0.06
  -6   4   7    0.18    0.08
  -6   4   6    2.92    0.19
  -6   4   5    0.20    0.06
  -6   4   4   12.29    0.35
   6   4  -4   12.15    0.36
   6   4  -3   20.28    0.48
  -6   4   3   19.41    0.46
  -6   4   2   10.00    0.27
   6   4  -2   10.14    0.32
  -6   4   2    9.68    0.29
  -6   4   1    0.11    0.04
   6   4  -1    0.18    0.06
  -6   4   1    0.26    0.06
  -6   4   0    6.37    0.22
   6   4   0    6.74    0.25
  -6   4   0    6.42    0.24
  -6  -4   0    6.50    0.26
  -6   4  -1   10.77    0.34
   6   4   1   10.71    0.33
  -6  -4  -1   10.75    0.34
  -6   4  -2    4.73    0.23
  -6  -4  -2    5.19    0.24
  -6   4  -3    4.62    0.25
  -6  -4  -3    4.46    0.23
  -6   4  -4    0.11    0.08
  -6  -4  -4    0.28    0.08
  -6   4  -5   -0.06    0.06
  -6  -4  -5    0.08    0.06
   6   5  -8    2.17    0.29
  -6   5   8    2.52    0.23
  -6   5   7    0.47    0.10
   6   5  -7    0.42    0.09
  -6   5   6    0.02    0.05
   6   5  -6    0.12    0.06
   6   5  -5    0.17    0.06
  -6   5   5    0.18    0.07
  -6   5   4    0.54    0.09
   6   5  -4    0.91    0.12
  -6   5   3    1.04    0.12
   6   5  -3    0.82    0.11
   6   5  -2    5.52    0.24
  -6   5   2    5.43    0.22
  -6   5   2    5.47    0.19
   6   5  -1    0.31    0.08
  -6   5   1    0.43    0.08
  -6   5   1    0.65    0.09
   6   5   0   97.65    1.60
  -6   5   0   99.03    1.57
  -6   5   0   98.57    1.53
  -6   5  -1    5.37    0.24
   6   5   1    5.02    0.23
  -6  -5  -1    4.93    0.23
  -6   5  -2    2.16    0.17
   6   5   2    2.64    0.17
  -6  -5  -2    2.45    0.18
  -6   5  -3    0.16    0.07
  -6  -5  -3    0.14    0.06
  -6   5  -4    0.85    0.15
  -6  -5  -4    0.41    0.10
  -6   6   8    0.25    0.09
   6   6  -8    0.17    0.09
  -6   6   7    1.03    0.15
  -6   6   6    0.96    0.14
   6   6  -6    1.08    0.14
   6   6  -5    1.69    0.17
  -6   6   5    1.73    0.17
   6   6  -4    0.65    0.11
  -6   6   4    0.63    0.11
  -6   6   3    4.97    0.22
   6   6  -3    5.09    0.23
   6   6  -2    0.59    0.10
  -6   6   2    0.67    0.10
   6   6  -1   45.24    0.88
  -6   6   1   44.47    0.81
  -6   6   1   44.80    0.82
   6   6   0    2.21    0.16
  -6   6   0    2.10    0.15
  -6   6   0    2.21    0.14
  -6   6  -1    3.68    0.21
   6   6   1    3.98    0.21
  -6   6  -2   -0.06    0.05
   6   6   2    0.01    0.05
  -6  -6  -2    0.11    0.06
  -6   6  -3   -0.01    0.05
  -6  -6  -3    0.07    0.07
  -6   6  -4    0.03    0.08
  -6  -6  -4   -0.03    0.05
   6   7  -8    0.22    0.10
  -6   7   8    0.35    0.10
  -6   7   7    0.46    0.12
  -6   7   6    0.03    0.06
   6   7  -6    0.04    0.06
  -6   7   5    3.72    0.22
   6   7  -5    3.78    0.21
   6   7  -4    0.71    0.11
  -6   7   4    0.81    0.13
   6   7  -3    1.16    0.14
  -6   7   3    1.03    0.13
   6   7  -2    3.77    0.21
  -6   7   2    4.28    0.21
   6   7  -1    1.50    0.16
  -6   7   1    1.69    0.12
  -6   7   1    1.74    0.15
  -6   7   0   11.89    0.36
  -6   7   0   11.59    0.33
   6   7   0   12.20    0.39
   6   7   1   -0.06    0.05
  -6   7  -1   -0.09    0.04
   6   7   2    0.15    0.07
  -6   7  -2    0.18    0.08
  -6   7  -3    1.05    0.16
  -6   7  -4    0.33    0.11
  -6   8   8   -0.03    0.08
  -6   8   7    0.13    0.09
  -6   8   6    1.03    0.16
   6   8  -6    1.09    0.15
   6   8  -5   -0.01    0.06
  -6   8   5    0.00    0.05
   6   8  -4    2.84    0.20
  -6   8   4    2.68    0.19
   6   8  -3   10.18    0.35
  -6   8   3    9.54    0.34
  -6   8   2   12.15    0.37
   6   8  -2   11.76    0.39
   6   8  -1    3.47    0.21
  -6   8   1    3.49    0.19
   6   8   0    2.42    0.18
  -6   8   0    2.39    0.16
  -6   8  -1    3.05    0.19
   6   8   1    2.69    0.19
  -6   8  -2    1.08    0.15
   6   8   2    1.01    0.14
  -6   8  -3    2.59    0.21
  -6   9   7    0.23    0.10
   6   9  -7    0.12    0.08
  -6   9   6    0.60    0.12
   6   9  -6    0.67    0.12
   6   9  -5    3.06    0.20
  -6   9   5    2.67    0.20
  -6   9   4    0.28    0.08
   6   9  -4    0.39    0.10
  -6   9   3    2.50    0.18
   6   9  -3    2.62    0.20
  -6   9   2    5.99    0.26
   6   9  -2    5.55    0.27
   6   9  -1    8.86    0.35
  -6   9   1    9.01    0.31
  -6   9   0    2.65    0.17
   6   9   0    2.72    0.20
  -6   9  -1    1.51    0.16
   6   9   1    1.41    0.16
   6   9   2    0.06    0.06
  -6   9  -2    0.12    0.07
  -6   9  -3    1.62    0.20
  -6  10   6    0.24    0.10
   6  10  -5    0.10    0.07
  -6  10   5    0.13    0.09
  -6  10   4    1.06    0.16
   6  10  -4    0.91    0.14
   6  10  -3    0.69    0.13
  -6  10   3    1.07    0.15
   6  10  -2    0.72    0.13
  -6  10   2    0.50    0.11
   6  10  -1    1.42    0.18
  -6  10   1    1.43    0.15
   6  10   0    0.34    0.10
   6  10   1    0.36    0.10
  -6  10  -1    0.26    0.09
  -6  10  -2    0.12    0.08
   6  10   2    0.20    0.08
   6  11  -5    1.74    0.19
  -6  11   5    1.11    0.16
  -6  11   4    0.29    0.09
   6  11  -4    0.42    0.10
   6  11  -3    1.39    0.18
  -6  11   3    1.94    0.20
  -6  11   2    0.00    0.06
   6  11  -2    0.00    0.07
  -6  11   1    0.20    0.08
   6  11  -1   -0.05    0.06
   6  11   0    0.23    0.10
   6  11   1    0.22    0.10
  -6  12   4    0.35    0.11
   6  12  -4    0.21    0.09
   6  12  -3    0.68    0.14
  -6  12   3    0.98    0.15
   6  12  -2    0.14    0.08
  -6  12   2    0.19    0.08
   6  12  -1    1.46    0.19
  -7   0   8    0.48    0.11
  -7   0   7   -0.01    0.05
  -7   0   6    0.40    0.09
  -7   0   5   -0.06    0.04
  -7   0   4    1.00    0.12
  -7   0   3   -0.03    0.03
  -7   0   3   -0.01    0.04
  -7   0   2   22.21    0.52
  -7   0   2   24.55    0.52
  -7   0   1    0.00    0.04
  -7   0   1    0.13    0.05
  -7   0   0    6.06    0.23
  -7   0   0    6.10    0.24
  -7   0  -1    0.01    0.05
  -7   0  -2    3.17    0.20
  -7   0  -3    0.02    0.06
  -7   0  -4    7.06    0.33
  -7   1   8    0.03    0.08
  -7  -1   8    0.05    0.07
  -7   1   7    0.46    0.11
  -7  -1   7    0.65    0.11
  -7   1   6    3.08    0.19
  -7  -1   6    3.18    0.19
  -7   1   5    1.89    0.17
  -7  -1   5    1.89    0.15
  -7   1   4    0.21    0.07
  -7  -1   4    0.25    0.07
  -7   1   3    3.10    0.17
  -7   1   3    3.31    0.16
  -7  -1   3    3.36    0.18
  -7   1   2   15.85    0.41
  -7   1   2   15.79    0.39
  -7  -1   2   15.60    0.40
  -7  -1   2   14.98    0.40
  -7   1   1    5.37    0.22
  -7   1   1    5.57    0.22
  -7  -1   1    5.84    0.23
  -7  -1   1    5.53    0.23
  -7   1   0    3.23    0.18
  -7   1   0    3.09    0.16
   7   1   0    2.97    0.17
  -7  -1   0    2.98    0.18
  -7   1  -1    0.04    0.05
  -7  -1  -1    0.12    0.06
  -7   1  -2    7.06    0.30
  -7  -1  -2    7.73    0.31
  -7   1  -3    0.34    0.10
  -7  -1  -3    0.25    0.09
  -7   1  -4   -0.01    0.06
  -7  -1  -4    0.01    0.06
  -7   2   8    1.29    0.16
  -7   2   7    0.97    0.14
  -7  -2   7    1.07    0.14
  -7   2   6    0.23    0.08
  -7  -2   6    0.28    0.08
  -7   2   5    0.40    0.09
  -7  -2   5    0.36    0.08
  -7   2   4   10.47    0.34
  -7  -2   4   11.05    0.34
  -7   2   3    5.25    0.19
  -7   2   3    4.88    0.22
  -7  -2   3    4.97    0.22
  -7   2   2    0.86    0.10
  -7   2   2    0.94    0.12
  -7  -2   2    0.92    0.12
  -7  -2   2    1.07    0.13
   7   2  -1   12.41    0.37
  -7   2   1   12.31    0.34
  -7   2   1   12.79    0.35
  -7  -2   1   12.82    0.37
  -7   2   0    3.42    0.19
  -7   2   0    3.27    0.17
   7   2   0    3.88    0.19
  -7  -2   0    3.46    0.19
  -7   2  -1    6.86    0.28
   7   2   1    6.60    0.32
  -7  -2  -1    6.76    0.27
  -7   2  -2    1.15    0.14
  -7  -2  -2    1.00    0.14
  -7   2  -3    0.92    0.15
  -7  -2  -3    0.85    0.14
  -7   2  -4    0.68    0.13
  -7  -2  -4    0.74    0.13
  -7   3   8    0.38    0.11
  -7   3   7    1.26    0.16
  -7  -3   7    1.25    0.15
  -7   3   6    2.39    0.18
  -7  -3   6    2.34    0.17
  -7   3   5    0.47    0.10
  -7  -3   5    0.25    0.07
  -7   3   4    2.11    0.15
  -7  -3   4    2.07    0.15
  -7   3   3    0.40    0.06
  -7   3   3    0.61    0.10
  -7   3   2   64.74    1.06
   7   3  -2   63.18    1.13
  -7   3   2   62.52    1.10
  -7   3   1   23.16    0.51
  -7   3   1   23.21    0.52
   7   3  -1   22.25    0.54
  -7  -3   1   21.85    0.54
   7   3   0    0.15    0.06
  -7   3   0    0.06    0.05
  -7   3   0    0.07    0.06
  -7  -3   0    0.15    0.06
   7   3   1    0.10    0.05
  -7   3  -1    0.07    0.06
  -7  -3  -1    0.08    0.06
  -7   3  -2    3.06    0.20
  -7  -3  -2    2.77    0.19
  -7   3  -3    1.02    0.15
  -7  -3  -3    1.07    0.15
  -7   3  -4   -0.04    0.06
  -7  -3  -4    0.13    0.07
  -7   4   8    3.11    0.22
  -7   4   7   -0.01    0.06
  -7   4   6    0.57    0.11
   7   4  -5    0.32    0.09
  -7   4   5    0.13    0.06
  -7   4   4    0.11    0.05
   7   4  -4    0.08    0.05
   7   4  -3   16.11    0.45
  -7   4   3   16.21    0.43
   7   4  -2   10.72    0.36
  -7   4   2   11.80    0.35
  -7   4   2   11.19    0.32
   7   4  -1   12.79    0.39
  -7   4   1   12.73    0.36
  -7   4   1   13.05    0.36
  -7   4   0    2.80    0.16
   7   4   0    3.11    0.18
  -7   4   0    2.99    0.18
  -7  -4   0    2.81    0.18
   7   4   1    0.19    0.06
  -7   4  -1    0.05    0.06
  -7  -4  -1    0.03    0.05
  -7   4  -2    0.06    0.06
  -7  -4  -2    0.12    0.07
  -7   4  -3    1.17    0.16
  -7  -4  -3    1.21    0.16
  -7   4  -4    0.20    0.10
  -7  -4  -4    0.19    0.08
  -7   5   8    0.50    0.12
  -7   5   7    0.63    0.13
   7   5  -7    0.85    0.14
   7   5  -6    7.13    0.30
  -7   5   6    6.99    0.30
   7   5  -5    0.02    0.06
  -7   5   5   -0.04    0.05
  -7   5   4    4.77    0.23
   7   5  -4    4.60    0.23
   7   5  -3   -0.06    0.03
  -7   5   3   -0.03    0.04
   7   5  -2    3.74    0.21
  -7   5   2    3.68    0.19
  -7   5   2    3.84    0.17
   7   5  -1    1.03    0.13
  -7   5   1    1.08    0.12
  -7   5   1    1.25    0.13
  -7   5   0    0.65    0.10
   7   5   0    0.45    0.10
   7   5   1    2.65    0.18
  -7   5  -1    2.92    0.20
  -7  -5  -1    2.68    0.19
  -7   5  -2    2.97    0.21
  -7  -5  -2    3.30    0.21
  -7   5  -3    0.12    0.08
  -7  -5  -3    0.23    0.08
  -7  -5  -4    1.44    0.17
  -7   6   8    0.12    0.09
   7   6  -8    0.16    0.08
   7   6  -7    0.12    0.08
  -7   6   7    0.11    0.07
   7   6  -6    0.77    0.13
  -7   6   6    0.67    0.12
  -7   6   5   18.47    0.52
   7   6  -5   20.38    0.53
   7   6  -4    4.77    0.24
  -7   6   4    4.94    0.24
   7   6  -3    0.02    0.06
  -7   6   3    0.03    0.05
   7   6  -2    0.82    0.12
  -7   6   2    0.76    0.11
  -7   6   1    1.77    0.14
  -7   6   1    1.86    0.14
   7   6  -1    1.72    0.18
  -7   6   0    7.83    0.30
   7   6   0    7.95    0.31
   7   6   1    5.66    0.27
  -7   6  -1    6.36    0.28
  -7   6  -2    0.14    0.08
  -7  -6  -2    0.14    0.08
  -7   6  -3    0.76    0.14
  -7  -6  -3    0.50    0.11
  -7   7   8    0.32    0.11
   7   7  -8    0.01    0.07
  -7   7   7    0.95    0.15
   7   7  -7    1.02    0.15
   7   7  -6    0.00    0.06
  -7   7   6    0.06    0.06
  -7   7   5    0.05    0.06
   7   7  -5   -0.04    0.06
   7   7  -4    1.01    0.14
  -7   7   4    0.89    0.13
   7   7  -3    0.77    0.12
  -7   7   3    0.48    0.09
   7   7  -2   11.73    0.40
  -7   7   2   12.28    0.38
  -7   7   1    1.86    0.15
  -7   7   1    2.26    0.15
   7   7  -1    1.59    0.18
  -7   7   0    0.49    0.10
   7   7   0    0.34    0.10
  -7   7  -1    1.36    0.16
   7   7   1    2.09    0.20
  -7   7  -2    1.94    0.21
  -7   7  -3    0.10    0.08
  -7   8   7    1.59    0.20
   7   8  -6    0.93    0.14
  -7   8   6    0.99    0.16
   7   8  -5   -0.01    0.07
  -7   8   5    0.13    0.08
   7   8  -4    5.10    0.27
  -7   8   4    5.68    0.28
   7   8  -3    3.11    0.21
  -7   8   3    3.29    0.21
  -7   8   2    2.61    0.18
   7   8  -2    2.54    0.19
   7   8  -1    1.46    0.17
  -7   8   1    1.96    0.18
  -7   8   0    0.10    0.06
   7   8   0    0.07    0.07
   7   8   1    0.72    0.13
  -7   8  -1    0.65    0.12
  -7   8  -2   -0.04    0.05
   7   9  -6    0.13    0.07
  -7   9   6    0.27    0.10
   7   9  -5    0.34    0.10
  -7   9   5    0.55    0.12
  -7   9   4    0.49    0.11
   7   9  -4    0.53    0.11
  -7   9   3    1.22    0.16
   7   9  -3    0.92    0.14
  -7   9   2    3.14    0.20
   7   9  -2    2.93    0.21
  -7   9   1    0.02    0.05
   7   9  -1   -0.02    0.06
   7   9   0    1.19    0.17
  -7   9  -1    0.05    0.07
   7   9   1    0.04    0.07
  -7   9  -2    0.30    0.10
   7   9   2    0.64    0.13
   7  10  -6    1.12    0.16
   7  10  -5    0.16    0.08
  -7  10   5    0.08    0.08
   7  10  -4    0.99    0.16
  -7  10   4    1.18    0.17
   7  10  -3    4.54    0.27
  -7  10   3    5.01    0.26
   7  10  -2    1.28    0.18
  -7  10   2    1.11    0.15
   7  10  -1    0.55    0.13
   7  10   0    1.07    0.16
   7  10   1    3.21    0.23
  -7  10  -1    3.67    0.25
   7  11  -5    0.30    0.10
   7  11  -4    0.30    0.10
  -7  11   4    0.33    0.11
   7  11  -3    3.42    0.24
  -7  11   3    3.22    0.22
   7  11  -2   -0.07    0.06
  -7  11   2    0.11    0.07
   7  11  -1    1.69    0.20
  -8   0   8    0.06    0.07
  -8   0   7    0.03    0.06
  -8   0   6    5.28    0.26
  -8   0   5   -0.02    0.05
  -8   0   4    2.93    0.19
  -8   0   3    0.07    0.05
  -8   0   3   -0.07    0.05
  -8   0   2    1.58    0.13
  -8   0   2    1.37    0.15
  -8   0   1    0.01    0.04
  -8   0   1   -0.01    0.04
  -8   0   0    7.73    0.30
   8   0   0    7.01    0.29
  -8   0  -1   -0.04    0.05
  -8   0  -2    1.09    0.15
  -8   0  -3    0.05    0.06
  -8   1   8    1.58    0.19
  -8  -1   8    1.55    0.19
  -8   1   7    0.37    0.10
  -8  -1   7    0.10    0.07
  -8   1   6    0.42    0.10
  -8  -1   6    0.42    0.10
  -8   1   5    0.19    0.07
  -8  -1   5    0.20    0.08
  -8   1   4   41.67    0.84
  -8  -1   4   41.27    0.84
  -8   1   3   29.83    0.62
  -8   1   3   29.96    0.66
  -8  -1   3   29.18    0.66
  -8   1   2    0.32    0.08
  -8   1   2    0.46    0.09
  -8  -1   2    0.31    0.08
  -8  -1   2    0.28    0.08
  -8   1   1    0.28    0.07
  -8   1   1    0.20    0.07
  -8  -1   1    0.26    0.08
  -8   1   0    8.47    0.29
   8   1   0    8.74    0.31
  -8   1   0    8.13    0.31
  -8  -1   0    8.39    0.32
  -8   1  -1    0.38    0.09
  -8  -1  -1    0.57    0.11
  -8   1  -2    1.45    0.17
  -8  -1  -2    1.28    0.16
  -8   1  -3    1.25    0.18
  -8  -1  -3    0.92    0.14
  -8   2   9    0.07    0.11
  -8   2   8    0.01    0.07
  -8  -2   8    0.04    0.07
  -8   2   7    0.09    0.06
  -8  -2   7    0.14    0.08
  -8   2   6    0.14    0.08
  -8  -2   6    0.03    0.06
  -8   2   5    2.56    0.19
  -8  -2   5    2.32    0.18
  -8   2   4    2.75    0.19
  -8  -2   4    2.57    0.19
  -8   2   3   19.83    0.50
  -8   2   3   18.52    0.45
  -8  -2   3   18.51    0.50
  -8   2   2    3.82    0.19
  -8   2   2    3.40    0.19
  -8  -2   2    3.74    0.21
  -8   2   1   -0.05    0.04
   8   2  -1   -0.01    0.05
  -8   2   1   -0.04    0.04
  -8  -2   1   -0.06    0.04
  -8   2   0    0.79    0.12
   8   2   0    0.78    0.12
  -8  -2   0    1.02    0.14
  -8   2  -1    0.34    0.09
  -8  -2  -1    0.48    0.10
  -8   2  -2    4.21    0.25
  -8  -2  -2    4.08    0.25
  -8   2  -3    0.42    0.12
  -8  -2  -3    0.31    0.10
  -8   3   8    0.87    0.16
  -8  -3   8    0.74    0.13
  -8   3   7    0.29    0.10
  -8  -3   7    0.25    0.08
  -8   3   6    2.81    0.21
  -8  -3   6    3.51    0.22
  -8   3   5    2.28    0.21
  -8  -3   5    2.76    0.19
  -8   3   4    0.60    0.11
  -8  -3   4    0.52    0.10
  -8   3   3    3.50    0.20
  -8   3   3    3.02    0.16
   8   3  -3    2.90    0.19
  -8   3   2    0.46    0.08
  -8   3   2    0.34    0.08
   8   3  -2    0.49    0.10
   8   3  -1    0.12    0.06
  -8   3   1    0.04    0.04
  -8   3   1    0.08    0.05
  -8  -3   1    0.06    0.06
  -8   3   0    5.10    0.25
   8   3   0    5.10    0.25
  -8  -3   0    4.99    0.25
  -8   3  -1    0.18    0.08
  -8  -3  -1    0.23    0.08
  -8   3  -2    0.08    0.07
  -8  -3  -2    0.26    0.09
  -8   3  -3    1.71    0.20
  -8  -3  -3    2.31    0.23
  -8   4   8    0.04    0.07
   8   4  -8    0.18    0.08
  -8   4   7    2.64    0.21
  -8   4   6    7.28    0.32
  -8   4   5    0.43    0.11
   8   4  -5    0.37    0.09
   8   4  -4    0.06    0.06
  -8   4   4    0.07    0.07
  -8   4   3    0.74    0.12
   8   4  -3    0.60    0.11
  -8   4   2    7.23    0.28
   8   4  -2    7.17    0.30
  -8   4   2    6.88    0.26
  -8   4   1    7.64    0.29
   8   4  -1    8.16    0.32
  -8   4   1    8.10    0.30
  -8   4   0    0.31    0.08
   8   4   0    0.31    0.08
  -8  -4   0    0.29    0.09
  -8   4  -1    0.11    0.07
  -8  -4  -1    0.16    0.07
  -8   4  -2    2.48    0.20
  -8  -4  -2    2.55    0.20
  -8   4  -3    0.00    0.10
  -8  -4  -3    0.27    0.09
  -8   5   8    0.07    0.08
  -8   5   7    1.77    0.21
   8   5  -7    1.98    0.21
  -8   5   6    0.23    0.09
   8   5  -6    0.36    0.10
  -8   5   5    0.05    0.07
   8   5  -5    0.04    0.07
   8   5  -4    4.57    0.25
  -8   5   4    4.71    0.25
  -8   5   3    0.32    0.09
   8   5  -3    0.28    0.08
  -8   5   2    1.07    0.16
  -8   5   2    1.04    0.13
   8   5  -2    1.37    0.17
  -8   5   1    0.24    0.08
   8   5  -1    0.23    0.08
  -8   5   1    0.07    0.06
  -8   5   0    3.01    0.20
   8   5   0    2.78    0.20
  -8   5  -1    1.86    0.19
  -8  -5  -1    2.40    0.20
  -8   5  -2    0.77    0.14
  -8  -5  -2    0.44    0.11
  -8   6   8    0.23    0.11
   8   6  -7   -0.01    0.06
  -8   6   7    0.03    0.07
   8   6  -6    1.31    0.17
  -8   6   6    1.44    0.17
   8   6  -5    0.09    0.07
  -8   6   5    0.14    0.08
   8   6  -4    0.02    0.06
  -8   6   4   -0.01    0.06
  -8   6   3    1.62    0.17
   8   6  -3    1.13    0.15
  -8   6   2    1.64    0.18
   8   6  -2    1.44    0.16
  -8   6   1    2.44    0.17
   8   6  -1    2.57    0.20
  -8   6   1    3.00    0.19
   8   6   0    0.48    0.10
  -8   6   0    0.70    0.12
   8   6   1    0.34    0.10
  -8   6  -1    0.39    0.10
  -8   6  -2    0.14    0.10
  -8  -6  -2    0.20    0.09
   8   7  -7    1.20    0.18
  -8   7   7    0.76    0.14
   8   7  -6    0.21    0.09
  -8   7   6    0.13    0.09
   8   7  -5    0.59    0.12
  -8   7   5    0.74    0.13
  -8   7   4    0.14    0.07
   8   7  -4    0.09    0.07
  -8   7   3    0.37    0.10
   8   7  -3    0.46    0.12
  -8   7   2    0.47    0.10
   8   7  -2    0.34    0.10
   8   7  -1    0.04    0.06
  -8   7   0    1.53    0.17
   8   7   0    1.91    0.20
   8   7   1    0.81    0.13
  -8   7  -1    0.58    0.12
  -8   7  -2    2.03    0.22
   8   8  -7    2.19    0.23
   8   8  -6    0.11    0.08
  -8   8   6   -0.02    0.07
   8   8  -5    0.36    0.11
  -8   8   5    0.30    0.10
  -8   8   4    1.46    0.18
   8   8  -4    1.20    0.16
   8   8  -3    0.72    0.14
  -8   8   3    0.92    0.14
  -8   8   2    4.05    0.23
   8   8  -2    3.97    0.24
   8   8  -1    3.55    0.24
  -8   8   0    0.59    0.12
   8   8   0    0.56    0.12
  -8   8  -1    0.33    0.10
   8   8   1    0.53    0.12
   8   9  -6    0.32    0.10
  -8   9   5    0.17    0.08
   8   9  -5    0.10    0.07
   8   9  -4    1.60    0.18
  -8   9   4    1.82    0.20
  -8   9   3    2.18    0.21
   8   9  -3    1.97    0.22
   8   9  -2    0.05    0.06
  -8   9   2    0.21    0.08
   8   9  -1    0.19    0.09
   8   9   0   -0.06    0.05
   8  10  -5    0.20    0.10
  -8  10   4    1.47    0.19
   8  10  -4    0.93    0.16
   8  10  -3    1.64    0.20
  -8  10   3    1.41    0.18
  -8  10   2    0.09    0.07
   8  10  -2   -0.05    0.06
   8  10  -1    0.02    0.08
  -9   0   8    0.14    0.09
  -9   0   7   -0.01    0.07
  -9   0   6   12.50    0.43
  -9   0   5    0.11    0.08
  -9   0   4    6.37    0.29
  -9   0   3    0.02    0.06
  -9   0   3    0.05    0.05
  -9   0   2    0.59    0.11
  -9   0   2    0.41    0.09
  -9   0   1    0.03    0.05
  -9   0   1    0.14    0.07
  -9   0   0    2.15    0.18
  -9   0  -1    0.06    0.07
  -9   0  -2    0.04    0.07
  -9   1   8    0.84    0.16
  -9  -1   8    0.79    0.15
  -9   1   7    1.39    0.18
  -9  -1   7    1.34    0.18
  -9   1   6    0.27    0.09
  -9  -1   6    0.12    0.09
  -9   1   5   24.11    0.63
  -9  -1   5   25.15    0.64
  -9   1   4    3.52    0.22
  -9  -1   4    3.84    0.24
  -9   1   3    0.07    0.05
  -9   1   3   -0.07    0.05
  -9  -1   3    0.03    0.06
  -9   1   2    3.58    0.21
  -9   1   2    3.59    0.21
  -9  -1   2    3.67    0.22
  -9  -1   2    3.77    0.22
  -9   1   1    1.03    0.14
  -9   1   1    0.88    0.13
   9   1  -1    1.11    0.15
  -9  -1   1    0.98    0.14
  -9   1   0    0.20    0.08
  -9  -1   0    0.21    0.07
  -9   1  -1    0.49    0.11
  -9  -1  -1    0.40    0.10
  -9   1  -2    0.43    0.12
  -9  -1  -2    0.41    0.11
  -9   2   8    4.22    0.27
  -9  -2   8    3.69    0.25
  -9   2   7    0.20    0.10
  -9  -2   7    0.22    0.09
  -9   2   6    1.26    0.17
  -9  -2   6    1.25    0.17
  -9   2   5    2.05    0.21
  -9  -2   5    1.84    0.21
  -9   2   4    0.37    0.09
  -9  -2   4    0.29    0.10
  -9   2   3    0.36    0.08
  -9   2   3    0.40    0.10
  -9  -2   3    0.39    0.10
   9   2  -2    5.88    0.28
  -9   2   2    6.20    0.28
  -9   2   2    6.56    0.27
  -9  -2   2    5.85    0.28
   9   2  -1   -0.02    0.04
  -9   2   1   -0.06    0.05
  -9   2   1    0.01    0.05
  -9  -2   1    0.02    0.06
  -9   2   0    1.88    0.19
  -9  -2   0    1.79    0.19
  -9   2  -1    0.38    0.10
  -9  -2  -1    0.47    0.12
  -9   2  -2    3.69    0.27
  -9  -2  -2    3.12    0.23
  -9   3   8    0.29    0.12
  -9  -3   8    0.69    0.14
  -9   3   7    0.15    0.08
  -9  -3   7    0.07    0.08
  -9   3   6    6.95    0.32
  -9  -3   6    6.60    0.32
  -9   3   5    0.14    0.08
  -9  -3   5    0.08    0.07
  -9   3   4    4.29    0.24
  -9   3   3   -0.03    0.05
   9   3  -3    0.00    0.05
  -9   3   2    6.96    0.27
  -9   3   2    6.57    0.28
   9   3  -2    6.14    0.29
   9   3  -1    0.30    0.09
  -9   3   1    0.21    0.08
  -9   3   1    0.19    0.07
  -9  -3   1    0.14    0.08
  -9   3   0    1.88    0.19
  -9  -3   0    2.10    0.22
  -9   3  -1    1.98    0.21
  -9  -3  -1    1.57    0.18
  -9  -3  -2    1.30    0.26
   9   4  -8    0.43    0.11
  -9   4   8    0.57    0.16
  -9   4   7    0.35    0.11
   9   4  -7    0.47    0.12
   9   4  -6    0.42    0.11
  -9   4   6    0.50    0.12
  -9   4   5    2.55    0.20
   9   4  -5    2.86    0.22
   9   4  -4    1.64    0.19
  -9   4   4    1.52    0.17
   9   4  -3    0.31    0.09
  -9   4   3    0.15    0.07
  -9   4   2    0.57    0.11
   9   4  -2    0.45    0.11
  -9   4   2    0.48    0.09
  -9   4   1    0.50    0.10
   9   4  -1    0.36    0.10
   9   4   0    4.44    0.25
  -9   4   0    4.31    0.25
  -9  -4   0    5.34    0.29
  -9   4  -1    0.16    0.08
  -9  -4  -1    0.09    0.07
   9   5  -7   -0.01    0.06
  -9   5   7    0.06    0.08
   9   5  -6    0.23    0.09
  -9   5   6    0.09    0.08
   9   5  -5    0.23    0.09
  -9   5   5    0.19    0.09
  -9   5   4    0.05    0.07
   9   5  -4    0.03    0.06
  -9   5   3    1.64    0.18
   9   5  -3    1.35    0.18
  -9   5   2    2.76    0.19
   9   5  -2    2.66    0.20
  -9   5   1    0.05    0.05
   9   5  -1   -0.07    0.05
   9   5   0    0.48    0.11
  -9   5   0    0.60    0.12
  -9   5  -1    1.79    0.21
  -9  -5  -1    1.32    0.18
  -9   6   7    0.50    0.18
   9   6  -7    0.39    0.11
   9   6  -6    0.07    0.07
  -9   6   6    0.05    0.07
  -9   6   5    0.39    0.11
   9   6  -5    0.33    0.11
  -9   6   4    2.29    0.22
   9   6  -4    2.37    0.23
   9   6  -3    1.94    0.21
  -9   6   3    2.25    0.21
   9   6  -2    0.80    0.14
  -9   6   2    0.60    0.12
   9   6  -1    0.07    0.07
  -9   6   1    0.03    0.06
  -9   6   0    1.06    0.16
   9   6   0    1.32    0.18
  -9   6  -1   -0.02    0.07
   9   7  -6    0.02    0.07
  -9   7   6    0.12    0.09
  -9   7   5    0.77    0.14
   9   7  -5    0.72    0.14
  -9   7   4    1.40    0.19
   9   7  -4    1.16    0.17
  -9   7   3   -0.06    0.05
   9   7  -3   -0.06    0.05
   9   7  -2    0.09    0.08
  -9   7   2    0.15    0.08
   9   7  -1    0.86    0.14
   9   7   0    0.21    0.09
  -9   7   0    0.44    0.11
   9   8  -5    0.85    0.16
  -9   8   5    0.67    0.14
  -9   8   4    0.43    0.10
   9   8  -4    0.28    0.10
  -9   8   3    0.87    0.15
   9   8  -3    0.71    0.14
   9   8  -2    0.14    0.08
  -9   8   2    0.28    0.12
   9   8  -1    1.03    0.17
  -9   9   4    0.51    0.13
  -9   9   3    0.30    0.10
 -10   0   7    0.00    0.08
 -10   0   6    3.97    0.26
 -10   0   5   -0.04    0.07
 -10   0   4    5.19    0.28
 -10   0   3    0.03    0.06
 -10   0   3    0.03    0.06
 -10   0   2    2.73    0.20
 -10   0   2    2.77    0.20
 -10   0   1    0.03    0.06
 -10   0   0    4.99    0.28
 -10   1   7    1.88    0.23
 -10  -1   7    1.77    0.22
 -10   1   6    0.69    0.14
 -10  -1   6    0.60    0.14
 -10   1   5    0.36    0.11
 -10  -1   5    0.48    0.12
 -10   1   4    3.09    0.22
 -10  -1   4    3.06    0.23
 -10   1   3    0.03    0.06
 -10   1   3    0.17    0.08
 -10  -1   3    0.17    0.08
 -10   1   2    0.83    0.13
  10   1  -2    1.29    0.18
 -10   1   2    1.19    0.15
 -10  -1   2    1.03    0.15
 -10   1   1    0.42    0.10
 -10  -1   1    0.59    0.13
 -10   1   0    0.56    0.12
 -10  -1   0    0.46    0.12
 -10   2   7    1.53    0.20
 -10  -2   7    1.76    0.21
 -10   2   6    3.74    0.25
 -10  -2   6    3.59    0.25
 -10   2   5   -0.07    0.06
 -10  -2   5    0.05    0.08
 -10   2   4    0.47    0.12
 -10  -2   4    0.41    0.10
 -10   2   3    0.04    0.06
  10   2  -3    0.01    0.06
 -10   2   3    0.04    0.06
 -10   2   2    1.49    0.18
 -10   2   2    1.81    0.18
  10   2  -2    1.54    0.19
 -10  -2   2    1.59    0.19
  10   2  -1    0.28    0.09
 -10   2   1    0.31    0.10
 -10  -2   1    0.34    0.10
 -10   2   0    0.03    0.06
 -10  -2   0    0.03    0.07
 -10   3   7    3.63    0.27
 -10  -3   7    4.46    0.28
 -10   3   6    2.26    0.24
 -10   3   5    0.33    0.10
  10   3  -4    0.33    0.11
 -10   3   4    0.26    0.10
  10   3  -3    0.10    0.07
 -10   3   3    0.10    0.07
  10   3  -2    0.17    0.08
 -10   3   2    0.38    0.10
 -10   3   2    0.49    0.10
 -10   3   1    0.43    0.11
  10   3  -1    0.31    0.09
 -10  -3   1    0.33    0.10
 -10   3   0   -0.11    0.06
 -10  -3   0   -0.03    0.07
  10   4  -7    0.31    0.11
 -10   4   6    0.02    0.07
  10   4  -6    0.08    0.07
  10   4  -5   -0.05    0.06
 -10   4   5    0.01    0.07
 -10   4   4    3.47    0.25
 -10   4   3    0.12    0.08
  10   4  -3    0.14    0.08
 -10   4   2    0.03    0.06
  10   4  -2    0.04    0.07
  10   4  -1    0.25    0.09
 -10   4   1    0.18    0.08
 -10   4   0    0.03    0.07
 -10   5   6    1.52    0.20
  10   5  -6    1.48    0.19
 -10   5   5    0.01    0.06
  10   5  -5    0.02    0.05
  10   5  -4    0.10    0.07
 -10   5   4    0.17    0.08
  10   5  -3    1.81    0.22
 -10   5   3    1.56    0.19
  10   5  -2    0.82    0.14
 -10   5   2    0.53    0.12
  10   5  -1    0.15    0.08
 -10   5   1    0.22    0.08
  10   6  -5    0.00    0.05
 -10   6   5    0.10    0.08
 -10   6   4    0.13    0.08
  10   6  -4    0.17    0.09
  10   6  -3    1.36    0.19
 -10   6   3    1.36    0.17
  10   6  -2    1.56    0.20
  10   6  -1    4.41    0.28
 -10   7   4    0.08    0.08
 -10   7   3    2.40    0.24
 -11   0   5   -0.03    0.06
 -11   0   4    0.48    0.11
 -11   0   3    0.00    0.06
 -11   0   3    0.03    0.06
 -11   0   2    0.12    0.08
 -11   1   5    0.07    0.07
 -11  -1   5    0.12    0.08
 -11   1   4    0.30    0.10
 -11  -1   4    0.56    0.13
 -11   1   3    0.66    0.13
 -11   1   3    0.74    0.13
 -11   1   2   -0.01    0.07
 -11   1   2    0.10    0.07
  11   1  -2   -0.01    0.07
 -11  -1   2    0.19    0.09
 -11   2   5    0.39    0.11
 -11   2   4    0.39    0.11
  11   2  -4    0.54    0.13
 -11   2   3    0.17    0.08
  11   2  -3    0.45    0.12
 -11   2   2    0.46    0.11
  11   2  -2    0.31    0.11
 -11   3   5    0.53    0.16
 -11   3   4    0.22    0.08
  11   3  -4    0.21    0.09
 -11   3   3    0.07    0.06
  11   3  -3    0.02    0.06
  11   3  -2    4.77    0.29
 -11   3   2    5.15    0.28
 -11   4   4    1.73    0.20
 -11   4   3    0.65    0.12
  11   4  -3    0.71    0.20
   0   0   0    0.00    0.00
;
_shelx_hkl_checksum              73769
_shelx_res_file
;
    a170120mas1.res created by SHELXL-2014/7
TITL a170120mas1 in P2(1)/c
CELL 0.71073   8.80030  11.40280   7.50570  90.0000 113.8305  90.0000
ZERR    2.00   0.00450   0.00600   0.00380   0.0000   0.0062   0.0000
LATT 1
SYMM -X, 0.5+Y, 0.5-Z
SFAC C  H  O  S
UNIT 32  28  6  2
L.S. 4
ACTA 50
BOND $H
FMAP 2
PLAN 20
SIZE 0.100 0.400 0.400
TEMP -100
WGHT    0.028800    0.234200
FVAR       0.30212
PART 1
MOLE 1
S1    4    0.786949    0.768274    1.132262    10.50000    0.03452    0.03976 =
         0.04524    0.00863    0.01255    0.00396
PART 2
O2    3    0.783692    0.782756    1.095852    10.50000    0.09431    0.07320 =
         0.08632    0.00715    0.02791   -0.00718
PART 0
O1    3    0.792578    0.949783    0.935034    11.00000    0.03675    0.03937 =
         0.03917    0.00429    0.00929   -0.00589
C1    1    0.707469    0.864744    0.976940    11.00000    0.04568    0.03299 =
         0.03241   -0.00131    0.01528   -0.00418
C2    1    0.526618    0.876573    0.862268    11.00000    0.04187    0.03320 =
         0.02697   -0.00584    0.01444   -0.00480
C3    1    0.418567    0.797417    0.890800    11.00000    0.05357    0.04167 =
         0.03327   -0.00282    0.01762   -0.01134
AFIX  43
H3    2    0.460952    0.737233    0.985669    11.00000   -1.20000
AFIX   0
C4    1    0.249662    0.806039    0.781530    11.00000    0.04751    0.05635 =
         0.04623   -0.01244    0.02330   -0.01908
AFIX  43
H4    2    0.176235    0.751647    0.801425    11.00000   -1.20000
AFIX   0
C5    1    0.187271    0.892876    0.644195    11.00000    0.03795    0.05922 =
         0.04892   -0.01002    0.01595   -0.00372
AFIX  43
H5    2    0.071113    0.897755    0.568083    11.00000   -1.20000
AFIX   0
C6    1    0.293413    0.973037    0.616829    11.00000    0.04450    0.04705 =
         0.04642    0.00209    0.01515    0.00362
AFIX  43
H6    2    0.249835    1.033594    0.522893    11.00000   -1.20000
AFIX   0
C7    1    0.462543    0.965696    0.725209    11.00000    0.04270    0.03432 =
         0.03805   -0.00097    0.01715   -0.00267
AFIX  43
H7    2    0.535075    1.021304    0.706358    11.00000   -1.20000
AFIX   0
C8    1    0.970203    0.946354    1.034238    11.00000    0.03646    0.04615 =
         0.04373    0.00326    0.01026   -0.00440
AFIX  23
H8A   2    1.015254    0.874370    0.999871    11.00000   -1.20000
H8B   2    1.004689    0.948483    1.177141    11.00000   -1.20000
AFIX   0
HKLF 4
REM  a170120mas1 in P2(1)/c
REM R1 =  0.0382 for    1335 Fo > 4sig(Fo)  and  0.0452 for all    1523 data
REM    100 parameters refined using      0 restraints
END
WGHT      0.0293      0.2329
REM Highest difference peak  0.190,  deepest hole -0.161,  1-sigma level  0.033
Q1    1   0.4633  0.8575  0.8970  11.00000  0.05    0.19
Q2    1   0.6038  0.8623  0.9052  11.00000  0.05    0.19
Q3    1   0.5048  0.9233  0.8165  11.00000  0.05    0.15
Q4    1   0.9016  0.7770  1.1807  11.00000  0.05    0.13
Q5    1   0.3397  0.7768  0.8094  11.00000  0.05    0.13
Q6    1   0.2547  0.8386  0.7004  11.00000  0.05    0.13
Q7    1   0.8934  0.9430  0.9801  11.00000  0.05    0.13
Q8    1   1.0000  1.0000  1.0000  10.50000  0.05    0.12
Q9    1   0.1173  0.7835  0.8808  11.00000  0.05    0.11
Q10   1   0.2321  0.9432  0.6561  11.00000  0.05    0.11
Q11   1   0.7117  0.7158  1.0873  11.00000  0.05    0.10
Q12   1   0.3231  0.7574  0.6576  11.00000  0.05    0.09
Q13   1   0.8487  0.6708  1.0908  11.00000  0.05    0.09
Q14   1   0.3730  0.9623  0.6711  11.00000  0.05    0.09
Q15   1   0.7146  0.7578  1.2088  11.00000  0.05    0.09
Q16   1   0.5265  0.6991  0.9553  11.00000  0.05    0.09
Q17   1   0.5894  1.0021  0.6946  11.00000  0.05    0.09
Q18   1   0.7800  0.7381  1.2907  11.00000  0.05    0.09
Q19   1   0.4979  0.8178  1.1830  11.00000  0.05    0.09
Q20   1   0.4054  1.1296  0.7006  11.00000  0.05    0.09
;
_shelx_res_checksum              6438
loop_
_space_group_symop_operation_xyz
'x, y, z'
'-x, y+1/2, -z+1/2'
'-x, -y, -z'
'x, -y-1/2, z-1/2'
loop_
_atom_site_type_symbol
_atom_site_label
_atom_site_fract_x
_atom_site_fract_y
_atom_site_fract_z
_atom_site_U_iso_or_equiv
_atom_site_adp_type
_atom_site_calc_flag
_atom_site_occupancy
_atom_site_disorder_assembly
_atom_site_disorder_group
S S1 0.78695(19) 0.76827(18) 1.1323(3) 0.0410(3) Uani d 0.5 A 1
O O2 0.7837(8) 0.7828(6) 1.0959(10) 0.087(3) Uani d 0.5 A 2
O O1 0.79258(12) 0.94978(9) 0.93503(15) 0.0404(3) Uani d 1 . .
C C1 0.70747(18) 0.86474(13) 0.9769(2) 0.0372(3) Uani d 1 . .
C C2 0.52662(17) 0.87657(12) 0.86227(19) 0.0338(3) Uani d 1 . .
C C3 0.4186(2) 0.79742(14) 0.8908(2) 0.0428(4) Uani d 1 . .
H H3 0.461 0.7372 0.9857 0.051 Uiso calc 1 . .
C C4 0.2497(2) 0.80604(15) 0.7815(2) 0.0486(4) Uani d 1 . .
H H4 0.1762 0.7516 0.8014 0.058 Uiso calc 1 . .
C C5 0.1873(2) 0.89288(16) 0.6442(3) 0.0492(4) Uani d 1 . .
H H5 0.0711 0.8978 0.5681 0.059 Uiso calc 1 . .
C C6 0.2934(2) 0.97304(15) 0.6168(2) 0.0470(4) Uani d 1 . .
H H6 0.2498 1.0336 0.5229 0.056 Uiso calc 1 . .
C C7 0.46254(18) 0.96570(12) 0.7252(2) 0.0381(3) Uani d 1 . .
H H7 0.5351 1.0213 0.7064 0.046 Uiso calc 1 . .
C C8 0.97020(18) 0.94635(14) 1.0342(2) 0.0440(4) Uani d 1 . .
H H8A 1.0153 0.8744 0.9999 0.053 Uiso calc 1 . .
H H8B 1.0047 0.9485 1.1771 0.053 Uiso calc 1 . .
loop_
_atom_site_aniso_label
_atom_site_aniso_U_11
_atom_site_aniso_U_22
_atom_site_aniso_U_33
_atom_site_aniso_U_12
_atom_site_aniso_U_13
_atom_site_aniso_U_23
S1 0.0345(5) 0.0398(5) 0.0452(6) 0.0040(4) 0.0125(4) 0.0086(5)
O2 0.094(4) 0.073(4) 0.086(5) -0.007(3) 0.028(3) 0.007(3)
O1 0.0368(5) 0.0394(6) 0.0392(6) -0.0059(4) 0.0093(4) 0.0043(4)
C1 0.0457(8) 0.0330(7) 0.0324(8) -0.0042(6) 0.0153(6) -0.0013(6)
C2 0.0419(8) 0.0332(7) 0.0270(7) -0.0048(6) 0.0144(6) -0.0058(5)
C3 0.0536(9) 0.0417(8) 0.0333(8) -0.0113(7) 0.0176(7) -0.0028(6)
C4 0.0475(9) 0.0563(10) 0.0462(10) -0.0191(8) 0.0233(7) -0.0124(8)
C5 0.0380(8) 0.0592(10) 0.0489(10) -0.0037(7) 0.0159(7) -0.0100(8)
C6 0.0445(8) 0.0470(9) 0.0464(10) 0.0036(7) 0.0151(7) 0.0021(7)
C7 0.0427(8) 0.0343(7) 0.0380(8) -0.0027(6) 0.0171(6) -0.0010(6)
C8 0.0365(8) 0.0462(9) 0.0437(9) -0.0044(7) 0.0103(6) 0.0033(7)
loop_
_atom_type_symbol
_atom_type_description
_atom_type_scat_dispersion_real
_atom_type_scat_dispersion_imag
_atom_type_scat_source
C C 0.0033 0.0016 'International Tables Vol C Tables 4.2.6.8 and 6.1.1.4'
H H 0.0000 0.0000 'International Tables Vol C Tables 4.2.6.8 and 6.1.1.4'
O O 0.0106 0.0060 'International Tables Vol C Tables 4.2.6.8 and 6.1.1.4'
S S 0.1246 0.1234 'International Tables Vol C Tables 4.2.6.8 and 6.1.1.4'
loop_
_geom_angle_atom_site_label_1
_geom_angle_atom_site_label_2
_geom_angle_atom_site_label_3
_geom_angle_site_symmetry_1
_geom_angle_site_symmetry_3
_geom_angle
C1 O1 C8 . . 117.01(12)
O2 C1 O1 . . 120.5(3)
O2 C1 C2 . . 127.6(3)
O1 C1 C2 . . 111.73(13)
O1 C1 S1 . . 124.48(13)
C2 C1 S1 . . 123.75(13)
C3 C2 C7 . . 119.33(14)
C3 C2 C1 . . 119.61(14)
C7 C2 C1 . . 121.06(13)
C4 C3 C2 . . 120.12(15)
C4 C3 H3 . . 119.9
C2 C3 H3 . . 119.9
C5 C4 C3 . . 120.33(15)
C5 C4 H4 . . 119.8
C3 C4 H4 . . 119.8
C4 C5 C6 . . 119.98(15)
C4 C5 H5 . . 120.0
C6 C5 H5 . . 120.0
C5 C6 C7 . . 120.36(16)
C5 C6 H6 . . 119.8
C7 C6 H6 . . 119.8
C6 C7 C2 . . 119.85(14)
C6 C7 H7 . . 120.1
C2 C7 H7 . . 120.1
O1 C8 C8 . 3_777 104.96(15)
O1 C8 H8A . . 110.8
C8 C8 H8A 3_777 . 110.8
O1 C8 H8B . . 110.8
C8 C8 H8B 3_777 . 110.8
H8A C8 H8B . . 108.8
loop_
_geom_bond_atom_site_label_1
_geom_bond_atom_site_label_2
_geom_bond_site_symmetry_2
_geom_bond_distance
S1 C1 . 1.549(3)
O2 C1 . 1.279(6)
O1 C1 . 1.3381(18)
O1 C8 . 1.4349(19)
C1 C2 . 1.478(2)
C2 C3 . 1.389(2)
C2 C7 . 1.393(2)
C3 C4 . 1.381(2)
C3 H3 . 0.95
C4 C5 . 1.374(3)
C4 H4 . 0.95
C5 C6 . 1.380(2)
C5 H5 . 0.95
C6 C7 . 1.380(2)
C6 H6 . 0.95
C7 H7 . 0.95
C8 C8 3_777 1.501(3)
C8 H8A . 0.99
C8 H8B . 0.99
