#------------------------------------------------------------------------------
#$Date: 2019-12-26 21:28:58 +0200 (Thu, 26 Dec 2019) $
#$Revision: 246110 $
#$URL: file:///home/coder/svn-repositories/cod/cif/2/31/18/2311803.cif $
#------------------------------------------------------------------------------
#
# This file is available in the Crystallography Open Database (COD),
# http://www.crystallography.net/. The original data for this entry
# were provided by IUCr Journals, http://journals.iucr.org/.
#
# The file may be used within the scientific community so long as
# proper attribution is given to the journal article from which the
# data were obtained.
#
data_2311803
loop_
_publ_author_name
'Sarmah, Kashyap Kumar'
'Rajbongshi, Trishna'
'Bhowmick, Sourav'
'Thakuria, Ranjit'
_publ_section_title
;
 First-line antituberculosis drug, pyrazinamide,
 its&#x00A0;pharmaceutically relevant cocrystals and a salt.
;
_journal_issue                   'Pt 5'
_journal_name_full
'Acta crystallographica Section B, Structural science, crystal engineering and materials'
_journal_page_first              1007
_journal_page_last               1016
_journal_paper_doi               10.1107/S2052520617011477
_journal_volume                  73
_journal_year                    2017
_chemical_formula_moiety         'C10 H10 O4, C5 H5 N3 O'
_chemical_formula_sum            'C15 H15 N3 O5'
_chemical_formula_weight         317.30
_space_group_crystal_system      triclinic
_space_group_IT_number           2
_space_group_name_Hall           '-P 1'
_space_group_name_H-M_alt        'P -1'
_atom_sites_solution_hydrogens   mixed
_audit_creation_method           SHELXL-2016/6
_cell_angle_alpha                70.471(3)
_cell_angle_beta                 76.142(3)
_cell_angle_gamma                78.253(4)
_cell_formula_units_Z            2
_cell_length_a                   7.4159(5)
_cell_length_b                   10.1690(7)
_cell_length_c                   11.0335(8)
_cell_measurement_reflns_used    5994
_cell_measurement_temperature    296(2)
_cell_measurement_theta_max      26.43
_cell_measurement_theta_min      2.45
_cell_volume                     754.40(9)
_computing_cell_refinement       'Bruker SAINT'
_computing_data_collection       'Bruker APEX2'
_computing_data_reduction        'Bruker SAINT'
_computing_molecular_graphics    'Bruker SHELXTL'
_computing_publication_material  'Bruker SHELXTL'
_computing_structure_refinement  'SHELXL-2016/6 (Sheldrick, 2016)'
_computing_structure_solution    'SHELXL-2016/6 (Sheldrick, 2016)'
_diffrn_ambient_temperature      296(2)
_diffrn_measured_fraction_theta_full 1.000
_diffrn_measured_fraction_theta_max 0.997
_diffrn_measurement_device_type  'Bruker APEX-II CCD'
_diffrn_measurement_method       '\f and \w scans'
_diffrn_radiation_type           MoK\a
_diffrn_radiation_wavelength     0.71073
_diffrn_reflns_av_R_equivalents  0.0241
_diffrn_reflns_av_unetI/netI     0.0174
_diffrn_reflns_Laue_measured_fraction_full 1.000
_diffrn_reflns_Laue_measured_fraction_max 0.997
_diffrn_reflns_limit_h_max       9
_diffrn_reflns_limit_h_min       -9
_diffrn_reflns_limit_k_max       12
_diffrn_reflns_limit_k_min       -12
_diffrn_reflns_limit_l_max       13
_diffrn_reflns_limit_l_min       -13
_diffrn_reflns_number            11332
_diffrn_reflns_point_group_measured_fraction_full 1.000
_diffrn_reflns_point_group_measured_fraction_max 0.997
_diffrn_reflns_theta_full        25.242
_diffrn_reflns_theta_max         26.477
_diffrn_reflns_theta_min         1.993
_diffrn_source                   'fine-focus sealed tube'
_exptl_absorpt_coefficient_mu    0.107
_exptl_absorpt_correction_T_max  0.9821
_exptl_absorpt_correction_T_min  0.9758
_exptl_absorpt_correction_type   multi-scan
_exptl_absorpt_process_details   'Bruker AXS SADABS program'
_exptl_crystal_colour            yellow
_exptl_crystal_density_diffrn    1.397
_exptl_crystal_description       block
_exptl_crystal_F_000             332
_exptl_crystal_size_max          0.230
_exptl_crystal_size_mid          0.190
_exptl_crystal_size_min          0.170
_refine_diff_density_max         0.233
_refine_diff_density_min         -0.153
_refine_diff_density_rms         0.034
_refine_ls_extinction_coef       0.036(4)
_refine_ls_extinction_expression Fc^*^=kFc[1+0.001xFc^2^\l^3^/sin(2\q)]^-1/4^
_refine_ls_extinction_method     'SHELXL-2016/6 (Sheldrick 2016)'
_refine_ls_goodness_of_fit_ref   1.038
_refine_ls_hydrogen_treatment    mixed
_refine_ls_matrix_type           full
_refine_ls_number_parameters     226
_refine_ls_number_reflns         3118
_refine_ls_number_restraints     1
_refine_ls_restrained_S_all      1.038
_refine_ls_R_factor_all          0.0424
_refine_ls_R_factor_gt           0.0355
_refine_ls_shift/su_max          0.000
_refine_ls_shift/su_mean         0.000
_refine_ls_structure_factor_coef Fsqd
_refine_ls_weighting_details
'w=1/[\s^2^(Fo^2^)+(0.0571P)^2^+0.1265P] where P=(Fo^2^+2Fc^2^)/3'
_refine_ls_weighting_scheme      calc
_refine_ls_wR_factor_gt          0.1001
_refine_ls_wR_factor_ref         0.1072
_reflns_Friedel_coverage         0.000
_reflns_number_gt                2632
_reflns_number_total             3118
_reflns_threshold_expression     'I > 2\s(I)'
_cod_data_source_file            rm5006sup1.cif
_cod_data_source_block           Pyz-Ferulic_acid
_cod_database_code               2311803
_shelx_shelxl_version_number     2016/6
_shelx_space_group_comment
;
The symmetry employed for this shelxl refinement is uniquely defined
by the following loop, which should always be used as a source of
symmetry information in preference to the above space-group names.
They are only intended as comments.
;
_shelx_estimated_absorpt_t_min   0.976
_shelx_estimated_absorpt_t_max   0.982
_exptl_absorpt_special_details   'Sheldrick,G.M.,2015,University of gottingen'
_shelx_res_file
;
TITL RT_Pyz_Ferulic_CH3NO2_EtOH_0m in P-1
    Pyz-Ferulic acid.res
    created by SHELXL-2016/6 at 12:53:43 on 03-Jul-2017
CELL 0.71073 7.4159 10.1690 11.0335 70.471 76.142 78.253
ZERR 2.00 0.0005 0.0007 0.0008 0.003 0.003 0.004
LATT 1
SFAC C  H  N  O
UNIT 30 30 6 10
LIST 6 ! automatically inserted. Change 6 to 4 for CHECKCIF!!
L.S. 9
ACTA
BOND $H
FMAP 2
PLAN 3
DFIX 0.98 0.001 O2 H2A
SIZE 0.17 0.19 0.23
TEMP 23.000
WGHT    0.057100    0.126500
EXTI    0.036453
FVAR       0.20440
C1    1    0.186881    0.246231    0.144999    11.00000    0.03820    0.03691 =
         0.04080   -0.00713   -0.00701   -0.00462
C2    1    0.221923    0.121919    0.242353    11.00000    0.04333    0.03935 =
         0.04920   -0.00488   -0.01377   -0.00590
AFIX  43
H2    2    0.334380    0.102276    0.272327    11.00000   -1.20000
AFIX   0
C3    1   -0.056275    0.063227    0.245975    11.00000    0.05231    0.05252 =
         0.06508    0.00215   -0.01339   -0.02163
AFIX  43
H3    2   -0.144709    0.000915    0.278231    11.00000   -1.20000
AFIX   0
C4    1   -0.092222    0.187450    0.149329    11.00000    0.04631    0.05975 =
         0.06870    0.00325   -0.02131   -0.01675
AFIX  43
H4    2   -0.204526    0.206736    0.119220    11.00000   -1.20000
AFIX   0
C5    1    0.328027    0.347947    0.088143    11.00000    0.03795    0.03821 =
         0.04434   -0.00635   -0.00684   -0.00562
C6    1    0.052987    0.560294    0.284778    11.00000    0.04971    0.03733 =
         0.03680   -0.00611   -0.00454   -0.01129
C7    1    0.151095    0.444625    0.365145    11.00000    0.03807    0.04023 =
         0.04376   -0.00790   -0.00528   -0.01082
AFIX  43
H7    2    0.274275    0.447619    0.368477    11.00000   -1.20000
AFIX   0
C8    1    0.067726    0.326540    0.439291    11.00000    0.03908    0.03719 =
         0.03891   -0.00527   -0.00592   -0.00727
C9    1   -0.118619    0.321078    0.436064    11.00000    0.04213    0.04220 =
         0.04139   -0.00415   -0.00608   -0.01365
C10   1   -0.214942    0.435268    0.356479    11.00000    0.04193    0.05415 =
         0.05360   -0.00101   -0.01515   -0.01275
AFIX  43
H10   2   -0.338340    0.432739    0.353296    11.00000   -1.20000
AFIX   0
C11   1   -0.130089    0.553363    0.281440    11.00000    0.05175    0.04483 =
         0.04587    0.00052   -0.01547   -0.00769
AFIX  43
H11   2   -0.196970    0.628949    0.228142    11.00000   -1.20000
AFIX   0
C12   1    0.141265    0.685121    0.203933    11.00000    0.05740    0.03663 =
         0.04140   -0.00423   -0.00633   -0.01086
AFIX  43
H12   2    0.069749    0.755270    0.149320    11.00000   -1.20000
AFIX   0
C13   1    0.311057    0.709310    0.199839    11.00000    0.05588    0.03704 =
         0.05445   -0.00012   -0.00764   -0.01172
AFIX  43
H13   2    0.384823    0.641873    0.254754    11.00000   -1.20000
AFIX   0
C14   1    0.389231    0.836430    0.113593    11.00000    0.05256    0.03593 =
         0.05044   -0.00676   -0.00416   -0.01133
C15   1    0.349184    0.204441    0.515646    11.00000    0.04248    0.05689 =
         0.07848    0.00405   -0.01797   -0.00809
AFIX 137
H15A  2    0.416455    0.222256    0.427075    11.00000   -1.50000
H15B  2    0.397479    0.113400    0.567482    11.00000   -1.50000
H15C  2    0.364230    0.275254    0.550800    11.00000   -1.50000
AFIX   0
H2A   2    0.607473    0.935646    0.070520    11.00000    0.19800
H3A   2    0.365580    0.528177   -0.045378    11.00000    0.06602
H5A   2   -0.138596    0.144923    0.555234    11.00000    0.07607
H3B   2    0.173874    0.470183   -0.028307    11.00000    0.06425
N1    3    0.028815    0.280229    0.098075    11.00000    0.04450    0.04757 =
         0.05475    0.00316   -0.01580   -0.01182
N2    3    0.099733    0.029502    0.294499    11.00000    0.05422    0.04064 =
         0.05406    0.00064   -0.01331   -0.01156
N3    3    0.284686    0.460439   -0.008225    11.00000    0.04779    0.04388 =
         0.05919    0.00609   -0.01754   -0.01470
O1    4    0.473321    0.323494    0.131724    11.00000    0.04377    0.05326 =
         0.07088    0.00578   -0.01949   -0.01408
O2    4    0.550903    0.850652    0.124316    11.00000    0.05800    0.04875 =
         0.08603    0.00824   -0.01638   -0.02112
O3    4    0.297216    0.927098    0.032785    11.00000    0.06859    0.04490 =
         0.05941    0.00321   -0.01595   -0.02032
O4    4    0.154899    0.208033    0.517998    11.00000    0.04053    0.04161 =
         0.06230    0.00622   -0.01317   -0.01021
O5    4   -0.207203    0.207436    0.505580    11.00000    0.04674    0.05183 =
         0.06336    0.01005   -0.01686   -0.02204
HKLF 4 1 1 0 0 0 1 0 0 0 1




REM  RT_Pyz_Ferulic_CH3NO2_EtOH_0m in P-1
REM R1 =  0.0355 for    2632 Fo > 4sig(Fo)  and  0.0424 for all    3118 data
REM    226 parameters refined using      1 restraints

END

WGHT      0.0571      0.1265

REM Highest difference peak  0.233,  deepest hole -0.153,  1-sigma level  0.034
Q1    1   0.6485  0.9999  0.0119  11.00000  0.05    0.23
Q2    1   0.2000  0.1986  0.2006  11.00000  0.05    0.19
Q3    1   0.2576  0.2878  0.1195  11.00000  0.05    0.19
;
_shelx_res_checksum              48245
_shelx_hkl_file
;
  -1   0   0   75.73    1.78
   1   0   0   75.77    1.78
   1   0   0   72.31    1.58
  -2   0   0   15.10    0.34
  -2   0   0   14.61    0.33
  -2   0   0   15.37    0.34
   2   0   0   15.28    0.34
   2   0   0   15.17    0.34
   2   0   0   16.00    0.33
  -3   0   0   12.76    0.29
  -3   0   0   13.21    0.29
  -3   0   0   13.01    0.29
   3   0   0   13.21    0.29
   3   0   0   12.81    0.29
   3   0   0   12.96    0.29
  -4   0   0    6.61    0.16
  -4   0   0    6.72    0.16
   4   0   0    6.80    0.15
   4   0   0    6.64    0.16
   4   0   0    6.77    0.16
  -5   0   0    3.10    0.08
  -5   0   0    3.02    0.09
   5   0   0    3.13    0.08
   5   0   0    3.16    0.08
   5   0   0    3.04    0.09
   5   0   0    3.10    0.08
  -6   0   0    0.99    0.05
   6   0   0    0.94    0.04
   6   0   0    1.03    0.05
   6   0   0    0.94    0.04
  -7   0   0    0.18    0.03
   7   0   0    0.21    0.02
   7   0   0    0.21    0.03
  -8   0   0    0.53    0.05
   8   0   0    0.53    0.03
   8   0   0    0.47    0.04
   8  -1   0    0.02    0.02
   8  -1   0    0.03    0.02
  -8   1   0    0.01    0.02
   7  -1   0    1.28    0.06
   7  -1   0    1.46    0.05
  -7   1   0    1.37    0.07
   6  -1   0    1.38    0.05
   6  -1   0    1.46    0.06
   6  -1   0    1.40    0.04
  -6   1   0    1.39    0.06
   5  -1   0    1.00    0.04
   5  -1   0    0.96    0.03
   5  -1   0    0.98    0.03
   5  -1   0    1.05    0.04
  -5   1   0    1.00    0.05
   4  -1   0    4.47    0.11
   4  -1   0    4.22    0.11
   4  -1   0    4.31    0.11
   4  -1   0    4.41    0.10
  -4   1   0    4.34    0.12
   3  -1   0    8.69    0.20
   3  -1   0    8.32    0.19
   3  -1   0    8.35    0.19
   3  -1   0    8.30    0.19
  -3   1   0    8.67    0.20
   2  -1   0    0.30    0.02
   2  -1   0    0.28    0.01
   2  -1   0    0.31    0.01
   2  -1   0    0.30    0.02
  -2   1   0    0.28    0.02
  -2   1   0    0.27    0.02
   1  -1   0    2.00    0.05
   1  -1   0    1.87    0.05
   1  -1   0    1.91    0.05
  -1   1   0    1.89    0.05
   0  -1   0    5.80    0.13
   0  -1   0    5.61    0.13
   0   1   0    6.71    0.13
  -1  -1   0   15.27    0.35
   1   1   0   15.01    0.32
   1   1   0   15.00    0.35
  -2  -1   0   12.73    0.29
  -2  -1   0   12.71    0.28
  -2  -1   0   12.71    0.28
   2   1   0   12.66    0.26
   2   1   0   12.77    0.28
   2   1   0   12.89    0.28
   2   1   0   12.58    0.28
  -3  -1   0    1.64    0.05
  -3  -1   0    1.76    0.05
  -3  -1   0    1.77    0.05
   3   1   0    1.72    0.05
   3   1   0    1.65    0.05
   3   1   0    1.73    0.04
   3   1   0    1.78    0.05
  -4  -1   0    2.60    0.07
  -4  -1   0    2.65    0.08
   4   1   0    2.67    0.08
   4   1   0    2.73    0.07
   4   1   0    2.58    0.07
  -5  -1   0    0.06    0.01
  -5  -1   0    0.06    0.02
   5   1   0    0.06    0.01
   5   1   0    0.04    0.01
  -6  -1   0    0.76    0.03
  -6  -1   0    0.77    0.05
   6   1   0    0.77    0.04
   6   1   0    0.78    0.04
  -7  -1   0    6.72    0.19
   7   1   0    6.94    0.17
   7   1   0    6.35    0.18
  -8  -1   0    0.01    0.02
   8   1   0    0.04    0.02
   8   1   0    0.05    0.02
  -9  -1   0    0.19    0.04
   8  -2   0   -0.02    0.01
   8  -2   0    0.00    0.02
  -8   2   0    0.01    0.02
   7  -2   0    0.00    0.01
   7  -2   0    0.00    0.01
  -7   2   0    0.00    0.02
   6  -2   0    1.64    0.06
   6  -2   0    1.52    0.06
  -6   2   0    1.57    0.07
   5  -2   0    3.90    0.10
   5  -2   0    3.93    0.09
   5  -2   0    3.93    0.10
   5  -2   0    3.85    0.11
  -5   2   0    3.84    0.11
   4  -2   0    4.19    0.10
   4  -2   0    4.37    0.12
   4  -2   0    4.24    0.11
   4  -2   0    4.20    0.10
  -4   2   0    4.35    0.11
   3  -2   0    4.03    0.10
   3  -2   0    3.86    0.10
   3  -2   0    3.77    0.09
   3  -2   0    3.83    0.09
  -3   2   0    3.81    0.09
  -3   2   0    4.00    0.10
   2  -2   0    0.57    0.02
   2  -2   0    0.52    0.02
   2  -2   0    0.53    0.02
  -2   2   0    0.47    0.02
  -2   2   0    0.55    0.02
  -2   2   0    0.53    0.02
   1  -2   0    0.10    0.01
   1  -2   0    0.10    0.01
  -1   2   0    0.11    0.01
  -1   2   0    0.10    0.01
   0  -2   0   57.36    1.27
   0  -2   0   57.21    1.28
   0  -2   0   57.75    1.24
   0   2   0   57.55    1.26
   0   2   0   56.34    1.17
  -1  -2   0    9.54    0.21
  -1  -2   0    9.27    0.21
  -1  -2   0    8.91    0.21
   1   2   0    9.41    0.19
   1   2   0    9.43    0.21
   1   2   0    9.24    0.21
  -2  -2   0    6.87    0.16
  -2  -2   0    6.91    0.16
   2   2   0    6.90    0.15
   2   2   0    6.90    0.16
  -3  -2   0    6.63    0.15
  -3  -2   0    6.58    0.16
   3   2   0    6.50    0.16
   3   2   0    6.56    0.14
   3   2   0    6.63    0.15
   3   2   0    6.42    0.15
  -4  -2   0   16.05    0.37
  -4  -2   0   16.38    0.37
   4   2   0   16.23    0.37
   4   2   0   16.30    0.34
   4   2   0   16.76    0.37
  -5  -2   0    1.88    0.06
  -5  -2   0    2.00    0.07
   5   2   0    1.92    0.06
   5   2   0    1.82    0.06
   5   2   0    1.83    0.06
  -6  -2   0    3.14    0.11
  -6  -2   0    3.32    0.09
   6   2   0    3.21    0.10
   6   2   0    3.23    0.09
  -7  -2   0    1.11    0.05
  -7  -2   0    1.02    0.06
   7   2   0    1.12    0.05
   7   2   0    1.10    0.05
  -8  -2   0    0.30    0.04
   8   2   0    0.28    0.03
   8   2   0    0.26    0.03
  -9  -2   0    0.46    0.05
   8  -3   0    0.15    0.03
   8  -3   0    0.16    0.02
  -8   3   0    0.17    0.03
   7  -3   0    1.15    0.05
   7  -3   0    1.05    0.06
  -7   3   0    1.05    0.06
   6  -3   0    1.58    0.06
   6  -3   0    1.54    0.07
  -6   3   0    1.51    0.07
   5  -3   0   10.69    0.26
   5  -3   0   10.49    0.24
   5  -3   0   10.56    0.25
  -5   3   0   10.77    0.26
   4  -3   0    0.47    0.02
   4  -3   0    0.46    0.03
   4  -3   0    0.49    0.02
   4  -3   0    0.50    0.03
  -4   3   0    0.51    0.03
   3  -3   0    1.03    0.04
   3  -3   0    1.04    0.03
   3  -3   0    1.01    0.04
  -3   3   0    1.08    0.04
  -3   3   0    1.00    0.03
   2  -3   0   22.87    0.52
   2  -3   0   23.66    0.52
  -2   3   0   23.32    0.50
  -2   3   0   23.13    0.51
   1  -3   0   10.68    0.23
   1  -3   0   10.27    0.24
   1  -3   0   10.31    0.23
  -1   3   0   10.23    0.24
  -1   3   0   10.18    0.23
  -1   3   0   10.21    0.21
   0  -3   0    5.15    0.11
   0  -3   0    5.02    0.12
   0  -3   0    5.02    0.12
   0   3   0    4.91    0.11
   0   3   0    4.85    0.12
   0   3   0    4.93    0.12
  -1  -3   0    2.40    0.06
  -1  -3   0    2.36    0.06
  -1  -3   0    2.41    0.07
   1   3   0    2.30    0.06
   1   3   0    2.36    0.07
   1   3   0    2.30    0.06
  -2  -3   0   15.44    0.34
  -2  -3   0   15.53    0.34
  -2  -3   0   14.90    0.31
  -2  -3   0   15.27    0.34
   2   3   0   15.17    0.31
   2   3   0   14.62    0.34
   2   3   0   15.25    0.34
   2   3   0   15.27    0.34
   2   3   0   15.85    0.35
  -3  -3   0   11.93    0.27
  -3  -3   0   11.79    0.27
   3   3   0   12.01    0.27
   3   3   0   11.92    0.27
   3   3   0   11.72    0.27
   3   3   0   11.82    0.25
  -4  -3   0    3.07    0.09
  -4  -3   0    3.05    0.08
   4   3   0    3.02    0.08
   4   3   0    3.02    0.09
   4   3   0    2.96    0.08
  -5  -3   0    5.46    0.15
  -5  -3   0    5.26    0.14
   5   3   0    5.35    0.14
   5   3   0    5.56    0.13
   5   3   0    5.55    0.14
  -6  -3   0    6.36    0.17
  -6  -3   0    6.16    0.16
   6   3   0    6.33    0.16
   6   3   0    6.35    0.16
   6   3   0    6.13    0.15
  -7  -3   0    1.56    0.06
  -7  -3   0    1.52    0.07
   7   3   0    1.53    0.06
   7   3   0    1.55    0.06
  -8  -3   0    0.17    0.03
   8   3   0    0.21    0.02
   8   3   0    0.24    0.03
   8  -4   0    1.15    0.07
  -8   4   0    1.17    0.07
   7  -4   0    0.07    0.02
  -7   4   0    0.05    0.03
   6  -4   0    8.68    0.23
  -6   4   0    8.59    0.23
   5  -4   0    8.10    0.19
   5  -4   0    8.10    0.21
  -5   4   0    8.18    0.21
   4  -4   0    0.19    0.02
   4  -4   0    0.18    0.02
  -4   4   0    0.19    0.02
  -4   4   0    0.18    0.02
   3  -4   0    0.40    0.02
   3  -4   0    0.43    0.03
  -3   4   0    0.41    0.02
  -3   4   0    0.41    0.03
  -3   4   0    0.43    0.02
   2  -4   0    2.92    0.08
   2  -4   0    2.81    0.08
   2  -4   0    3.00    0.08
  -2   4   0    2.84    0.08
  -2   4   0    2.90    0.07
  -2   4   0    2.86    0.08
   1  -4   0    2.24    0.06
   1  -4   0    2.29    0.07
   1  -4   0    2.25    0.06
  -1   4   0    2.20    0.06
  -1   4   0    2.23    0.06
   0  -4   0    3.05    0.08
   0  -4   0    3.09    0.08
   0  -4   0    3.15    0.08
   0   4   0    2.97    0.07
   0   4   0    3.01    0.08
  -1  -4   0   78.00    1.74
  -1  -4   0   79.89    1.78
  -1  -4   0   79.53    2.31
   1   4   0   79.64    1.73
   1   4   0   77.90    1.63
   1   4   0   78.54    1.75
  -2  -4   0    3.32    0.09
  -2  -4   0    3.44    0.09
  -2  -4   0    3.47    0.09
   2   4   0    3.26    0.09
   2   4   0    3.27    0.08
  -3  -4   0    3.48    0.09
  -3  -4   0    3.50    0.10
   3   4   0    3.41    0.08
   3   4   0    3.48    0.09
  -4  -4   0    0.04    0.01
  -4  -4   0    0.04    0.01
   4   4   0    0.05    0.01
   4   4   0    0.04    0.01
   4   4   0    0.05    0.01
  -5  -4   0   10.94    0.26
  -5  -4   0   11.09    0.27
   5   4   0   11.13    0.24
   5   4   0   11.00    0.27
   5   4   0   11.11    0.26
  -6  -4   0    7.38    0.19
  -6  -4   0    7.28    0.20
   6   4   0    7.19    0.19
   6   4   0    7.37    0.19
   6   4   0    7.57    0.17
  -7  -4   0    0.24    0.03
  -7  -4   0    0.25    0.04
   7   4   0    0.23    0.02
   7   4   0    0.22    0.03
   7   4   0    0.22    0.02
  -8  -4   0    2.84    0.11
   8   4   0    2.83    0.09
   8   4   0    2.88    0.10
   7  -5   0    1.12    0.06
  -7   5   0    1.20    0.07
   6  -5   0    0.40    0.04
  -6   5   0    0.37    0.03
  -6   5   0    0.41    0.04
   5  -5   0    1.25    0.06
  -5   5   0    1.30    0.05
  -5   5   0    1.24    0.06
   4  -5   0    5.62    0.16
   4  -5   0    5.85    0.14
  -4   5   0    5.84    0.15
  -4   5   0    5.66    0.14
   3  -5   0    0.61    0.04
   3  -5   0    0.66    0.03
   3  -5   0    0.70    0.03
  -3   5   0    0.64    0.03
  -3   5   0    0.65    0.04
   2  -5   0    3.45    0.10
   2  -5   0    3.45    0.09
   2  -5   0    3.36    0.09
  -2   5   0    3.50    0.09
  -2   5   0    3.45    0.09
   1  -5   0    2.87    0.08
   1  -5   0    2.97    0.08
   1  -5   0    2.97    0.08
  -1   5   0    2.84    0.07
   0  -5   0    0.86    0.03
   0  -5   0    0.92    0.04
   0  -5   0    0.88    0.04
   0   5   0    0.91    0.03
   0   5   0    0.85    0.03
  -1  -5   0    0.26    0.02
  -1  -5   0    0.29    0.02
   1   5   0    0.26    0.02
   1   5   0    0.26    0.02
  -2  -5   0   31.23    0.69
  -2  -5   0   31.29    0.69
  -2  -5   0   31.16    0.68
   2   5   0   31.98    0.68
   2   5   0   31.33    0.70
   2   5   0   31.02    0.64
  -3  -5   0   12.18    0.29
  -3  -5   0   12.45    0.29
  -3  -5   0   12.67    0.29
   3   5   0   12.43    0.29
   3   5   0   12.47    0.27
  -4  -5   0    1.84    0.06
  -4  -5   0    1.72    0.07
   4   5   0    1.85    0.07
   4   5   0    1.69    0.06
   4   5   0    1.71    0.05
  -5  -5   0   29.43    0.67
  -5  -5   0   30.61    0.68
   5   5   0   29.81    0.68
   5   5   0   30.22    0.62
   5   5   0   30.32    0.68
  -6  -5   0    0.97    0.05
  -6  -5   0    0.94    0.06
   6   5   0    0.88    0.05
   6   5   0    0.92    0.04
   6   5   0    0.90    0.05
  -7  -5   0    0.49    0.04
  -7  -5   0    0.56    0.05
   7   5   0    0.51    0.04
   7   5   0    0.54    0.03
   7   5   0    0.55    0.04
  -8  -5   0    1.76    0.09
  -8  -5   0    1.81    0.07
   8   5   0    1.84    0.07
   8   5   0    1.72    0.06
   7  -6   0   -0.01    0.02
  -7   6   0    0.00    0.02
   6  -6   0    0.15    0.03
  -6   6   0    0.14    0.03
   5  -6   0    5.99    0.18
  -5   6   0    6.45    0.18
  -5   6   0    6.72    0.16
   4  -6   0    0.28    0.03
   4  -6   0    0.27    0.03
   4  -6   0    0.32    0.02
  -4   6   0    0.28    0.03
  -4   6   0    0.29    0.03
   3  -6   0    0.03    0.01
   3  -6   0    0.03    0.01
   3  -6   0    0.03    0.01
  -3   6   0    0.02    0.01
  -3   6   0    0.04    0.01
   2  -6   0    3.60    0.10
   2  -6   0    3.46    0.10
   2  -6   0    3.52    0.10
  -2   6   0    3.60    0.09
  -2   6   0    3.42    0.10
   1  -6   0    6.18    0.16
   1  -6   0    6.06    0.15
   1  -6   0    6.28    0.15
  -1   6   0    6.10    0.14
   0  -6   0    2.79    0.08
   0  -6   0    2.79    0.08
   0  -6   0    2.69    0.07
   0  -6   0    2.76    0.08
   0   6   0    2.87    0.08
   0   6   0    2.87    0.07
  -1  -6   0    1.93    0.06
  -1  -6   0    1.94    0.06
   1   6   0    1.92    0.06
   1   6   0    1.95    0.06
  -2  -6   0    9.25    0.23
  -2  -6   0    9.62    0.23
  -2  -6   0    9.71    0.23
   2   6   0    9.49    0.22
   2   6   0    9.63    0.21
  -3  -6   0    5.55    0.14
  -3  -6   0    5.59    0.14
  -3  -6   0    5.54    0.15
   3   6   0    5.51    0.14
   3   6   0    5.36    0.13
   3   6   0    5.47    0.15
  -4  -6   0    7.24    0.19
  -4  -6   0    7.28    0.18
   4   6   0    7.29    0.19
   4   6   0    7.30    0.17
  -5  -6   0    1.52    0.07
  -5  -6   0    1.44    0.06
   5   6   0    1.38    0.06
   5   6   0    1.57    0.05
   5   6   0    1.51    0.07
  -6  -6   0    0.11    0.02
  -6  -6   0    0.15    0.03
   6   6   0    0.13    0.02
   6   6   0    0.12    0.02
   6   6   0    0.14    0.02
  -7  -6   0   -0.02    0.01
  -7  -6   0    0.01    0.02
   7   6   0   -0.02    0.01
   7   6   0    0.01    0.02
   7   6   0   -0.01    0.01
  -8  -6   0    0.48    0.04
  -8  -6   0    0.46    0.05
   8   6   0    0.43    0.03
   8   6   0    0.49    0.04
   6  -7   0    1.29    0.07
  -6   7   0    1.36    0.07
   5  -7   0    0.27    0.04
  -5   7   0    0.22    0.03
   4  -7   0    1.16    0.06
   4  -7   0    1.27    0.05
   4  -7   0    1.32    0.05
  -4   7   0    1.21    0.06
  -4   7   0    1.32    0.05
   3  -7   0    0.00    0.01
   3  -7   0   -0.01    0.01
   3  -7   0    0.01    0.01
  -3   7   0   -0.03    0.01
  -3   7   0   -0.02    0.01
   2  -7   0    0.28    0.03
   2  -7   0    0.34    0.03
   2  -7   0    0.31    0.02
  -2   7   0    0.31    0.03
  -2   7   0    0.31    0.03
   1  -7   0    0.02    0.01
   1  -7   0    0.01    0.01
   1  -7   0    0.01    0.01
  -1   7   0    0.00    0.01
   0  -7   0    0.28    0.02
   0  -7   0    0.28    0.02
   0  -7   0    0.29    0.02
   0  -7   0    0.23    0.02
   0   7   0    0.32    0.02
   0   7   0    0.25    0.02
  -1  -7   0    0.26    0.02
  -1  -7   0    0.26    0.02
  -1  -7   0    0.25    0.02
   1   7   0    0.23    0.02
   1   7   0    0.26    0.02
  -2  -7   0    7.81    0.20
  -2  -7   0    7.77    0.19
  -2  -7   0    7.68    0.20
   2   7   0    7.87    0.18
   2   7   0    7.71    0.19
   2   7   0    8.11    0.21
  -3  -7   0    0.67    0.04
  -3  -7   0    0.61    0.04
  -3  -7   0    0.62    0.03
   3   7   0    0.57    0.03
   3   7   0    0.65    0.04
   3   7   0    0.66    0.04
  -4  -7   0    0.13    0.02
  -4  -7   0    0.12    0.03
  -4  -7   0    0.11    0.02
   4   7   0    0.14    0.02
   4   7   0    0.13    0.02
  -5  -7   0    0.00    0.02
  -5  -7   0   -0.01    0.01
   5   7   0    0.00    0.02
   5   7   0    0.02    0.02
   5   7   0   -0.01    0.01
  -6  -7   0    0.67    0.05
  -6  -7   0    0.78    0.04
   6   7   0    0.85    0.04
   6   7   0    0.76    0.05
   6   7   0    0.75    0.05
  -7  -7   0    0.01    0.02
  -7  -7   0    0.01    0.02
   7   7   0    0.03    0.02
   7   7   0    0.03    0.02
   7   7   0    0.01    0.02
   5  -8   0    2.92    0.11
  -5   8   0    2.65    0.10
   4  -8   0    0.31    0.04
  -4   8   0    0.28    0.04
   3  -8   0    0.25    0.03
   3  -8   0    0.22    0.03
   3  -8   0    0.23    0.02
  -3   8   0    0.25    0.03
   2  -8   0    0.40    0.03
   2  -8   0    0.32    0.03
   2  -8   0    0.42    0.03
  -2   8   0    0.30    0.03
  -2   8   0    0.32    0.03
   1  -8   0    7.72    0.19
   1  -8   0    7.79    0.20
   1  -8   0    7.59    0.20
  -1   8   0    8.05    0.18
   0  -8   0   21.27    0.48
   0  -8   0   20.65    0.48
   0   8   0   21.08    0.44
  -1  -8   0    0.27    0.03
  -1  -8   0    0.21    0.03
   1   8   0    0.18    0.02
  -2  -8   0    1.70    0.06
  -2  -8   0    1.70    0.06
   2   8   0    1.79    0.06
   2   8   0    1.78    0.07
  -3  -8   0    0.01    0.01
  -3  -8   0    0.02    0.01
  -3  -8   0    0.04    0.02
   3   8   0    0.06    0.02
   3   8   0    0.02    0.01
  -4  -8   0    2.18    0.08
  -4  -8   0    2.20    0.09
  -4  -8   0    2.39    0.08
   4   8   0    2.26    0.08
   4   8   0    2.31    0.07
  -5  -8   0    0.01    0.02
  -5  -8   0    0.03    0.02
   5   8   0    0.01    0.02
   5   8   0    0.03    0.02
  -6  -8   0    0.08    0.03
  -6  -8   0    0.10    0.02
   6   8   0    0.13    0.03
   6   8   0    0.11    0.02
   6   8   0    0.08    0.02
  -7  -8   0   -0.02    0.02
  -7  -8   0    0.02    0.02
   7   8   0    0.04    0.02
   7   8   0    0.01    0.02
   5  -9   0    0.01    0.02
   4  -9   0    0.04    0.02
  -4   9   0    0.02    0.02
   3  -9   0    2.39    0.09
   3  -9   0    2.36    0.08
  -3   9   0    2.52    0.09
   2  -9   0    0.01    0.01
   2  -9   0    0.02    0.02
   2  -9   0    0.04    0.02
  -2   9   0    0.07    0.02
   1  -9   0   10.69    0.26
   1  -9   0   10.30    0.26
   1  -9   0   10.20    0.25
   0  -9   0    4.92    0.14
   0  -9   0    4.80    0.14
   0   9   0    4.91    0.13
  -1  -9   0    2.11    0.08
  -1  -9   0    1.91    0.07
   1   9   0    2.17    0.07
  -2  -9   0    4.18    0.13
  -2  -9   0    4.13    0.12
   2   9   0    4.11    0.14
   2   9   0    4.45    0.11
  -3  -9   0    3.02    0.10
  -3  -9   0    3.26    0.10
   3   9   0    3.14    0.11
   3   9   0    3.30    0.09
  -4  -9   0    0.71    0.04
  -4  -9   0    0.73    0.05
  -4  -9   0    0.68    0.04
   4   9   0    0.72    0.05
   4   9   0    0.72    0.04
  -5  -9   0    0.39    0.05
  -5  -9   0    0.31    0.03
   5   9   0    0.32    0.03
   5   9   0    0.31    0.04
  -6  -9   0    1.37    0.08
  -6  -9   0    1.28    0.06
   6   9   0    1.35    0.07
   6   9   0    1.37    0.07
   6   9   0    1.28    0.06
   3 -10   0    0.07    0.03
  -3  10   0    0.06    0.03
   2 -10   0    0.13    0.02
   2 -10   0    0.09    0.03
  -2  10   0    0.15    0.03
   1 -10   0    0.71    0.05
   1 -10   0    0.68    0.04
  -1  10   0    0.67    0.04
   0 -10   0    0.95    0.06
   0 -10   0    0.88    0.05
  -1 -10   0    0.51    0.04
  -1 -10   0    0.48    0.04
  -2 -10   0   -0.01    0.02
  -2 -10   0    0.00    0.02
   2  10   0    0.02    0.02
  -3 -10   0    0.50    0.04
  -3 -10   0    0.42    0.04
   3  10   0    0.51    0.04
  -4 -10   0    0.25    0.03
  -4 -10   0    0.23    0.04
  -4 -10   0    0.20    0.03
   4  10   0    0.25    0.03
  -5 -10   0    0.02    0.02
  -5 -10   0    0.03    0.02
   5  10   0   -0.01    0.02
   2 -11   0    0.09    0.02
   2 -11   0    0.07    0.03
  -2  11   0    0.07    0.02
   1 -11   0    0.06    0.02
   1 -11   0    0.07    0.02
  -1  11   0    0.04    0.02
   0 -11   0   -0.01    0.02
   0 -11   0   -0.01    0.02
  -1 -11   0    0.05    0.02
  -1 -11   0    0.06    0.02
   1  11   0    0.04    0.02
  -2 -11   0    0.35    0.04
  -2 -11   0    0.31    0.04
  -3 -11   0    0.72    0.05
  -3 -11   0    0.69    0.05
   3  11   0    0.68    0.05
  -4 -11   0    0.42    0.04
  -4 -11   0    0.49    0.04
   4  11   0    0.38    0.04
  -1 -12   0    1.27    0.07
   3  11  -1    1.11    0.07
  -3 -11   1    1.11    0.06
  -3 -11   1    1.08    0.06
   2  11  -1   -0.01    0.02
  -2 -11   1    0.01    0.02
  -2 -11   1   -0.02    0.02
   1  11  -1    0.19    0.04
  -1 -11   1    0.28    0.04
  -1 -11   1    0.21    0.03
   0  11  -1    0.41    0.05
   0 -11   1    0.43    0.04
   0 -11   1    0.45    0.04
  -1  11  -1    0.38    0.04
   1 -11   1    0.34    0.04
   1 -11   1    0.35    0.04
   5  10  -1   -0.03    0.02
   5  10  -1   -0.01    0.02
  -5 -10   1   -0.04    0.02
  -5 -10   1    0.01    0.02
   4  10  -1    0.27    0.03
   4  10  -1    0.26    0.04
  -4 -10   1    0.19    0.03
  -4 -10   1    0.28    0.03
   3  10  -1    0.03    0.02
   3  10  -1    0.05    0.02
  -3 -10   1    0.03    0.02
  -3 -10   1    0.06    0.02
   2  10  -1    0.13    0.02
   2  10  -1    0.14    0.03
  -2 -10   1    0.10    0.02
  -2 -10   1    0.11    0.02
   1  10  -1    0.16    0.03
   1  10  -1    0.16    0.02
  -1 -10   1    0.17    0.03
  -1 -10   1    0.09    0.02
   0 -10   1    0.21    0.03
   0 -10   1    0.26    0.03
  -1  10  -1    0.08    0.02
   1 -10   1    0.08    0.02
   1 -10   1    0.09    0.02
  -2  10  -1    0.04    0.02
   2 -10   1    0.05    0.02
   2 -10   1    0.07    0.02
  -3  10  -1    0.17    0.03
   3 -10   1    0.15    0.03
   3 -10   1    0.20    0.03
   6   9  -1    1.96    0.07
   6   9  -1    2.10    0.09
  -6  -9   1    2.00    0.08
  -6  -9   1    1.97    0.09
   5   9  -1    0.29    0.03
   5   9  -1    0.22    0.03
  -5  -9   1    0.26    0.04
  -5  -9   1    0.26    0.03
   4   9  -1    0.31    0.03
   4   9  -1    0.29    0.04
  -4  -9   1    0.28    0.03
  -4  -9   1    0.26    0.04
  -4  -9   1    0.32    0.03
   3   9  -1    0.81    0.05
   3   9  -1    0.78    0.04
  -3  -9   1    0.64    0.04
  -3  -9   1    0.78    0.04
   2   9  -1   -0.01    0.02
   2   9  -1   -0.01    0.01
  -2  -9   1    0.00    0.02
  -2  -9   1    0.01    0.02
   1   9  -1    2.51    0.08
   1   9  -1    2.28    0.10
  -1  -9   1    2.39    0.09
  -1  -9   1    2.56    0.09
   0   9  -1    2.17    0.07
   0  -9   1    2.14    0.08
   0  -9   1    2.14    0.08
  -1   9  -1    0.25    0.03
  -1   9  -1    0.25    0.03
   1  -9   1    0.20    0.03
   1  -9   1    0.19    0.03
   1  -9   1    0.30    0.03
  -2   9  -1    2.98    0.09
  -2   9  -1    2.91    0.10
   2  -9   1    2.84    0.10
   2  -9   1    2.95    0.10
   2  -9   1    3.01    0.11
  -3   9  -1    0.03    0.02
   3  -9   1    0.07    0.03
   3  -9   1    0.04    0.02
  -4   9  -1    0.32    0.04
   4  -9   1    0.35    0.04
   7   8  -1    1.96    0.07
   7   8  -1    2.02    0.08
  -7  -8   1    1.95    0.08
  -7  -8   1    1.99    0.10
   6   8  -1    0.57    0.04
   6   8  -1    0.52    0.04
  -6  -8   1    0.55    0.05
  -6  -8   1    0.54    0.04
   5   8  -1    1.00    0.06
   5   8  -1    1.01    0.05
  -5  -8   1    1.06    0.06
  -5  -8   1    0.96    0.05
   4   8  -1    0.87    0.05
   4   8  -1    0.80    0.04
  -4  -8   1    0.89    0.04
  -4  -8   1    0.82    0.05
  -4  -8   1    0.86    0.05
   3   8  -1    6.78    0.19
   3   8  -1    6.87    0.17
  -3  -8   1    6.84    0.19
  -3  -8   1    6.70    0.18
  -3  -8   1    7.04    0.18
   2   8  -1    0.01    0.01
   2   8  -1    0.04    0.02
  -2  -8   1    0.03    0.02
  -2  -8   1    0.05    0.02
   1   8  -1   15.49    0.33
   1   8  -1   14.46    0.37
  -1  -8   1   15.03    0.35
  -1  -8   1   14.72    0.35
   0   8  -1    0.25    0.03
   0  -8   1    0.16    0.03
   0  -8   1    0.24    0.03
   0  -8   1    0.23    0.03
  -1   8  -1    3.34    0.10
  -1   8  -1    3.33    0.09
   1  -8   1    3.27    0.10
   1  -8   1    3.14    0.10
   1  -8   1    3.17    0.10
  -2   8  -1    0.02    0.01
  -2   8  -1    0.03    0.02
   2  -8   1    0.01    0.01
   2  -8   1    0.01    0.01
   2  -8   1    0.01    0.02
  -3   8  -1    0.02    0.02
  -3   8  -1    0.06    0.02
   3  -8   1    0.05    0.02
   3  -8   1    0.05    0.02
   3  -8   1    0.07    0.02
  -4   8  -1    0.18    0.03
  -4   8  -1    0.20    0.03
   4  -8   1    0.12    0.03
   4  -8   1    0.17    0.02
  -5   8  -1    0.18    0.03
   5  -8   1    0.16    0.03
   7   7  -1    0.16    0.02
   7   7  -1    0.12    0.03
  -7  -7   1    0.13    0.02
  -7  -7   1    0.15    0.03
   6   7  -1    1.72    0.07
   6   7  -1    1.75    0.06
   6   7  -1    1.64    0.07
  -6  -7   1    1.79    0.07
  -6  -7   1    1.83    0.08
   5   7  -1    0.20    0.03
   5   7  -1    0.25    0.03
   5   7  -1    0.21    0.02
  -5  -7   1    0.22    0.03
  -5  -7   1    0.17    0.03
   4   7  -1    1.75    0.07
   4   7  -1    1.77    0.07
   4   7  -1    1.70    0.06
  -4  -7   1    1.77    0.06
  -4  -7   1    1.76    0.07
  -4  -7   1    1.78    0.07
   3   7  -1    0.83    0.05
   3   7  -1    0.80    0.04
   3   7  -1    0.84    0.04
  -3  -7   1    0.81    0.05
  -3  -7   1    0.85    0.04
  -3  -7   1    0.82    0.04
   2   7  -1   18.72    0.44
   2   7  -1   19.04    0.40
   2   7  -1   18.58    0.42
  -2  -7   1   18.13    0.42
  -2  -7   1   18.42    0.43
   1   7  -1    1.08    0.04
   1   7  -1    1.35    0.06
   1   7  -1    1.16    0.05
  -1  -7   1    1.10    0.05
  -1  -7   1    1.08    0.05
   0   7  -1    1.43    0.05
   0   7  -1    1.47    0.06
   0  -7   1    1.40    0.06
   0  -7   1    1.39    0.05
   0  -7   1    1.50    0.06
  -1   7  -1    0.22    0.02
  -1   7  -1    0.17    0.02
   1  -7   1    0.17    0.02
   1  -7   1    0.20    0.03
   1  -7   1    0.20    0.02
  -2   7  -1    0.00    0.01
  -2   7  -1    0.01    0.01
   2  -7   1    0.00    0.01
   2  -7   1   -0.02    0.01
   2  -7   1   -0.01    0.01
  -3   7  -1    2.82    0.08
  -3   7  -1    2.71    0.09
   3  -7   1    2.70    0.08
   3  -7   1    2.73    0.09
   3  -7   1    2.56    0.09
  -4   7  -1    0.93    0.05
  -4   7  -1    0.87    0.05
   4  -7   1    0.92    0.04
   4  -7   1    0.86    0.05
   4  -7   1    0.86    0.04
  -5   7  -1    0.04    0.02
  -5   7  -1    0.02    0.02
   5  -7   1   -0.01    0.02
  -6   7  -1    0.91    0.06
   6  -7   1    1.00    0.06
   8   6  -1    0.01    0.02
   8   6  -1    0.00    0.02
  -8  -6   1    0.00    0.02
   7   6  -1    0.01    0.01
   7   6  -1    0.00    0.02
  -7  -6   1    0.02    0.02
  -7  -6   1    0.03    0.02
   6   6  -1    1.04    0.05
   6   6  -1    1.00    0.04
   6   6  -1    1.11    0.05
  -6  -6   1    1.06    0.05
  -6  -6   1    0.99    0.06
   5   6  -1    0.88    0.04
   5   6  -1    0.77    0.04
   5   6  -1    0.72    0.04
   5   6  -1    0.64    0.03
  -5  -6   1    0.61    0.05
  -5  -6   1    0.68    0.04
   4   6  -1    0.12    0.02
   4   6  -1    0.12    0.02
   4   6  -1    0.16    0.02
  -4  -6   1    0.10    0.02
  -4  -6   1    0.23    0.02
   3   6  -1    1.63    0.06
   3   6  -1    1.59    0.06
   3   6  -1    1.77    0.05
  -3  -6   1    1.56    0.06
  -3  -6   1    1.63    0.06
  -3  -6   1    1.67    0.06
   2   6  -1    3.26    0.09
   2   6  -1    2.97    0.08
   2   6  -1    3.09    0.10
  -2  -6   1    3.11    0.09
  -2  -6   1    3.04    0.10
  -2  -6   1    3.17    0.09
   1   6  -1    0.03    0.01
   1   6  -1    0.04    0.01
   1   6  -1    0.03    0.01
  -1  -6   1    0.02    0.01
  -1  -6   1    0.02    0.01
  -1  -6   1    0.02    0.01
   0   6  -1    4.19    0.11
   0   6  -1    4.34    0.10
   0  -6   1    4.25    0.12
   0  -6   1    4.20    0.12
   0  -6   1    4.25    0.11
  -1   6  -1    9.62    0.22
   1  -6   1    9.77    0.24
   1  -6   1   10.22    0.24
   1  -6   1    9.68    0.23
  -2   6  -1    3.48    0.10
  -2   6  -1    3.30    0.09
   2  -6   1    3.38    0.10
   2  -6   1    3.32    0.09
   2  -6   1    3.21    0.10
  -3   6  -1    1.31    0.05
  -3   6  -1    1.26    0.05
   3  -6   1    1.28    0.06
   3  -6   1    1.31    0.05
   3  -6   1    1.22    0.05
  -4   6  -1    3.52    0.10
  -4   6  -1    3.54    0.11
   4  -6   1    3.60    0.10
   4  -6   1    3.60    0.10
   4  -6   1    3.31    0.11
  -5   6  -1    0.98    0.05
  -5   6  -1    1.07    0.06
   5  -6   1    1.02    0.06
  -6   6  -1    0.23    0.03
  -6   6  -1    0.22    0.03
   6  -6   1    0.22    0.03
  -7   6  -1    0.11    0.03
   7  -6   1    0.06    0.03
   8   5  -1    0.01    0.01
   8   5  -1    0.00    0.02
  -8  -5   1    0.03    0.03
   7   5  -1    0.02    0.02
   7   5  -1    0.00    0.01
  -7  -5   1   -0.01    0.02
  -7  -5   1    0.01    0.01
   6   5  -1    9.72    0.23
   6   5  -1   10.07    0.25
   6   5  -1   10.21    0.25
  -6  -5   1   10.09    0.25
  -6  -5   1   10.11    0.26
   5   5  -1    0.05    0.02
   5   5  -1    0.06    0.02
   5   5  -1    0.07    0.01
  -5  -5   1    0.01    0.02
  -5  -5   1    0.07    0.02
   4   5  -1    3.04    0.08
   4   5  -1    3.14    0.09
   4   5  -1    2.99    0.09
  -4  -5   1    3.05    0.09
  -4  -5   1    2.98    0.10
   3   5  -1    1.63    0.06
   3   5  -1    1.62    0.05
   3   5  -1    1.58    0.06
  -3  -5   1    1.62    0.06
  -3  -5   1    1.56    0.05
  -3  -5   1    1.58    0.05
   2   5  -1    2.63    0.08
   2   5  -1    2.64    0.08
   2   5  -1    2.63    0.07
  -2  -5   1    2.59    0.08
  -2  -5   1    2.72    0.07
  -2  -5   1    2.66    0.08
   1   5  -1    1.65    0.05
   1   5  -1    1.70    0.05
   1   5  -1    1.73    0.06
  -1  -5   1    1.69    0.05
  -1  -5   1    1.78    0.05
  -1  -5   1    1.76    0.06
   0   5  -1   15.17    0.34
   0   5  -1   15.16    0.32
   0  -5   1   14.98    0.34
   0  -5   1   15.27    0.35
   0  -5   1   15.40    0.35
   0  -5   1   15.17    0.32
  -1   5  -1    5.84    0.13
   1  -5   1    5.85    0.15
   1  -5   1    5.68    0.14
  -2   5  -1    9.41    0.22
  -2   5  -1    9.23    0.20
   2  -5   1    9.02    0.22
   2  -5   1    8.71    0.21
   2  -5   1    9.16    0.22
  -3   5  -1    3.61    0.10
  -3   5  -1    3.53    0.09
   3  -5   1    3.62    0.10
   3  -5   1    3.38    0.10
   3  -5   1    3.52    0.11
  -4   5  -1    0.89    0.05
  -4   5  -1    0.85    0.04
   4  -5   1    0.86    0.04
   4  -5   1    0.88    0.05
  -5   5  -1    2.71    0.08
  -5   5  -1    2.60    0.09
   5  -5   1    2.65    0.08
   5  -5   1    2.53    0.09
  -6   5  -1   -0.05    0.02
  -6   5  -1   -0.02    0.02
   6  -5   1   -0.01    0.02
  -7   5  -1    0.00    0.02
  -7   5  -1   -0.02    0.02
   7  -5   1    0.00    0.02
   8   4  -1    0.02    0.02
  -8  -4   1    0.00    0.02
   7   4  -1    0.02    0.01
   7   4  -1    0.02    0.01
   7   4  -1    0.01    0.02
  -7  -4   1   -0.03    0.02
  -7  -4   1    0.00    0.01
   6   4  -1    0.66    0.03
   6   4  -1    0.57    0.04
   6   4  -1    0.65    0.04
  -6  -4   1    0.58    0.05
  -6  -4   1    0.66    0.04
   5   4  -1    5.04    0.12
   5   4  -1    5.13    0.14
   5   4  -1    5.32    0.14
  -5  -4   1    5.05    0.15
  -5  -4   1    5.20    0.13
   4   4  -1    4.60    0.12
   4   4  -1    4.50    0.11
   4   4  -1    4.55    0.12
  -4  -4   1    4.54    0.13
  -4  -4   1    4.51    0.12
   3   4  -1    0.79    0.04
   3   4  -1    0.77    0.03
  -3  -4   1    0.82    0.03
  -3  -4   1    0.84    0.04
  -3  -4   1    0.80    0.03
   2   4  -1   37.58    0.80
   2   4  -1   36.37    0.80
   2   4  -1   37.30    0.77
   2   4  -1   35.92    0.83
  -2  -4   1   35.98    0.79
  -2  -4   1   36.91    0.82
  -2  -4   1   37.40    0.85
   1   4  -1   26.08    0.58
   1   4  -1   26.23    0.59
   1   4  -1   26.55    0.57
   1   4  -1   26.12    0.54
  -1  -4   1   26.46    0.58
  -1  -4   1   26.26    0.58
  -1  -4   1   26.30    0.57
   0   4  -1    1.80    0.05
   0   4  -1    1.74    0.05
   0  -4   1    1.84    0.06
   0  -4   1    1.78    0.05
   0  -4   1    1.80    0.05
   0  -4   1    1.76    0.05
  -1   4  -1    4.83    0.11
  -1   4  -1    4.68    0.12
   1  -4   1    4.99    0.12
   1  -4   1    4.64    0.12
   1  -4   1    4.81    0.12
   1  -4   1    4.71    0.11
  -2   4  -1   22.38    0.46
  -2   4  -1   22.34    0.49
   2  -4   1   22.33    0.49
   2  -4   1   22.42    0.50
   2  -4   1   22.43    0.50
  -3   4  -1   10.98    0.25
  -3   4  -1   11.48    0.27
   3  -4   1   11.65    0.28
   3  -4   1   11.91    0.27
  -4   4  -1    0.06    0.02
  -4   4  -1    0.06    0.01
   4  -4   1    0.09    0.01
   4  -4   1    0.08    0.02
  -5   4  -1    5.91    0.15
  -5   4  -1    6.02    0.16
   5  -4   1    5.96    0.15
   5  -4   1    5.90    0.16
  -6   4  -1    0.62    0.05
  -6   4  -1    0.66    0.04
   6  -4   1    0.59    0.04
  -7   4  -1    0.28    0.03
  -7   4  -1    0.29    0.04
   7  -4   1    0.34    0.04
  -8   4  -1    0.01    0.03
  -8   4  -1    0.02    0.02
   8  -4   1    0.07    0.03
   8   3  -1    0.27    0.03
  -8  -3   1    0.20    0.04
   7   3  -1    0.07    0.02
   7   3  -1    0.03    0.02
  -7  -3   1   -0.02    0.02
  -7  -3   1    0.05    0.02
   6   3  -1    0.88    0.04
   6   3  -1    0.97    0.04
   6   3  -1    0.82    0.04
  -6  -3   1    0.94    0.04
  -6  -3   1    0.90    0.05
   5   3  -1    2.62    0.08
   5   3  -1    2.47    0.07
   5   3  -1    2.59    0.08
  -5  -3   1    2.64    0.08
  -5  -3   1    2.60    0.09
   4   3  -1    0.85    0.04
   4   3  -1    0.82    0.03
   4   3  -1    0.78    0.03
  -4  -3   1    0.86    0.04
  -4  -3   1    0.83    0.03
   3   3  -1    1.55    0.04
   3   3  -1    1.52    0.05
   3   3  -1    1.50    0.04
   3   3  -1    1.56    0.05
  -3  -3   1    1.61    0.05
  -3  -3   1    1.58    0.05
   2   3  -1   13.69    0.31
   2   3  -1   14.09    0.32
   2   3  -1   13.94    0.31
  -2  -3   1   13.88    0.31
  -2  -3   1   14.16    0.32
  -2  -3   1   14.10    0.31
   1   3  -1    7.50    0.17
   1   3  -1    7.51    0.18
   1   3  -1    7.51    0.17
   1   3  -1    6.33    0.17
   1   3  -1    7.23    0.16
  -1  -3   1    7.58    0.17
  -1  -3   1    7.55    0.17
  -1  -3   1    7.52    0.17
   0   3  -1    8.83    0.19
   0   3  -1    9.24    0.21
   0   3  -1    8.92    0.21
   0  -3   1    9.21    0.21
   0  -3   1    9.15    0.20
   0  -3   1    9.14    0.21
  -1   3  -1   15.74    0.34
  -1   3  -1   15.18    0.33
  -1   3  -1   15.80    0.36
   1  -3   1   15.62    0.33
   1  -3   1   16.22    0.36
   1  -3   1   16.53    0.36
   1  -3   1   15.90    0.35
  -2   3  -1   46.08    1.02
  -2   3  -1   46.27    0.97
  -2   3  -1   46.62    1.01
   2  -3   1   46.37    1.05
   2  -3   1   46.80    1.06
  -3   3  -1    5.51    0.14
  -3   3  -1    5.66    0.14
  -3   3  -1    5.73    0.13
   3  -3   1    5.73    0.14
   3  -3   1    5.73    0.15
  -4   3  -1    0.00    0.01
  -4   3  -1   -0.01    0.01
  -4   3  -1    0.00    0.01
   4  -3   1    0.00    0.01
   4  -3   1    0.01    0.01
  -5   3  -1    0.02    0.02
  -5   3  -1    0.03    0.01
   5  -3   1    0.02    0.01
   5  -3   1    0.02    0.02
  -6   3  -1    9.44    0.24
   6  -3   1    9.32    0.24
  -7   3  -1    0.97    0.06
  -7   3  -1    1.01    0.05
   7  -3   1    0.95    0.06
  -8   3  -1    0.07    0.03
  -8   3  -1    0.05    0.02
   8  -3   1    0.08    0.03
   8   2  -1    0.02    0.02
  -8  -2   1    0.06    0.03
   7   2  -1    1.03    0.05
   7   2  -1    1.06    0.05
  -7  -2   1    1.07    0.06
   6   2  -1    3.57    0.10
   6   2  -1    3.51    0.10
  -6  -2   1    3.66    0.11
  -6  -2   1    3.64    0.10
   5   2  -1    3.75    0.10
   5   2  -1    3.84    0.10
   5   2  -1    3.87    0.10
  -5  -2   1    3.87    0.10
  -5  -2   1    3.96    0.11
   4   2  -1    2.44    0.07
   4   2  -1    2.48    0.07
   4   2  -1    2.51    0.06
  -4  -2   1    2.49    0.08
  -4  -2   1    2.38    0.07
   3   2  -1    4.44    0.11
   3   2  -1    4.61    0.11
   3   2  -1    4.50    0.11
   3   2  -1    4.42    0.10
   3   2  -1    4.52    0.11
  -3  -2   1    4.49    0.11
  -3  -2   1    4.45    0.11
   2   2  -1   74.63    1.56
   2   2  -1   73.32    1.49
   2   2  -1   74.72    1.62
   2   2  -1   61.03    1.60
  -2  -2   1   72.41    1.61
  -2  -2   1   73.88    1.55
   1   2  -1   71.96    1.56
   1   2  -1   74.11    1.48
   1   2  -1   72.16    1.64
  -1  -2   1   74.25    1.62
  -1  -2   1   68.64    1.56
  -1  -2   1   72.42    1.58
   0   2  -1    5.60    0.12
   0  -2   1    5.70    0.13
   0  -2   1    5.75    0.13
   0  -2   1    5.62    0.13
  -1   2  -1   15.38    0.32
  -1   2  -1   15.69    0.35
   1  -2   1   16.04    0.35
   1  -2   1   16.00    0.35
  -2   2  -1   29.39    0.62
  -2   2  -1   29.88    0.63
  -2   2  -1   29.05    0.65
   2  -2   1   29.75    0.66
   2  -2   1   30.80    0.66
  -3   2  -1    0.00    0.01
  -3   2  -1    0.00    0.01
   3  -2   1    0.00    0.01
   3  -2   1    0.00    0.01
  -4   2  -1   17.63    0.39
   4  -2   1   17.67    0.39
   4  -2   1   17.40    0.40
   4  -2   1   17.05    0.39
   4  -2   1   17.10    0.39
  -5   2  -1    0.00    0.01
   5  -2   1    0.03    0.01
   5  -2   1    0.01    0.01
   5  -2   1    0.00    0.01
   5  -2   1    0.00    0.01
  -6   2  -1    0.13    0.03
   6  -2   1    0.13    0.02
   6  -2   1    0.09    0.02
   6  -2   1    0.12    0.02
  -7   2  -1    0.42    0.04
   7  -2   1    0.45    0.03
   7  -2   1    0.33    0.04
  -8   2  -1    0.01    0.02
   8  -2   1    0.02    0.02
   8   1  -1   -0.01    0.02
   8   1  -1    0.01    0.02
  -8  -1   1   -0.03    0.02
   7   1  -1    9.89    0.24
   7   1  -1    9.49    0.24
  -7  -1   1    9.44    0.25
   6   1  -1    0.83    0.04
   6   1  -1    0.79    0.04
  -6  -1   1    0.78    0.03
  -6  -1   1    0.73    0.04
   5   1  -1    8.70    0.20
   5   1  -1    8.65    0.21
   5   1  -1    9.05    0.21
  -5  -1   1    8.78    0.21
  -5  -1   1    8.70    0.20
   4   1  -1    5.22    0.13
   4   1  -1    5.30    0.13
   4   1  -1    5.30    0.12
   4   1  -1    5.55    0.13
  -4  -1   1    5.18    0.13
  -4  -1   1    5.31    0.13
   3   1  -1    7.57    0.18
   3   1  -1    7.60    0.16
   3   1  -1    7.64    0.17
   3   1  -1    7.39    0.17
  -3  -1   1    7.37    0.18
  -3  -1   1    7.74    0.18
  -3  -1   1    7.62    0.17
   2   1  -1    3.84    0.09
   2   1  -1    3.64    0.09
   2   1  -1    3.63    0.09
   2   1  -1    3.74    0.08
  -2  -1   1    3.68    0.09
  -2  -1   1    3.89    0.09
   1   1  -1   56.50    1.16
   1   1  -1   56.97    1.28
  -1  -1   1   56.36    1.26
  -1  -1   1   56.23    1.21
  -1  -1   1   55.86    1.40
   0   1  -1   28.32    0.59
   0   1  -1   27.65    0.64
   0  -1   1   27.79    0.61
   0  -1   1   28.07    0.63
   0  -1   1   29.17    0.65
  -1   1  -1    7.70    0.20
  -1   1  -1    8.88    0.18
   1  -1   1    8.80    0.19
   1  -1   1    9.18    0.20
   1  -1   1    9.08    0.20
  -2   1  -1    2.38    0.06
  -2   1  -1    2.32    0.06
   2  -1   1    2.35    0.06
   2  -1   1    2.24    0.06
   2  -1   1    2.34    0.06
   2  -1   1    2.34    0.06
  -3   1  -1    1.83    0.06
   3  -1   1    1.88    0.05
   3  -1   1    1.90    0.05
   3  -1   1    1.86    0.05
   3  -1   1    1.95    0.06
  -4   1  -1    0.00    0.01
   4  -1   1   -0.01    0.01
   4  -1   1    0.00    0.01
   4  -1   1   -0.01    0.01
   4  -1   1    0.00    0.01
  -5   1  -1   13.23    0.30
   5  -1   1   12.36    0.31
   5  -1   1   12.99    0.30
   5  -1   1   13.02    0.29
   5  -1   1   13.06    0.30
  -6   1  -1    0.38    0.04
   6  -1   1    0.38    0.02
   6  -1   1    0.41    0.03
   6  -1   1    0.41    0.03
  -7   1  -1    0.86    0.05
   7  -1   1    0.80    0.05
   7  -1   1    0.94    0.04
  -8   1  -1    0.03    0.02
   8  -1   1    0.04    0.02
   8   0  -1    0.02    0.02
   8   0  -1    0.03    0.02
  -8   0   1    0.02    0.02
   7   0  -1    2.84    0.09
   7   0  -1    2.68    0.09
  -7   0   1    2.67    0.10
   6   0  -1    0.12    0.02
   6   0  -1    0.15    0.02
   6   0  -1    0.16    0.02
  -6   0   1    0.15    0.02
  -6   0   1    0.14    0.01
   5   0  -1    3.32    0.09
   5   0  -1    3.13    0.09
   5   0  -1    3.33    0.08
  -5   0   1    3.18    0.08
  -5   0   1    3.23    0.10
   4   0  -1   23.14    0.53
   4   0  -1   23.63    0.52
   4   0  -1   24.34    0.53
  -4   0   1   23.83    0.52
  -4   0   1   23.41    0.52
   3   0  -1   29.72    0.67
   3   0  -1   28.64    0.66
   3   0  -1   29.82    0.65
  -3   0   1   29.64    0.64
  -3   0   1   29.41    0.66
  -3   0   1   29.27    0.63
   2   0  -1    4.82    0.12
   2   0  -1    5.08    0.11
   2   0  -1    5.11    0.12
  -2   0   1    5.04    0.12
  -2   0   1    5.02    0.11
  -2   0   1    4.96    0.12
   1   0  -1    7.32    0.16
   1   0  -1    7.55    0.15
  -1   0   1    6.78    0.16
  -1   0   1    7.37    0.17
  -1   0   1    7.29    0.16
   0   0   1    3.68    0.08
   0   0   1    3.20    0.07
  -1   0  -1  225.49    4.70
   1   0   1  219.74    5.07
   1   0   1  220.20    5.27
  -2   0  -1    8.42    0.18
  -2   0  -1    7.17    0.18
   2   0   1    7.95    0.18
   2   0   1    8.22    0.18
   2   0   1    8.00    0.18
   2   0   1    7.99    0.18
  -3   0  -1   34.18    0.72
  -3   0  -1   34.21    0.75
   3   0   1   32.88    0.75
   3   0   1   32.77    0.76
   3   0   1   34.44    0.77
   3   0   1   33.60    0.75
  -4   0  -1    9.53    0.22
  -4   0  -1    9.80    0.23
   4   0   1    9.49    0.22
   4   0   1    9.45    0.22
   4   0   1    9.59    0.22
   4   0   1    9.84    0.23
  -5   0  -1    2.60    0.08
   5   0   1    2.72    0.07
   5   0   1    2.57    0.07
   5   0   1    2.67    0.08
   5   0   1    2.48    0.08
  -6   0  -1    0.09    0.02
   6   0   1    0.10    0.01
   6   0   1    0.13    0.02
   6   0   1    0.12    0.02
  -7   0  -1    0.00    0.02
   7   0   1    0.00    0.01
   7   0   1    0.02    0.02
  -8   0  -1    0.44    0.05
   8   0   1    0.35    0.04
  -9   0  -1    0.01    0.03
   9   0   1    0.02    0.02
   8  -1  -1    0.58    0.04
   8  -1  -1    0.58    0.04
  -8   1   1    0.58    0.05
   7  -1  -1    0.24    0.03
   7  -1  -1    0.26    0.03
  -7   1   1    0.28    0.04
   6  -1  -1    0.09    0.02
   6  -1  -1    0.10    0.02
  -6   1   1    0.09    0.02
   5  -1  -1    1.22    0.04
   5  -1  -1    1.19    0.05
   5  -1  -1    1.27    0.05
  -5   1   1    1.22    0.05
   4  -1  -1   29.18    0.63
   4  -1  -1   28.06    0.63
   4  -1  -1   27.56    0.62
  -4   1   1   29.32    0.62
   3  -1  -1   15.47    0.34
   3  -1  -1   15.09    0.34
   3  -1  -1   15.14    0.34
  -3   1   1   15.65    0.34
  -3   1   1   15.11    0.34
   2  -1  -1    1.26    0.04
   2  -1  -1    1.32    0.04
   2  -1  -1    1.25    0.04
  -2   1   1    1.30    0.04
  -2   1   1    1.28    0.04
   1  -1  -1    3.19    0.07
   1  -1  -1    3.05    0.07
   1  -1  -1    2.64    0.07
  -1   1   1    2.96    0.07
  -1  -1  -1   18.10    0.41
   1   1   1   18.18    0.40
   1   1   1   18.02    0.37
  -2  -1  -1    2.18    0.06
  -2  -1  -1    2.14    0.06
   2   1   1    2.15    0.05
   2   1   1    2.15    0.06
   2   1   1    2.21    0.05
   2   1   1    2.16    0.06
  -3  -1  -1   42.99    0.95
  -3  -1  -1   43.64    0.95
  -3  -1  -1   43.13    0.94
   3   1   1   43.90    0.97
   3   1   1   42.05    0.97
   3   1   1   41.79    0.87
   3   1   1   42.21    0.98
  -4  -1  -1    1.96    0.06
  -4  -1  -1    1.83    0.05
   4   1   1    1.90    0.05
   4   1   1    1.97    0.05
   4   1   1    1.82    0.06
  -5  -1  -1    1.94    0.06
  -5  -1  -1    1.92    0.07
   5   1   1    1.97    0.06
   5   1   1    1.95    0.07
  -6  -1  -1    1.09    0.04
  -6  -1  -1    1.04    0.05
   6   1   1    1.04    0.05
   6   1   1    0.99    0.04
  -7  -1  -1    2.69    0.08
  -7  -1  -1    2.66    0.10
   7   1   1    2.56    0.09
   7   1   1    2.59    0.08
   7   1   1    2.59    0.08
  -8  -1  -1    1.59    0.08
   8   1   1    1.51    0.06
   8   1   1    1.46    0.07
  -9  -1  -1   -0.02    0.02
   9   1   1   -0.01    0.02
   8  -2  -1   -0.01    0.02
   8  -2  -1   -0.02    0.02
  -8   2   1   -0.01    0.02
   7  -2  -1    0.15    0.02
   7  -2  -1    0.14    0.02
  -7   2   1    0.15    0.03
   6  -2  -1    0.30    0.03
   6  -2  -1    0.29    0.03
  -6   2   1    0.24    0.03
   5  -2  -1    0.59    0.03
   5  -2  -1    0.55    0.03
  -5   2   1    0.58    0.04
   4  -2  -1    1.27    0.04
   4  -2  -1    1.33    0.05
  -4   2   1    1.30    0.05
   3  -2  -1    1.73    0.05
   3  -2  -1    1.68    0.05
  -3   2   1    1.56    0.05
   2  -2  -1   -0.01    0.01
   2  -2  -1    0.00    0.00
  -2   2   1    0.01    0.00
  -2   2   1    0.00    0.01
  -2   2   1    0.00    0.01
   1  -2  -1  194.08    4.92
   1  -2  -1  234.92    5.40
   1  -2  -1  226.28    5.30
  -1   2   1  224.67    5.37
  -1   2   1  213.11    5.01
   0  -2  -1    2.22    0.05
   0  -2  -1    2.15    0.05
   0   2   1    2.29    0.06
   0   2   1    2.08    0.05
  -1  -2  -1    0.38    0.02
  -1  -2  -1    0.39    0.02
   1   2   1    0.37    0.01
   1   2   1    0.38    0.02
  -2  -2  -1   63.72    1.45
  -2  -2  -1   65.00    1.40
   2   2   1   65.15    1.33
   2   2   1   65.66    1.41
   2   2   1   65.30    1.46
   2   2   1   64.67    1.47
  -3  -2  -1    1.17    0.04
  -3  -2  -1    1.17    0.04
  -3  -2  -1    1.26    0.04
   3   2   1    1.24    0.04
   3   2   1    1.23    0.04
   3   2   1    1.29    0.04
   3   2   1    1.22    0.04
  -4  -2  -1    2.83    0.08
  -4  -2  -1    2.75    0.08
   4   2   1    2.84    0.07
   4   2   1    2.81    0.08
   4   2   1    2.85    0.07
  -5  -2  -1    1.90    0.07
  -5  -2  -1    1.90    0.06
   5   2   1    1.90    0.06
   5   2   1    1.89    0.07
   5   2   1    1.86    0.06
  -6  -2  -1    1.00    0.05
  -6  -2  -1    0.98    0.04
   6   2   1    0.95    0.05
   6   2   1    0.99    0.04
  -7  -2  -1    2.52    0.10
  -7  -2  -1    2.72    0.09
   7   2   1    2.93    0.08
   7   2   1    2.74    0.09
  -8  -2  -1    0.01    0.02
   8   2   1    0.02    0.01
   8   2   1    0.03    0.02
  -9  -2  -1    0.03    0.03
   9   2   1    0.11    0.02
   8  -3  -1    0.46    0.04
   8  -3  -1    0.47    0.04
  -8   3   1    0.44    0.05
   7  -3  -1    0.12    0.02
   7  -3  -1    0.10    0.02
  -7   3   1    0.12    0.03
   6  -3  -1    0.20    0.02
   6  -3  -1    0.19    0.03
  -6   3   1    0.17    0.03
   5  -3  -1    0.30    0.03
   5  -3  -1    0.35    0.03
  -5   3   1    0.35    0.03
   4  -3  -1    2.48    0.08
   4  -3  -1    2.46    0.07
  -4   3   1    2.52    0.08
   3  -3  -1    4.17    0.11
   3  -3  -1    4.12    0.10
   3  -3  -1    4.08    0.09
  -3   3   1    4.14    0.11
  -3   3   1    4.03    0.10
   2  -3  -1    0.08    0.01
   2  -3  -1    0.08    0.01
   2  -3  -1    0.07    0.01
  -2   3   1    0.06    0.01
  -2   3   1    0.08    0.01
   1  -3  -1    4.89    0.11
   1  -3  -1    5.04    0.11
  -1   3   1    4.77    0.11
  -1   3   1    4.92    0.12
   0  -3  -1    1.02    0.03
   0  -3  -1    1.01    0.03
   0  -3  -1    1.01    0.03
   0   3   1    1.05    0.03
   0   3   1    1.05    0.04
   0   3   1    0.98    0.03
  -1  -3  -1   15.50    0.34
  -1  -3  -1   15.92    0.34
  -1  -3  -1   15.52    0.34
   1   3   1   14.90    0.32
   1   3   1   14.72    0.34
  -2  -3  -1    1.65    0.05
  -2  -3  -1    1.66    0.05
  -2  -3  -1    1.60    0.05
   2   3   1    1.57    0.04
   2   3   1    1.64    0.05
   2   3   1    1.46    0.04
   2   3   1    1.58    0.05
  -3  -3  -1   30.52    0.66
  -3  -3  -1   30.02    0.69
   3   3   1   30.04    0.63
   3   3   1   30.84    0.67
   3   3   1   30.88    0.69
  -4  -3  -1    0.15    0.02
  -4  -3  -1    0.15    0.02
   4   3   1    0.17    0.01
   4   3   1    0.14    0.02
   4   3   1    0.19    0.02
  -5  -3  -1    2.76    0.08
  -5  -3  -1    2.64    0.09
   5   3   1    2.76    0.08
   5   3   1    2.61    0.07
   5   3   1    2.72    0.08
  -6  -3  -1   27.63    0.63
  -6  -3  -1   28.12    0.63
   6   3   1   28.29    0.62
   6   3   1   27.76    0.63
   6   3   1   27.86    0.58
  -7  -3  -1   -0.01    0.02
  -7  -3  -1    0.00    0.02
   7   3   1    0.01    0.01
   7   3   1    0.00    0.02
  -8  -3  -1    0.65    0.05
   8   3   1    0.61    0.04
   8   3   1    0.71    0.04
  -9  -3  -1    0.02    0.03
   9   3   1    0.02    0.02
   7  -4  -1    0.55    0.04
   7  -4  -1    0.53    0.04
  -7   4   1    0.44    0.05
   6  -4  -1    0.22    0.03
   6  -4  -1    0.20    0.02
  -6   4   1    0.15    0.03
   5  -4  -1    1.54    0.06
   5  -4  -1    1.58    0.06
  -5   4   1    1.66    0.07
   4  -4  -1    0.00    0.01
   4  -4  -1    0.00    0.01
   4  -4  -1    0.01    0.01
   4  -4  -1    0.02    0.01
  -4   4   1    0.00    0.01
  -4   4   1    0.01    0.01
   3  -4  -1   17.03    0.39
   3  -4  -1   16.95    0.38
   3  -4  -1   16.75    0.38
  -3   4   1   16.58    0.38
  -3   4   1   17.10    0.38
   2  -4  -1    6.20    0.14
   2  -4  -1    6.05    0.14
   2  -4  -1    6.17    0.15
  -2   4   1    5.94    0.15
  -2   4   1    5.95    0.14
   1  -4  -1    0.95    0.03
   1  -4  -1    0.94    0.04
   1  -4  -1    0.93    0.03
  -1   4   1    0.92    0.03
  -1   4   1    0.93    0.03
   0  -4  -1   36.10    0.82
   0  -4  -1   36.22    0.80
   0  -4  -1   38.06    1.15
   0   4   1   37.86    0.80
   0   4   1   36.84    0.83
   0   4   1   36.93    0.77
  -1  -4  -1   10.37    0.24
  -1  -4  -1   10.70    0.24
  -1  -4  -1   10.66    0.24
  -1  -4  -1   10.54    0.22
   1   4   1   10.82    0.23
   1   4   1   10.48    0.22
  -2  -4  -1   76.38    1.54
  -2  -4  -1   73.02    1.66
  -2  -4  -1   75.12    1.68
  -2  -4  -1   76.34    1.71
   2   4   1   74.89    1.56
   2   4   1   75.66    1.73
  -3  -4  -1   30.70    0.69
  -3  -4  -1   30.08    0.67
   3   4   1   30.73    0.62
   3   4   1   30.65    0.68
  -4  -4  -1    1.99    0.07
  -4  -4  -1    2.03    0.06
   4   4   1    1.95    0.06
   4   4   1    2.06    0.06
   4   4   1    2.00    0.07
  -5  -4  -1    7.72    0.20
  -5  -4  -1    7.86    0.19
   5   4   1    7.71    0.18
   5   4   1    7.93    0.19
   5   4   1    7.81    0.20
  -6  -4  -1    1.52    0.07
  -6  -4  -1    1.48    0.06
   6   4   1    1.42    0.06
   6   4   1    1.51    0.05
   6   4   1    1.49    0.05
  -7  -4  -1    0.10    0.02
  -7  -4  -1    0.12    0.03
   7   4   1    0.12    0.02
   7   4   1    0.12    0.02
   7   4   1    0.14    0.02
  -8  -4  -1    0.01    0.02
  -8  -4  -1    0.07    0.02
   8   4   1    0.06    0.02
   8   4   1    0.05    0.02
  -9  -4  -1    1.03    0.07
   7  -5  -1    0.46    0.04
  -7   5   1    0.55    0.05
   6  -5  -1    0.12    0.03
  -6   5   1    0.08    0.03
   5  -5  -1    0.36    0.03
  -5   5   1    0.36    0.04
   4  -5  -1    0.00    0.01
   4  -5  -1    0.00    0.01
  -4   5   1    0.00    0.01
   3  -5  -1    1.92    0.05
   3  -5  -1    1.88    0.06
   3  -5  -1    1.79    0.07
  -3   5   1    1.83    0.06
  -3   5   1    1.88    0.06
   2  -5  -1    6.42    0.15
   2  -5  -1    6.76    0.17
   2  -5  -1    6.66    0.15
  -2   5   1    6.44    0.15
  -2   5   1    6.39    0.16
  -2   5   1    6.37    0.16
   1  -5  -1    6.86    0.16
   1  -5  -1    6.74    0.16
   1  -5  -1    6.71    0.17
  -1   5   1    6.47    0.15
   0  -5  -1   51.29    1.13
   0  -5  -1   50.61    1.14
   0  -5  -1   53.47    1.19
   0   5   1   52.37    1.12
   0   5   1   50.01    1.06
  -1  -5  -1   13.70    0.31
  -1  -5  -1   13.24    0.30
  -1  -5  -1   13.39    0.27
  -1  -5  -1   13.63    0.31
   1   5   1   13.43    0.30
   1   5   1   12.99    0.28
  -2  -5  -1    2.31    0.08
  -2  -5  -1    2.37    0.06
  -2  -5  -1    2.46    0.07
  -2  -5  -1    2.45    0.07
   2   5   1    2.37    0.06
  -3  -5  -1    5.10    0.13
  -3  -5  -1    5.27    0.13
  -3  -5  -1    5.35    0.14
   3   5   1    5.21    0.14
   3   5   1    5.24    0.12
  -4  -5  -1    1.52    0.06
  -4  -5  -1    1.34    0.05
   4   5   1    1.36    0.05
   4   5   1    1.32    0.04
   4   5   1    1.30    0.06
  -5  -5  -1   11.05    0.26
  -5  -5  -1   10.74    0.27
   5   5   1   10.72    0.24
   5   5   1   11.03    0.27
   5   5   1   11.14    0.26
  -6  -5  -1   18.13    0.42
  -6  -5  -1   18.18    0.43
   6   5   1   18.71    0.42
   6   5   1   18.46    0.39
   6   5   1   17.81    0.43
  -7  -5  -1    0.41    0.05
  -7  -5  -1    0.45    0.03
   7   5   1    0.47    0.04
   7   5   1    0.36    0.03
   7   5   1    0.43    0.03
  -8  -5  -1    0.07    0.03
  -8  -5  -1    0.03    0.02
   8   5   1    0.06    0.02
   8   5   1    0.04    0.02
   8   5   1    0.05    0.02
   7  -6  -1    0.12    0.03
  -7   6   1    0.09    0.03
   6  -6  -1    0.34    0.04
  -6   6   1    0.24    0.04
   5  -6  -1    0.87    0.05
  -5   6   1    0.92    0.05
   4  -6  -1    0.54    0.03
   4  -6  -1    0.53    0.04
   4  -6  -1    0.57    0.03
  -4   6   1    0.53    0.04
  -4   6   1    0.59    0.03
   3  -6  -1    1.15    0.04
   3  -6  -1    1.20    0.04
   3  -6  -1    1.23    0.05
  -3   6   1    1.21    0.05
  -3   6   1    1.20    0.05
   2  -6  -1    0.77    0.04
   2  -6  -1    0.75    0.03
   2  -6  -1    0.80    0.03
  -2   6   1    0.81    0.04
  -2   6   1    0.75    0.03
   1  -6  -1   19.94    0.44
   1  -6  -1   20.34    0.45
   1  -6  -1   19.85    0.45
  -1   6   1   19.61    0.41
   0  -6  -1    2.06    0.07
   0  -6  -1    2.07    0.06
   0   6   1    2.09    0.06
   0   6   1    2.07    0.06
  -1  -6  -1    7.00    0.17
  -1  -6  -1    6.87    0.15
  -1  -6  -1    6.88    0.17
   1   6   1    7.05    0.15
   1   6   1    7.12    0.17
  -2  -6  -1    0.01    0.01
  -2  -6  -1    0.01    0.01
  -2  -6  -1    0.01    0.01
  -2  -6  -1   -0.01    0.01
   2   6   1    0.00    0.01
   2   6   1    0.01    0.01
  -3  -6  -1    1.06    0.04
  -3  -6  -1    1.02    0.04
  -3  -6  -1    1.12    0.04
  -3  -6  -1    1.07    0.05
   3   6   1    1.13    0.05
   3   6   1    1.13    0.04
  -4  -6  -1    5.75    0.16
  -4  -6  -1    5.67    0.15
   4   6   1    5.75    0.14
   4   6   1    5.78    0.15
  -5  -6  -1    8.99    0.24
  -5  -6  -1    8.86    0.22
   5   6   1    9.27    0.21
   5   6   1    8.94    0.22
   5   6   1    9.04    0.23
  -6  -6  -1    0.23    0.03
  -6  -6  -1    0.23    0.03
   6   6   1    0.23    0.03
   6   6   1    0.25    0.02
   6   6   1    0.21    0.02
  -7  -6  -1    0.01    0.02
  -7  -6  -1    0.04    0.02
   7   6   1    0.01    0.02
   7   6   1    0.02    0.01
   7   6   1   -0.02    0.01
  -8  -6  -1    1.71    0.07
  -8  -6  -1    1.76    0.09
   8   6   1    1.82    0.08
   8   6   1    1.88    0.07
   8   6   1    1.76    0.07
   6  -7  -1    0.03    0.02
  -6   7   1    0.02    0.02
   5  -7  -1    3.74    0.12
  -5   7   1    3.76    0.12
   4  -7  -1    0.44    0.03
   4  -7  -1    0.47    0.04
  -4   7   1    0.48    0.04
   3  -7  -1    0.68    0.03
   3  -7  -1    0.69    0.03
   3  -7  -1    0.65    0.04
  -3   7   1    0.71    0.04
  -3   7   1    0.73    0.04
   2  -7  -1    0.23    0.03
   2  -7  -1    0.26    0.02
   2  -7  -1    0.25    0.02
  -2   7   1    0.26    0.02
  -2   7   1    0.19    0.02
   1  -7  -1    0.26    0.02
   1  -7  -1    0.27    0.02
   1  -7  -1    0.24    0.03
  -1   7   1    0.22    0.02
   0  -7  -1    1.95    0.06
   0  -7  -1    1.99    0.07
   0   7   1    1.95    0.06
   0   7   1    1.93    0.06
  -1  -7  -1    0.48    0.03
  -1  -7  -1    0.50    0.03
  -1  -7  -1    0.51    0.02
   1   7   1    0.54    0.03
   1   7   1    0.46    0.03
  -2  -7  -1    0.32    0.02
  -2  -7  -1    0.25    0.03
  -2  -7  -1    0.33    0.02
  -2  -7  -1    0.30    0.03
   2   7   1    0.31    0.02
   2   7   1    0.31    0.02
  -3  -7  -1    0.20    0.03
  -3  -7  -1    0.22    0.02
  -3  -7  -1    0.22    0.02
  -3  -7  -1    0.20    0.02
   3   7   1    0.20    0.02
   3   7   1    0.20    0.02
  -4  -7  -1    1.77    0.08
  -4  -7  -1    1.81    0.07
  -4  -7  -1    1.89    0.07
   4   7   1    1.84    0.06
   4   7   1    1.90    0.07
  -5  -7  -1    3.47    0.12
  -5  -7  -1    3.32    0.10
   5   7   1    3.42    0.09
   5   7   1    3.33    0.11
   5   7   1    3.36    0.10
  -6  -7  -1    0.75    0.05
  -6  -7  -1    0.73    0.06
   6   7   1    0.87    0.05
   6   7   1    0.81    0.04
   6   7   1    0.80    0.04
  -7  -7  -1   -0.02    0.02
  -7  -7  -1    0.00    0.01
   7   7   1   -0.01    0.02
   7   7   1    0.00    0.01
   7   7   1   -0.02    0.01
  -8  -7  -1    0.07    0.03
  -8  -7  -1    0.06    0.02
   8   7   1    0.07    0.02
   8   7   1    0.11    0.02
   5  -8  -1    0.19    0.03
  -5   8   1    0.20    0.03
   4  -8  -1    0.81    0.05
  -4   8   1    0.67    0.05
   3  -8  -1    0.26    0.02
   3  -8  -1    0.24    0.03
   3  -8  -1    0.25    0.02
  -3   8   1    0.28    0.03
   2  -8  -1    0.72    0.04
   2  -8  -1    0.69    0.04
   2  -8  -1    0.73    0.04
  -2   8   1    0.67    0.04
   1  -8  -1    0.00    0.01
   1  -8  -1    0.00    0.01
   1  -8  -1    0.00    0.01
  -1   8   1    0.01    0.01
   0  -8  -1    3.87    0.11
   0  -8  -1    3.86    0.11
   0   8   1    3.88    0.10
  -1  -8  -1    0.20    0.02
  -1  -8  -1    0.19    0.02
   1   8   1    0.20    0.02
  -2  -8  -1    4.45    0.13
  -2  -8  -1    4.69    0.11
  -2  -8  -1    4.70    0.13
   2   8   1    4.76    0.12
  -3  -8  -1    2.26    0.08
  -3  -8  -1    2.21    0.09
  -3  -8  -1    2.40    0.08
   3   8   1    2.46    0.09
   3   8   1    2.35    0.07
  -4  -8  -1    0.24    0.03
  -4  -8  -1    0.28    0.03
  -4  -8  -1    0.23    0.03
   4   8   1    0.27    0.03
  -5  -8  -1    0.68    0.04
  -5  -8  -1    0.72    0.05
   5   8   1    0.72    0.04
   5   8   1    0.71    0.04
  -6  -8  -1    0.00    0.02
  -6  -8  -1    0.04    0.02
   6   8   1    0.01    0.01
   6   8   1    0.02    0.02
   6   8   1    0.02    0.02
  -7  -8  -1    0.11    0.02
  -7  -8  -1    0.09    0.03
   7   8   1    0.13    0.02
   7   8   1    0.07    0.02
   7   8   1    0.12    0.03
   5  -9  -1    0.03    0.03
  -5   9   1    0.02    0.02
   4  -9  -1    0.83    0.05
  -4   9   1    0.77    0.05
   3  -9  -1    0.12    0.03
   3  -9  -1    0.12    0.02
  -3   9   1    0.07    0.02
   2  -9  -1    0.76    0.04
   2  -9  -1    0.68    0.05
   2  -9  -1    0.75    0.04
  -2   9   1    0.73    0.05
   1  -9  -1    0.02    0.02
   1  -9  -1    0.02    0.01
   1  -9  -1    0.02    0.02
   0  -9  -1    8.13    0.21
   0  -9  -1    8.27    0.21
  -1  -9  -1   10.62    0.26
  -1  -9  -1   10.38    0.26
  -2  -9  -1    1.13    0.05
  -2  -9  -1    1.13    0.05
   2   9   1    1.10    0.05
  -3  -9  -1    0.04    0.02
  -3  -9  -1    0.04    0.02
  -3  -9  -1    0.04    0.02
   3   9   1    0.01    0.01
   3   9   1    0.04    0.02
  -4  -9  -1    0.18    0.03
  -4  -9  -1    0.19    0.03
  -4  -9  -1    0.17    0.03
   4   9   1    0.18    0.03
   4   9   1    0.17    0.02
  -5  -9  -1    0.71    0.06
  -5  -9  -1    0.70    0.04
   5   9   1    0.65    0.04
   5   9   1    0.75    0.05
  -6  -9  -1    0.00    0.02
  -6  -9  -1   -0.01    0.02
   6   9   1    0.03    0.02
   6   9   1    0.02    0.02
  -7  -9  -1    1.57    0.09
  -7  -9  -1    1.67    0.08
   7   9   1    1.53    0.07
   7   9   1    1.58    0.08
   4 -10  -1    0.04    0.02
  -4  10   1    0.07    0.03
   3 -10  -1   -0.01    0.02
  -3  10   1    0.01    0.02
   2 -10  -1    0.21    0.03
   2 -10  -1    0.19    0.03
  -2  10   1    0.17    0.03
   1 -10  -1    1.54    0.06
   1 -10  -1    1.66    0.07
   0 -10  -1    3.91    0.12
   0 -10  -1    3.83    0.12
  -1 -10  -1    0.95    0.05
  -1 -10  -1    0.98    0.05
  -2 -10  -1    4.93    0.14
  -2 -10  -1    4.96    0.14
   2  10   1    4.81    0.16
  -3 -10  -1    0.84    0.05
  -3 -10  -1    0.85    0.05
   3  10   1    0.84    0.06
  -4 -10  -1    0.14    0.03
  -4 -10  -1    0.16    0.03
  -4 -10  -1    0.16    0.03
   4  10   1    0.15    0.03
  -5 -10  -1    0.33    0.04
  -5 -10  -1    0.33    0.05
   5  10   1    0.24    0.03
  -6 -10  -1    0.28    0.04
  -6 -10  -1    0.24    0.04
   6  10   1    0.32    0.04
   6  10   1    0.24    0.04
   2 -11  -1    1.05    0.05
   2 -11  -1    0.98    0.06
  -2  11   1    0.99    0.06
   1 -11  -1    0.01    0.02
   1 -11  -1    0.01    0.02
  -1  11   1   -0.03    0.02
   0 -11  -1    0.33    0.03
   0 -11  -1    0.36    0.04
  -1 -11  -1    0.70    0.05
  -1 -11  -1    0.61    0.04
  -2 -11  -1    0.00    0.02
  -2 -11  -1    0.00    0.02
   2  11   1    0.01    0.02
  -3 -11  -1    1.04    0.06
  -3 -11  -1    1.12    0.06
   3  11   1    0.99    0.06
  -4 -11  -1    0.37    0.04
  -4 -11  -1    0.46    0.04
   4  11   1    0.39    0.04
  -5 -11  -1    1.35    0.07
  -5 -11  -1    1.12    0.08
  -5 -11  -1    1.08    0.06
   5  11   1    1.22    0.07
   0 -12  -1    0.05    0.02
   0 -12  -1    0.05    0.02
  -1 -12  -1    0.03    0.02
  -1 -12  -1    0.07    0.02
  -2 -12  -1    0.18    0.03
  -2 -12  -1    0.20    0.03
   2  12   1    0.18    0.04
  -3 -12  -1    0.00    0.02
  -3 -12  -1   -0.01    0.02
   3  12   1    0.00    0.02
   2  11  -2    0.04    0.02
   2  11  -2    0.03    0.02
  -2 -11   2    0.02    0.02
  -2 -11   2    0.03    0.02
   1  11  -2    0.52    0.05
  -1 -11   2    0.65    0.05
  -1 -11   2    0.63    0.05
   0  11  -2    0.15    0.03
   0  11  -2    0.16    0.03
   0 -11   2    0.18    0.03
   0 -11   2    0.15    0.03
   1 -11   2    0.00    0.02
   4  10  -2    0.03    0.02
   4  10  -2    0.01    0.02
  -4 -10   2    0.00    0.02
   3  10  -2    0.04    0.02
   3  10  -2    0.02    0.02
  -3 -10   2    0.06    0.02
  -3 -10   2    0.03    0.02
   2  10  -2    0.42    0.05
   2  10  -2    0.51    0.04
  -2 -10   2    0.38    0.04
  -2 -10   2    0.44    0.04
   1  10  -2    0.09    0.03
   1  10  -2    0.12    0.02
  -1 -10   2    0.11    0.02
  -1 -10   2    0.09    0.02
   0  10  -2    0.12    0.02
   0  10  -2    0.20    0.03
   0  10  -2    0.17    0.03
   0 -10   2    0.23    0.03
   0 -10   2    0.18    0.03
  -1  10  -2    0.30    0.03
  -1  10  -2    0.35    0.04
   1 -10   2    0.30    0.03
   1 -10   2    0.25    0.03
  -2  10  -2    0.13    0.03
   2 -10   2    0.11    0.02
   2 -10   2    0.08    0.03
  -3  10  -2    0.31    0.04
   3 -10   2    0.28    0.04
   3 -10   2    0.27    0.03
   5   9  -2    0.26    0.03
   5   9  -2    0.24    0.03
  -5  -9   2    0.25    0.03
   4   9  -2    1.21    0.07
   4   9  -2    1.13    0.05
  -4  -9   2    1.25    0.05
  -4  -9   2    1.14    0.06
   3   9  -2    2.03    0.07
   3   9  -2    1.99    0.09
  -3  -9   2    1.98    0.07
  -3  -9   2    1.98    0.08
   2   9  -2    0.15    0.03
   2   9  -2    0.11    0.02
  -2  -9   2    0.15    0.02
  -2  -9   2    0.12    0.02
   1   9  -2    0.59    0.04
   1   9  -2    0.58    0.05
  -1  -9   2    0.56    0.04
   0   9  -2    0.28    0.03
   0   9  -2    0.23    0.03
   0  -9   2    0.29    0.03
   0  -9   2    0.24    0.03
   0  -9   2    0.28    0.03
  -1   9  -2    0.00    0.02
  -1   9  -2    0.03    0.02
   1  -9   2    0.00    0.02
   1  -9   2    0.03    0.02
   1  -9   2    0.02    0.02
  -2   9  -2    4.16    0.11
  -2   9  -2    3.92    0.12
   2  -9   2    3.83    0.12
   2  -9   2    3.78    0.13
  -3   9  -2    0.01    0.02
  -3   9  -2    0.03    0.02
   3  -9   2    0.06    0.03
   3  -9   2   -0.01    0.02
  -4   9  -2    0.02    0.02
   4  -9   2    0.05    0.03
   6   8  -2    0.09    0.02
   6   8  -2    0.07    0.02
  -6  -8   2    0.08    0.02
   5   8  -2    0.25    0.03
   5   8  -2    0.27    0.03
  -5  -8   2    0.26    0.03
  -5  -8   2    0.29    0.04
   4   8  -2    0.85    0.05
   4   8  -2    0.88    0.04
  -4  -8   2    0.86    0.05
  -4  -8   2    0.88    0.04
  -4  -8   2    0.89    0.05
   3   8  -2    2.07    0.08
   3   8  -2    2.07    0.07
  -3  -8   2    2.00    0.08
  -3  -8   2    2.10    0.07
   2   8  -2    7.29    0.17
   2   8  -2    6.94    0.20
  -2  -8   2    7.37    0.19
  -2  -8   2    7.28    0.18
   1   8  -2    5.24    0.16
   1   8  -2    5.69    0.14
  -1  -8   2    5.43    0.15
  -1  -8   2    5.34    0.15
   0   8  -2    3.64    0.12
   0   8  -2    3.63    0.10
   0  -8   2    3.65    0.11
   0  -8   2    3.66    0.11
   0  -8   2    3.58    0.11
  -1   8  -2    3.92    0.10
  -1   8  -2    3.75    0.11
   1  -8   2    3.41    0.11
   1  -8   2    3.65    0.12
   1  -8   2    3.74    0.11
  -2   8  -2    0.11    0.02
  -2   8  -2    0.10    0.02
   2  -8   2    0.08    0.02
   2  -8   2    0.09    0.02
   2  -8   2    0.11    0.02
  -3   8  -2    0.10    0.02
  -3   8  -2    0.10    0.02
   3  -8   2    0.11    0.02
   3  -8   2    0.08    0.02
   3  -8   2    0.10    0.02
  -4   8  -2    0.29    0.04
  -4   8  -2    0.28    0.03
   4  -8   2    0.30    0.03
   4  -8   2    0.27    0.04
  -5   8  -2    0.04    0.02
  -5   8  -2    0.08    0.03
   5  -8   2    0.08    0.03
   7   7  -2    1.81    0.08
   7   7  -2    1.60    0.06
  -7  -7   2    1.86    0.07
   6   7  -2    0.01    0.02
   6   7  -2    0.00    0.01
  -6  -7   2    0.00    0.02
  -6  -7   2   -0.01    0.02
   5   7  -2    0.40    0.04
   5   7  -2    0.36    0.03
   5   7  -2    0.41    0.04
  -5  -7   2    0.41    0.04
  -5  -7   2    0.40    0.03
   4   7  -2    1.23    0.06
   4   7  -2    1.14    0.05
  -4  -7   2    1.09    0.05
  -4  -7   2    1.16    0.06
  -4  -7   2    1.09    0.05
   3   7  -2    1.96    0.08
   3   7  -2    2.01    0.07
   3   7  -2    1.87    0.06
  -3  -7   2    1.95    0.07
  -3  -7   2    1.91    0.06
  -3  -7   2    1.90    0.07
   2   7  -2   14.30    0.35
   2   7  -2   14.24    0.33
   2   7  -2   14.15    0.31
  -2  -7   2   13.72    0.34
  -2  -7   2   14.08    0.33
   1   7  -2    8.55    0.20
   1   7  -2    8.68    0.23
   1   7  -2    8.47    0.21
  -1  -7   2    8.23    0.21
  -1  -7   2    8.65    0.21
   0   7  -2   24.65    0.58
   0   7  -2   24.69    0.52
   0  -7   2   24.22    0.56
   0  -7   2   24.65    0.55
   0  -7   2   25.05    0.56
  -1   7  -2    0.02    0.01
  -1   7  -2    0.02    0.01
   1  -7   2    0.02    0.01
   1  -7   2   -0.01    0.01
   1  -7   2    0.00    0.02
  -2   7  -2    3.34    0.09
  -2   7  -2    3.23    0.10
   2  -7   2    3.20    0.10
   2  -7   2    3.17    0.10
   2  -7   2    3.14    0.10
  -3   7  -2    0.04    0.02
  -3   7  -2    0.05    0.02
   3  -7   2    0.03    0.02
   3  -7   2    0.04    0.02
   3  -7   2    0.02    0.02
  -4   7  -2    1.60    0.06
  -4   7  -2    1.51    0.07
   4  -7   2    1.60    0.06
   4  -7   2    1.40    0.07
   4  -7   2    1.39    0.06
  -5   7  -2    0.11    0.03
  -5   7  -2    0.11    0.02
   5  -7   2    0.12    0.03
  -6   7  -2    0.30    0.04
  -6   7  -2    0.26    0.03
   6  -7   2    0.31    0.04
   7   6  -2    0.21    0.02
   7   6  -2    0.19    0.03
  -7  -6   2    0.17    0.03
  -7  -6   2    0.17    0.03
   6   6  -2    0.18    0.03
   6   6  -2    0.22    0.02
  -6  -6   2    0.18    0.03
  -6  -6   2    0.21    0.03
   5   6  -2    0.04    0.02
   5   6  -2    0.05    0.02
   5   6  -2    0.06    0.01
  -5  -6   2    0.04    0.02
  -5  -6   2    0.04    0.02
   4   6  -2    0.21    0.03
   4   6  -2    0.07    0.02
   4   6  -2    0.07    0.02
  -4  -6   2    0.08    0.02
  -4  -6   2    0.10    0.02
   3   6  -2    2.30    0.07
   3   6  -2    2.38    0.08
   3   6  -2    2.38    0.08
  -3  -6   2    2.30    0.07
  -3  -6   2    2.39    0.08
  -3  -6   2    2.37    0.08
   2   6  -2    4.74    0.13
   2   6  -2    4.66    0.13
   2   6  -2    4.46    0.11
  -2  -6   2    4.62    0.13
  -2  -6   2    4.69    0.12
   1   6  -2    0.69    0.04
   1   6  -2    0.61    0.03
   1   6  -2    0.69    0.03
  -1  -6   2    0.70    0.04
  -1  -6   2    0.69    0.03
   0   6  -2    6.86    0.17
   0   6  -2    6.74    0.16
   0  -6   2    6.71    0.17
   0  -6   2    6.77    0.17
   0  -6   2    6.85    0.17
  -1   6  -2    0.16    0.02
  -1   6  -2    0.14    0.02
   1  -6   2    0.11    0.02
   1  -6   2    0.16    0.02
   1  -6   2    0.16    0.02
  -2   6  -2    0.59    0.03
  -2   6  -2    0.53    0.03
   2  -6   2    0.53    0.03
   2  -6   2    0.51    0.03
   2  -6   2    0.52    0.04
  -3   6  -2    0.01    0.01
  -3   6  -2    0.03    0.02
   3  -6   2    0.02    0.01
   3  -6   2    0.05    0.02
   3  -6   2    0.01    0.01
  -4   6  -2    2.86    0.09
  -4   6  -2    2.88    0.09
   4  -6   2    2.90    0.09
   4  -6   2    2.81    0.10
   4  -6   2    2.90    0.09
  -5   6  -2    0.07    0.02
  -5   6  -2    0.10    0.02
   5  -6   2    0.07    0.02
   5  -6   2    0.12    0.03
   5  -6   2    0.08    0.02
  -6   6  -2    0.39    0.04
  -6   6  -2    0.31    0.04
   6  -6   2    0.34    0.04
   7  -6   2    0.06    0.03
   8   5  -2    0.11    0.03
   8   5  -2    0.16    0.02
  -8  -5   2    0.13    0.03
   7   5  -2    0.28    0.03
   7   5  -2    0.38    0.03
  -7  -5   2    0.33    0.03
  -7  -5   2    0.26    0.04
   6   5  -2    0.57    0.03
   6   5  -2    0.52    0.04
  -6  -5   2    0.58    0.04
  -6  -5   2    0.58    0.05
   5   5  -2    1.17    0.05
   5   5  -2    1.35    0.06
   5   5  -2    1.21    0.05
   5   5  -2    1.18    0.05
  -5  -5   2    1.17    0.05
  -5  -5   2    1.17    0.06
   4   5  -2    2.66    0.08
   4   5  -2    2.71    0.09
   4   5  -2    2.75    0.08
   4   5  -2    2.60    0.07
  -4  -5   2    2.53    0.08
  -4  -5   2    2.81    0.09
   3   5  -2    5.64    0.15
   3   5  -2    5.53    0.13
   3   5  -2    5.53    0.15
  -3  -5   2    5.49    0.15
  -3  -5   2    5.77    0.15
  -3  -5   2    5.75    0.14
   2   5  -2    0.52    0.03
   2   5  -2    0.52    0.03
   2   5  -2    0.52    0.03
  -2  -5   2    0.49    0.03
  -2  -5   2    0.50    0.03
  -2  -5   2    0.55    0.03
   1   5  -2    1.50    0.05
   1   5  -2    1.56    0.06
   1   5  -2    1.41    0.05
  -1  -5   2    1.49    0.05
  -1  -5   2    1.47    0.05
  -1  -5   2    1.49    0.05
   0   5  -2    4.64    0.11
   0   5  -2    4.77    0.12
   0   5  -2    4.73    0.13
   0  -5   2    4.79    0.13
   0  -5   2    4.62    0.12
   0  -5   2    4.88    0.12
  -1   5  -2    1.78    0.05
  -1   5  -2    1.70    0.05
   1  -5   2    1.72    0.06
   1  -5   2    1.71    0.06
   1  -5   2    1.75    0.06
  -2   5  -2    0.10    0.01
  -2   5  -2    0.09    0.02
   2  -5   2    0.10    0.02
   2  -5   2    0.12    0.02
   2  -5   2    0.07    0.02
  -3   5  -2    1.02    0.04
  -3   5  -2    1.03    0.04
   3  -5   2    1.11    0.05
   3  -5   2    1.02    0.04
   3  -5   2    1.06    0.04
  -4   5  -2    0.05    0.02
  -4   5  -2    0.04    0.02
   4  -5   2    0.05    0.02
   4  -5   2    0.06    0.02
  -5   5  -2   10.21    0.23
  -5   5  -2    9.96    0.25
   5  -5   2    9.54    0.26
   5  -5   2   10.17    0.24
  -6   5  -2    0.09    0.02
  -6   5  -2    0.10    0.03
   6  -5   2    0.12    0.03
  -7   5  -2    0.00    0.02
  -7   5  -2   -0.02    0.02
   7  -5   2    0.04    0.02
   8   4  -2    0.40    0.04
  -8  -4   2    0.39    0.05
   7   4  -2    0.08    0.02
   7   4  -2    0.08    0.02
  -7  -4   2    0.06    0.03
  -7  -4   2    0.06    0.02
   6   4  -2   -0.03    0.02
   6   4  -2    0.03    0.01
   6   4  -2    0.00    0.01
  -6  -4   2    0.04    0.01
  -6  -4   2   -0.03    0.02
   5   4  -2   12.09    0.26
   5   4  -2   12.26    0.29
   5   4  -2   12.17    0.28
  -5  -4   2   11.94    0.28
  -5  -4   2   11.73    0.29
   4   4  -2   10.61    0.25
   4   4  -2   10.32    0.25
   4   4  -2   10.46    0.23
  -4  -4   2   10.47    0.25
  -4  -4   2   10.54    0.25
   3   4  -2    2.18    0.06
   3   4  -2    2.15    0.06
   3   4  -2    2.21    0.07
   3   4  -2    2.22    0.07
  -3  -4   2    2.20    0.07
  -3  -4   2    2.23    0.07
   2   4  -2    0.42    0.02
   2   4  -2    0.38    0.03
   2   4  -2    0.38    0.02
   2   4  -2    0.43    0.02
  -2  -4   2    0.44    0.02
  -2  -4   2    0.41    0.02
  -2  -4   2    0.42    0.03
   1   4  -2   12.08    0.27
   1   4  -2   12.02    0.27
   1   4  -2   12.02    0.27
   1   4  -2   12.22    0.26
   1   4  -2   12.01    0.29
  -1  -4   2   12.10    0.27
  -1  -4   2   12.41    0.28
  -1  -4   2   11.59    0.27
   0   4  -2    5.44    0.13
   0   4  -2    5.39    0.14
   0   4  -2    5.48    0.12
   0  -4   2    5.24    0.13
   0  -4   2    5.50    0.14
   0  -4   2    5.53    0.13
  -1   4  -2   39.30    0.79
  -1   4  -2   38.97    0.84
   1  -4   2   38.00    0.84
   1  -4   2   39.60    0.86
   1  -4   2   39.06    0.86
  -2   4  -2    0.25    0.02
  -2   4  -2    0.29    0.02
   2  -4   2    0.31    0.02
   2  -4   2    0.31    0.02
   2  -4   2    0.29    0.02
  -3   4  -2    1.18    0.04
  -3   4  -2    1.16    0.05
   3  -4   2    1.18    0.05
   3  -4   2    1.21    0.05
  -4   4  -2    5.91    0.16
  -4   4  -2    6.17    0.15
   4  -4   2    6.26    0.17
   4  -4   2    6.05    0.16
  -5   4  -2    4.77    0.14
  -5   4  -2    4.76    0.12
   5  -4   2    4.69    0.14
   5  -4   2    4.82    0.13
  -6   4  -2    1.50    0.06
  -6   4  -2    1.28    0.06
   6  -4   2    1.35    0.07
  -7   4  -2    0.25    0.04
  -7   4  -2    0.25    0.03
   7  -4   2    0.23    0.03
  -8   4  -2    0.00    0.02
   8  -4   2    0.01    0.02
   8   3  -2   -0.01    0.02
  -8  -3   2   -0.01    0.02
   7   3  -2    0.17    0.03
  -7  -3   2    0.21    0.03
   6   3  -2   20.06    0.46
   6   3  -2   19.52    0.42
   6   3  -2   19.43    0.44
  -6  -3   2   19.67    0.45
  -6  -3   2   19.61    0.45
   5   3  -2    7.22    0.18
   5   3  -2    6.85    0.17
   5   3  -2    6.85    0.16
  -5  -3   2    6.91    0.18
  -5  -3   2    6.99    0.17
   4   3  -2    0.02    0.01
   4   3  -2    0.00    0.01
   4   3  -2    0.01    0.01
   4   3  -2   -0.01    0.01
  -4  -3   2    0.02    0.01
  -4  -3   2    0.01    0.01
   3   3  -2   21.19    0.46
   3   3  -2   21.22    0.48
   3   3  -2   20.96    0.47
   3   3  -2   21.39    0.44
  -3  -3   2   21.23    0.47
  -3  -3   2   21.18    0.46
   2   3  -2   10.29    0.22
   2   3  -2   10.17    0.24
   2   3  -2   10.11    0.23
   2   3  -2   10.11    0.23
   2   3  -2   10.49    0.23
  -2  -3   2   10.12    0.23
  -2  -3   2   10.17    0.23
  -2  -3   2   10.25    0.24
   1   3  -2   28.17    0.63
   1   3  -2   28.15    0.60
   1   3  -2   27.46    0.60
   1   3  -2   27.79    0.62
  -1  -3   2   27.90    0.61
  -1  -3   2   29.07    0.62
  -1  -3   2   27.72    0.63
  -1  -3   2   27.81    0.60
   0   3  -2   93.11    1.91
   0   3  -2   93.36    2.12
   0   3  -2   89.64    2.00
   0   3  -2   91.59    2.02
   0   3  -2   92.41    2.05
   0  -3   2   94.44    2.04
   0  -3   2   94.80    2.08
   0  -3   2   89.97    2.03
  -1   3  -2   32.06    0.69
  -1   3  -2   31.57    0.67
   1  -3   2   32.39    0.71
   1  -3   2   32.28    0.70
   1  -3   2   32.16    0.69
  -2   3  -2   13.83    0.29
  -2   3  -2   13.51    0.31
   2  -3   2   14.04    0.32
   2  -3   2   14.11    0.32
  -3   3  -2    0.97    0.04
  -3   3  -2    0.95    0.04
   3  -3   2    0.90    0.04
   3  -3   2    1.01    0.04
  -4   3  -2    0.01    0.01
  -4   3  -2    0.02    0.01
   4  -3   2    0.02    0.01
   4  -3   2   -0.01    0.01
  -5   3  -2    0.01    0.01
  -5   3  -2    0.04    0.02
   5  -3   2    0.04    0.02
   5  -3   2    0.04    0.02
  -6   3  -2    2.09    0.07
  -6   3  -2    2.23    0.09
   6  -3   2    2.27    0.07
   6  -3   2    2.13    0.08
  -7   3  -2    1.10    0.06
  -7   3  -2    1.13    0.05
   7  -3   2    1.11    0.06
  -8   3  -2    0.14    0.03
  -8   3  -2    0.10    0.02
   8  -3   2    0.15    0.03
   8   2  -2    0.38    0.04
  -8  -2   2    0.30    0.04
   7   2  -2    0.06    0.02
   7   2  -2    0.06    0.02
  -7  -2   2    0.12    0.03
   6   2  -2    0.12    0.02
   6   2  -2    0.11    0.02
  -6  -2   2    0.08    0.02
  -6  -2   2    0.13    0.02
   5   2  -2    1.42    0.05
   5   2  -2    1.38    0.05
   5   2  -2    1.42    0.05
  -5  -2   2    1.51    0.05
  -5  -2   2    1.39    0.06
   4   2  -2    2.56    0.07
   4   2  -2    2.58    0.07
   4   2  -2    2.51    0.07
   4   2  -2    2.54    0.08
  -4  -2   2    2.40    0.08
  -4  -2   2    2.50    0.07
   3   2  -2   10.89    0.24
   3   2  -2   10.58    0.24
   3   2  -2   10.83    0.23
   3   2  -2   10.63    0.25
  -3  -2   2   10.85    0.24
  -3  -2   2   10.94    0.25
   2   2  -2   83.97    1.82
   2   2  -2   86.95    1.93
   2   2  -2   86.96    1.75
   2   2  -2   80.80    1.90
   2   2  -2   83.87    1.85
  -2  -2   2   85.02    1.82
  -2  -2   2   86.31    1.91
   1   2  -2    4.21    0.09
   1   2  -2    4.13    0.09
   1   2  -2    3.91    0.10
   1   2  -2    4.15    0.10
  -1  -2   2    4.13    0.09
  -1  -2   2    4.15    0.10
  -1  -2   2    4.07    0.10
  -1  -2   2    4.26    0.10
   0   2  -2   73.25    1.70
   0   2  -2   74.62    1.70
   0  -2   2   76.09    1.65
   0  -2   2   75.27    1.70
   0  -2   2   75.47    1.65
  -1   2  -2    0.21    0.02
  -1   2  -2    0.23    0.01
   1  -2   2    0.18    0.01
   1  -2   2    0.24    0.02
  -2   2  -2   15.92    0.37
  -2   2  -2   16.61    0.36
  -2   2  -2   16.61    0.34
   2  -2   2   16.50    0.37
   2  -2   2   16.61    0.37
  -3   2  -2   29.07    0.63
  -3   2  -2   29.24    0.60
   3  -2   2   29.10    0.65
   3  -2   2   29.22    0.65
  -4   2  -2    0.15    0.02
  -4   2  -2    0.13    0.01
   4  -2   2    0.12    0.02
   4  -2   2    0.12    0.02
  -5   2  -2    9.45    0.21
  -5   2  -2    9.44    0.23
   5  -2   2    9.18    0.22
   5  -2   2    9.39    0.24
  -6   2  -2    1.23    0.05
  -6   2  -2    1.15    0.06
   6  -2   2    1.20    0.05
   6  -2   2    1.24    0.06
  -7   2  -2    1.64    0.08
  -7   2  -2    1.77    0.06
   7  -2   2    1.57    0.07
  -8   2  -2    0.47    0.04
  -8   2  -2    0.54    0.05
   8  -2   2    0.51    0.04
   8   1  -2    0.07    0.02
  -8  -1   2    0.04    0.02
   7   1  -2    0.96    0.05
   7   1  -2    0.92    0.04
  -7  -1   2    0.86    0.06
   6   1  -2    8.91    0.22
   6   1  -2    8.79    0.21
  -6  -1   2    8.85    0.20
  -6  -1   2    8.52    0.22
   5   1  -2    1.14    0.05
   5   1  -2    1.19    0.04
   5   1  -2    1.10    0.04
  -5  -1   2    1.23    0.04
  -5  -1   2    1.18    0.05
   4   1  -2    0.89    0.03
   4   1  -2    0.91    0.03
   4   1  -2    0.89    0.04
  -4  -1   2    0.89    0.04
  -4  -1   2    0.86    0.04
  -4  -1   2    0.88    0.03
   3   1  -2   28.12    0.62
   3   1  -2   28.27    0.64
   3   1  -2   28.24    0.63
   3   1  -2   27.67    0.59
  -3  -1   2   28.28    0.60
  -3  -1   2   28.75    0.64
  -3  -1   2   27.76    0.61
   2   1  -2    0.12    0.01
   2   1  -2    0.18    0.01
   2   1  -2    0.12    0.01
   2   1  -2    0.14    0.01
   2   1  -2    0.12    0.01
  -2  -1   2    0.15    0.01
  -2  -1   2    0.15    0.01
   1   1  -2    5.96    0.13
   1   1  -2    5.97    0.14
   1   1  -2    6.05    0.13
  -1  -1   2    5.99    0.14
  -1  -1   2    5.85    0.13
  -1  -1   2    5.92    0.13
   0   1  -2    0.65    0.02
   0   1  -2    0.64    0.02
   0  -1   2    0.71    0.03
   0  -1   2    0.68    0.02
   0  -1   2    0.69    0.02
  -1   1  -2   12.24    0.26
  -1   1  -2   12.00    0.28
   1  -1   2   12.59    0.27
   1  -1   2   12.80    0.28
   1  -1   2   12.70    0.28
  -2   1  -2    0.01    0.01
  -2   1  -2    0.01    0.00
  -2   1  -2    0.00    0.01
  -2   1  -2    0.00    0.00
   2  -1   2    0.00    0.01
   2  -1   2    0.00    0.01
   2  -1   2    0.00    0.01
  -3   1  -2   15.82    0.35
  -3   1  -2   15.68    0.36
  -3   1  -2   16.39    0.33
   3  -1   2   15.91    0.36
   3  -1   2   15.93    0.36
   3  -1   2   15.64    0.36
  -4   1  -2    9.63    0.23
  -4   1  -2    9.82    0.21
   4  -1   2    9.90    0.24
   4  -1   2    9.90    0.22
   4  -1   2    9.96    0.23
  -5   1  -2    0.36    0.03
   5  -1   2    0.36    0.02
   5  -1   2    0.30    0.02
   5  -1   2    0.33    0.03
  -6   1  -2    1.83    0.08
   6  -1   2    2.07    0.07
   6  -1   2    2.01    0.06
   6  -1   2    2.10    0.08
  -7   1  -2    0.40    0.04
   7  -1   2    0.44    0.04
   7  -1   2    0.47    0.03
  -8   1  -2    0.20    0.03
  -8   1  -2    0.25    0.03
   8  -1   2    0.22    0.03
   8   0  -2   -0.03    0.02
  -8   0   2   -0.01    0.02
   7   0  -2    1.37    0.06
   7   0  -2    1.22    0.05
  -7   0   2    1.32    0.07
   6   0  -2    2.41    0.08
   6   0  -2    2.43    0.08
  -6   0   2    2.38    0.08
   5   0  -2    1.09    0.04
   5   0  -2    1.08    0.03
   5   0  -2    1.14    0.04
  -5   0   2    1.09    0.03
  -5   0   2    1.18    0.05
   4   0  -2    0.04    0.01
   4   0  -2    0.00    0.01
   4   0  -2    0.00    0.01
  -4   0   2    0.00    0.01
  -4   0   2    0.01    0.01
   3   0  -2    0.06    0.01
   3   0  -2    0.06    0.01
  -3   0   2    0.04    0.01
  -3   0   2    0.05    0.01
  -3   0   2    0.06    0.01
   2   0  -2   50.11    1.13
   2   0  -2   51.55    1.12
   2   0  -2   49.23    1.15
   2   0  -2   52.91    1.18
  -2   0   2   51.59    1.11
  -2   0   2   53.12    1.14
  -2   0   2   51.60    1.14
   1   0  -2    0.56    0.02
   1   0  -2    0.56    0.02
  -1   0   2    0.55    0.02
  -1   0   2    0.56    0.02
   0   0  -2    5.28    0.13
   0   0  -2    5.98    0.12
   0   0   2    6.17    0.13
   0   0   2    5.06    0.13
   0   0   2    6.17    0.14
   0   0   2    6.03    0.12
   0   0   2    6.25    0.13
  -1   0  -2  129.82    2.92
   1   0   2  132.81    2.92
   1   0   2  133.83    3.46
   1   0   2  130.92    3.20
  -2   0  -2    5.04    0.11
  -2   0  -2    4.71    0.12
   2   0   2    4.90    0.11
   2   0   2    4.97    0.12
   2   0   2    4.97    0.12
  -3   0  -2   25.64    0.58
  -3   0  -2   27.16    0.57
  -3   0  -2   26.49    0.53
   3   0   2   26.05    0.58
   3   0   2   25.33    0.59
   3   0   2   25.92    0.58
   3   0   2   26.88    0.58
  -4   0  -2    0.87    0.04
   4   0   2    0.88    0.03
   4   0   2    0.93    0.04
   4   0   2    0.95    0.04
  -5   0  -2    3.27    0.10
   5   0   2    3.28    0.08
   5   0   2    3.23    0.09
   5   0   2    3.22    0.10
  -6   0  -2    0.44    0.04
   6   0   2    0.43    0.02
   6   0   2    0.48    0.04
   6   0   2    0.49    0.03
  -7   0  -2    0.21    0.03
   7   0   2    0.17    0.02
   7   0   2    0.19    0.02
   7   0   2    0.18    0.03
  -8   0  -2    0.01    0.02
   8   0   2    0.01    0.02
  -9   0  -2    0.30    0.04
   9   0   2    0.30    0.04
   8  -1  -2    2.13    0.08
  -8   1   2    2.00    0.09
   7  -1  -2    2.32    0.08
   7  -1  -2    2.21    0.08
  -7   1   2    2.17    0.09
   6  -1  -2    0.00    0.01
   6  -1  -2   -0.01    0.01
  -6   1   2   -0.01    0.02
   5  -1  -2    1.15    0.05
   5  -1  -2    1.19    0.05
  -5   1   2    1.16    0.05
   4  -1  -2    0.80    0.03
   4  -1  -2    0.75    0.04
  -4   1   2    0.88    0.04
   3  -1  -2    2.90    0.07
   3  -1  -2    2.80    0.08
  -3   1   2    2.78    0.08
  -3   1   2    2.97    0.08
   2  -1  -2    8.81    0.21
   2  -1  -2    8.98    0.20
   2  -1  -2    9.21    0.20
  -2   1   2    9.08    0.20
  -2   1   2    9.04    0.20
  -2   1   2    9.27    0.20
   1  -1  -2   11.40    0.25
   1  -1  -2    9.82    0.25
  -1   1   2   11.33    0.25
  -1   1   2   11.74    0.25
  -1   1   2   12.02    0.24
  -1   1   2   11.89    0.25
   0   1   2    0.55    0.02
   0   1   2    0.42    0.02
   0   1   2    0.48    0.02
   0   1   2    0.55    0.02
   0   1   2    0.51    0.02
  -1  -1  -2   17.76    0.40
   1   1   2   18.30    0.39
   1   1   2   17.95    0.38
   1   1   2   17.77    0.40
   1   1   2   17.74    0.36
  -2  -1  -2    0.62    0.03
  -2  -1  -2    0.79    0.02
  -2  -1  -2    0.81    0.03
   2   1   2    0.84    0.03
   2   1   2    0.79    0.02
   2   1   2    0.79    0.03
  -3  -1  -2   13.30    0.29
  -3  -1  -2   13.11    0.30
   3   1   2   13.22    0.27
   3   1   2   12.76    0.29
   3   1   2   13.36    0.30
   3   1   2   13.05    0.30
  -4  -1  -2   51.10    1.15
  -4  -1  -2   51.40    1.10
   4   1   2   51.25    1.14
   4   1   2   51.82    1.37
  -5  -1  -2    7.17    0.17
  -5  -1  -2    7.10    0.18
   5   1   2    7.05    0.18
   5   1   2    7.05    0.16
   5   1   2    7.19    0.18
  -6  -1  -2    0.13    0.02
  -6  -1  -2    0.16    0.02
   6   1   2    0.14    0.02
   6   1   2    0.13    0.01
   6   1   2    0.16    0.02
  -7  -1  -2    0.32    0.04
   7   1   2    0.34    0.02
   7   1   2    0.35    0.03
   7   1   2    0.39    0.03
  -8  -1  -2    1.89    0.09
   8   1   2    1.83    0.08
  -9  -1  -2    0.19    0.04
   9   1   2    0.18    0.03
   8  -2  -2    0.15    0.03
   8  -2  -2    0.16    0.03
  -8   2   2    0.14    0.03
   7  -2  -2    0.03    0.02
   7  -2  -2    0.00    0.02
  -7   2   2    0.02    0.02
   6  -2  -2   -0.02    0.01
   6  -2  -2   -0.01    0.01
  -6   2   2    0.00    0.02
   5  -2  -2    0.98    0.04
   5  -2  -2    0.94    0.04
  -5   2   2    0.90    0.04
   4  -2  -2    3.76    0.10
   4  -2  -2    3.80    0.10
  -4   2   2    3.77    0.10
   3  -2  -2   20.02    0.46
   3  -2  -2   21.07    0.46
  -3   2   2   20.40    0.45
   2  -2  -2    0.89    0.03
   2  -2  -2    0.95    0.03
  -2   2   2    0.92    0.03
  -2   2   2    0.95    0.03
   1  -2  -2  428.50    9.86
   1  -2  -2  417.37    9.72
   1  -2  -2  429.42    9.42
  -1   2   2  407.58    9.35
  -1   2   2  432.58    9.76
   0  -2  -2   31.01    0.70
   0  -2  -2   31.79    0.70
   0  -2  -2   30.14    0.69
   0   2   2   32.17    0.68
   0   2   2   29.47    0.69
   0   2   2   30.22    0.69
  -1  -2  -2   33.95    0.78
  -1  -2  -2   34.77    0.77
   1   2   2   34.09    0.75
   1   2   2   33.18    0.76
  -2  -2  -2    2.84    0.07
  -2  -2  -2    2.65    0.06
   2   2   2    2.92    0.08
   2   2   2    2.85    0.07
   2   2   2    2.90    0.08
   2   2   2    2.91    0.06
  -3  -2  -2   15.12    0.34
  -3  -2  -2   14.95    0.34
  -3  -2  -2   14.92    0.33
   3   2   2   14.98    0.33
   3   2   2   15.04    0.34
   3   2   2   15.34    0.34
  -4  -2  -2   38.31    0.84
  -4  -2  -2   38.38    0.82
  -4  -2  -2   37.84    0.77
   4   2   2   38.44    0.78
   4   2   2   37.35    0.86
   4   2   2   38.34    0.84
  -5  -2  -2    1.02    0.05
  -5  -2  -2    1.00    0.04
   5   2   2    1.06    0.04
   5   2   2    1.07    0.03
   5   2   2    1.01    0.05
  -6  -2  -2    0.67    0.04
  -6  -2  -2    0.69    0.05
   6   2   2    0.65    0.04
   6   2   2    0.72    0.03
  -7  -2  -2    7.77    0.21
  -7  -2  -2    8.03    0.20
   7   2   2    7.98    0.19
   7   2   2    7.66    0.21
  -8  -2  -2   -0.02    0.02
   8   2   2   -0.01    0.02
  -9  -2  -2    0.10    0.03
   9   2   2    0.06    0.02
   8  -3  -2    0.11    0.02
   8  -3  -2    0.13    0.03
  -8   3   2    0.09    0.03
   7  -3  -2    0.30    0.03
   7  -3  -2    0.27    0.03
  -7   3   2    0.29    0.04
   6  -3  -2    0.42    0.03
   6  -3  -2    0.40    0.03
  -6   3   2    0.41    0.04
   5  -3  -2    5.56    0.15
   5  -3  -2    5.65    0.15
  -5   3   2    5.65    0.15
   4  -3  -2    0.92    0.04
   4  -3  -2    0.95    0.04
  -4   3   2    0.94    0.04
   3  -3  -2    0.00    0.01
   3  -3  -2    0.00    0.01
  -3   3   2    0.01    0.01
   2  -3  -2    1.29    0.04
   2  -3  -2    1.23    0.04
   2  -3  -2    1.25    0.03
  -2   3   2    1.26    0.04
  -2   3   2    1.24    0.03
   1  -3  -2    2.88    0.08
   1  -3  -2    2.96    0.08
   1  -3  -2    3.06    0.07
   1  -3  -2    2.96    0.07
  -1   3   2    3.00    0.07
  -1   3   2    2.97    0.08
   0  -3  -2    6.93    0.16
   0  -3  -2    6.82    0.16
   0  -3  -2    6.91    0.16
   0   3   2    7.08    0.15
   0   3   2    6.75    0.16
   0   3   2    6.86    0.16
   0   3   2    6.86    0.16
  -1  -3  -2    8.41    0.19
  -1  -3  -2    8.39    0.19
   1   3   2    8.13    0.17
   1   3   2    7.39    0.19
   1   3   2    8.28    0.19
   1   3   2    8.56    0.19
  -2  -3  -2    2.51    0.07
  -2  -3  -2    2.55    0.06
  -2  -3  -2    2.54    0.07
  -2  -3  -2    2.63    0.07
   2   3   2    2.46    0.07
   2   3   2    2.53    0.07
   2   3   2    2.57    0.06
  -3  -3  -2    5.41    0.12
  -3  -3  -2    5.54    0.14
  -3  -3  -2    5.53    0.13
   3   3   2    5.38    0.13
   3   3   2    5.48    0.14
   3   3   2    5.32    0.12
  -4  -3  -2    7.51    0.18
  -4  -3  -2    7.45    0.19
   4   3   2    7.83    0.19
   4   3   2    7.59    0.17
   4   3   2    7.54    0.18
  -5  -3  -2    7.16    0.17
  -5  -3  -2    6.70    0.18
   5   3   2    6.83    0.16
   5   3   2    6.68    0.18
   5   3   2    6.89    0.15
  -6  -3  -2    0.10    0.02
  -6  -3  -2    0.08    0.02
   6   3   2    0.10    0.01
   6   3   2    0.11    0.02
   6   3   2    0.09    0.02
  -7  -3  -2    4.22    0.12
  -7  -3  -2    3.85    0.13
   7   3   2    4.13    0.11
   7   3   2    4.00    0.13
  -8  -3  -2    0.10    0.02
  -8  -3  -2    0.12    0.03
   8   3   2    0.16    0.03
  -9  -3  -2    0.08    0.03
   9   3   2    0.03    0.02
   7  -4  -2    0.28    0.03
   7  -4  -2    0.25    0.03
  -7   4   2    0.24    0.04
   6  -4  -2    0.04    0.02
   6  -4  -2    0.04    0.02
  -6   4   2    0.03    0.02
   5  -4  -2    0.09    0.02
   5  -4  -2    0.12    0.02
  -5   4   2    0.10    0.02
   4  -4  -2    3.61    0.10
   4  -4  -2    3.42    0.10
  -4   4   2    3.52    0.10
   3  -4  -2    0.09    0.01
   3  -4  -2    0.08    0.01
   3  -4  -2    0.07    0.01
  -3   4   2    0.09    0.01
  -3   4   2    0.07    0.01
   2  -4  -2    0.24    0.02
   2  -4  -2    0.25    0.02
   2  -4  -2    0.29    0.01
   2  -4  -2    0.24    0.01
  -2   4   2    0.26    0.02
  -2   4   2    0.25    0.02
   1  -4  -2    9.63    0.21
   1  -4  -2    9.39    0.22
   1  -4  -2    9.60    0.22
   1  -4  -2    9.41    0.21
  -1   4   2    9.32    0.21
   0  -4  -2    0.16    0.01
   0  -4  -2    0.14    0.01
   0   4   2    0.16    0.01
   0   4   2    0.14    0.01
   0   4   2    0.15    0.01
  -1  -4  -2   47.91    1.04
  -1  -4  -2   47.85    1.08
  -1  -4  -2   46.82    1.07
   1   4   2   46.24    0.97
  -2  -4  -2   42.40    0.96
  -2  -4  -2   42.75    0.99
  -2  -4  -2   43.80    0.87
  -2  -4  -2   42.71    0.91
   2   4   2   41.34    0.89
  -3  -4  -2    1.19    0.03
  -3  -4  -2    1.28    0.05
  -3  -4  -2    1.22    0.04
   3   4   2    1.23    0.04
   3   4   2    1.23    0.04
  -4  -4  -2    1.71    0.07
  -4  -4  -2    1.71    0.06
   4   4   2    1.79    0.06
   4   4   2    1.75    0.05
   4   4   2    1.71    0.05
  -5  -4  -2    3.86    0.11
  -5  -4  -2    3.82    0.12
   5   4   2    3.91    0.10
   5   4   2    3.76    0.11
   5   4   2    3.86    0.10
  -6  -4  -2    6.83    0.18
  -6  -4  -2    6.88    0.19
   6   4   2    6.67    0.18
   6   4   2    6.77    0.16
   6   4   2    6.96    0.17
  -7  -4  -2    1.98    0.07
  -7  -4  -2    1.85    0.09
   7   4   2    2.01    0.08
   7   4   2    2.12    0.06
   7   4   2    2.05    0.07
  -8  -4  -2    0.00    0.02
  -8  -4  -2    0.02    0.02
   8   4   2   -0.02    0.01
  -9  -4  -2    0.05    0.03
   9   4   2    0.03    0.02
   7  -5  -2    0.03    0.02
   7  -5  -2    0.03    0.02
  -7   5   2    0.00    0.02
   6  -5  -2    4.99    0.14
   6  -5  -2    4.83    0.15
  -6   5   2    4.92    0.15
   5  -5  -2    0.44    0.03
   5  -5  -2    0.40    0.03
  -5   5   2    0.43    0.04
   4  -5  -2    0.12    0.02
   4  -5  -2    0.07    0.02
  -4   5   2    0.09    0.02
   3  -5  -2    5.38    0.13
   3  -5  -2    5.15    0.12
   3  -5  -2    5.13    0.14
   3  -5  -2    5.13    0.13
  -3   5   2    4.99    0.12
  -3   5   2    5.30    0.14
   2  -5  -2   25.54    0.59
   2  -5  -2   27.01    0.58
   2  -5  -2   25.54    0.56
  -2   5   2   26.00    0.57
  -2   5   2   25.61    0.57
   1  -5  -2    7.71    0.18
   1  -5  -2    7.46    0.18
   1  -5  -2    7.71    0.17
  -1   5   2    7.42    0.18
   0  -5  -2    2.35    0.07
   0  -5  -2    2.20    0.06
   0   5   2    2.23    0.06
   0   5   2    2.24    0.05
  -1  -5  -2    0.04    0.01
  -1  -5  -2    0.05    0.01
  -1  -5  -2    0.08    0.02
   1   5   2    0.06    0.01
   1   5   2    0.06    0.01
  -2  -5  -2   14.64    0.34
  -2  -5  -2   14.83    0.29
  -2  -5  -2   14.22    0.33
  -2  -5  -2   14.65    0.33
   2   5   2   14.14    0.30
  -3  -5  -2    0.03    0.01
  -3  -5  -2    0.03    0.01
  -3  -5  -2    0.03    0.01
  -3  -5  -2    0.05    0.01
   3   5   2    0.03    0.01
   3   5   2    0.01    0.01
  -4  -5  -2    0.89    0.05
  -4  -5  -2    0.80    0.03
  -4  -5  -2    0.74    0.04
   4   5   2    0.79    0.03
   4   5   2    0.73    0.03
   4   5   2    0.79    0.04
  -5  -5  -2    0.46    0.04
  -5  -5  -2    0.43    0.03
   5   5   2    0.44    0.04
   5   5   2    0.45    0.03
   5   5   2    0.41    0.03
  -6  -5  -2   -0.01    0.02
  -6  -5  -2    0.00    0.02
   6   5   2   -0.01    0.01
   6   5   2   -0.01    0.01
   6   5   2    0.00    0.01
  -7  -5  -2    0.50    0.05
  -7  -5  -2    0.62    0.04
   7   5   2    0.51    0.03
   7   5   2    0.63    0.04
   7   5   2    0.67    0.04
  -8  -5  -2    0.21    0.03
  -8  -5  -2    0.34    0.05
   8   5   2    0.27    0.03
   8   5   2    0.29    0.04
  -9  -5  -2    0.33    0.05
   7  -6  -2    0.45    0.04
  -7   6   2    0.41    0.05
   6  -6  -2    0.45    0.04
  -6   6   2    0.47    0.05
   5  -6  -2    1.58    0.07
  -5   6   2    1.75    0.07
   4  -6  -2    0.04    0.01
   4  -6  -2    0.06    0.02
  -4   6   2    0.04    0.02
   3  -6  -2    3.55    0.11
   3  -6  -2    3.47    0.09
   3  -6  -2    3.63    0.09
  -3   6   2    3.53    0.09
  -3   6   2    3.59    0.11
   2  -6  -2    1.50    0.05
   2  -6  -2    1.51    0.05
   2  -6  -2    1.42    0.06
  -2   6   2    1.54    0.06
  -2   6   2    1.44    0.05
   1  -6  -2    0.46    0.03
   1  -6  -2    0.45    0.02
   1  -6  -2    0.49    0.02
  -1   6   2    0.49    0.02
   0  -6  -2    0.61    0.03
   0  -6  -2    0.53    0.03
   0   6   2    0.57    0.02
   0   6   2    0.58    0.03
  -1  -6  -2   12.16    0.28
  -1  -6  -2   11.98    0.28
   1   6   2   11.57    0.25
   1   6   2   11.83    0.27
  -2  -6  -2   16.48    0.38
  -2  -6  -2   16.78    0.34
  -2  -6  -2   16.61    0.38
  -2  -6  -2   16.10    0.38
   2   6   2   16.78    0.37
   2   6   2   16.38    0.34
  -3  -6  -2    0.42    0.03
  -3  -6  -2    0.38    0.03
  -3  -6  -2    0.40    0.03
  -3  -6  -2    0.40    0.02
   3   6   2    0.38    0.02
   3   6   2    0.43    0.03
  -4  -6  -2    4.58    0.14
  -4  -6  -2    4.60    0.12
  -4  -6  -2    4.49    0.11
   4   6   2    4.54    0.12
   4   6   2    4.67    0.11
  -5  -6  -2   11.65    0.30
  -5  -6  -2   11.98    0.29
   5   6   2   11.96    0.30
   5   6   2   12.14    0.28
   5   6   2   11.91    0.26
  -6  -6  -2    0.01    0.02
  -6  -6  -2   -0.02    0.01
   6   6   2    0.01    0.02
   6   6   2    0.03    0.01
   6   6   2    0.01    0.01
  -7  -6  -2    0.27    0.04
  -7  -6  -2    0.21    0.03
   7   6   2    0.26    0.03
   7   6   2    0.25    0.02
   7   6   2    0.23    0.02
  -8  -6  -2    0.01    0.02
  -8  -6  -2    0.04    0.03
   8   6   2    0.04    0.02
   8   6   2    0.02    0.02
   6  -7  -2    0.09    0.03
  -6   7   2    0.13    0.03
   5  -7  -2    1.50    0.07
  -5   7   2    1.49    0.07
   4  -7  -2    0.04    0.01
   4  -7  -2    0.04    0.02
  -4   7   2    0.04    0.02
   3  -7  -2    0.72    0.03
   3  -7  -2    0.72    0.03
   3  -7  -2    0.81    0.05
  -3   7   2    0.66    0.04
   2  -7  -2    1.64    0.05
   2  -7  -2    1.67    0.05
   2  -7  -2    1.51    0.06
  -2   7   2    1.55    0.05
  -2   7   2    1.57    0.06
   1  -7  -2    3.73    0.09
   1  -7  -2    3.70    0.10
   1  -7  -2    3.83    0.11
  -1   7   2    3.64    0.09
   0  -7  -2    4.78    0.13
   0  -7  -2    4.86    0.13
   0   7   2    4.93    0.11
  -1  -7  -2    0.06    0.02
  -1  -7  -2    0.09    0.01
   1   7   2    0.06    0.01
   1   7   2    0.06    0.01
  -2  -7  -2    2.81    0.06
  -2  -7  -2    2.79    0.08
  -2  -7  -2    2.75    0.08
  -2  -7  -2    2.77    0.10
   2   7   2    2.66    0.07
  -3  -7  -2    1.68    0.07
  -3  -7  -2    1.92    0.05
  -3  -7  -2    1.76    0.06
  -3  -7  -2    1.76    0.06
   3   7   2    1.91    0.07
   3   7   2    1.87    0.06
  -4  -7  -2    3.10    0.11
  -4  -7  -2    3.21    0.08
  -4  -7  -2    3.18    0.10
  -4  -7  -2    3.04    0.10
   4   7   2    3.26    0.10
   4   7   2    3.30    0.09
  -5  -7  -2    0.00    0.02
  -5  -7  -2    0.00    0.02
   5   7   2    0.03    0.02
   5   7   2    0.05    0.01
   5   7   2    0.02    0.02
  -6  -7  -2    7.93    0.20
  -6  -7  -2    7.18    0.22
   6   7   2    7.95    0.22
   6   7   2    7.97    0.20
   6   7   2    7.66    0.18
  -7  -7  -2    0.15    0.03
  -7  -7  -2    0.17    0.03
   7   7   2    0.17    0.02
   7   7   2    0.21    0.03
   7   7   2    0.18    0.02
  -8  -7  -2   -0.02    0.02
  -8  -7  -2    0.01    0.02
   8   7   2    0.02    0.02
   8   7   2    0.02    0.02
   5  -8  -2    0.02    0.02
  -5   8   2    0.05    0.02
   4  -8  -2    0.58    0.04
  -4   8   2    0.52    0.04
   3  -8  -2    0.24    0.02
   3  -8  -2    0.17    0.03
   3  -8  -2    0.19    0.02
  -3   8   2    0.20    0.03
   2  -8  -2    2.62    0.08
   2  -8  -2    2.56    0.07
   2  -8  -2    2.56    0.09
  -2   8   2    2.58    0.09
   1  -8  -2    2.03    0.07
   1  -8  -2    2.20    0.08
   0  -8  -2    0.52    0.03
   0  -8  -2    0.51    0.03
   0   8   2    0.50    0.03
  -1  -8  -2    0.34    0.03
  -1  -8  -2    0.40    0.03
   1   8   2    0.37    0.02
  -2  -8  -2    0.95    0.04
  -2  -8  -2    0.99    0.06
  -2  -8  -2    0.95    0.04
   2   8   2    0.96    0.04
  -3  -8  -2    0.42    0.02
  -3  -8  -2    0.40    0.03
  -3  -8  -2    0.42    0.04
  -3  -8  -2    0.39    0.03
   3   8   2    0.45    0.04
   3   8   2    0.50    0.03
  -4  -8  -2    1.12    0.06
  -4  -8  -2    1.19    0.05
  -4  -8  -2    1.12    0.05
   4   8   2    1.20    0.06
   4   8   2    1.22    0.05
  -5  -8  -2    0.48    0.04
  -5  -8  -2    0.45    0.05
   5   8   2    0.51    0.03
   5   8   2    0.55    0.04
  -6  -8  -2    1.13    0.07
  -6  -8  -2    1.39    0.06
   6   8   2    1.24    0.05
   6   8   2    1.24    0.06
   6   8   2    1.21    0.07
  -7  -8  -2    0.18    0.04
  -7  -8  -2    0.19    0.03
   7   8   2    0.21    0.03
   7   8   2    0.22    0.04
  -8  -8  -2    0.10    0.04
   8   8   2    0.09    0.03
   5  -9  -2    0.12    0.03
  -5   9   2    0.06    0.03
   4  -9  -2    0.23    0.03
  -4   9   2    0.25    0.04
   3  -9  -2    0.50    0.04
  -3   9   2    0.49    0.04
   2  -9  -2    0.01    0.01
   2  -9  -2    0.01    0.01
   2  -9  -2    0.01    0.02
  -2   9   2   -0.01    0.02
   1  -9  -2    0.59    0.04
   1  -9  -2    0.67    0.04
   0  -9  -2    0.03    0.01
   0  -9  -2    0.03    0.02
  -1  -9  -2    0.03    0.02
  -1  -9  -2    0.03    0.01
  -2  -9  -2    5.58    0.15
  -2  -9  -2    5.57    0.15
  -3  -9  -2    2.11    0.09
  -3  -9  -2    1.94    0.07
  -3  -9  -2    1.99    0.05
  -3  -9  -2    1.97    0.07
   3   9   2    1.99    0.08
  -4  -9  -2    0.59    0.04
  -4  -9  -2    0.69    0.04
  -4  -9  -2    0.68    0.05
   4   9   2    0.61    0.04
  -5  -9  -2    0.93    0.06
  -5  -9  -2    0.89    0.05
   5   9   2    0.88    0.05
  -6  -9  -2    0.26    0.04
  -6  -9  -2    0.28    0.03
   6   9   2    0.27    0.03
   6   9   2    0.28    0.04
  -7  -9  -2    0.09    0.03
  -7  -9  -2    0.06    0.02
   7   9   2    0.05    0.02
   7   9   2    0.07    0.03
   4 -10  -2    0.06    0.03
  -4  10   2    0.06    0.03
   3 -10  -2   -0.02    0.02
  -3  10   2    0.01    0.02
   2 -10  -2    0.23    0.03
   2 -10  -2    0.24    0.03
  -2  10   2    0.26    0.03
   1 -10  -2    2.45    0.09
   1 -10  -2    2.39    0.08
   0 -10  -2    0.85    0.05
   0 -10  -2    1.05    0.05
  -1 -10  -2    7.79    0.21
  -1 -10  -2    8.09    0.21
  -2 -10  -2    0.57    0.04
  -2 -10  -2    0.50    0.04
  -3 -10  -2    2.57    0.09
  -3 -10  -2    2.54    0.09
   3  10   2    2.65    0.10
  -4 -10  -2    0.64    0.05
  -4 -10  -2    0.60    0.04
  -4 -10  -2    0.66    0.04
   4  10   2    0.60    0.05
  -5 -10  -2    0.36    0.05
  -5 -10  -2    0.35    0.04
   5  10   2    0.37    0.04
  -6 -10  -2    0.24    0.03
  -6 -10  -2    0.27    0.04
   6  10   2    0.27    0.04
   6  10   2    0.21    0.03
   2 -11  -2    1.55    0.08
  -2  11   2    1.82    0.08
   1 -11  -2   -0.01    0.02
   1 -11  -2    0.00    0.02
   0 -11  -2    0.07    0.03
   0 -11  -2    0.06    0.02
  -1 -11  -2    0.10    0.02
  -1 -11  -2    0.10    0.03
  -2 -11  -2    0.24    0.03
  -2 -11  -2    0.24    0.03
  -3 -11  -2    0.41    0.04
  -3 -11  -2    0.44    0.04
   3  11   2    0.39    0.04
  -4 -11  -2    0.04    0.02
  -4 -11  -2   -0.01    0.02
  -4 -11  -2   -0.01    0.02
   4  11   2    0.04    0.02
  -5 -11  -2    0.02    0.02
  -5 -11  -2    0.03    0.03
  -5 -11  -2    0.03    0.02
   5  11   2    0.03    0.02
   1 -12  -2    0.06    0.02
   1 -12  -2    0.04    0.03
  -1  12   2    0.12    0.03
   0 -12  -2    0.04    0.02
   0 -12  -2    0.05    0.03
  -1 -12  -2    0.12    0.03
  -1 -12  -2    0.11    0.03
  -2 -12  -2    0.09    0.02
  -2 -12  -2    0.08    0.02
   2  12   2    0.05    0.03
  -3 -12  -2    0.00    0.02
  -3 -12  -2    0.01    0.02
   3  12   2    0.01    0.02
   3  10  -3    0.04    0.02
   3  10  -3    0.01    0.02
  -3 -10   3   -0.01    0.02
   2  10  -3    0.21    0.03
   2  10  -3    0.18    0.03
  -2 -10   3    0.23    0.03
  -2 -10   3    0.22    0.03
   1  10  -3    2.30    0.10
   1  10  -3    2.36    0.08
  -1 -10   3    2.54    0.09
  -1 -10   3    2.35    0.09
   0  10  -3    0.56    0.04
   0  10  -3    0.52    0.04
   0  10  -3    0.51    0.05
   0 -10   3    0.56    0.04
   0 -10   3    0.60    0.05
  -1  10  -3    0.01    0.02
  -1  10  -3    0.01    0.02
  -1  10  -3   -0.01    0.02
   1 -10   3    0.01    0.02
   1 -10   3    0.01    0.02
  -2  10  -3    1.69    0.07
  -2  10  -3    1.72    0.09
  -2  10  -3    1.72    0.07
   2 -10   3    1.61    0.08
   2 -10   3    1.79    0.08
   5   9  -3    0.05    0.02
   5   9  -3    0.05    0.02
  -5  -9   3    0.04    0.02
   4   9  -3    0.85    0.05
   4   9  -3    0.87    0.06
  -4  -9   3    0.90    0.05
   3   9  -3    1.26    0.07
   3   9  -3    1.21    0.05
  -3  -9   3    1.22    0.06
  -3  -9   3    1.24    0.05
   2   9  -3    0.09    0.02
   2   9  -3    0.12    0.03
  -2  -9   3    0.11    0.02
  -2  -9   3    0.11    0.02
   1   9  -3    0.45    0.05
   1   9  -3    0.55    0.04
  -1  -9   3    0.42    0.04
  -1  -9   3    0.45    0.04
   0   9  -3    0.29    0.04
   0   9  -3    0.38    0.03
   0   9  -3    0.33    0.03
   0  -9   3    0.31    0.04
   0  -9   3    0.37    0.03
   0  -9   3    0.39    0.03
  -1   9  -3    0.06    0.02
  -1   9  -3    0.05    0.02
  -1   9  -3    0.06    0.02
   1  -9   3    0.05    0.02
   1  -9   3    0.03    0.02
   1  -9   3    0.04    0.02
  -2   9  -3    0.28    0.03
  -2   9  -3    0.28    0.03
   2  -9   3    0.26    0.03
   2  -9   3    0.29    0.04
  -3   9  -3    0.57    0.04
  -3   9  -3    0.53    0.04
   3  -9   3    0.58    0.05
   3  -9   3    0.57    0.04
  -4   9  -3    0.32    0.04
  -4   9  -3    0.35    0.04
   4  -9   3    0.29    0.03
   4  -9   3    0.31    0.04
   6   8  -3    0.07    0.02
   6   8  -3    0.08    0.02
  -6  -8   3    0.08    0.02
   5   8  -3    0.01    0.02
   5   8  -3    0.00    0.02
  -5  -8   3    0.02    0.02
   4   8  -3    0.13    0.02
   4   8  -3    0.11    0.03
  -4  -8   3    0.14    0.02
   3   8  -3    0.21    0.02
   3   8  -3    0.18    0.03
  -3  -8   3    0.17    0.02
  -3  -8   3    0.21    0.03
   2   8  -3    0.27    0.03
   2   8  -3    0.28    0.03
  -2  -8   3    0.32    0.03
  -2  -8   3    0.25    0.03
   1   8  -3    0.01    0.02
   1   8  -3    0.00    0.01
  -1  -8   3    0.00    0.01
  -1  -8   3    0.02    0.02
   0   8  -3    0.74    0.05
   0   8  -3    0.79    0.04
   0   8  -3    0.85    0.04
   0  -8   3    0.76    0.04
   0  -8   3    0.86    0.05
   0  -8   3    0.76    0.04
  -1   8  -3    0.65    0.04
  -1   8  -3    0.60    0.04
  -1   8  -3    0.63    0.05
   1  -8   3    0.62    0.04
   1  -8   3    0.64    0.04
   1  -8   3    0.68    0.04
  -2   8  -3    0.03    0.02
  -2   8  -3    0.03    0.02
   2  -8   3    0.01    0.02
   2  -8   3    0.02    0.02
   2  -8   3    0.03    0.02
  -3   8  -3    0.87    0.05
  -3   8  -3    0.77    0.05
   3  -8   3    0.82    0.05
   3  -8   3    0.68    0.05
   3  -8   3    0.80    0.05
  -4   8  -3    0.18    0.03
  -4   8  -3    0.15    0.03
   4  -8   3    0.14    0.03
   4  -8   3    0.17    0.03
  -5   8  -3    0.00    0.02
  -5   8  -3   -0.01    0.02
   5  -8   3    0.02    0.02
   6   7  -3    0.71    0.05
   6   7  -3    0.74    0.04
  -6  -7   3    0.63    0.04
   5   7  -3    0.03    0.02
   5   7  -3    0.06    0.02
  -5  -7   3    0.05    0.02
   4   7  -3    2.37    0.09
   4   7  -3    2.48    0.08
  -4  -7   3    2.54    0.09
  -4  -7   3    2.63    0.09
   3   7  -3    2.99    0.09
   3   7  -3    2.98    0.10
  -3  -7   3    3.15    0.09
  -3  -7   3    3.12    0.10
   2   7  -3    2.57    0.09
   2   7  -3    2.56    0.08
   2   7  -3    2.38    0.09
  -2  -7   3    2.63    0.08
  -2  -7   3    2.51    0.09
   1   7  -3    0.39    0.03
   1   7  -3    0.34    0.03
   1   7  -3    0.38    0.04
  -1  -7   3    0.42    0.03
  -1  -7   3    0.29    0.03
   0   7  -3    8.01    0.22
   0   7  -3    8.37    0.19
   0  -7   3    7.97    0.21
   0  -7   3    8.33    0.21
   0  -7   3    8.41    0.21
  -1   7  -3   22.30    0.47
  -1   7  -3   22.35    0.53
  -1   7  -3   22.38    0.49
   1  -7   3   22.35    0.50
   1  -7   3   22.79    0.51
   1  -7   3   21.84    0.52
  -2   7  -3   -0.01    0.01
  -2   7  -3   -0.03    0.01
   2  -7   3   -0.01    0.02
   2  -7   3    0.04    0.02
   2  -7   3   -0.03    0.01
  -3   7  -3    4.60    0.12
  -3   7  -3    4.46    0.13
   3  -7   3    4.47    0.14
   3  -7   3    4.59    0.13
   3  -7   3    4.53    0.13
  -4   7  -3    0.00    0.02
  -4   7  -3   -0.02    0.02
   4  -7   3   -0.02    0.01
   4  -7   3   -0.01    0.01
   4  -7   3    0.02    0.02
  -5   7  -3    0.00    0.02
  -5   7  -3   -0.02    0.02
   5  -7   3    0.00    0.02
   5  -7   3    0.01    0.02
  -6   7  -3   -0.01    0.02
  -6   7  -3   -0.01    0.02
   6  -7   3    0.01    0.02
   7   6  -3    0.00    0.02
   7   6  -3    0.00    0.02
  -7  -6   3    0.02    0.02
   6   6  -3    0.31    0.03
   6   6  -3    0.32    0.03
  -6  -6   3    0.29    0.03
   5   6  -3    0.05    0.02
   5   6  -3    0.07    0.02
  -5  -6   3    0.07    0.02
  -5  -6   3    0.07    0.02
   4   6  -3    2.49    0.09
   4   6  -3    2.61    0.08
  -4  -6   3    2.64    0.09
  -4  -6   3    2.67    0.09
   3   6  -3    0.46    0.03
   3   6  -3    0.43    0.04
   3   6  -3    0.39    0.03
  -3  -6   3    0.47    0.03
  -3  -6   3    0.39    0.03
  -3  -6   3    0.48    0.03
   2   6  -3   12.28    0.29
   2   6  -3   12.37    0.30
   2   6  -3   11.84    0.27
  -2  -6   3   11.75    0.29
  -2  -6   3   12.33    0.28
   1   6  -3    1.20    0.05
   1   6  -3    1.19    0.05
   1   6  -3    1.21    0.06
  -1  -6   3    1.20    0.05
  -1  -6   3    1.08    0.05
  -1  -6   3    1.24    0.05
   0   6  -3   29.74    0.70
   0   6  -3   30.79    0.63
   0  -6   3   30.22    0.67
   0  -6   3   30.00    0.69
   0  -6   3   31.17    0.68
  -1   6  -3    6.49    0.16
  -1   6  -3    6.51    0.15
   1  -6   3    6.62    0.17
   1  -6   3    6.44    0.17
   1  -6   3    6.60    0.17
  -2   6  -3    0.31    0.03
  -2   6  -3    0.21    0.02
   2  -6   3    0.21    0.03
   2  -6   3    0.23    0.02
   2  -6   3    0.19    0.02
  -3   6  -3    0.89    0.04
  -3   6  -3    0.92    0.05
   3  -6   3    0.95    0.05
   3  -6   3    0.93    0.05
   3  -6   3    1.11    0.05
  -4   6  -3   -0.01    0.02
  -4   6  -3   -0.01    0.01
   4  -6   3    0.01    0.02
   4  -6   3    0.00    0.02
   4  -6   3    0.02    0.02
  -5   6  -3    5.43    0.14
  -5   6  -3    5.55    0.16
   5  -6   3    5.85    0.16
   5  -6   3    5.85    0.16
   5  -6   3    5.23    0.16
  -6   6  -3    0.06    0.02
  -6   6  -3    0.03    0.02
   6  -6   3    0.02    0.02
   7   5  -3    0.01    0.02
   7   5  -3    0.03    0.02
  -7  -5   3    0.02    0.02
   6   5  -3    0.46    0.03
   6   5  -3    0.42    0.04
  -6  -5   3    0.42    0.04
  -6  -5   3    0.44    0.03
   5   5  -3    0.21    0.03
   5   5  -3    0.21    0.02
  -5  -5   3    0.20    0.02
  -5  -5   3    0.20    0.03
   4   5  -3    0.06    0.01
   4   5  -3    0.07    0.02
   4   5  -3    0.09    0.02
   4   5  -3    0.09    0.02
  -4  -5   3    0.11    0.02
  -4  -5   3    0.08    0.02
   3   5  -3    5.77    0.14
   3   5  -3    5.81    0.15
   3   5  -3    5.82    0.16
  -3  -5   3    5.81    0.14
  -3  -5   3    6.00    0.16
  -3  -5   3    6.00    0.15
   2   5  -3    3.91    0.11
   2   5  -3    3.90    0.10
   2   5  -3    3.66    0.11
  -2  -5   3    3.90    0.10
  -2  -5   3    3.96    0.11
   1   5  -3    0.10    0.01
   1   5  -3    0.04    0.01
   1   5  -3    0.05    0.01
  -1  -5   3    0.05    0.01
  -1  -5   3    0.03    0.01
  -1  -5   3    0.06    0.01
   0   5  -3    0.93    0.04
   0   5  -3    0.87    0.04
   0   5  -3    0.91    0.04
   0  -5   3    0.89    0.04
   0  -5   3    0.89    0.04
   0  -5   3    0.90    0.04
  -1   5  -3    0.47    0.03
  -1   5  -3    0.42    0.03
   1  -5   3    0.44    0.03
   1  -5   3    0.38    0.03
   1  -5   3    0.45    0.03
  -2   5  -3    4.28    0.11
  -2   5  -3    4.26    0.11
   2  -5   3    4.30    0.12
   2  -5   3    4.27    0.12
   2  -5   3    4.20    0.12
  -3   5  -3    0.36    0.03
  -3   5  -3    0.37    0.03
   3  -5   3    0.34    0.03
   3  -5   3    0.28    0.03
   3  -5   3    0.34    0.03
  -4   5  -3    3.36    0.09
  -4   5  -3    3.36    0.10
   4  -5   3    3.25    0.10
   4  -5   3    3.28    0.11
  -5   5  -3    4.46    0.13
  -5   5  -3    4.55    0.12
   5  -5   3    4.27    0.14
   5  -5   3    4.45    0.13
  -6   5  -3    0.95    0.06
  -6   5  -3    0.95    0.05
   6  -5   3    0.83    0.05
  -7   5  -3    0.48    0.05
  -7   5  -3    0.60    0.04
   7  -5   3    0.46    0.05
   7   4  -3    0.16    0.03
   7   4  -3    0.13    0.02
  -7  -4   3    0.13    0.03
   6   4  -3    0.07    0.02
   6   4  -3    0.07    0.02
  -6  -4   3    0.06    0.02
  -6  -4   3    0.06    0.02
   5   4  -3    0.63    0.03
   5   4  -3    0.59    0.04
   5   4  -3    0.71    0.03
  -5  -4   3    0.73    0.04
  -5  -4   3    0.60    0.04
   4   4  -3    2.33    0.07
   4   4  -3    2.31    0.07
   4   4  -3    2.23    0.08
   4   4  -3    2.51    0.08
  -4  -4   3    2.28    0.07
  -4  -4   3    2.27    0.08
   3   4  -3    1.68    0.05
   3   4  -3    1.76    0.05
   3   4  -3    1.74    0.06
   3   4  -3    1.69    0.06
  -3  -4   3    1.84    0.06
  -3  -4   3    1.68    0.06
   2   4  -3    9.92    0.23
   2   4  -3   10.16    0.23
   2   4  -3    9.84    0.23
   2   4  -3   10.11    0.22
   2   4  -3   10.11    0.24
  -2  -4   3    9.93    0.24
  -2  -4   3    9.85    0.23
  -2  -4   3   10.04    0.23
   1   4  -3    5.71    0.14
   1   4  -3    5.66    0.13
   1   4  -3    5.57    0.14
   1   4  -3    5.63    0.13
   1   4  -3    5.58    0.15
  -1  -4   3    5.59    0.13
  -1  -4   3    5.30    0.14
  -1  -4   3    5.68    0.15
   0   4  -3    2.15    0.07
   0   4  -3    2.15    0.06
   0   4  -3    2.17    0.06
   0  -4   3    2.17    0.07
   0  -4   3    2.19    0.06
   0  -4   3    2.07    0.06
  -1   4  -3   13.64    0.29
  -1   4  -3   14.30    0.31
  -1   4  -3   13.94    0.33
   1  -4   3   13.97    0.33
   1  -4   3   14.16    0.32
   1  -4   3   13.72    0.32
  -2   4  -3    5.68    0.14
  -2   4  -3    5.59    0.13
   2  -4   3    5.79    0.15
   2  -4   3    5.49    0.14
   2  -4   3    5.80    0.15
  -3   4  -3    1.11    0.04
  -3   4  -3    1.14    0.05
   3  -4   3    1.21    0.05
   3  -4   3    1.20    0.05
  -4   4  -3    0.87    0.04
  -4   4  -3    0.94    0.04
   4  -4   3    0.93    0.04
   4  -4   3    0.87    0.05
  -5   4  -3    7.34    0.18
  -5   4  -3    7.13    0.19
   5  -4   3    7.55    0.19
   5  -4   3    7.07    0.20
  -6   4  -3    0.04    0.02
  -6   4  -3    0.04    0.02
   6  -4   3    0.06    0.02
   6  -4   3    0.05    0.02
  -7   4  -3    0.16    0.03
  -7   4  -3    0.14    0.03
   7  -4   3    0.17    0.03
   8   3  -3    0.84    0.05
  -8  -3   3    0.81    0.06
   7   3  -3    0.52    0.04
  -7  -3   3    0.54    0.05
   6   3  -3    1.37    0.05
   6   3  -3    1.37    0.06
  -6  -3   3    1.50    0.05
  -6  -3   3    1.45    0.07
   5   3  -3   22.24    0.50
   5   3  -3   23.44    0.53
   5   3  -3   22.52    0.48
  -5  -3   3   22.98    0.51
  -5  -3   3   22.89    0.51
   4   3  -3    1.14    0.04
   4   3  -3    1.14    0.05
   4   3  -3    1.19    0.04
   4   3  -3    1.17    0.04
   4   3  -3    1.25    0.05
  -4  -3   3    1.22    0.05
  -4  -3   3    1.19    0.04
   3   3  -3   10.14    0.23
   3   3  -3   10.17    0.24
   3   3  -3   10.03    0.23
   3   3  -3   10.08    0.24
   3   3  -3   10.27    0.22
  -3  -3   3   10.21    0.24
  -3  -3   3   10.05    0.23
   2   3  -3   13.42    0.32
   2   3  -3   13.61    0.29
   2   3  -3   13.69    0.30
   2   3  -3   13.84    0.30
   2   3  -3   13.75    0.31
  -2  -3   3   13.51    0.30
  -2  -3   3   13.71    0.31
  -2  -3   3   13.52    0.30
   1   3  -3    0.76    0.03
   1   3  -3    0.69    0.03
   1   3  -3    0.70    0.03
   1   3  -3    0.70    0.03
   1   3  -3    0.69    0.03
  -1  -3   3    0.74    0.03
  -1  -3   3    0.71    0.03
  -1  -3   3    0.69    0.02
   0   3  -3    6.02    0.14
   0   3  -3    6.39    0.15
   0   3  -3    6.32    0.16
   0   3  -3    6.17    0.14
   0   3  -3    6.15    0.14
   0   3  -3    6.21    0.15
   0  -3   3    6.16    0.16
   0  -3   3    6.37    0.15
   0  -3   3    6.36    0.15
  -1   3  -3    1.09    0.03
  -1   3  -3    1.09    0.04
  -1   3  -3    1.01    0.04
   1  -3   3    1.05    0.04
   1  -3   3    1.06    0.04
   1  -3   3    1.11    0.04
  -2   3  -3    4.08    0.10
  -2   3  -3    3.85    0.10
   2  -3   3    3.94    0.11
   2  -3   3    4.05    0.11
  -3   3  -3    0.11    0.02
  -3   3  -3    0.10    0.01
   3  -3   3    0.12    0.02
   3  -3   3    0.12    0.02
  -4   3  -3   14.37    0.33
  -4   3  -3   14.27    0.31
   4  -3   3   14.67    0.34
   4  -3   3   13.93    0.34
  -5   3  -3    4.94    0.13
  -5   3  -3    5.02    0.14
   5  -3   3    4.90    0.14
   5  -3   3    5.01    0.14
  -6   3  -3    1.44    0.06
  -6   3  -3    1.55    0.07
   6  -3   3    1.62    0.06
   6  -3   3    1.44    0.07
  -7   3  -3    1.90    0.08
  -7   3  -3    1.93    0.07
   7  -3   3    1.77    0.08
  -8   3  -3    1.36    0.08
  -8   3  -3    1.42    0.06
   8  -3   3    1.26    0.07
   8   2  -3    0.62    0.04
  -8  -2   3    0.62    0.05
   7   2  -3    0.03    0.02
  -7  -2   3    0.03    0.02
   6   2  -3    5.17    0.14
   6   2  -3    4.92    0.13
  -6  -2   3    4.94    0.14
  -6  -2   3    5.05    0.13
   5   2  -3    8.82    0.22
   5   2  -3    8.72    0.19
   5   2  -3    8.60    0.20
  -5  -2   3    8.75    0.21
  -5  -2   3    8.78    0.21
   4   2  -3    0.35    0.02
   4   2  -3    0.35    0.03
   4   2  -3    0.36    0.02
   4   2  -3    0.37    0.02
  -4  -2   3    0.37    0.02
  -4  -2   3    0.35    0.03
   3   2  -3   10.32    0.23
   3   2  -3   10.33    0.23
   3   2  -3   10.43    0.24
   3   2  -3   10.21    0.22
   3   2  -3   10.01    0.24
  -3  -2   3   10.19    0.23
  -3  -2   3   10.44    0.24
   2   2  -3   18.44    0.38
   2   2  -3   18.39    0.42
   2   2  -3   18.09    0.39
  -2  -2   3   18.53    0.41
  -2  -2   3   18.04    0.39
   1   2  -3   25.54    0.52
   1   2  -3   26.10    0.56
   1   2  -3   25.75    0.57
   1   2  -3   24.69    0.55
  -1  -2   3   25.08    0.57
  -1  -2   3   25.55    0.57
  -1  -2   3   26.12    0.55
   0   2  -3   11.16    0.26
   0   2  -3   11.29    0.24
   0   2  -3   11.07    0.23
   0   2  -3   11.14    0.25
   0  -2   3   11.09    0.26
   0  -2   3   11.44    0.25
   0  -2   3   11.35    0.25
  -1   2  -3    1.30    0.04
  -1   2  -3    1.58    0.05
  -1   2  -3    1.30    0.04
  -1   2  -3    1.28    0.04
   1  -2   3    1.33    0.04
   1  -2   3    1.25    0.05
   1  -2   3    1.31    0.04
  -2   2  -3   18.61    0.38
  -2   2  -3   18.49    0.40
   2  -2   3   18.40    0.42
   2  -2   3   18.46    0.42
  -3   2  -3    0.44    0.03
  -3   2  -3    0.52    0.02
   3  -2   3    0.50    0.03
   3  -2   3    0.48    0.03
  -4   2  -3    0.05    0.01
  -4   2  -3    0.04    0.01
   4  -2   3    0.04    0.01
   4  -2   3    0.04    0.01
  -5   2  -3   10.52    0.24
  -5   2  -3   11.21    0.26
   5  -2   3   10.59    0.27
   5  -2   3   11.10    0.26
  -6   2  -3   13.97    0.34
  -6   2  -3   14.25    0.31
   6  -2   3   14.51    0.34
   6  -2   3   13.84    0.35
  -7   2  -3    0.20    0.04
  -7   2  -3    0.20    0.03
   7  -2   3    0.16    0.03
  -8   2  -3    1.20    0.07
  -8   2  -3    1.32    0.06
   8  -2   3    1.22    0.07
   8   1  -3    0.03    0.02
  -8  -1   3    0.02    0.02
   7   1  -3    0.93    0.05
  -7  -1   3    0.94    0.06
   6   1  -3    2.23    0.07
   6   1  -3    2.24    0.08
  -6  -1   3    2.14    0.08
   5   1  -3    2.17    0.06
   5   1  -3    2.36    0.08
  -5  -1   3    2.34    0.06
  -5  -1   3    2.21    0.07
   4   1  -3    0.01    0.01
   4   1  -3   -0.02    0.01
   4   1  -3    0.01    0.01
  -4  -1   3    0.02    0.01
  -4  -1   3    0.00    0.01
   3   1  -3    2.15    0.05
   3   1  -3    2.03    0.05
   3   1  -3    2.02    0.06
   3   1  -3    2.04    0.06
   3   1  -3    2.07    0.05
  -3  -1   3    2.13    0.06
  -3  -1   3    2.17    0.06
   2   1  -3    0.55    0.02
   2   1  -3    0.59    0.03
   2   1  -3    0.55    0.03
   2   1  -3    0.52    0.02
  -2  -1   3    0.56    0.02
  -2  -1   3    0.55    0.02
   1   1  -3    6.52    0.15
   1   1  -3    6.50    0.14
   1   1  -3    6.46    0.14
   1   1  -3    6.10    0.15
  -1  -1   3    6.47    0.14
  -1  -1   3    6.41    0.14
  -1  -1   3    6.63    0.15
  -1  -1   3    6.45    0.15
   0   1  -3    0.05    0.01
   0   1  -3    0.05    0.01
   0   1  -3    0.07    0.01
   0  -1   3    0.07    0.01
   0  -1   3    0.05    0.01
   0  -1   3    0.05    0.01
  -1   1  -3   20.25    0.46
  -1   1  -3   20.55    0.43
   1  -1   3   20.68    0.45
   1  -1   3   19.87    0.44
   1  -1   3   19.96    0.45
  -2   1  -3   52.94    1.18
  -2   1  -3   54.18    1.11
   2  -1   3   53.23    1.21
   2  -1   3   53.95    1.22
  -3   1  -3    2.02    0.06
  -3   1  -3    2.02    0.06
   3  -1   3    2.15    0.07
   3  -1   3    2.10    0.07
  -4   1  -3    0.01    0.01
  -4   1  -3    0.00    0.01
   4  -1   3    0.01    0.01
   4  -1   3   -0.01    0.01
  -5   1  -3   11.84    0.27
  -5   1  -3   11.45    0.25
   5  -1   3   11.51    0.27
   5  -1   3   10.86    0.28
  -6   1  -3    0.01    0.02
  -6   1  -3   -0.01    0.02
   6  -1   3   -0.02    0.02
   6  -1   3    0.02    0.02
  -7   1  -3    1.79    0.08
  -7   1  -3    1.88    0.07
   7  -1   3    1.76    0.08
   7  -1   3    1.79    0.07
  -8   1  -3    0.19    0.04
  -8   1  -3    0.24    0.03
   8  -1   3    0.24    0.04
   8   0  -3    0.46    0.04
  -8   0   3    0.48    0.05
   7   0  -3    2.16    0.08
  -7   0   3    2.03    0.08
   6   0  -3    0.09    0.02
   6   0  -3    0.07    0.02
  -6   0   3    0.08    0.02
   5   0  -3    0.82    0.03
   5   0  -3    0.85    0.04
  -5   0   3    0.82    0.03
  -5   0   3    0.87    0.04
   4   0  -3    5.73    0.14
   4   0  -3    5.77    0.15
   4   0  -3    5.73    0.14
  -4   0   3    5.76    0.14
  -4   0   3    5.64    0.14
  -4   0   3    5.61    0.13
   3   0  -3   15.39    0.34
   3   0  -3   15.22    0.35
   3   0  -3   14.89    0.33
  -3   0   3   15.19    0.34
  -3   0   3   15.63    0.34
  -3   0   3   15.14    0.33
   2   0  -3   11.41    0.26
   2   0  -3   12.05    0.25
   2   0  -3   11.77    0.26
   2   0  -3   11.22    0.25
   2   0  -3   11.61    0.27
  -2   0   3   11.51    0.26
  -2   0   3   11.59    0.25
  -2   0   3   11.55    0.25
   1   0  -3    0.77    0.02
   1   0  -3    0.74    0.03
   1   0  -3    0.76    0.02
  -1   0   3    0.78    0.02
  -1   0   3    0.78    0.03
   0   0  -3   59.42    1.31
   0   0  -3   58.22    1.24
   0   0   3   57.77    1.27
   0   0   3   59.15    1.23
   0   0   3   58.42    1.29
   0   0   3   57.89    1.32
  -1   0  -3    6.30    0.14
  -1   0  -3    6.37    0.13
   1   0   3    6.29    0.14
   1   0   3    6.33    0.14
   1   0   3    6.12    0.15
   1   0   3    6.35    0.15
  -2   0  -3    3.82    0.10
  -2   0  -3    3.93    0.08
  -2   0  -3    3.82    0.10
  -2   0  -3    3.17    0.09
  -2   0  -3    3.82    0.09
   2   0   3    3.60    0.09
   2   0   3    3.89    0.10
   2   0   3    3.98    0.10
   2   0   3    3.82    0.09
  -3   0  -3   12.80    0.27
  -3   0  -3   12.96    0.29
   3   0   3   12.97    0.30
   3   0   3   12.83    0.30
  -4   0  -3    0.89    0.04
  -4   0  -3    0.92    0.03
   4   0   3    0.84    0.04
   4   0   3    0.94    0.04
  -5   0  -3    4.92    0.13
  -5   0  -3    4.74    0.11
   5   0   3    4.80    0.13
   5   0   3    4.72    0.13
  -6   0  -3    3.15    0.09
  -6   0  -3    3.15    0.11
   6   0   3    3.24    0.08
   6   0   3    3.40    0.10
   6   0   3    3.32    0.11
  -7   0  -3    0.01    0.02
  -7   0  -3    0.01    0.01
   7   0   3    0.03    0.02
   7   0   3    0.03    0.02
  -8   0  -3    0.12    0.02
  -8   0  -3    0.14    0.03
   8   0   3    0.15    0.03
  -9   0  -3    0.14    0.04
  -9   0  -3    0.17    0.03
   9   0   3    0.17    0.03
   8  -1  -3    0.30    0.03
  -8   1   3    0.35    0.04
   7  -1  -3    1.27    0.06
  -7   1   3    1.09    0.06
   6  -1  -3    0.12    0.02
   6  -1  -3    0.07    0.02
  -6   1   3    0.13    0.02
   5  -1  -3    0.10    0.02
   5  -1  -3    0.15    0.02
  -5   1   3    0.15    0.02
   4  -1  -3    5.08    0.13
   4  -1  -3    5.00    0.12
  -4   1   3    4.97    0.13
   3  -1  -3    0.07    0.01
   3  -1  -3    0.04    0.01
  -3   1   3    0.07    0.01
  -3   1   3    0.05    0.01
  -3   1   3    0.08    0.01
   2  -1  -3    0.60    0.02
   2  -1  -3    0.60    0.03
   2  -1  -3    0.59    0.02
  -2   1   3    0.63    0.02
  -2   1   3    0.68    0.02
  -2   1   3    0.64    0.02
   1  -1  -3   39.57    0.84
   1  -1  -3   39.68    0.89
   1  -1  -3   37.99    0.86
  -1   1   3   38.68    0.84
  -1   1   3   39.77    0.87
  -1   1   3   37.93    1.02
   0  -1  -3  105.33    2.68
   0   1   3  102.06    2.19
   0   1   3  104.51    2.29
   0   1   3  103.08    2.27
   0   1   3   99.05    2.48
  -1  -1  -3   23.44    0.58
   1   1   3   27.45    0.57
   1   1   3   27.43    0.57
   1   1   3   26.75    0.58
   1   1   3   23.41    0.57
   1   1   3   26.66    0.52
  -2  -1  -3    1.56    0.03
  -2  -1  -3    1.56    0.04
  -2  -1  -3    1.53    0.05
  -2  -1  -3    1.41    0.05
   2   1   3    1.51    0.04
   2   1   3    1.49    0.05
   2   1   3    1.53    0.05
   2   1   3    1.35    0.04
   2   1   3    1.59    0.04
  -3  -1  -3   10.18    0.24
  -3  -1  -3   10.60    0.22
  -3  -1  -3   10.70    0.24
   3   1   3   10.45    0.25
   3   1   3   10.39    0.25
  -4  -1  -3   11.30    0.26
  -4  -1  -3   11.28    0.26
  -4  -1  -3   11.04    0.24
   4   1   3   11.31    0.27
   4   1   3   11.25    0.27
   4   1   3   10.90    0.25
  -5  -1  -3    0.00    0.01
  -5  -1  -3    0.01    0.01
   5   1   3   -0.01    0.01
   5   1   3    0.01    0.01
   5   1   3   -0.01    0.00
  -6  -1  -3    2.93    0.10
   6   1   3    2.93    0.08
   6   1   3    3.10    0.10
   6   1   3    3.10    0.10
  -7  -1  -3    1.82    0.08
   7   1   3    1.94    0.07
   7   1   3    1.94    0.08
  -8  -1  -3    0.08    0.03
   8   1   3    0.14    0.03
  -9  -1  -3    0.59    0.04
  -9  -1  -3    0.53    0.06
   9   1   3    0.55    0.05
   8  -2  -3    0.65    0.05
  -8   2   3    0.49    0.05
   7  -2  -3    0.40    0.03
   7  -2  -3    0.41    0.04
  -7   2   3    0.41    0.04
   6  -2  -3    0.66    0.04
   6  -2  -3    0.62    0.04
  -6   2   3    0.60    0.04
   5  -2  -3    1.16    0.05
   5  -2  -3    1.21    0.05
  -5   2   3    1.13    0.05
   4  -2  -3    4.52    0.12
   4  -2  -3    4.57    0.12
  -4   2   3    4.54    0.12
   3  -2  -3    4.15    0.10
   3  -2  -3    3.91    0.11
  -3   2   3    3.99    0.10
  -3   2   3    4.03    0.10
   2  -2  -3    1.64    0.05
   2  -2  -3    1.57    0.05
  -2   2   3    1.67    0.05
  -2   2   3    1.55    0.04
  -2   2   3    1.67    0.04
  -2   2   3    1.61    0.05
   1  -2  -3   12.03    0.27
   1  -2  -3   12.01    0.27
  -1   2   3   11.95    0.27
  -1   2   3   12.03    0.27
  -1   2   3   12.13    0.27
   0  -2  -3 1000.00   20.44
   0  -2  -3  854.40   20.09
   0  -2  -3  951.96   20.42
   0   2   3  882.54   20.06
   0   2   3  804.67   20.09
   0   2   3  979.79   20.34
  -1  -2  -3   44.10    1.00
  -1  -2  -3   45.73    1.02
   1   2   3   44.74    1.00
   1   2   3   44.68    1.01
   1   2   3   45.04    0.96
   1   2   3   44.74    1.00
  -2  -2  -3   33.93    0.85
  -2  -2  -3   40.34    0.88
   2   2   3   40.23    0.80
   2   2   3   39.84    0.87
   2   2   3   39.47    0.86
   2   2   3   40.06    0.85
  -3  -2  -3   16.83    0.37
  -3  -2  -3   16.62    0.34
  -3  -2  -3   17.02    0.43
  -3  -2  -3   17.05    0.38
   3   2   3   16.57    0.37
   3   2   3   16.91    0.38
   3   2   3   16.52    0.34
  -4  -2  -3    3.17    0.09
  -4  -2  -3    3.13    0.09
   4   2   3    3.22    0.08
   4   2   3    3.07    0.07
   4   2   3    3.14    0.09
  -5  -2  -3    2.64    0.08
  -5  -2  -3    2.59    0.09
   5   2   3    2.57    0.06
   5   2   3    2.60    0.09
   5   2   3    2.61    0.07
  -6  -2  -3    0.77    0.04
  -6  -2  -3    0.70    0.05
   6   2   3    0.83    0.04
   6   2   3    0.80    0.03
  -7  -2  -3    0.12    0.03
  -7  -2  -3    0.15    0.02
   7   2   3    0.13    0.02
   7   2   3    0.11    0.02
  -8  -2  -3    0.00    0.02
   8   2   3    0.01    0.02
   8   2   3    0.01    0.02
  -9  -2  -3    0.09    0.03
   9   2   3    0.19    0.03
   7  -3  -3    0.31    0.03
   7  -3  -3    0.38    0.04
  -7   3   3    0.35    0.04
   6  -3  -3    0.08    0.02
   6  -3  -3    0.06    0.02
  -6   3   3    0.10    0.02
   5  -3  -3    1.55    0.06
   5  -3  -3    1.59    0.06
  -5   3   3    1.48    0.06
   4  -3  -3    0.01    0.01
   4  -3  -3    0.00    0.01
  -4   3   3   -0.01    0.01
   3  -3  -3    1.91    0.06
   3  -3  -3    1.85    0.06
  -3   3   3    1.91    0.06
   2  -3  -3    0.35    0.02
   2  -3  -3    0.34    0.02
  -2   3   3    0.33    0.02
  -2   3   3    0.32    0.01
  -2   3   3    0.33    0.01
   1  -3  -3    1.42    0.04
   1  -3  -3    1.41    0.04
   1  -3  -3    1.38    0.04
  -1   3   3    1.48    0.04
  -1   3   3    1.36    0.04
   0  -3  -3   18.45    0.41
   0  -3  -3   18.48    0.41
   0  -3  -3   18.33    0.40
   0   3   3   18.34    0.40
   0   3   3   18.16    0.40
   0   3   3   18.40    0.40
  -1  -3  -3    0.24    0.02
  -1  -3  -3    0.20    0.02
  -1  -3  -3    0.22    0.01
   1   3   3    0.22    0.01
   1   3   3    0.23    0.01
  -2  -3  -3    0.03    0.01
  -2  -3  -3    0.05    0.01
   2   3   3    0.06    0.01
  -3  -3  -3    0.65    0.02
  -3  -3  -3    0.68    0.02
  -3  -3  -3    0.64    0.03
  -3  -3  -3    0.67    0.04
   3   3   3    0.63    0.02
   3   3   3    0.64    0.02
   3   3   3    0.64    0.03
  -4  -3  -3    0.01    0.01
  -4  -3  -3    0.00    0.01
  -4  -3  -3    0.02    0.01
   4   3   3    0.01    0.01
   4   3   3    0.00    0.01
   4   3   3   -0.01    0.00
  -5  -3  -3    0.24    0.02
  -5  -3  -3    0.23    0.03
   5   3   3    0.21    0.01
   5   3   3    0.25    0.02
   5   3   3    0.21    0.02
  -6  -3  -3    1.29    0.05
  -6  -3  -3    1.31    0.06
   6   3   3    1.13    0.04
   6   3   3    1.30    0.06
   6   3   3    1.28    0.04
  -7  -3  -3    8.07    0.20
  -7  -3  -3    7.77    0.22
   7   3   3    7.50    0.21
  -8  -3  -3    0.56    0.04
  -8  -3  -3    0.47    0.05
   8   3   3    0.40    0.04
   8   3   3    0.51    0.04
  -9  -3  -3   -0.01    0.02
   9   3   3    0.01    0.02
   7  -4  -3    0.03    0.02
   7  -4  -3    0.07    0.02
  -7   4   3    0.03    0.02
   6  -4  -3    0.14    0.02
   6  -4  -3    0.14    0.02
  -6   4   3    0.15    0.03
   5  -4  -3    0.40    0.03
   5  -4  -3    0.34    0.03
  -5   4   3    0.33    0.03
   4  -4  -3    1.40    0.05
   4  -4  -3    1.33    0.05
  -4   4   3    1.36    0.05
   3  -4  -3    0.09    0.01
   3  -4  -3    0.12    0.02
  -3   4   3    0.13    0.02
   2  -4  -3    6.15    0.15
   2  -4  -3    5.93    0.15
   2  -4  -3    6.00    0.14
   2  -4  -3    5.98    0.14
  -2   4   3    5.99    0.14
  -2   4   3    6.08    0.15
   1  -4  -3    0.02    0.01
   1  -4  -3    0.02    0.01
   1  -4  -3    0.03    0.01
  -1   4   3    0.02    0.01
   0  -4  -3    4.29    0.10
   0  -4  -3    4.08    0.10
   0  -4  -3    4.14    0.10
   0   4   3    4.15    0.09
   0   4   3    4.02    0.10
  -1  -4  -3    7.54    0.18
  -1  -4  -3    7.49    0.18
  -1  -4  -3    7.38    0.18
  -2  -4  -3    1.14    0.04
  -2  -4  -3    1.16    0.05
  -2  -4  -3    1.11    0.04
   2   4   3    1.06    0.03
  -3  -4  -3    0.73    0.03
  -3  -4  -3    0.65    0.04
  -3  -4  -3    0.73    0.02
   3   4   3    0.73    0.02
   3   4   3    0.71    0.03
  -4  -4  -3    7.43    0.19
  -4  -4  -3    7.42    0.16
  -4  -4  -3    7.45    0.18
   4   4   3    7.51    0.17
   4   4   3    7.68    0.19
   4   4   3    7.39    0.16
  -5  -4  -3    1.56    0.07
  -5  -4  -3    1.58    0.05
  -5  -4  -3    1.62    0.06
   5   4   3    1.61    0.05
   5   4   3    1.71    0.07
   5   4   3    1.62    0.05
  -6  -4  -3   10.51    0.26
  -6  -4  -3   10.52    0.27
   6   4   3   10.57    0.24
   6   4   3   10.72    0.23
   6   4   3   10.15    0.26
  -7  -4  -3   -0.01    0.02
  -7  -4  -3   -0.04    0.02
   7   4   3   -0.02    0.01
   7   4   3    0.00    0.02
   7   4   3    0.00    0.01
  -8  -4  -3    0.02    0.02
  -8  -4  -3    0.02    0.02
   8   4   3   -0.01    0.02
  -9  -4  -3    0.75    0.06
   9   4   3    0.67    0.05
   7  -5  -3    0.25    0.03
   7  -5  -3    0.29    0.03
  -7   5   3    0.22    0.04
   6  -5  -3    1.48    0.07
   6  -5  -3    1.64    0.07
  -6   5   3    1.49    0.07
   5  -5  -3    5.19    0.15
   5  -5  -3    5.73    0.15
  -5   5   3    5.50    0.15
   4  -5  -3    0.53    0.03
   4  -5  -3    0.52    0.03
  -4   5   3    0.49    0.03
   3  -5  -3    0.18    0.01
   3  -5  -3    0.20    0.01
   3  -5  -3    0.18    0.02
   3  -5  -3    0.18    0.02
  -3   5   3    0.19    0.02
  -3   5   3    0.17    0.01
   2  -5  -3    1.19    0.04
   2  -5  -3    1.24    0.05
   2  -5  -3    1.20    0.04
   2  -5  -3    1.24    0.04
  -2   5   3    1.23    0.04
  -2   5   3    1.28    0.05
   1  -5  -3    0.69    0.03
   1  -5  -3    0.59    0.03
   1  -5  -3    0.71    0.03
  -1   5   3    0.66    0.03
   0  -5  -3    1.79    0.05
   0  -5  -3    1.83    0.06
   0   5   3    1.83    0.05
  -1  -5  -3    0.01    0.01
  -1  -5  -3    0.00    0.01
  -1  -5  -3    0.01    0.01
   1   5   3    0.00    0.00
  -2  -5  -3   15.66    0.35
  -2  -5  -3   15.03    0.35
  -2  -5  -3   15.19    0.35
   2   5   3   15.08    0.31
  -3  -5  -3    4.19    0.09
  -3  -5  -3    4.21    0.12
  -3  -5  -3    4.28    0.11
  -3  -5  -3    4.13    0.11
   3   5   3    4.09    0.10
  -4  -5  -3    3.59    0.10
  -4  -5  -3    3.67    0.08
  -4  -5  -3    3.54    0.11
   4   5   3    3.52    0.09
   4   5   3    3.66    0.11
   4   5   3    3.68    0.10
  -5  -5  -3    8.62    0.23
  -5  -5  -3    8.77    0.22
  -5  -5  -3    8.91    0.19
   5   5   3    9.01    0.21
   5   5   3    8.85    0.20
   5   5   3    8.68    0.23
  -6  -5  -3    3.62    0.11
  -6  -5  -3    3.58    0.12
   6   5   3    3.65    0.12
   6   5   3    3.58    0.10
   6   5   3    3.59    0.10
  -7  -5  -3    0.29    0.04
  -7  -5  -3    0.31    0.03
   7   5   3    0.26    0.02
   7   5   3    0.22    0.03
   7   5   3    0.28    0.03
  -8  -5  -3    0.00    0.02
  -8  -5  -3   -0.02    0.02
   8   5   3    0.01    0.02
   8   5   3   -0.01    0.01
  -9  -5  -3    0.01    0.03
   9   5   3    0.01    0.02
   6  -6  -3    2.68    0.09
   6  -6  -3    2.40    0.09
  -6   6   3    2.51    0.10
   5  -6  -3    2.40    0.09
   5  -6  -3    2.54    0.09
   5  -6  -3    2.56    0.08
  -5   6   3    2.51    0.09
   4  -6  -3    0.06    0.01
   4  -6  -3    0.05    0.02
   4  -6  -3    0.03    0.02
  -4   6   3    0.04    0.02
   3  -6  -3    0.24    0.02
   3  -6  -3    0.28    0.03
   3  -6  -3    0.22    0.02
   3  -6  -3    0.27    0.02
  -3   6   3    0.20    0.03
   2  -6  -3    0.44    0.03
   2  -6  -3    0.45    0.02
   2  -6  -3    0.45    0.02
  -2   6   3    0.46    0.03
   1  -6  -3    1.54    0.06
   1  -6  -3    1.55    0.05
   0  -6  -3    0.41    0.02
   0  -6  -3    0.38    0.03
   0   6   3    0.36    0.02
   0   6   3    0.34    0.02
  -1  -6  -3   44.89    1.00
  -1  -6  -3   44.67    0.99
  -1  -6  -3   45.68    0.98
   1   6   3   44.44    0.91
   1   6   3   46.63    0.97
  -2  -6  -3    4.22    0.13
  -2  -6  -3    4.43    0.12
  -2  -6  -3    4.41    0.12
   2   6   3    4.29    0.10
  -3  -6  -3    0.00    0.01
  -3  -6  -3    0.02    0.02
  -3  -6  -3   -0.01    0.01
   3   6   3    0.00    0.01
  -4  -6  -3    0.00    0.01
  -4  -6  -3    0.01    0.01
  -4  -6  -3    0.01    0.01
   4   6   3    0.02    0.01
   4   6   3    0.01    0.01
  -5  -6  -3    8.68    0.19
  -5  -6  -3    8.20    0.23
  -5  -6  -3    8.45    0.22
   5   6   3    8.85    0.21
   5   6   3    8.25    0.23
   5   6   3    8.71    0.19
  -6  -6  -3    5.01    0.14
  -6  -6  -3    5.10    0.16
   6   6   3    5.07    0.15
   6   6   3    5.37    0.13
   6   6   3    5.11    0.13
  -7  -6  -3    0.19    0.04
  -7  -6  -3    0.18    0.03
   7   6   3    0.19    0.02
   7   6   3    0.17    0.03
   7   6   3    0.16    0.02
  -8  -6  -3    3.52    0.14
  -8  -6  -3    3.64    0.12
   8   6   3    3.59    0.10
   8   6   3    3.68    0.13
   6  -7  -3    0.00    0.02
  -6   7   3   -0.01    0.02
   5  -7  -3    0.03    0.02
  -5   7   3    0.01    0.02
   4  -7  -3    1.06    0.04
   4  -7  -3    1.13    0.06
  -4   7   3    1.03    0.06
   3  -7  -3    0.10    0.02
   3  -7  -3    0.09    0.01
   3  -7  -3    0.10    0.01
  -3   7   3    0.06    0.02
   2  -7  -3    1.60    0.05
   2  -7  -3    1.58    0.05
   2  -7  -3    1.73    0.06
  -2   7   3    1.47    0.06
   1  -7  -3    2.87    0.08
   1  -7  -3    2.74    0.09
  -1   7   3    2.70    0.07
   0  -7  -3    0.06    0.01
   0  -7  -3    0.07    0.02
   0   7   3    0.08    0.01
  -1  -7  -3    0.06    0.01
  -1  -7  -3    0.06    0.01
   1   7   3    0.07    0.01
  -2  -7  -3   13.35    0.31
  -2  -7  -3   12.82    0.32
  -2  -7  -3   13.27    0.31
   2   7   3   13.15    0.28
  -3  -7  -3    2.52    0.08
  -3  -7  -3    2.45    0.08
  -3  -7  -3    2.40    0.09
   3   7   3    2.42    0.07
  -4  -7  -3    0.09    0.02
  -4  -7  -3    0.02    0.02
  -4  -7  -3    0.09    0.01
   4   7   3    0.08    0.01
   4   7   3    0.08    0.02
  -5  -7  -3   18.94    0.46
  -5  -7  -3   19.31    0.45
   5   7   3   19.09    0.46
   5   7   3   19.82    0.45
   5   7   3   19.47    0.41
  -6  -7  -3    0.58    0.05
  -6  -7  -3    0.54    0.04
   6   7   3    0.56    0.03
   6   7   3    0.57    0.03
   6   7   3    0.57    0.05
  -7  -7  -3    0.32    0.04
  -7  -7  -3    0.29    0.03
   7   7   3    0.35    0.03
   7   7   3    0.36    0.04
  -8  -7  -3    1.64    0.08
  -8  -7  -3    1.70    0.09
   8   7   3    1.69    0.08
   5  -8  -3    1.60    0.07
  -5   8   3    1.50    0.07
   4  -8  -3    0.46    0.04
  -4   8   3    0.49    0.04
   3  -8  -3    0.06    0.02
   3  -8  -3    0.05    0.01
  -3   8   3    0.08    0.02
   2  -8  -3    1.49    0.05
   2  -8  -3    1.49    0.05
   2  -8  -3    1.45    0.06
  -2   8   3    1.39    0.06
   1  -8  -3    0.13    0.02
   1  -8  -3    0.15    0.02
   0  -8  -3    1.24    0.05
   0  -8  -3    1.25    0.05
  -1  -8  -3    0.75    0.04
  -1  -8  -3    0.69    0.04
  -2  -8  -3    2.31    0.09
  -2  -8  -3    2.26    0.08
  -2  -8  -3    2.37    0.08
   2   8   3    2.33    0.06
  -3  -8  -3    3.35    0.10
  -3  -8  -3    3.35    0.12
  -3  -8  -3    3.26    0.10
  -4  -8  -3    9.20    0.19
  -4  -8  -3    8.84    0.24
  -4  -8  -3    8.95    0.23
  -4  -8  -3    9.06    0.23
   4   8   3    8.74    0.23
  -5  -8  -3    0.69    0.05
  -5  -8  -3    0.63    0.04
   5   8   3    0.71    0.04
  -6  -8  -3    0.04    0.03
  -6  -8  -3    0.08    0.02
   6   8   3    0.08    0.02
   6   8   3    0.06    0.02
  -7  -8  -3    0.28    0.03
  -7  -8  -3    0.31    0.05
   7   8   3    0.33    0.04
   7   8   3    0.27    0.03
  -8  -8  -3    0.22    0.04
  -8  -8  -3    0.18    0.03
   8   8   3    0.17    0.03
   5  -9  -3    0.05    0.03
  -5   9   3    0.11    0.03
   4  -9  -3    0.14    0.03
  -4   9   3    0.07    0.03
   3  -9  -3    0.02    0.02
  -3   9   3   -0.02    0.02
   2  -9  -3   -0.01    0.02
   2  -9  -3   -0.01    0.01
  -2   9   3   -0.03    0.02
   1  -9  -3    0.08    0.02
   1  -9  -3    0.08    0.02
   0  -9  -3    1.33    0.06
   0  -9  -3    1.37    0.05
  -1  -9  -3    0.60    0.04
  -1  -9  -3    0.59    0.04
  -2  -9  -3    2.63    0.09
  -2  -9  -3    2.73    0.09
  -3  -9  -3   -0.01    0.02
  -3  -9  -3   -0.01    0.01
  -3  -9  -3    0.00    0.01
  -4  -9  -3    0.74    0.06
  -4  -9  -3    0.65    0.04
  -4  -9  -3    0.65    0.04
   4   9   3    0.75    0.05
  -5  -9  -3    0.02    0.02
  -5  -9  -3    0.02    0.02
   5   9   3    0.03    0.02
  -6  -9  -3    0.15    0.03
  -6  -9  -3    0.14    0.04
   6   9   3    0.20    0.04
   6   9   3    0.18    0.03
  -7  -9  -3    0.00    0.02
  -7  -9  -3   -0.03    0.02
   7   9   3   -0.01    0.02
   7   9   3    0.04    0.02
   4 -10  -3    0.30    0.04
  -4  10   3    0.31    0.04
   3 -10  -3    0.00    0.02
  -3  10   3    0.01    0.02
   2 -10  -3    0.12    0.03
   2 -10  -3    0.11    0.02
  -2  10   3    0.08    0.02
   1 -10  -3    3.49    0.10
   1 -10  -3    3.54    0.12
   0 -10  -3    5.23    0.16
   0 -10  -3    5.45    0.15
  -1 -10  -3    0.12    0.02
  -1 -10  -3    0.12    0.02
  -2 -10  -3    0.06    0.02
  -2 -10  -3    0.07    0.02
  -3 -10  -3    0.21    0.04
  -3 -10  -3    0.26    0.03
  -3 -10  -3    0.24    0.03
  -4 -10  -3    0.96    0.05
  -4 -10  -3    1.05    0.05
  -4 -10  -3    1.04    0.07
   4  10   3    1.04    0.06
  -5 -10  -3    0.11    0.03
  -5 -10  -3    0.18    0.04
   5  10   3    0.12    0.03
  -6 -10  -3   -0.01    0.02
  -6 -10  -3    0.00    0.02
   6  10   3    0.00    0.02
   6  10   3    0.03    0.03
   2 -11  -3    0.00    0.02
  -2  11   3   -0.02    0.02
   1 -11  -3    2.82    0.09
   1 -11  -3    3.04    0.11
   0 -11  -3    2.27    0.08
   0 -11  -3    2.08    0.09
  -1 -11  -3    0.29    0.04
  -1 -11  -3    0.34    0.04
  -2 -11  -3    1.06    0.06
  -2 -11  -3    1.27    0.06
  -3 -11  -3    0.84    0.05
   3  11   3    0.97    0.06
  -4 -11  -3   -0.03    0.02
  -4 -11  -3    0.00    0.02
  -4 -11  -3    0.01    0.02
   4  11   3    0.00    0.02
  -5 -11  -3    0.16    0.04
  -5 -11  -3    0.18    0.03
   5  11   3    0.22    0.03
   1 -12  -3    0.34    0.04
   1 -12  -3    0.26    0.03
  -1  12   3    0.30    0.04
   0 -12  -3    0.39    0.04
   0 -12  -3    0.47    0.05
  -1 -12  -3    0.63    0.05
  -1 -12  -3    0.69    0.05
  -2 -12  -3    0.04    0.02
  -2 -12  -3    0.05    0.02
  -3 -12  -3    0.13    0.03
  -3 -12  -3    0.19    0.03
   3  12   3    0.19    0.04
  -4 -12  -3    0.05    0.02
  -4 -12  -3    0.08    0.02
   4  12   3    0.06    0.03
   2  10  -4    1.41    0.08
   2  10  -4    1.35    0.06
  -2 -10   4    1.29    0.07
   1  10  -4    1.52    0.08
   1  10  -4    1.38    0.06
  -1 -10   4    1.36    0.07
  -1 -10   4    1.49    0.07
   0  10  -4    1.00    0.05
   0  10  -4    0.91    0.06
   0 -10   4    1.08    0.06
   0 -10   4    1.11    0.06
  -1  10  -4    0.16    0.03
  -1  10  -4    0.16    0.03
   1 -10   4    0.12    0.03
   1 -10   4    0.18    0.03
   4   9  -4    0.60    0.04
   4   9  -4    0.55    0.05
  -4  -9   4    0.58    0.04
   3   9  -4    0.64    0.05
   3   9  -4    0.62    0.04
  -3  -9   4    0.56    0.04
   2   9  -4    0.01    0.02
   2   9  -4    0.02    0.02
  -2  -9   4    0.03    0.02
  -2  -9   4    0.02    0.02
   1   9  -4    0.09    0.02
   1   9  -4    0.05    0.02
  -1  -9   4    0.09    0.02
  -1  -9   4    0.04    0.02
   0   9  -4    1.03    0.05
   0   9  -4    1.04    0.05
   0   9  -4    0.93    0.06
   0  -9   4    0.92    0.05
   0  -9   4    0.94    0.05
   0  -9   4    0.99    0.05
  -1   9  -4    0.58    0.05
  -1   9  -4    0.67    0.04
  -1   9  -4    0.64    0.04
   1  -9   4    0.84    0.05
   1  -9   4    0.66    0.05
  -2   9  -4    0.49    0.05
  -2   9  -4    0.60    0.04
  -2   9  -4    0.63    0.04
   2  -9   4    0.61    0.05
   2  -9   4    0.53    0.05
  -3   9  -4    0.01    0.02
  -3   9  -4    0.00    0.02
  -3   9  -4    0.03    0.02
   3  -9   4    0.00    0.02
   3  -9   4    0.02    0.02
   5   8  -4    0.07    0.03
   5   8  -4    0.07    0.02
  -5  -8   4    0.13    0.03
   4   8  -4    0.18    0.03
   4   8  -4    0.21    0.03
  -4  -8   4    0.18    0.03
   3   8  -4    0.15    0.02
   3   8  -4    0.10    0.02
  -3  -8   4    0.12    0.02
   2   8  -4    0.22    0.03
   2   8  -4    0.24    0.03
  -2  -8   4    0.20    0.03
  -2  -8   4    0.22    0.02
   1   8  -4    0.03    0.01
   1   8  -4    0.00    0.02
  -1  -8   4    0.00    0.01
  -1  -8   4    0.00    0.01
   0   8  -4    0.04    0.02
   0   8  -4    0.01    0.01
   0   8  -4    0.01    0.02
   0  -8   4    0.01    0.02
   0  -8   4    0.02    0.02
   0  -8   4   -0.01    0.01
  -1   8  -4    0.05    0.02
  -1   8  -4    0.03    0.02
  -1   8  -4    0.06    0.02
   1  -8   4    0.07    0.02
   1  -8   4    0.05    0.02
   1  -8   4    0.08    0.02
  -2   8  -4    0.26    0.03
  -2   8  -4    0.17    0.03
  -2   8  -4    0.14    0.03
   2  -8   4    0.17    0.03
   2  -8   4    0.16    0.03
   2  -8   4    0.17    0.03
  -3   8  -4    0.11    0.02
  -3   8  -4    0.10    0.02
   3  -8   4    0.09    0.02
   3  -8   4    0.12    0.03
   3  -8   4    0.11    0.02
  -4   8  -4    0.07    0.02
  -4   8  -4    0.11    0.03
   4  -8   4    0.08    0.03
   4  -8   4    0.10    0.03
   6   7  -4    1.09    0.06
   6   7  -4    0.96    0.05
  -6  -7   4    1.09    0.06
   5   7  -4    0.48    0.04
   5   7  -4    0.53    0.03
  -5  -7   4    0.52    0.04
   4   7  -4    0.92    0.04
   4   7  -4    0.95    0.05
  -4  -7   4    0.94    0.05
   3   7  -4    0.67    0.04
   3   7  -4    0.63    0.04
  -3  -7   4    0.64    0.03
  -3  -7   4    0.61    0.04
   2   7  -4    0.11    0.02
   2   7  -4    0.11    0.02
  -2  -7   4    0.08    0.02
  -2  -7   4    0.10    0.02
   1   7  -4    4.96    0.15
   1   7  -4    5.02    0.13
  -1  -7   4    5.03    0.13
  -1  -7   4    4.72    0.14
   0   7  -4    6.24    0.15
   0   7  -4    5.88    0.17
   0   7  -4    6.07    0.15
   0  -7   4    6.21    0.16
   0  -7   4    6.04    0.16
   0  -7   4    6.00    0.17
  -1   7  -4    2.14    0.07
  -1   7  -4    2.16    0.07
  -1   7  -4    2.05    0.08
   1  -7   4    2.14    0.08
   1  -7   4    2.04    0.08
   1  -7   4    2.07    0.08
  -2   7  -4    1.09    0.06
  -2   7  -4    1.08    0.05
  -2   7  -4    1.07    0.05
   2  -7   4    1.07    0.06
   2  -7   4    1.01    0.05
   2  -7   4    1.15    0.06
  -3   7  -4    0.23    0.03
  -3   7  -4    0.22    0.03
   3  -7   4    0.21    0.03
   3  -7   4    0.20    0.03
   3  -7   4    0.24    0.03
  -4   7  -4    0.22    0.03
  -4   7  -4    0.27    0.03
   4  -7   4    0.25    0.03
   4  -7   4    0.23    0.03
   4  -7   4    0.20    0.03
  -5   7  -4    2.10    0.08
  -5   7  -4    2.05    0.09
   5  -7   4    1.91    0.09
   5  -7   4    2.14    0.08
   6   6  -4    0.39    0.03
   6   6  -4    0.39    0.04
  -6  -6   4    0.41    0.04
   5   6  -4    0.34    0.04
   5   6  -4    0.40    0.03
  -5  -6   4    0.36    0.03
   4   6  -4    1.67    0.07
   4   6  -4    1.61    0.06
  -4  -6   4    1.63    0.07
   3   6  -4   11.16    0.28
   3   6  -4   11.57    0.25
  -3  -6   4   11.25    0.26
  -3  -6   4   10.84    0.28
   2   6  -4    2.34    0.08
   2   6  -4    2.29    0.07
   2   6  -4    2.25    0.08
  -2  -6   4    2.24    0.07
  -2  -6   4    2.14    0.08
   1   6  -4    8.81    0.22
   1   6  -4    8.77    0.23
   1   6  -4    8.76    0.20
  -1  -6   4    8.51    0.22
  -1  -6   4    8.90    0.21
  -1  -6   4    8.60    0.22
   0   6  -4    0.84    0.04
   0   6  -4    0.89    0.04
   0   6  -4    0.86    0.05
   0  -6   4    0.76    0.05
   0  -6   4    0.83    0.04
   0  -6   4    0.88    0.04
  -1   6  -4    2.00    0.06
  -1   6  -4    1.91    0.06
  -1   6  -4    1.95    0.08
   1  -6   4    1.87    0.07
   1  -6   4    1.91    0.08
   1  -6   4    1.91    0.07
  -2   6  -4    0.51    0.03
  -2   6  -4    0.47    0.04
  -2   6  -4    0.45    0.03
   2  -6   4    0.50    0.04
   2  -6   4    0.56    0.04
   2  -6   4    0.48    0.04
  -3   6  -4    0.80    0.04
  -3   6  -4    0.84    0.04
   3  -6   4    0.88    0.05
   3  -6   4    0.84    0.05
   3  -6   4    0.93    0.05
  -4   6  -4    0.00    0.02
  -4   6  -4    0.03    0.02
   4  -6   4    0.02    0.02
   4  -6   4    0.00    0.02
   4  -6   4    0.00    0.02
  -5   6  -4    0.16    0.03
  -5   6  -4    0.21    0.03
   5  -6   4    0.23    0.03
   5  -6   4    0.18    0.03
   5  -6   4    0.22    0.03
  -6   6  -4    0.01    0.02
  -6   6  -4    0.03    0.02
   6  -6   4    0.00    0.02
   7   5  -4    0.05    0.02
   7   5  -4    0.04    0.02
   6   5  -4    1.95    0.07
   6   5  -4    1.98    0.08
  -6  -5   4    2.04    0.07
   5   5  -4    0.01    0.01
   5   5  -4    0.02    0.02
  -5  -5   4    0.02    0.02
   4   5  -4    0.47    0.04
   4   5  -4    0.43    0.03
  -4  -5   4    0.45    0.03
  -4  -5   4    0.46    0.03
   3   5  -4    0.23    0.03
   3   5  -4    0.28    0.02
   3   5  -4    0.28    0.03
  -3  -5   4    0.28    0.03
  -3  -5   4    0.31    0.03
  -3  -5   4    0.24    0.02
   2   5  -4   13.81    0.33
   2   5  -4   13.63    0.29
   2   5  -4   13.49    0.32
  -2  -5   4   13.62    0.31
  -2  -5   4   13.65    0.33
   1   5  -4    3.63    0.10
   1   5  -4    3.50    0.11
   1   5  -4    3.46    0.09
  -1  -5   4    3.52    0.11
  -1  -5   4    3.55    0.09
  -1  -5   4    3.45    0.10
   0   5  -4    1.07    0.04
   0   5  -4    1.05    0.05
   0   5  -4    1.04    0.04
   0  -5   4    1.08    0.04
   0  -5   4    1.07    0.05
   0  -5   4    1.05    0.05
  -1   5  -4    0.07    0.01
  -1   5  -4    0.07    0.02
  -1   5  -4    0.04    0.01
   1  -5   4    0.06    0.02
   1  -5   4    0.03    0.02
   1  -5   4    0.07    0.02
  -2   5  -4   -0.01    0.01
  -2   5  -4    0.00    0.01
  -2   5  -4    0.00    0.01
   2  -5   4   -0.01    0.01
   2  -5   4   -0.02    0.01
   2  -5   4   -0.01    0.01
  -3   5  -4    3.34    0.09
  -3   5  -4    3.31    0.10
   3  -5   4    3.23    0.10
   3  -5   4    3.57    0.11
   3  -5   4    3.47    0.11
  -4   5  -4    0.64    0.04
  -4   5  -4    0.64    0.04
   4  -5   4    0.66    0.05
   4  -5   4    0.73    0.04
   4  -5   4    0.70    0.04
  -5   5  -4    0.40    0.04
  -5   5  -4    0.34    0.03
   5  -5   4    0.43    0.04
   5  -5   4    0.39    0.04
  -6   5  -4    0.69    0.05
  -6   5  -4    0.64    0.04
   6  -5   4    0.72    0.05
   6  -5   4    0.72    0.05
  -7   5  -4    0.20    0.03
  -7   5  -4    0.28    0.04
   7  -5   4    0.20    0.04
   7   4  -4    0.06    0.02
   6   4  -4   -0.02    0.02
   6   4  -4    0.02    0.01
  -6  -4   4    0.02    0.01
   5   4  -4    0.26    0.03
   5   4  -4    0.28    0.02
  -5  -4   4    0.31    0.03
  -5  -4   4    0.33    0.03
   4   4  -4    0.16    0.01
   4   4  -4    0.13    0.02
   4   4  -4    0.14    0.02
  -4  -4   4    0.12    0.02
  -4  -4   4    0.17    0.02
   3   4  -4    3.91    0.10
   3   4  -4    3.89    0.09
   3   4  -4    4.01    0.11
   3   4  -4    3.87    0.11
  -3  -4   4    3.91    0.11
  -3  -4   4    3.81    0.10
   2   4  -4    2.43    0.07
   2   4  -4    2.44    0.07
   2   4  -4    2.45    0.06
   2   4  -4    2.32    0.08
   2   4  -4    2.44    0.06
  -2  -4   4    2.40    0.08
  -2  -4   4    2.35    0.06
   1   4  -4    1.01    0.04
   1   4  -4    1.06    0.04
   1   4  -4    1.00    0.04
   1   4  -4    1.01    0.04
  -1  -4   4    0.95    0.04
  -1  -4   4    1.05    0.05
  -1  -4   4    1.00    0.04
   0   4  -4    5.92    0.14
   0   4  -4    5.78    0.15
   0   4  -4    6.01    0.14
   0   4  -4    5.92    0.14
   0  -4   4    5.98    0.16
   0  -4   4    5.96    0.15
   0  -4   4    5.79    0.15
  -1   4  -4   12.08    0.26
  -1   4  -4   12.14    0.27
  -1   4  -4   12.10    0.29
   1  -4   4   12.10    0.28
   1  -4   4   11.93    0.29
   1  -4   4   12.51    0.28
  -2   4  -4    0.34    0.03
  -2   4  -4    0.30    0.02
  -2   4  -4    0.29    0.02
   2  -4   4    0.31    0.02
   2  -4   4    0.32    0.03
   2  -4   4    0.34    0.03
  -3   4  -4    1.24    0.05
  -3   4  -4    1.34    0.05
   3  -4   4    1.27    0.05
   3  -4   4    1.30    0.06
  -4   4  -4    6.56    0.17
  -4   4  -4    6.35    0.15
   4  -4   4    6.18    0.17
   4  -4   4    6.51    0.17
  -5   4  -4    2.02    0.08
  -5   4  -4    1.96    0.07
   5  -4   4    2.05    0.08
   5  -4   4    2.17    0.08
  -6   4  -4    0.18    0.03
  -6   4  -4    0.18    0.02
   6  -4   4    0.20    0.03
   6  -4   4    0.21    0.03
  -7   4  -4    0.25    0.03
  -7   4  -4    0.28    0.04
   7  -4   4    0.34    0.04
   7   3  -4    0.02    0.02
   6   3  -4    5.00    0.15
  -6  -3   4    5.23    0.15
  -6  -3   4    5.19    0.14
   5   3  -4    0.10    0.02
   5   3  -4    0.09    0.02
  -5  -3   4    0.10    0.02
  -5  -3   4    0.09    0.02
   4   3  -4    0.13    0.02
   4   3  -4    0.12    0.02
   4   3  -4    0.14    0.01
   4   3  -4    0.15    0.02
  -4  -3   4    0.14    0.02
  -4  -3   4    0.13    0.02
   3   3  -4    0.14    0.02
   3   3  -4    0.16    0.02
   3   3  -4    0.18    0.01
   3   3  -4    0.17    0.01
   3   3  -4    0.15    0.02
  -3  -3   4    0.16    0.02
  -3  -3   4    0.15    0.02
   2   3  -4    1.60    0.05
   2   3  -4    1.64    0.06
   2   3  -4    1.55    0.05
   2   3  -4    1.56    0.04
   2   3  -4    1.59    0.04
  -2  -3   4    1.53    0.05
  -2  -3   4    1.48    0.04
  -2  -3   4    1.51    0.04
   1   3  -4    2.13    0.05
   1   3  -4    2.10    0.06
   1   3  -4    2.14    0.06
   1   3  -4    2.17    0.06
   1   3  -4    2.08    0.07
  -1  -3   4    2.17    0.06
  -1  -3   4    2.07    0.06
  -1  -3   4    2.12    0.07
   0   3  -4   14.56    0.32
   0   3  -4   14.53    0.31
   0   3  -4   14.44    0.34
   0   3  -4   14.56    0.33
   0   3  -4   14.40    0.30
   0  -3   4   14.72    0.33
   0  -3   4   14.57    0.34
   0  -3   4   14.17    0.33
  -1   3  -4    0.15    0.02
  -1   3  -4    0.17    0.01
  -1   3  -4    0.14    0.01
   1  -3   4    0.16    0.02
   1  -3   4    0.14    0.02
   1  -3   4    0.18    0.02
  -2   3  -4    6.86    0.16
  -2   3  -4    6.92    0.16
  -2   3  -4    6.98    0.17
   2  -3   4    6.85    0.17
   2  -3   4    6.98    0.18
   2  -3   4    7.29    0.18
  -3   3  -4    8.84    0.19
  -3   3  -4    8.99    0.21
   3  -3   4    8.60    0.22
   3  -3   4    8.63    0.22
  -4   3  -4   10.76    0.24
  -4   3  -4   10.62    0.26
   4  -3   4   10.90    0.27
   4  -3   4   11.07    0.27
  -5   3  -4    1.78    0.06
  -5   3  -4    1.82    0.07
   5  -3   4    1.80    0.07
   5  -3   4    1.74    0.07
  -6   3  -4    0.30    0.03
  -6   3  -4    0.26    0.03
   6  -3   4    0.27    0.03
   6  -3   4    0.30    0.03
  -7   3  -4    0.00    0.02
  -7   3  -4    0.03    0.02
   7  -3   4    0.01    0.02
  -8   3  -4    0.08    0.02
  -8   3  -4    0.08    0.03
   8  -3   4    0.05    0.02
   7   2  -4   -0.02    0.02
  -7  -2   4    0.01    0.02
   6   2  -4    2.28    0.08
  -6  -2   4    2.50    0.09
   5   2  -4    0.01    0.02
  -5  -2   4    0.05    0.01
  -5  -2   4    0.08    0.02
   4   2  -4    0.84    0.02
   4   2  -4    0.83    0.04
   4   2  -4    0.85    0.03
  -4  -2   4    0.82    0.03
  -4  -2   4    0.83    0.04
   3   2  -4    0.65    0.03
   3   2  -4    0.61    0.02
   3   2  -4    0.67    0.03
  -3  -2   4    0.67    0.03
  -3  -2   4    0.70    0.03
   2   2  -4   24.99    0.56
   2   2  -4   25.88    0.54
   2   2  -4   26.93    0.59
  -2  -2   4   26.48    0.58
  -2  -2   4   25.91    0.55
   1   2  -4    5.86    0.15
   1   2  -4    5.95    0.13
   1   2  -4    6.05    0.13
  -1  -2   4    5.94    0.14
  -1  -2   4    5.80    0.13
  -1  -2   4    6.02    0.15
   0   2  -4    9.74    0.22
   0   2  -4    9.56    0.23
   0   2  -4    9.42    0.21
   0   2  -4    9.71    0.20
   0  -2   4    9.75    0.23
   0  -2   4    9.72    0.22
   0  -2   4    9.66    0.22
  -1   2  -4    6.87    0.15
  -1   2  -4    6.82    0.17
  -1   2  -4    6.88    0.15
   1  -2   4    6.73    0.16
   1  -2   4    6.93    0.17
   1  -2   4    7.03    0.16
  -2   2  -4   35.69    0.75
  -2   2  -4   34.92    0.80
  -2   2  -4   36.06    0.79
   2  -2   4   37.25    0.80
   2  -2   4   37.65    0.81
  -3   2  -4    5.98    0.13
  -3   2  -4    5.76    0.14
   3  -2   4    5.90    0.15
   3  -2   4    5.69    0.15
  -4   2  -4   -0.01    0.01
  -4   2  -4    0.00    0.01
   4  -2   4    0.00    0.01
   4  -2   4    0.00    0.01
  -5   2  -4   12.35    0.27
  -5   2  -4   12.30    0.29
   5  -2   4   12.22    0.30
   5  -2   4   12.56    0.30
  -6   2  -4    1.15    0.06
  -6   2  -4    1.21    0.05
   6  -2   4    1.11    0.06
   6  -2   4    1.25    0.06
  -7   2  -4    0.04    0.02
  -7   2  -4    0.04    0.02
   7  -2   4    0.06    0.02
   7  -2   4    0.06    0.02
  -8   2  -4    0.03    0.02
  -8   2  -4    0.03    0.03
   8  -2   4    0.06    0.03
   7   1  -4    0.65    0.05
  -7  -1   4    0.66    0.05
   6   1  -4    1.33    0.06
  -6  -1   4    1.34    0.06
   5   1  -4    3.25    0.10
   5   1  -4    3.08    0.08
  -5  -1   4    3.29    0.09
  -5  -1   4    3.35    0.10
   4   1  -4    0.01    0.01
   4   1  -4    0.03    0.01
   4   1  -4    0.01    0.01
  -4  -1   4    0.00    0.01
  -4  -1   4    0.03    0.01
   3   1  -4    0.14    0.01
   3   1  -4    0.12    0.02
   3   1  -4    0.15    0.01
  -3  -1   4    0.15    0.01
  -3  -1   4    0.14    0.01
   2   1  -4    7.92    0.17
   2   1  -4    7.75    0.19
   2   1  -4    7.96    0.18
   2   1  -4    7.61    0.17
  -2  -1   4    7.81    0.17
  -2  -1   4    7.94    0.19
   1   1  -4   14.70    0.32
   1   1  -4   15.14    0.30
   1   1  -4   14.83    0.34
  -1  -1   4   14.87    0.34
  -1  -1   4   14.77    0.33
   0   1  -4   15.81    0.35
   0   1  -4   15.79    0.32
   0   1  -4   15.79    0.35
   0  -1   4   15.42    0.36
   0  -1   4   15.50    0.34
   0  -1   4   16.03    0.35
  -1   1  -4    9.27    0.19
  -1   1  -4    9.31    0.21
  -1   1  -4    9.18    0.20
  -1   1  -4    9.20    0.21
   1  -1   4    9.08    0.22
   1  -1   4    9.35    0.21
   1  -1   4    9.12    0.20
  -2   1  -4   15.78    0.36
  -2   1  -4   15.94    0.35
  -2   1  -4   16.18    0.33
   2  -1   4   16.08    0.37
   2  -1   4   15.99    0.36
  -3   1  -4    0.15    0.01
  -3   1  -4    0.16    0.02
   3  -1   4    0.13    0.02
   3  -1   4    0.15    0.02
  -4   1  -4    0.79    0.03
  -4   1  -4    0.80    0.04
   4  -1   4    0.83    0.04
   4  -1   4    0.84    0.04
  -5   1  -4    0.70    0.05
  -5   1  -4    0.66    0.03
   5  -1   4    0.73    0.04
   5  -1   4    0.84    0.05
  -6   1  -4   10.15    0.25
  -6   1  -4    9.95    0.23
   6  -1   4   10.40    0.25
   6  -1   4    9.71    0.26
  -7   1  -4    2.75    0.10
  -7   1  -4    2.66    0.08
   7  -1   4    2.67    0.10
   7  -1   4    2.95    0.10
  -8   1  -4    0.03    0.02
  -8   1  -4   -0.01    0.02
   8  -1   4    0.00    0.02
   7   0  -4    0.00    0.02
  -7   0   4    0.02    0.02
   6   0  -4    0.18    0.03
  -6   0   4    0.22    0.03
   5   0  -4    1.06    0.04
   5   0  -4    0.98    0.05
  -5   0   4    1.02    0.03
  -5   0   4    1.08    0.05
   4   0  -4    1.89    0.05
   4   0  -4    1.87    0.06
   4   0  -4    1.90    0.07
  -4   0   4    1.83    0.06
  -4   0   4    1.90    0.05
  -4   0   4    1.95    0.05
   3   0  -4    9.18    0.22
   3   0  -4    9.31    0.21
   3   0  -4    8.96    0.20
   3   0  -4    9.35    0.21
  -3   0   4    9.46    0.21
  -3   0   4    8.83    0.20
  -3   0   4    9.10    0.21
   2   0  -4   25.49    0.54
   2   0  -4   24.95    0.56
   2   0  -4   24.17    0.56
  -2   0   4   25.35    0.65
  -2   0   4   26.20    0.56
   1   0  -4   27.37    0.59
   1   0  -4   27.24    0.60
   1   0  -4   26.84    0.61
  -1   0   4   26.26    0.58
  -1   0   4   26.96    0.57
  -1   0   4   26.95    0.60
   0   0  -4    4.60    0.12
   0   0  -4    4.56    0.11
   0   0  -4    4.48    0.11
   0   0  -4    4.65    0.09
   0   0   4    4.61    0.11
   0   0   4    4.60    0.10
   0   0   4    4.51    0.11
   0   0   4    4.46    0.12
  -1   0  -4   15.60    0.36
  -1   0  -4   16.26    0.33
  -1   0  -4   16.28    0.36
  -1   0  -4   15.93    0.34
   1   0   4   16.40    0.36
   1   0   4   16.03    0.34
   1   0   4   15.73    0.37
  -2   0  -4   44.71    0.92
  -2   0  -4   43.76    1.00
  -2   0  -4   44.93    0.92
  -2   0  -4   44.45    0.99
   2   0   4   45.53    1.02
   2   0   4   44.52    0.97
   2   0   4   44.57    1.00
  -3   0  -4    0.33    0.02
  -3   0  -4    0.38    0.02
  -3   0  -4    0.32    0.01
   3   0   4    0.26    0.02
   3   0   4    0.31    0.02
  -4   0  -4   13.96    0.29
  -4   0  -4   14.00    0.32
   4   0   4   13.75    0.33
   4   0   4   13.93    0.33
  -5   0  -4    0.26    0.03
  -5   0  -4    0.27    0.02
   5   0   4    0.22    0.03
   5   0   4    0.25    0.03
  -6   0  -4    0.01    0.01
  -6   0  -4   -0.02    0.02
   6   0   4   -0.02    0.02
   6   0   4   -0.04    0.01
  -7   0  -4    0.03    0.02
  -7   0  -4    0.05    0.02
   7   0   4    0.01    0.02
   7   0   4    0.02    0.02
  -8   0  -4    0.00    0.02
  -8   0  -4    0.02    0.02
   8   0   4    0.01    0.02
  -9   0  -4    0.20    0.04
  -9   0  -4    0.21    0.03
   9   0   4    0.21    0.03
   7  -1  -4    5.06    0.15
  -7   1   4    4.93    0.15
   6  -1  -4    0.85    0.05
   6  -1  -4    0.80    0.04
  -6   1   4    0.89    0.05
   5  -1  -4    1.55    0.05
   5  -1  -4    1.49    0.06
  -5   1   4    1.54    0.06
   4  -1  -4    2.03    0.06
   4  -1  -4    1.91    0.07
  -4   1   4    1.97    0.05
  -4   1   4    1.96    0.06
  -4   1   4    1.94    0.06
   3  -1  -4    2.16    0.06
   3  -1  -4    2.16    0.07
   3  -1  -4    2.17    0.06
  -3   1   4    2.22    0.06
  -3   1   4    2.20    0.06
  -3   1   4    2.14    0.05
   2  -1  -4    0.58    0.02
   2  -1  -4    0.54    0.02
   2  -1  -4    0.56    0.03
   2  -1  -4    0.55    0.02
  -2   1   4    0.55    0.02
  -2   1   4    0.56    0.02
  -2   1   4    0.57    0.02
   1  -1  -4   22.03    0.49
   1  -1  -4   21.58    0.49
   1  -1  -4   22.15    0.49
   1  -1  -4   22.40    0.48
  -1   1   4   22.07    0.49
  -1   1   4   22.38    0.49
  -1   1   4   22.23    0.48
   0  -1  -4    6.95    0.16
   0  -1  -4    6.10    0.17
   0  -1  -4    7.05    0.16
   0   1   4    7.03    0.17
   0   1   4    7.24    0.15
   0   1   4    7.28    0.16
   0   1   4    7.46    0.16
   0   1   4    7.11    0.16
  -1  -1  -4    0.00    0.00
  -1  -1  -4    0.00    0.01
  -1  -1  -4    0.00    0.01
   1   1   4    0.00    0.01
   1   1   4    0.00    0.01
   1   1   4    0.00    0.01
   1   1   4    0.00    0.01
  -2  -1  -4    2.87    0.08
  -2  -1  -4    2.84    0.06
  -2  -1  -4    2.89    0.06
  -2  -1  -4    2.85    0.07
   2   1   4    2.92    0.07
   2   1   4    2.84    0.08
   2   1   4    2.79    0.07
   2   1   4    2.90    0.08
  -3  -1  -4   10.11    0.23
  -3  -1  -4    9.88    0.21
  -3  -1  -4    9.93    0.21
   3   1   4    9.91    0.24
   3   1   4    9.72    0.24
  -4  -1  -4    2.02    0.05
  -4  -1  -4    2.04    0.07
   4   1   4    2.08    0.07
   4   1   4    2.00    0.07
  -5  -1  -4    6.18    0.14
  -5  -1  -4    6.09    0.17
   5   1   4    6.20    0.17
   5   1   4    6.50    0.17
  -6  -1  -4    0.08    0.02
  -6  -1  -4    0.06    0.01
   6   1   4    0.06    0.02
   6   1   4    0.07    0.02
  -7  -1  -4    0.76    0.05
  -7  -1  -4    0.73    0.04
   7   1   4    0.74    0.05
   7   1   4    0.75    0.05
  -8  -1  -4   -0.01    0.01
  -8  -1  -4    0.02    0.02
   8   1   4    0.00    0.02
   8   1   4    0.00    0.02
  -9  -1  -4    0.07    0.03
  -9  -1  -4    0.07    0.02
   9   1   4    0.07    0.03
   7  -2  -4    0.22    0.03
  -7   2   4    0.24    0.03
   6  -2  -4    0.02    0.02
   6  -2  -4    0.04    0.01
  -6   2   4    0.04    0.02
   5  -2  -4    0.94    0.04
   5  -2  -4    0.93    0.04
  -5   2   4    0.92    0.05
   4  -2  -4    4.35    0.11
   4  -2  -4    4.42    0.12
  -4   2   4    4.48    0.12
   3  -2  -4   17.34    0.39
   3  -2  -4   17.58    0.40
  -3   2   4   17.04    0.39
  -3   2   4   17.70    0.38
   2  -2  -4    3.02    0.07
   2  -2  -4    2.95    0.07
   2  -2  -4    2.93    0.08
  -2   2   4    2.93    0.08
  -2   2   4    2.86    0.07
  -2   2   4    2.99    0.07
  -2   2   4    2.90    0.07
   1  -2  -4    0.03    0.01
   1  -2  -4    0.04    0.01
  -1   2   4    0.05    0.01
  -1   2   4    0.05    0.01
  -1   2   4    0.04    0.01
   0  -2  -4   23.59    0.54
   0  -2  -4   23.85    0.54
   0   2   4   23.61    0.53
   0   2   4   24.60    0.51
   0   2   4   23.19    0.53
   0   2   4   24.11    0.53
  -1  -2  -4   20.65    0.46
  -1  -2  -4   20.47    0.46
   1   2   4   20.73    0.46
   1   2   4   20.98    0.45
   1   2   4   20.63    0.46
   1   2   4   20.41    0.45
   1   2   4   20.69    0.47
  -2  -2  -4    0.20    0.02
  -2  -2  -4    0.16    0.02
  -2  -2  -4    0.18    0.01
   2   2   4    0.16    0.02
   2   2   4    0.17    0.01
   2   2   4    0.16    0.01
  -3  -2  -4    5.50    0.12
  -3  -2  -4    5.45    0.12
  -3  -2  -4    5.60    0.14
  -3  -2  -4    5.48    0.14
   3   2   4    5.69    0.14
   3   2   4    5.53    0.12
  -4  -2  -4    1.88    0.05
  -4  -2  -4    1.85    0.05
  -4  -2  -4    1.96    0.07
  -4  -2  -4    1.88    0.06
   4   2   4    1.93    0.07
   4   2   4    1.82    0.05
  -5  -2  -4    1.14    0.05
  -5  -2  -4    1.18    0.05
  -5  -2  -4    1.21    0.04
   5   2   4    1.19    0.05
   5   2   4    1.22    0.05
  -6  -2  -4    0.19    0.02
  -6  -2  -4    0.21    0.03
  -6  -2  -4    0.15    0.02
   6   2   4    0.16    0.03
   6   2   4    0.18    0.03
   6   2   4    0.19    0.01
  -7  -2  -4    0.02    0.01
   7   2   4    0.00    0.02
   7   2   4    0.01    0.02
  -8  -2  -4    0.05    0.02
  -8  -2  -4    0.08    0.03
   8   2   4    0.09    0.02
   8   2   4    0.09    0.02
  -9  -2  -4    0.01    0.02
  -9  -2  -4    0.03    0.02
   9   2   4    0.01    0.02
   7  -3  -4    0.03    0.02
  -7   3   4    0.03    0.02
   6  -3  -4    0.10    0.02
   6  -3  -4    0.06    0.02
  -6   3   4    0.05    0.02
   5  -3  -4    0.00    0.01
   5  -3  -4   -0.01    0.01
  -5   3   4    0.00    0.02
   4  -3  -4    4.82    0.12
   4  -3  -4    4.76    0.13
  -4   3   4    4.78    0.13
   3  -3  -4    1.58    0.05
   3  -3  -4    1.66    0.06
  -3   3   4    1.63    0.05
   2  -3  -4    3.61    0.09
   2  -3  -4    3.45    0.10
   2  -3  -4    3.64    0.08
  -2   3   4    3.61    0.09
  -2   3   4    3.63    0.09
  -2   3   4    3.47    0.08
   1  -3  -4    4.57    0.11
   1  -3  -4    4.55    0.11
  -1   3   4    4.48    0.11
  -1   3   4    4.46    0.11
  -1   3   4    4.61    0.11
   0  -3  -4    1.57    0.05
   0  -3  -4    1.69    0.05
   0  -3  -4    1.62    0.05
   0   3   4    1.61    0.05
   0   3   4    1.56    0.05
  -1  -3  -4    2.00    0.05
  -1  -3  -4    2.08    0.06
  -1  -3  -4    2.07    0.06
  -1  -3  -4    1.94    0.06
   1   3   4    2.07    0.06
   1   3   4    2.11    0.06
  -2  -3  -4    1.07    0.04
  -2  -3  -4    0.96    0.04
   2   3   4    0.91    0.04
  -3  -3  -4   49.57    1.08
  -3  -3  -4   47.67    1.02
   3   3   4   48.45    1.05
   3   3   4   47.76    0.99
   3   3   4   46.73    1.05
   3   3   4   46.25    1.06
  -4  -3  -4    0.57    0.02
  -4  -3  -4    0.60    0.02
  -4  -3  -4    0.57    0.03
  -4  -3  -4    0.59    0.04
   4   3   4    0.59    0.02
   4   3   4    0.55    0.02
   4   3   4    0.55    0.04
  -5  -3  -4    1.48    0.04
  -5  -3  -4    1.43    0.04
  -5  -3  -4    1.56    0.06
  -5  -3  -4    1.49    0.06
   5   3   4    1.42    0.06
   5   3   4    1.44    0.04
   5   3   4    1.57    0.05
  -6  -3  -4    3.76    0.11
  -6  -3  -4    3.57    0.09
  -6  -3  -4    3.70    0.12
   6   3   4    3.72    0.09
   6   3   4    3.76    0.10
   6   3   4    3.60    0.12
  -7  -3  -4    2.46    0.10
  -7  -3  -4    2.48    0.07
  -7  -3  -4    2.49    0.09
   7   3   4    2.53    0.09
   7   3   4    2.50    0.09
  -8  -3  -4    0.42    0.03
  -8  -3  -4    0.55    0.04
  -8  -3  -4    0.38    0.05
   8   3   4    0.42    0.04
   8   3   4    0.40    0.04
  -9  -3  -4    0.02    0.03
  -9  -3  -4    0.01    0.02
   9   3   4    0.01    0.02
   7  -4  -4    0.05    0.02
  -7   4   4    0.05    0.02
   6  -4  -4    0.05    0.02
   6  -4  -4    0.00    0.02
  -6   4   4    0.03    0.02
   5  -4  -4    0.04    0.02
   5  -4  -4    0.01    0.01
  -5   4   4    0.08    0.02
   4  -4  -4    1.62    0.06
   4  -4  -4    1.63    0.06
  -4   4   4    1.57    0.06
   3  -4  -4    0.06    0.01
   3  -4  -4    0.01    0.01
  -3   4   4    0.00    0.01
   2  -4  -4    4.83    0.12
   2  -4  -4    5.00    0.11
  -2   4   4    4.72    0.11
  -2   4   4    4.85    0.12
  -2   4   4    4.86    0.12
   1  -4  -4   48.77    1.12
   1  -4  -4   51.93    1.16
   1  -4  -4   50.81    1.12
  -1   4   4   50.07    1.12
   0  -4  -4    1.15    0.04
   0  -4  -4    1.07    0.04
   0  -4  -4    1.19    0.04
   0   4   4    1.10    0.04
   0   4   4    1.14    0.03
  -1  -4  -4    3.47    0.10
  -1  -4  -4    3.45    0.09
  -1  -4  -4    3.49    0.09
  -2  -4  -4   13.54    0.31
  -2  -4  -4   13.71    0.32
  -2  -4  -4   13.97    0.31
  -3  -4  -4    2.74    0.09
  -3  -4  -4    2.80    0.08
   3   4   4    2.93    0.09
   3   4   4    2.78    0.07
  -4  -4  -4    2.86    0.06
  -4  -4  -4    2.84    0.06
  -4  -4  -4    2.82    0.09
  -4  -4  -4    2.92    0.09
   4   4   4    2.82    0.07
   4   4   4    2.71    0.07
   4   4   4    2.87    0.09
  -5  -4  -4    3.71    0.09
  -5  -4  -4    3.63    0.09
  -5  -4  -4    3.76    0.12
  -5  -4  -4    3.61    0.11
   5   4   4    3.63    0.09
   5   4   4    3.63    0.09
   5   4   4    3.68    0.11
  -6  -4  -4    1.13    0.06
  -6  -4  -4    1.04    0.05
   6   4   4    1.05    0.04
   6   4   4    1.10    0.06
   6   4   4    1.08    0.03
  -7  -4  -4    0.66    0.05
  -7  -4  -4    0.62    0.04
   7   4   4    0.62    0.05
   7   4   4    0.60    0.03
  -8  -4  -4    0.00    0.01
  -8  -4  -4    0.00    0.02
  -8  -4  -4   -0.02    0.02
   8   4   4   -0.01    0.02
  -9  -4  -4    0.00    0.02
  -9  -4  -4    0.02    0.02
   9   4   4   -0.01    0.02
   7  -5  -4    0.02    0.02
  -7   5   4   -0.03    0.02
   6  -5  -4   -0.02    0.02
   6  -5  -4    0.01    0.02
  -6   5   4   -0.02    0.02
   5  -5  -4   -0.02    0.01
   5  -5  -4    0.01    0.02
  -5   5   4   -0.01    0.02
   4  -5  -4    0.12    0.02
   4  -5  -4    0.20    0.02
  -4   5   4    0.17    0.02
   3  -5  -4    0.14    0.01
   3  -5  -4    0.14    0.02
   3  -5  -4    0.13    0.02
  -3   5   4    0.16    0.02
   2  -5  -4    0.21    0.02
   2  -5  -4    0.20    0.02
   2  -5  -4    0.17    0.02
  -2   5   4    0.20    0.01
  -2   5   4    0.24    0.02
   1  -5  -4   -0.03    0.01
   1  -5  -4    0.00    0.01
   1  -5  -4   -0.04    0.01
   0  -5  -4    0.32    0.02
   0  -5  -4    0.37    0.02
   0  -5  -4    0.25    0.02
   0   5   4    0.37    0.01
  -1  -5  -4    2.52    0.08
  -1  -5  -4    2.54    0.07
  -1  -5  -4    2.44    0.07
  -2  -5  -4    0.49    0.03
  -2  -5  -4    0.56    0.03
  -2  -5  -4    0.58    0.03
  -3  -5  -4    5.23    0.14
  -3  -5  -4    5.09    0.14
   3   5   4    5.26    0.11
  -4  -5  -4    0.77    0.04
  -4  -5  -4    0.79    0.05
  -4  -5  -4    0.87    0.02
  -4  -5  -4    0.83    0.02
   4   5   4    0.88    0.03
   4   5   4    0.85    0.03
   4   5   4    0.87    0.05
  -5  -5  -4    0.86    0.05
  -5  -5  -4    0.87    0.03
  -5  -5  -4    0.87    0.03
  -5  -5  -4    0.87    0.04
   5   5   4    0.85    0.03
   5   5   4    0.77    0.05
   5   5   4    0.86    0.03
  -6  -5  -4   22.34    0.53
  -6  -5  -4   22.89    0.53
   6   5   4   22.19    0.54
   6   5   4   23.65    0.48
   6   5   4   23.16    0.51
  -7  -5  -4    0.11    0.02
  -7  -5  -4    0.11    0.03
   7   5   4    0.09    0.02
   7   5   4    0.10    0.02
  -8  -5  -4    0.49    0.04
  -8  -5  -4    0.48    0.05
   8   5   4    0.49    0.04
   8   5   4    0.52    0.03
  -9  -5  -4    0.04    0.02
  -9  -5  -4    0.06    0.02
  -9  -5  -4    0.04    0.03
   9   5   4    0.09    0.03
   6  -6  -4    0.03    0.02
   6  -6  -4    0.03    0.02
  -6   6   4    0.01    0.02
   5  -6  -4    0.11    0.02
   5  -6  -4    0.12    0.02
  -5   6   4    0.13    0.03
   4  -6  -4    0.00    0.01
   4  -6  -4    0.01    0.01
   4  -6  -4    0.03    0.02
  -4   6   4    0.00    0.02
   3  -6  -4    1.49    0.04
   3  -6  -4    1.42    0.06
   3  -6  -4    1.41    0.06
   3  -6  -4    1.49    0.04
  -3   6   4    1.57    0.06
   2  -6  -4    1.33    0.05
   2  -6  -4    1.34    0.04
   2  -6  -4    1.32    0.05
  -2   6   4    1.29    0.04
  -2   6   4    1.31    0.05
   1  -6  -4    0.55    0.03
   1  -6  -4    0.51    0.03
   0  -6  -4    6.66    0.17
   0  -6  -4    6.71    0.16
   0   6   4    6.63    0.15
  -1  -6  -4    3.27    0.09
  -1  -6  -4    3.23    0.09
  -1  -6  -4    3.22    0.10
   1   6   4    3.19    0.08
  -2  -6  -4   11.44    0.27
  -2  -6  -4   11.06    0.27
  -2  -6  -4   11.47    0.27
   2   6   4   10.93    0.23
  -3  -6  -4   13.02    0.31
  -3  -6  -4   12.88    0.31
  -3  -6  -4   13.03    0.31
   3   6   4   12.99    0.27
  -4  -6  -4    1.99    0.08
  -4  -6  -4    1.84    0.07
   4   6   4    1.89    0.06
   4   6   4    1.97    0.06
  -5  -6  -4   15.29    0.31
  -5  -6  -4   14.70    0.36
  -5  -6  -4   14.53    0.36
   5   6   4   14.88    0.37
   5   6   4   15.45    0.34
   5   6   4   14.92    0.32
  -6  -6  -4    4.56    0.14
  -6  -6  -4    4.89    0.16
   6   6   4    4.74    0.15
   6   6   4    4.75    0.12
   6   6   4    4.85    0.12
  -7  -6  -4    0.22    0.03
  -7  -6  -4    0.18    0.03
   7   6   4    0.20    0.03
  -8  -6  -4    0.02    0.02
  -8  -6  -4    0.01    0.02
   8   6   4    0.01    0.02
   6  -7  -4    0.06    0.02
   6  -7  -4    0.04    0.02
  -6   7   4    0.00    0.02
   5  -7  -4    0.23    0.03
   5  -7  -4    0.21    0.03
  -5   7   4    0.23    0.03
   4  -7  -4    0.04    0.01
   4  -7  -4    0.02    0.02
   4  -7  -4    0.06    0.02
  -4   7   4    0.03    0.02
   3  -7  -4    2.14    0.05
   3  -7  -4    2.03    0.08
  -3   7   4    2.10    0.08
   2  -7  -4    2.57    0.07
   2  -7  -4    2.49    0.08
  -2   7   4    2.47    0.08
   1  -7  -4    0.15    0.02
   1  -7  -4    0.12    0.02
   0  -7  -4    5.76    0.14
   0  -7  -4    5.46    0.15
  -1  -7  -4    2.72    0.08
  -1  -7  -4    2.67    0.08
  -2  -7  -4    0.42    0.03
  -2  -7  -4    0.31    0.03
  -2  -7  -4    0.31    0.03
   2   7   4    0.32    0.02
  -3  -7  -4    0.02    0.01
  -3  -7  -4    0.00    0.02
  -3  -7  -4    0.01    0.01
   3   7   4   -0.01    0.01
  -4  -7  -4    0.22    0.03
  -4  -7  -4    0.25    0.03
   4   7   4    0.26    0.03
   4   7   4    0.28    0.02
  -5  -7  -4    4.91    0.16
  -5  -7  -4    4.99    0.11
  -5  -7  -4    5.02    0.11
  -5  -7  -4    4.86    0.14
   5   7   4    4.82    0.15
   5   7   4    5.01    0.13
  -6  -7  -4    5.64    0.16
  -6  -7  -4    5.76    0.18
   6   7   4    5.64    0.17
   6   7   4    5.77    0.15
  -7  -7  -4    0.43    0.04
  -7  -7  -4    0.48    0.05
   7   7   4    0.47    0.05
  -8  -7  -4    0.05    0.03
  -8  -7  -4    0.09    0.03
   8   7   4    0.09    0.03
   5  -8  -4    0.08    0.02
  -5   8   4    0.08    0.03
   4  -8  -4   -0.01    0.02
  -4   8   4   -0.01    0.02
   3  -8  -4    0.16    0.01
   3  -8  -4    0.16    0.03
  -3   8   4    0.16    0.03
   2  -8  -4    0.28    0.03
   2  -8  -4    0.24    0.02
  -2   8   4    0.22    0.03
   1  -8  -4    2.59    0.08
   1  -8  -4    2.65    0.09
   0  -8  -4    3.82    0.10
   0  -8  -4    3.71    0.11
  -1  -8  -4    2.97    0.09
  -1  -8  -4    2.91    0.09
  -2  -8  -4    0.01    0.01
  -2  -8  -4    0.00    0.01
  -2  -8  -4    0.01    0.02
  -3  -8  -4    0.86    0.06
  -3  -8  -4    0.94    0.05
  -3  -8  -4    0.93    0.05
  -4  -8  -4    0.36    0.03
  -4  -8  -4    0.36    0.04
  -4  -8  -4    0.34    0.03
   4   8   4    0.39    0.03
  -5  -8  -4    2.07    0.10
  -5  -8  -4    2.24    0.08
   5   8   4    2.32    0.08
  -6  -8  -4    0.24    0.03
  -6  -8  -4    0.30    0.04
   6   8   4    0.28    0.03
   6   8   4    0.30    0.04
  -7  -8  -4    0.04    0.03
  -7  -8  -4    0.02    0.02
   7   8   4    0.01    0.02
  -8  -8  -4    2.42    0.10
  -8  -8  -4    2.26    0.11
   8   8   4    2.34    0.10
   4  -9  -4    0.15    0.03
  -4   9   4    0.16    0.03
   3  -9  -4    0.18    0.03
  -3   9   4    0.23    0.03
   2  -9  -4    0.41    0.04
   2  -9  -4    0.42    0.03
  -2   9   4    0.34    0.04
   1  -9  -4   -0.01    0.01
   1  -9  -4   -0.01    0.01
   0  -9  -4    0.40    0.03
   0  -9  -4    0.27    0.03
  -1  -9  -4    0.02    0.01
  -1  -9  -4    0.00    0.01
  -2  -9  -4    0.01    0.01
  -2  -9  -4    0.04    0.02
  -3  -9  -4    0.11    0.02
  -3  -9  -4    0.14    0.03
  -3  -9  -4    0.11    0.02
  -4  -9  -4    0.86    0.06
  -4  -9  -4    0.76    0.05
  -4  -9  -4    0.75    0.05
   4   9   4    0.79    0.05
  -5  -9  -4    2.26    0.10
  -5  -9  -4    2.47    0.09
   5   9   4    2.52    0.09
  -6  -9  -4    0.29    0.05
  -6  -9  -4    0.29    0.04
   6   9   4    0.36    0.04
   6   9   4    0.30    0.03
  -7  -9  -4    0.13    0.04
  -7  -9  -4    0.10    0.03
   7   9   4    0.12    0.03
   4 -10  -4    0.16    0.03
   3 -10  -4    0.33    0.04
  -3  10   4    0.28    0.04
   2 -10  -4    0.10    0.02
  -2  10   4    0.10    0.03
   1 -10  -4    0.01    0.01
   1 -10  -4   -0.01    0.02
   0 -10  -4    1.43    0.06
   0 -10  -4    1.44    0.07
  -1 -10  -4    0.03    0.02
  -1 -10  -4    0.06    0.02
  -2 -10  -4    1.24    0.06
  -2 -10  -4    1.20    0.06
  -3 -10  -4    0.05    0.03
  -3 -10  -4    0.06    0.02
  -3 -10  -4    0.06    0.02
  -4 -10  -4    0.00    0.02
  -4 -10  -4    0.03    0.02
  -4 -10  -4    0.01    0.02
   4  10   4    0.06    0.02
  -5 -10  -4    0.94    0.07
  -5 -10  -4    0.94    0.05
   5  10   4    0.95    0.05
  -6 -10  -4    0.13    0.03
  -6 -10  -4    0.08    0.03
   6  10   4    0.14    0.03
   6  10   4    0.17    0.04
  -7 -10  -4   -0.04    0.02
  -7 -10  -4    0.00    0.02
   7  10   4    0.06    0.03
   2 -11  -4    0.22    0.04
  -2  11   4    0.11    0.03
   1 -11  -4   -0.01    0.02
   1 -11  -4    0.02    0.02
   0 -11  -4    1.50    0.06
   0 -11  -4    1.61    0.08
  -1 -11  -4    4.11    0.13
  -1 -11  -4    4.19    0.13
  -2 -11  -4    0.22    0.03
  -2 -11  -4    0.24    0.03
  -3 -11  -4    0.25    0.03
  -3 -11  -4    0.23    0.03
  -4 -11  -4    0.03    0.03
  -4 -11  -4    0.06    0.02
  -4 -11  -4    0.05    0.02
   4  11   4    0.05    0.02
  -5 -11  -4    0.13    0.03
  -5 -11  -4    0.18    0.04
   5  11   4    0.13    0.03
  -6 -11  -4   -0.01    0.03
  -6 -11  -4    0.02    0.02
   6  11   4    0.00    0.03
   6  11   4    0.02    0.02
   1 -12  -4    0.21    0.04
   0 -12  -4    2.19    0.09
   0 -12  -4    2.01    0.08
  -1 -12  -4    0.00    0.02
  -1 -12  -4    0.02    0.02
  -2 -12  -4    1.19    0.06
  -2 -12  -4    1.16    0.06
  -3 -12  -4    0.14    0.03
  -3 -12  -4    0.15    0.03
  -4 -12  -4    0.01    0.02
  -4 -12  -4    0.00    0.02
   4  12   4   -0.01    0.02
   3   9  -5    0.04    0.02
   2   9  -5    0.10    0.03
   2   9  -5    0.12    0.02
  -2  -9   5    0.17    0.03
   1   9  -5    0.93    0.06
   1   9  -5    0.88    0.05
  -1  -9   5    0.90    0.06
   0   9  -5    0.23    0.03
   0   9  -5    0.22    0.04
   0  -9   5    0.19    0.03
   0  -9   5    0.15    0.03
  -1   9  -5    0.06    0.02
  -1   9  -5    0.07    0.03
   1  -9   5    0.03    0.02
   1  -9   5    0.02    0.02
  -2   9  -5    0.03    0.02
  -2   9  -5    0.05    0.02
   2  -9   5    0.01    0.02
   2  -9   5    0.05    0.02
   4   8  -5    0.00    0.02
   4   8  -5    0.07    0.02
  -4  -8   5   -0.01    0.02
   3   8  -5    0.05    0.02
   3   8  -5    0.06    0.02
  -3  -8   5    0.07    0.02
   2   8  -5    0.83    0.05
   2   8  -5    0.80    0.04
  -2  -8   5    0.87    0.05
   1   8  -5    0.03    0.02
   1   8  -5    0.02    0.02
  -1  -8   5    0.05    0.02
  -1  -8   5    0.02    0.02
   0   8  -5    0.56    0.04
   0   8  -5    0.67    0.05
   0  -8   5    0.66    0.05
   0  -8   5    0.67    0.05
   0  -8   5    0.71    0.04
  -1   8  -5    0.42    0.03
  -1   8  -5    0.38    0.04
  -1   8  -5    0.38    0.03
   1  -8   5    0.34    0.04
   1  -8   5    0.41    0.04
   1  -8   5    0.42    0.04
  -2   8  -5    0.03    0.02
  -2   8  -5    0.01    0.02
  -2   8  -5    0.02    0.02
   2  -8   5    0.01    0.02
   2  -8   5    0.02    0.02
   2  -8   5    0.00    0.02
  -3   8  -5    0.35    0.03
  -3   8  -5    0.44    0.04
  -3   8  -5    0.37    0.04
   3  -8   5    0.44    0.04
   3  -8   5    0.41    0.04
  -4   8  -5    0.02    0.02
  -4   8  -5   -0.03    0.02
  -4   8  -5    0.01    0.02
   4  -8   5    0.00    0.02
   4  -8   5    0.05    0.02
   5   7  -5    0.00    0.02
   5   7  -5    0.05    0.02
  -5  -7   5    0.02    0.02
   4   7  -5    1.70    0.08
   4   7  -5    1.75    0.06
  -4  -7   5    1.78    0.07
   3   7  -5    0.65    0.05
   3   7  -5    0.67    0.04
  -3  -7   5    0.61    0.04
   2   7  -5    0.27    0.03
   2   7  -5    0.28    0.03
  -2  -7   5    0.30    0.03
  -2  -7   5    0.30    0.03
   1   7  -5    0.17    0.03
   1   7  -5    0.15    0.02
  -1  -7   5    0.17    0.02
  -1  -7   5    0.14    0.02
   0   7  -5    0.01    0.01
   0   7  -5    0.04    0.01
   0   7  -5    0.02    0.02
   0  -7   5    0.01    0.02
   0  -7   5    0.03    0.02
   0  -7   5    0.04    0.02
  -1   7  -5    0.10    0.02
  -1   7  -5    0.14    0.02
  -1   7  -5    0.15    0.02
   1  -7   5    0.15    0.03
   1  -7   5    0.13    0.02
   1  -7   5    0.18    0.03
  -2   7  -5    5.55    0.17
  -2   7  -5    5.89    0.15
  -2   7  -5    5.59    0.15
   2  -7   5    5.44    0.17
   2  -7   5    5.72    0.16
   2  -7   5    5.85    0.16
  -3   7  -5    0.43    0.03
  -3   7  -5    0.46    0.04
  -3   7  -5    0.40    0.04
   3  -7   5    0.37    0.04
   3  -7   5    0.41    0.04
   3  -7   5    0.45    0.04
  -4   7  -5    0.02    0.02
  -4   7  -5    0.01    0.02
  -4   7  -5    0.01    0.02
   4  -7   5    0.04    0.02
   4  -7   5    0.00    0.02
   4  -7   5    0.02    0.02
  -5   7  -5    0.01    0.02
  -5   7  -5   -0.03    0.02
   5  -7   5    0.03    0.02
   5  -7   5    0.02    0.02
   6   6  -5    0.14    0.03
   6   6  -5    0.08    0.02
  -6  -6   5    0.10    0.02
   5   6  -5    0.14    0.03
   5   6  -5    0.13    0.02
  -5  -6   5    0.12    0.02
   4   6  -5    0.82    0.05
   4   6  -5    0.82    0.04
  -4  -6   5    0.82    0.05
   3   6  -5    0.64    0.05
   3   6  -5    0.65    0.03
  -3  -6   5    0.68    0.04
   2   6  -5    2.14    0.08
   2   6  -5    2.09    0.07
  -2  -6   5    2.10    0.06
  -2  -6   5    2.11    0.08
   1   6  -5    5.58    0.13
   1   6  -5    5.28    0.16
   1   6  -5    5.33    0.13
  -1  -6   5    5.43    0.14
  -1  -6   5    5.31    0.15
  -1  -6   5    5.26    0.15
   0   6  -5    1.13    0.05
   0   6  -5    1.05    0.06
   0   6  -5    1.06    0.04
   0  -6   5    1.05    0.06
   0  -6   5    1.08    0.05
   0  -6   5    1.07    0.05
  -1   6  -5    2.81    0.08
  -1   6  -5    2.57    0.10
  -1   6  -5    2.69    0.08
   1  -6   5    2.54    0.09
   1  -6   5    2.60    0.09
   1  -6   5    2.80    0.09
  -2   6  -5    0.08    0.02
  -2   6  -5    0.09    0.02
  -2   6  -5    0.09    0.02
   2  -6   5    0.06    0.02
   2  -6   5    0.07    0.02
   2  -6   5    0.07    0.02
  -3   6  -5    0.91    0.05
  -3   6  -5    0.91    0.05
  -3   6  -5    0.86    0.04
   3  -6   5    0.84    0.05
   3  -6   5    0.82    0.05
   3  -6   5    0.82    0.05
  -4   6  -5    0.55    0.04
  -4   6  -5    0.52    0.04
  -4   6  -5    0.59    0.04
   4  -6   5    0.54    0.04
   4  -6   5    0.56    0.04
   4  -6   5    0.55    0.04
  -5   6  -5    0.18    0.03
  -5   6  -5    0.21    0.03
   5  -6   5    0.17    0.03
   5  -6   5    0.19    0.03
   5  -6   5    0.23    0.03
  -6   6  -5    0.02    0.02
  -6   6  -5    0.00    0.02
   6  -6   5    0.00    0.02
   6   5  -5    0.03    0.01
   6   5  -5    0.03    0.02
  -6  -5   5    0.03    0.02
   5   5  -5    0.02    0.02
   5   5  -5    0.03    0.01
  -5  -5   5    0.02    0.02
   4   5  -5    2.28    0.09
   4   5  -5    2.27    0.07
  -4  -5   5    2.26    0.08
   3   5  -5    5.03    0.15
   3   5  -5    5.18    0.13
  -3  -5   5    5.15    0.14
   2   5  -5   19.67    0.46
   2   5  -5   19.20    0.41
  -2  -5   5   19.75    0.43
  -2  -5   5   19.62    0.46
   1   5  -5    3.31    0.10
   1   5  -5    3.28    0.11
   1   5  -5    3.33    0.08
   1   5  -5    3.38    0.09
  -1  -5   5    3.37    0.11
  -1  -5   5    3.42    0.09
  -1  -5   5    3.22    0.10
   0   5  -5   40.71    0.86
   0   5  -5   40.48    0.83
   0   5  -5   39.66    0.91
   0  -5   5   40.67    0.88
   0  -5   5   39.75    0.91
   0  -5   5   41.22    0.89
  -1   5  -5    0.21    0.02
  -1   5  -5    0.26    0.03
  -1   5  -5    0.27    0.02
   1  -5   5    0.27    0.03
   1  -5   5    0.23    0.03
   1  -5   5    0.24    0.03
  -2   5  -5    5.80    0.15
  -2   5  -5    5.87    0.16
  -2   5  -5    5.80    0.14
   2  -5   5    5.70    0.16
   2  -5   5    5.93    0.16
   2  -5   5    5.83    0.16
  -3   5  -5   -0.02    0.01
  -3   5  -5   -0.03    0.01
  -3   5  -5    0.00    0.01
   3  -5   5    0.02    0.02
   3  -5   5    0.00    0.01
   3  -5   5    0.00    0.02
  -4   5  -5    1.55    0.06
  -4   5  -5    1.46    0.06
   4  -5   5    1.46    0.06
   4  -5   5    1.49    0.07
   4  -5   5    1.59    0.07
  -5   5  -5    0.05    0.02
  -5   5  -5    0.01    0.02
   5  -5   5    0.05    0.02
   5  -5   5    0.05    0.02
  -6   5  -5    0.17    0.03
  -6   5  -5    0.16    0.03
   6  -5   5    0.22    0.03
   6  -5   5    0.14    0.03
   6   4  -5    0.16    0.03
   6   4  -5    0.15    0.02
  -6  -4   5    0.20    0.03
   5   4  -5    0.00    0.01
   5   4  -5    0.00    0.02
  -5  -4   5    0.04    0.02
   4   4  -5    0.15    0.02
   4   4  -5    0.13    0.02
  -4  -4   5    0.13    0.02
   3   4  -5    0.22    0.03
   3   4  -5    0.26    0.02
  -3  -4   5    0.34    0.03
  -3  -4   5    0.27    0.02
   2   4  -5    0.45    0.03
   2   4  -5    0.41    0.02
   2   4  -5    0.47    0.03
  -2  -4   5    0.41    0.02
  -2  -4   5    0.41    0.03
   1   4  -5    5.21    0.12
   1   4  -5    5.35    0.12
   1   4  -5    5.36    0.15
   1   4  -5    5.32    0.13
   1   4  -5    5.45    0.14
  -1  -4   5    5.18    0.15
  -1  -4   5    5.34    0.13
  -1  -4   5    5.42    0.14
   0   4  -5    5.61    0.13
   0   4  -5    5.54    0.13
   0   4  -5    5.43    0.15
   0   4  -5    5.51    0.13
   0  -4   5    5.63    0.14
   0  -4   5    5.50    0.14
   0  -4   5    5.49    0.15
  -1   4  -5    0.56    0.04
  -1   4  -5    0.62    0.03
  -1   4  -5    0.60    0.03
   1  -4   5    0.57    0.04
   1  -4   5    0.62    0.03
   1  -4   5    0.59    0.03
  -2   4  -5    0.07    0.01
  -2   4  -5    0.02    0.01
  -2   4  -5    0.02    0.01
   2  -4   5    0.01    0.01
   2  -4   5    0.02    0.01
   2  -4   5    0.01    0.02
  -3   4  -5    0.00    0.01
  -3   4  -5    0.01    0.01
  -3   4  -5    0.00    0.01
   3  -4   5    0.00    0.01
   3  -4   5   -0.02    0.01
   3  -4   5    0.00    0.01
  -4   4  -5    7.03    0.17
  -4   4  -5    7.10    0.18
   4  -4   5    6.98    0.19
   4  -4   5    7.06    0.19
  -5   4  -5    2.06    0.07
  -5   4  -5    1.98    0.08
   5  -4   5    2.02    0.08
   5  -4   5    2.16    0.08
  -6   4  -5    0.00    0.02
  -6   4  -5    0.00    0.02
   6  -4   5   -0.01    0.02
   6  -4   5   -0.02    0.02
  -7   4  -5    0.01    0.02
  -7   4  -5    0.04    0.02
   7  -4   5    0.07    0.03
   7   3  -5    0.54    0.05
   6   3  -5    0.03    0.02
   5   3  -5    0.10    0.02
   5   3  -5    0.09    0.02
  -5  -3   5    0.11    0.02
   4   3  -5    1.00    0.04
   4   3  -5    1.10    0.05
  -4  -3   5    1.07    0.05
  -4  -3   5    1.06    0.04
   3   3  -5    5.17    0.12
   3   3  -5    5.32    0.15
  -3  -3   5    5.36    0.13
  -3  -3   5    5.33    0.14
   2   3  -5    0.10    0.01
   2   3  -5    0.11    0.02
  -2  -3   5    0.10    0.02
  -2  -3   5    0.11    0.01
   1   3  -5    0.06    0.01
   1   3  -5    0.04    0.01
   1   3  -5    0.05    0.01
  -1  -3   5    0.05    0.01
  -1  -3   5    0.06    0.01
  -1  -3   5    0.04    0.01
   0   3  -5    4.20    0.10
   0   3  -5    4.19    0.10
   0   3  -5    4.21    0.11
   0   3  -5    4.13    0.09
   0  -3   5    4.12    0.12
   0  -3   5    4.20    0.11
   0  -3   5    4.15    0.11
  -1   3  -5    0.74    0.03
  -1   3  -5    0.70    0.04
  -1   3  -5    0.69    0.03
   1  -3   5    0.67    0.04
   1  -3   5    0.71    0.03
   1  -3   5    0.76    0.03
  -2   3  -5    0.30    0.02
  -2   3  -5    0.28    0.02
  -2   3  -5    0.31    0.02
   2  -3   5    0.33    0.02
   2  -3   5    0.22    0.03
   2  -3   5    0.31    0.02
  -3   3  -5    1.64    0.05
  -3   3  -5    1.57    0.06
  -3   3  -5    1.65    0.06
   3  -3   5    1.54    0.06
   3  -3   5    1.61    0.06
  -4   3  -5    2.56    0.07
  -4   3  -5    2.71    0.09
   4  -3   5    2.52    0.09
   4  -3   5    2.64    0.09
  -5   3  -5    6.68    0.16
  -5   3  -5    6.92    0.18
   5  -3   5    6.68    0.19
   5  -3   5    7.02    0.19
  -6   3  -5   -0.01    0.01
  -6   3  -5   -0.01    0.02
   6  -3   5    0.01    0.02
   6  -3   5   -0.02    0.02
  -7   3  -5   -0.02    0.02
  -7   3  -5    0.01    0.02
   7  -3   5    0.01    0.02
   7  -3   5    0.03    0.02
   7   2  -5    0.02    0.02
   6   2  -5    0.24    0.03
   5   2  -5    6.02    0.17
  -5  -2   5    6.33    0.16
  -5  -2   5    6.11    0.15
   4   2  -5    3.24    0.10
   4   2  -5    3.30    0.08
  -4  -2   5    3.47    0.09
  -4  -2   5    3.32    0.09
   3   2  -5    3.47    0.10
   3   2  -5    3.31    0.08
   3   2  -5    3.47    0.08
  -3  -2   5    3.40    0.10
  -3  -2   5    3.36    0.09
   2   2  -5    1.22    0.05
   2   2  -5    1.29    0.04
  -2  -2   5    1.24    0.05
   1   2  -5    5.84    0.13
   1   2  -5    5.81    0.13
   1   2  -5    5.75    0.15
  -1  -2   5    5.65    0.14
  -1  -2   5    5.82    0.13
  -1  -2   5    5.85    0.15
   0   2  -5   20.53    0.42
   0   2  -5   20.50    0.47
   0   2  -5   20.68    0.46
   0  -2   5   20.56    0.46
   0  -2   5   21.42    0.48
   0  -2   5   20.67    0.46
  -1   2  -5   13.27    0.31
  -1   2  -5   13.35    0.29
  -1   2  -5   13.50    0.28
   1  -2   5   13.54    0.32
   1  -2   5   13.85    0.31
   1  -2   5   13.12    0.30
  -2   2  -5    0.11    0.01
  -2   2  -5    0.12    0.01
  -2   2  -5    0.10    0.01
   2  -2   5    0.11    0.02
   2  -2   5    0.13    0.02
  -3   2  -5    0.49    0.03
  -3   2  -5    0.53    0.03
  -3   2  -5    0.58    0.03
   3  -2   5    0.55    0.04
   3  -2   5    0.56    0.03
  -4   2  -5   11.30    0.27
  -4   2  -5   11.37    0.27
  -4   2  -5   11.56    0.25
   4  -2   5   11.54    0.28
   4  -2   5   11.24    0.28
  -5   2  -5    5.99    0.15
  -5   2  -5    6.24    0.17
   5  -2   5    6.04    0.17
   5  -2   5    6.33    0.17
  -6   2  -5    1.07    0.06
  -6   2  -5    1.04    0.05
   6  -2   5    1.09    0.06
   6  -2   5    1.09    0.06
  -7   2  -5    0.53    0.05
  -7   2  -5    0.53    0.04
   7  -2   5    0.52    0.04
   7  -2   5    0.50    0.04
  -8   2  -5   -0.01    0.02
  -8   2  -5    0.02    0.02
   8  -2   5    0.00    0.02
   7   1  -5    0.01    0.02
   6   1  -5    9.15    0.24
  -6  -1   5    9.52    0.23
   5   1  -5    2.78    0.09
  -5  -1   5    2.72    0.08
  -5  -1   5    2.89    0.09
   4   1  -5    0.55    0.04
   4   1  -5    0.58    0.03
  -4  -1   5    0.60    0.03
  -4  -1   5    0.55    0.03
   3   1  -5   10.75    0.24
   3   1  -5   10.78    0.26
   3   1  -5   10.92    0.25
  -3  -1   5   10.77    0.24
  -3  -1   5   10.79    0.25
   2   1  -5    6.96    0.17
   2   1  -5    7.00    0.15
   2   1  -5    7.04    0.16
  -2  -1   5    6.77    0.17
  -2  -1   5    6.82    0.15
   1   1  -5   19.00    0.43
   1   1  -5   18.37    0.41
   1   1  -5   19.03    0.39
  -1  -1   5   18.59    0.41
  -1  -1   5   18.76    0.43
   0   1  -5   19.05    0.42
   0   1  -5   19.25    0.39
   0   1  -5   19.37    0.43
   0  -1   5   19.32    0.44
   0  -1   5   19.42    0.42
   0  -1   5   18.82    0.42
  -1   1  -5   18.48    0.40
  -1   1  -5   19.15    0.39
  -1   1  -5   18.58    0.42
  -1   1  -5   19.11    0.42
   1  -1   5   18.59    0.41
   1  -1   5   18.55    0.43
   1  -1   5   18.99    0.42
   1  -1   5   18.33    0.40
  -2   1  -5    9.04    0.21
  -2   1  -5    8.91    0.20
  -2   1  -5    8.80    0.19
   2  -1   5    8.93    0.21
   2  -1   5    8.87    0.22
  -3   1  -5    2.65    0.08
  -3   1  -5    2.76    0.07
  -3   1  -5    2.70    0.07
   3  -1   5    2.78    0.09
   3  -1   5    2.67    0.08
  -4   1  -5    0.43    0.03
  -4   1  -5    0.38    0.02
  -4   1  -5    0.37    0.02
   4  -1   5    0.33    0.03
   4  -1   5    0.41    0.03
  -5   1  -5    3.00    0.08
  -5   1  -5    3.22    0.10
   5  -1   5    3.14    0.10
   5  -1   5    3.04    0.10
  -6   1  -5    6.46    0.16
  -6   1  -5    6.43    0.18
   6  -1   5    6.61    0.18
   6  -1   5    6.68    0.18
  -7   1  -5    1.44    0.06
  -7   1  -5    1.50    0.07
   7  -1   5    1.58    0.07
   7  -1   5    1.51    0.07
  -8   1  -5    0.06    0.03
  -8   1  -5    0.08    0.02
   8  -1   5    0.07    0.03
   7   0  -5    0.21    0.03
  -7   0   5    0.21    0.03
   6   0  -5    0.12    0.03
  -6   0   5    0.08    0.02
   5   0  -5    0.42    0.04
  -5   0   5    0.48    0.03
   4   0  -5    3.44    0.09
   4   0  -5    3.30    0.10
  -4   0   5    3.27    0.09
  -4   0   5    3.29    0.09
   3   0  -5    0.20    0.02
   3   0  -5    0.22    0.02
  -3   0   5    0.23    0.02
  -3   0   5    0.20    0.02
   2   0  -5   17.05    0.37
   2   0  -5   17.40    0.39
  -2   0   5   17.23    0.39
  -2   0   5   16.79    0.37
   1   0  -5    0.23    0.02
   1   0  -5    0.25    0.01
  -1   0   5    0.27    0.02
  -1   0   5    0.26    0.02
   0   0  -5   30.87    0.67
   0   0  -5   30.70    0.71
   0   0   5   31.23    0.68
   0   0   5   30.78    0.69
   0   0   5   30.29    0.66
  -1   0  -5    1.18    0.04
  -1   0  -5    1.18    0.03
  -1   0  -5    1.15    0.03
  -1   0  -5    1.22    0.04
  -1   0  -5    1.19    0.04
   1   0   5    1.20    0.05
   1   0   5    1.15    0.03
   1   0   5    1.16    0.04
  -2   0  -5    5.76    0.12
  -2   0  -5    5.56    0.13
  -2   0  -5    5.61    0.13
  -2   0  -5    5.69    0.12
   2   0   5    5.53    0.15
   2   0   5    5.69    0.14
  -3   0  -5    9.38    0.22
  -3   0  -5    9.47    0.21
  -3   0  -5    9.52    0.20
  -3   0  -5    9.42    0.20
   3   0   5    9.69    0.23
   3   0   5    9.42    0.24
  -4   0  -5    0.72    0.04
  -4   0  -5    0.73    0.03
  -4   0  -5    0.67    0.02
   4   0   5    0.62    0.04
   4   0   5    0.69    0.04
  -5   0  -5   15.83    0.37
  -5   0  -5   15.79    0.33
   5   0   5   15.99    0.38
   5   0   5   15.56    0.38
  -6   0  -5    2.55    0.09
  -6   0  -5    2.64    0.08
   6   0   5    2.61    0.09
   6   0   5    2.45    0.09
  -7   0  -5    2.04    0.07
  -7   0  -5    2.08    0.09
   7   0   5    2.05    0.08
   7   0   5    2.12    0.09
  -8   0  -5    0.94    0.06
  -8   0  -5    0.82    0.04
   8   0   5    0.81    0.06
   8   0   5    0.94    0.06
   7  -1  -5    0.93    0.06
  -7   1   5    1.00    0.06
   6  -1  -5    0.87    0.05
  -6   1   5    0.92    0.05
   5  -1  -5    0.45    0.03
  -5   1   5    0.50    0.03
   4  -1  -5    0.42    0.02
   4  -1  -5    0.46    0.02
   4  -1  -5    0.44    0.03
  -4   1   5    0.52    0.03
  -4   1   5    0.43    0.02
   3  -1  -5    4.01    0.10
   3  -1  -5    4.17    0.11
   3  -1  -5    4.21    0.11
   3  -1  -5    4.15    0.10
  -3   1   5    4.05    0.10
  -3   1   5    4.22    0.10
  -3   1   5    4.13    0.10
   2  -1  -5    0.16    0.01
   2  -1  -5    0.17    0.02
   2  -1  -5    0.19    0.01
   2  -1  -5    0.19    0.02
  -2   1   5    0.20    0.01
  -2   1   5    0.20    0.02
  -2   1   5    0.19    0.01
   1  -1  -5    0.51    0.03
   1  -1  -5    0.53    0.03
  -1   1   5    0.52    0.02
  -1   1   5    0.52    0.02
  -1   1   5    0.59    0.02
  -1   1   5    0.54    0.02
  -1   1   5    0.52    0.03
  -1   1   5    0.55    0.02
   0  -1  -5    0.07    0.01
   0   1   5    0.09    0.01
   0   1   5    0.09    0.01
   0   1   5    0.09    0.01
   0   1   5    0.09    0.01
   0   1   5    0.10    0.01
  -1  -1  -5    0.15    0.01
  -1  -1  -5    0.15    0.01
   1   1   5    0.14    0.01
   1   1   5    0.16    0.02
   1   1   5    0.15    0.02
  -2  -1  -5    0.11    0.01
  -2  -1  -5    0.13    0.01
   2   1   5    0.13    0.02
   2   1   5    0.11    0.02
  -3  -1  -5    4.67    0.12
  -3  -1  -5    4.91    0.10
  -3  -1  -5    4.87    0.10
   3   1   5    4.85    0.13
   3   1   5    4.86    0.13
  -4  -1  -5    9.41    0.23
  -4  -1  -5    9.40    0.20
  -4  -1  -5    9.52    0.20
   4   1   5    9.25    0.24
  -5  -1  -5    0.34    0.02
  -5  -1  -5    0.34    0.03
  -5  -1  -5    0.32    0.02
   5   1   5    0.39    0.03
   5   1   5    0.35    0.03
  -6  -1  -5    3.80    0.10
  -6  -1  -5    3.72    0.12
   6   1   5    3.72    0.12
   6   1   5    3.82    0.12
  -7  -1  -5    1.06    0.04
  -7  -1  -5    1.10    0.06
   7   1   5    1.14    0.06
   7   1   5    1.09    0.06
  -8  -1  -5    0.00    0.01
  -8  -1  -5   -0.01    0.02
   8   1   5   -0.01    0.02
   8   1   5   -0.01    0.02
  -9  -1  -5    0.10    0.03
  -9  -1  -5    0.09    0.02
   9   1   5    0.06    0.03
   7  -2  -5    0.03    0.02
  -7   2   5    0.03    0.02
   6  -2  -5    0.62    0.04
  -6   2   5    0.63    0.04
   5  -2  -5    0.58    0.03
   5  -2  -5    0.59    0.04
  -5   2   5    0.59    0.04
   4  -2  -5    1.27    0.04
   4  -2  -5    1.29    0.04
   4  -2  -5    1.34    0.05
  -4   2   5    1.24    0.05
   3  -2  -5    0.23    0.02
   3  -2  -5    0.21    0.02
   3  -2  -5    0.23    0.02
  -3   2   5    0.25    0.01
  -3   2   5    0.25    0.01
  -3   2   5    0.22    0.02
  -3   2   5    0.22    0.02
   2  -2  -5    6.95    0.16
   2  -2  -5    6.90    0.15
   2  -2  -5    7.12    0.17
  -2   2   5    6.88    0.16
  -2   2   5    6.92    0.16
  -2   2   5    7.10    0.16
  -2   2   5    6.83    0.16
   1  -2  -5    3.37    0.09
   1  -2  -5    3.40    0.08
  -1   2   5    3.36    0.09
  -1   2   5    3.38    0.09
  -1   2   5    3.30    0.09
  -1   2   5    3.42    0.08
   0  -2  -5    1.39    0.04
   0   2   5    1.39    0.04
   0   2   5    1.36    0.04
   0   2   5    1.37    0.05
  -1  -2  -5    6.37    0.15
  -1  -2  -5    6.48    0.15
   1   2   5    6.40    0.16
   1   2   5    6.37    0.15
   1   2   5    6.39    0.15
   1   2   5    6.42    0.16
  -2  -2  -5    3.39    0.09
  -2  -2  -5    3.22    0.08
   2   2   5    3.38    0.10
   2   2   5    3.35    0.09
   2   2   5    3.26    0.07
   2   2   5    3.29    0.08
  -3  -2  -5   22.63    0.50
  -3  -2  -5   22.19    0.51
   3   2   5   22.22    0.52
   3   2   5   22.66    0.51
   3   2   5   22.45    0.46
  -4  -2  -5    6.79    0.14
  -4  -2  -5    6.98    0.18
  -4  -2  -5    6.58    0.17
  -4  -2  -5    6.87    0.14
   4   2   5    6.69    0.18
   4   2   5    6.82    0.18
  -5  -2  -5    2.98    0.07
  -5  -2  -5    2.93    0.07
  -5  -2  -5    2.95    0.10
   5   2   5    2.81    0.10
   5   2   5    3.04    0.10
  -6  -2  -5    0.27    0.03
  -6  -2  -5    0.31    0.02
   6   2   5    0.28    0.03
   6   2   5    0.28    0.03
  -7  -2  -5    0.00    0.02
  -7  -2  -5   -0.02    0.01
   7   2   5    0.01    0.02
   7   2   5   -0.01    0.02
  -8  -2  -5    0.11    0.02
  -8  -2  -5    0.12    0.03
   8   2   5    0.16    0.03
   8   2   5    0.11    0.03
  -9  -2  -5    0.21    0.03
  -9  -2  -5    0.17    0.04
   9   2   5    0.17    0.03
   7  -3  -5    0.91    0.05
  -7   3   5    0.86    0.05
   6  -3  -5    0.02    0.02
  -6   3   5    0.04    0.02
   5  -3  -5    0.78    0.04
   5  -3  -5    0.71    0.04
  -5   3   5    0.69    0.04
   4  -3  -5    0.00    0.01
   4  -3  -5    0.00    0.01
  -4   3   5    0.00    0.01
   3  -3  -5    0.03    0.01
   3  -3  -5    0.05    0.01
   3  -3  -5    0.03    0.01
  -3   3   5    0.05    0.01
   2  -3  -5    0.83    0.03
   2  -3  -5    0.80    0.04
  -2   3   5    0.86    0.03
  -2   3   5    0.84    0.03
  -2   3   5    0.76    0.03
  -2   3   5    0.80    0.03
   1  -3  -5    1.42    0.04
   1  -3  -5    1.30    0.05
  -1   3   5    1.46    0.04
  -1   3   5    1.41    0.05
  -1   3   5    1.35    0.04
   0  -3  -5    7.62    0.18
   0  -3  -5    7.56    0.18
   0  -3  -5    7.73    0.18
   0   3   5    7.75    0.19
   0   3   5    7.56    0.18
   0   3   5    7.50    0.18
  -1  -3  -5    0.37    0.02
  -1  -3  -5    0.35    0.02
  -1  -3  -5    0.40    0.03
   1   3   5    0.38    0.03
  -2  -3  -5    2.09    0.07
  -2  -3  -5    2.04    0.05
  -2  -3  -5    2.14    0.07
   2   3   5    2.21    0.07
  -3  -3  -5    0.64    0.03
  -3  -3  -5    0.55    0.04
   3   3   5    0.57    0.03
   3   3   5    0.53    0.02
   3   3   5    0.53    0.02
  -4  -3  -5   23.08    0.53
  -4  -3  -5   23.71    0.48
  -4  -3  -5   24.51    0.48
  -4  -3  -5   23.23    0.53
   4   3   5   23.45    0.54
   4   3   5   22.80    0.48
  -5  -3  -5    5.63    0.15
  -5  -3  -5    5.68    0.13
  -5  -3  -5    5.74    0.13
  -5  -3  -5    5.77    0.16
   5   3   5    5.46    0.16
   5   3   5    5.95    0.13
  -6  -3  -5    0.19    0.03
  -6  -3  -5    0.29    0.04
  -6  -3  -5    0.24    0.02
   6   3   5    0.25    0.03
   6   3   5    0.25    0.03
  -7  -3  -5   -0.02    0.01
  -7  -3  -5    0.01    0.02
  -7  -3  -5   -0.01    0.02
   7   3   5   -0.01    0.02
   7   3   5    0.00    0.02
  -8  -3  -5    2.63    0.11
  -8  -3  -5    2.51    0.08
   8   3   5    2.54    0.10
   8   3   5    2.68    0.10
  -9  -3  -5    0.22    0.02
  -9  -3  -5    0.31    0.05
   9   3   5    0.29    0.04
   7  -4  -5    0.00    0.02
  -7   4   5    0.02    0.02
   6  -4  -5   -0.01    0.02
  -6   4   5    0.01    0.02
   5  -4  -5    0.07    0.02
   5  -4  -5    0.09    0.02
  -5   4   5    0.08    0.02
   4  -4  -5    0.35    0.03
   4  -4  -5    0.41    0.03
  -4   4   5    0.35    0.03
   3  -4  -5    3.27    0.07
   3  -4  -5    3.25    0.09
   3  -4  -5    3.04    0.09
   3  -4  -5    3.18    0.07
  -3   4   5    3.24    0.09
   2  -4  -5    0.19    0.02
   2  -4  -5    0.19    0.02
  -2   4   5    0.21    0.02
  -2   4   5    0.21    0.01
  -2   4   5    0.16    0.02
   1  -4  -5  173.73    3.81
   1  -4  -5  173.76    3.81
   1  -4  -5  171.09    3.86
  -1   4   5  171.54    3.79
  -1   4   5  177.64    3.84
   0  -4  -5   23.72    0.54
   0  -4  -5   24.42    0.53
   0  -4  -5   24.35    0.54
  -1  -4  -5    7.47    0.18
  -1  -4  -5    7.48    0.17
  -1  -4  -5    7.20    0.18
  -1  -4  -5    7.23    0.18
  -2  -4  -5    1.60    0.05
  -2  -4  -5    1.58    0.06
  -3  -4  -5    4.25    0.12
  -3  -4  -5    4.42    0.12
   3   4   5    4.35    0.09
   3   4   5    4.14    0.12
  -4  -4  -5   13.57    0.32
  -4  -4  -5   13.56    0.32
   4   4   5   13.84    0.30
   4   4   5   13.32    0.30
   4   4   5   13.21    0.33
   4   4   5   13.87    0.28
  -5  -4  -5    0.10    0.02
  -5  -4  -5    0.08    0.01
  -5  -4  -5    0.11    0.02
  -5  -4  -5    0.09    0.01
   5   4   5    0.10    0.01
   5   4   5    0.12    0.02
   5   4   5    0.10    0.01
   5   4   5    0.08    0.01
  -6  -4  -5    0.41    0.02
  -6  -4  -5    0.51    0.05
  -6  -4  -5    0.40    0.03
   6   4   5    0.35    0.03
   6   4   5    0.46    0.04
  -7  -4  -5    4.78    0.16
  -7  -4  -5    5.10    0.15
  -7  -4  -5    4.84    0.12
   7   4   5    4.72    0.15
   7   4   5    4.89    0.12
  -8  -4  -5    0.05    0.02
  -8  -4  -5   -0.01    0.01
  -8  -4  -5    0.01    0.02
   8   4   5   -0.01    0.02
   8   4   5    0.00    0.02
  -9  -4  -5    0.35    0.03
  -9  -4  -5    0.38    0.04
  -9  -4  -5    0.34    0.05
   9   4   5    0.36    0.04
   9   4   5    0.41    0.05
   6  -5  -5    0.20    0.03
   6  -5  -5    0.22    0.03
  -6   5   5    0.24    0.03
   5  -5  -5    0.80    0.05
   5  -5  -5    0.76    0.04
  -5   5   5    0.74    0.05
   4  -5  -5    0.54    0.04
   4  -5  -5    0.51    0.02
   4  -5  -5    0.55    0.03
  -4   5   5    0.53    0.04
   3  -5  -5    0.00    0.01
   3  -5  -5    0.00    0.01
  -3   5   5   -0.01    0.01
   2  -5  -5    0.04    0.01
   2  -5  -5    0.06    0.01
   2  -5  -5    0.07    0.01
  -2   5   5    0.06    0.02
  -2   5   5    0.07    0.01
  -2   5   5    0.08    0.01
   1  -5  -5    0.48    0.03
   1  -5  -5    0.46    0.03
   1  -5  -5    0.47    0.03
  -1   5   5    0.43    0.02
   0  -5  -5   -0.01    0.01
   0  -5  -5    0.01    0.01
   0  -5  -5    0.06    0.01
   0   5   5    0.05    0.01
  -1  -5  -5    0.07    0.01
  -1  -5  -5    0.04    0.01
  -1  -5  -5    0.06    0.02
  -2  -5  -5    0.29    0.03
  -2  -5  -5    0.23    0.02
  -2  -5  -5    0.28    0.02
  -3  -5  -5    0.48    0.03
  -3  -5  -5    0.56    0.04
   3   5   5    0.53    0.02
  -4  -5  -5    3.27    0.11
  -4  -5  -5    3.22    0.10
   4   5   5    3.29    0.11
   4   5   5    3.35    0.09
   4   5   5    3.22    0.08
  -5  -5  -5    0.07    0.02
  -5  -5  -5    0.08    0.01
  -5  -5  -5    0.08    0.02
   5   5   5    0.10    0.02
   5   5   5    0.07    0.01
   5   5   5    0.09    0.01
  -6  -5  -5    1.71    0.07
  -6  -5  -5    1.71    0.05
  -6  -5  -5    1.90    0.09
  -6  -5  -5    1.72    0.05
   6   5   5    1.91    0.08
   6   5   5    1.81    0.06
  -7  -5  -5    0.03    0.01
  -7  -5  -5    0.02    0.02
  -7  -5  -5    0.02    0.02
   7   5   5    0.01    0.02
  -8  -5  -5    0.30    0.04
  -8  -5  -5    0.28    0.04
  -8  -5  -5    0.30    0.02
   8   5   5    0.29    0.04
  -9  -5  -5    0.00    0.01
  -9  -5  -5   -0.02    0.03
  -9  -5  -5    0.01    0.02
   9   5   5    0.01    0.02
   9   5   5    0.01    0.02
   6  -6  -5   -0.01    0.02
   6  -6  -5    0.00    0.02
  -6   6   5    0.00    0.02
   5  -6  -5    0.05    0.02
   5  -6  -5    0.03    0.02
  -5   6   5    0.03    0.02
   4  -6  -5    0.13    0.01
   4  -6  -5    0.09    0.02
   4  -6  -5    0.12    0.02
  -4   6   5    0.10    0.02
   3  -6  -5    0.00    0.01
   3  -6  -5   -0.02    0.01
  -3   6   5    0.01    0.02
   2  -6  -5    0.90    0.04
   2  -6  -5    0.84    0.04
   2  -6  -5    0.97    0.03
  -2   6   5    0.99    0.05
  -2   6   5    0.90    0.03
   1  -6  -5    1.93    0.06
   1  -6  -5    1.87    0.06
   1  -6  -5    1.86    0.06
   0  -6  -5    0.30    0.02
   0  -6  -5    0.35    0.03
   0   6   5    0.32    0.02
  -1  -6  -5    7.80    0.19
  -1  -6  -5    8.12    0.19
  -1  -6  -5    7.53    0.20
  -2  -6  -5    4.03    0.12
  -2  -6  -5    3.95    0.11
  -2  -6  -5    3.86    0.11
  -3  -6  -5    2.72    0.08
  -3  -6  -5    2.71    0.09
  -3  -6  -5    2.67    0.09
   3   6   5    2.65    0.06
  -4  -6  -5    1.22    0.05
  -4  -6  -5    1.37    0.07
   4   6   5    1.25    0.05
   4   6   5    1.32    0.06
   4   6   5    1.31    0.04
  -5  -6  -5    0.07    0.02
  -5  -6  -5    0.12    0.03
   5   6   5    0.03    0.01
   5   6   5    0.06    0.02
  -6  -6  -5    1.62    0.07
  -6  -6  -5    1.73    0.04
  -6  -6  -5    1.65    0.08
  -6  -6  -5    1.73    0.04
   6   6   5    1.72    0.08
  -7  -6  -5    0.39    0.05
  -7  -6  -5    0.42    0.02
  -7  -6  -5    0.44    0.04
   7   6   5    0.40    0.04
  -8  -6  -5    0.11    0.03
  -8  -6  -5    0.09    0.02
  -8  -6  -5    0.10    0.03
   8   6   5    0.08    0.03
   5  -7  -5    0.34    0.03
   5  -7  -5    0.44    0.04
  -5   7   5    0.37    0.04
   4  -7  -5    0.03    0.02
   4  -7  -5    0.01    0.02
  -4   7   5    0.05    0.02
   3  -7  -5    0.82    0.04
   3  -7  -5    0.95    0.05
  -3   7   5    0.91    0.05
   2  -7  -5    4.94    0.14
   2  -7  -5    4.89    0.14
   2  -7  -5    5.02    0.12
  -2   7   5    5.06    0.14
   1  -7  -5    1.50    0.05
   1  -7  -5    1.41    0.06
   0  -7  -5    0.31    0.03
   0  -7  -5    0.30    0.02
  -1  -7  -5    0.40    0.03
  -1  -7  -5    0.46    0.03
  -2  -7  -5    5.91    0.15
  -2  -7  -5    5.64    0.17
  -2  -7  -5    5.69    0.15
  -3  -7  -5    0.37    0.04
  -3  -7  -5    0.47    0.03
  -3  -7  -5    0.45    0.03
  -4  -7  -5    0.47    0.03
  -4  -7  -5    0.46    0.05
  -5  -7  -5    4.22    0.13
  -5  -7  -5    3.98    0.14
   5   7   5    4.05    0.11
   5   7   5    3.95    0.13
  -6  -7  -5    0.40    0.04
  -6  -7  -5    0.47    0.05
   6   7   5    0.53    0.05
   6   7   5    0.49    0.03
  -7  -7  -5    0.60    0.02
  -7  -7  -5    0.58    0.05
  -7  -7  -5    0.60    0.06
   7   7   5    0.56    0.05
  -8  -7  -5    0.00    0.01
  -8  -7  -5    0.00    0.03
  -8  -7  -5    0.00    0.02
   8   7   5    0.04    0.02
   5  -8  -5    0.39    0.04
  -5   8   5    0.46    0.04
   4  -8  -5    0.08    0.02
  -4   8   5    0.12    0.03
   3  -8  -5    0.47    0.04
  -3   8   5    0.47    0.04
   2  -8  -5    0.02    0.02
   2  -8  -5    0.00    0.01
  -2   8   5   -0.01    0.02
   1  -8  -5    0.05    0.02
   1  -8  -5    0.07    0.02
   0  -8  -5    1.00    0.04
   0  -8  -5    1.00    0.05
  -1  -8  -5    0.48    0.03
  -1  -8  -5    0.50    0.03
  -2  -8  -5    2.01    0.09
  -2  -8  -5    2.07    0.07
  -2  -8  -5    2.03    0.07
  -3  -8  -5    0.20    0.03
  -3  -8  -5    0.17    0.02
  -3  -8  -5    0.23    0.03
  -4  -8  -5    1.55    0.08
  -4  -8  -5    1.50    0.06
  -5  -8  -5    6.73    0.19
  -5  -8  -5    7.12    0.21
   5   8   5    6.57    0.20
   5   8   5    7.14    0.18
  -6  -8  -5    0.11    0.03
  -6  -8  -5    0.08    0.03
   6   8   5    0.11    0.02
   6   8   5    0.14    0.03
  -7  -8  -5    0.81    0.07
  -7  -8  -5    0.82    0.05
   7   8   5    0.84    0.06
  -8  -8  -5    0.00    0.02
  -8  -8  -5    0.02    0.01
  -8  -8  -5    0.05    0.03
   8   8   5    0.03    0.02
   4  -9  -5    0.03    0.02
  -4   9   5    0.00    0.02
   3  -9  -5    0.25    0.03
  -3   9   5    0.21    0.03
   2  -9  -5    0.04    0.02
  -2   9   5   -0.01    0.02
   1  -9  -5    0.66    0.04
   1  -9  -5    0.62    0.04
   0  -9  -5    0.56    0.03
   0  -9  -5    0.53    0.04
  -1  -9  -5    0.05    0.02
  -1  -9  -5    0.07    0.02
  -2  -9  -5    1.17    0.05
  -2  -9  -5    1.10    0.05
  -3  -9  -5    0.18    0.03
  -3  -9  -5    0.23    0.04
  -3  -9  -5    0.23    0.03
  -4  -9  -5    1.27    0.06
  -4  -9  -5    1.34    0.06
  -4  -9  -5    1.24    0.08
  -5  -9  -5    0.09    0.03
  -5  -9  -5    0.09    0.03
   5   9   5    0.12    0.02
  -6  -9  -5    2.48    0.10
  -6  -9  -5    2.71    0.12
   6   9   5    2.54    0.11
   6   9   5    2.74    0.09
  -7  -9  -5    0.25    0.05
  -7  -9  -5    0.27    0.04
   7   9   5    0.26    0.04
   3 -10  -5    0.02    0.02
  -3  10   5   -0.01    0.02
   2 -10  -5    0.49    0.04
  -2  10   5    0.37    0.04
   1 -10  -5    0.15    0.03
   1 -10  -5    0.18    0.02
   0 -10  -5    0.11    0.02
   0 -10  -5    0.06    0.02
  -1 -10  -5    0.29    0.03
  -1 -10  -5    0.31    0.03
  -2 -10  -5    0.14    0.03
  -2 -10  -5    0.16    0.03
  -3 -10  -5    0.28    0.03
  -3 -10  -5    0.30    0.03
  -3 -10  -5    0.30    0.04
  -4 -10  -5    0.59    0.04
  -4 -10  -5    0.58    0.06
  -4 -10  -5    0.55    0.04
  -5 -10  -5    0.07    0.03
  -5 -10  -5    0.06    0.02
   5  10   5    0.08    0.02
  -6 -10  -5    0.13    0.04
  -6 -10  -5    0.19    0.03
   6  10   5    0.22    0.03
   6  10   5    0.19    0.04
  -7 -10  -5    0.23    0.05
  -7 -10  -5    0.24    0.04
   7  10   5    0.24    0.04
   2 -11  -5   -0.02    0.02
  -2  11   5    0.00    0.02
   1 -11  -5    0.68    0.04
   1 -11  -5    0.60    0.05
   0 -11  -5    0.43    0.04
   0 -11  -5    0.39    0.04
  -1 -11  -5    0.24    0.03
  -1 -11  -5    0.29    0.03
  -2 -11  -5    0.52    0.04
  -2 -11  -5    0.56    0.04
  -3 -11  -5    1.34    0.06
  -3 -11  -5    1.28    0.07
  -4 -11  -5    0.06    0.02
  -4 -11  -5    0.08    0.02
  -4 -11  -5    0.10    0.03
   4  11   5    0.08    0.03
  -5 -11  -5    0.61    0.05
  -5 -11  -5    0.60    0.06
   5  11   5    0.62    0.05
  -6 -11  -5    0.03    0.03
  -6 -11  -5    0.00    0.02
   6  11   5    0.00    0.02
   6  11   5   -0.03    0.02
   1 -12  -5    0.96    0.06
   0 -12  -5    0.26    0.04
   0 -12  -5    0.24    0.03
  -1 -12  -5    1.61    0.07
  -1 -12  -5    1.68    0.08
  -2 -12  -5    0.06    0.02
  -2 -12  -5    0.07    0.02
  -3 -12  -5    0.83    0.05
  -3 -12  -5    0.78    0.05
  -4 -12  -5    0.41    0.04
  -4 -12  -5    0.49    0.04
   4  12   5    0.45    0.05
   3   8  -6    0.08    0.03
   3   8  -6    0.08    0.02
  -3  -8   6    0.06    0.02
   2   8  -6    0.39    0.03
   2   8  -6    0.43    0.04
  -2  -8   6    0.38    0.04
   1   8  -6    1.77    0.07
   1   8  -6    1.69    0.08
  -1  -8   6    1.66    0.08
   0   8  -6    0.28    0.03
   0   8  -6    0.30    0.04
   0  -8   6    0.34    0.03
   0  -8   6    0.31    0.04
  -1   8  -6    0.07    0.02
  -1   8  -6    0.08    0.02
   1  -8   6    0.07    0.02
   1  -8   6    0.08    0.03
   1  -8   6    0.10    0.03
  -2   8  -6    2.63    0.11
  -2   8  -6    2.53    0.09
   2  -8   6    2.66    0.10
   2  -8   6    2.78    0.10
  -3   8  -6    0.03    0.02
  -3   8  -6    0.00    0.02
   3  -8   6    0.00    0.02
   3  -8   6    0.02    0.02
   4   7  -6    0.42    0.03
   4   7  -6    0.33    0.04
  -4  -7   6    0.34    0.04
   3   7  -6    0.59    0.04
   3   7  -6    0.61    0.05
  -3  -7   6    0.53    0.04
   2   7  -6   -0.03    0.02
   2   7  -6   -0.01    0.01
  -2  -7   6   -0.02    0.01
   1   7  -6    1.25    0.05
   1   7  -6    1.29    0.06
  -1  -7   6    1.23    0.06
   0   7  -6    1.66    0.06
   0   7  -6    1.51    0.07
   0  -7   6    1.40    0.07
   0  -7   6    1.61    0.06
   0  -7   6    1.68    0.08
  -1   7  -6    0.03    0.02
  -1   7  -6    0.02    0.02
   1  -7   6    0.03    0.02
   1  -7   6    0.00    0.02
   1  -7   6    0.01    0.02
  -2   7  -6    0.32    0.03
  -2   7  -6    0.25    0.03
   2  -7   6    0.27    0.03
   2  -7   6    0.35    0.04
   2  -7   6    0.38    0.04
  -3   7  -6    0.15    0.03
  -3   7  -6    0.08    0.02
  -3   7  -6    0.13    0.03
   3  -7   6    0.11    0.03
   3  -7   6    0.13    0.03
   3  -7   6    0.10    0.02
  -4   7  -6    0.30    0.03
  -4   7  -6    0.22    0.03
  -4   7  -6    0.25    0.03
   4  -7   6    0.24    0.04
   4  -7   6    0.28    0.04
   5   6  -6    0.00    0.01
   5   6  -6    0.00    0.02
  -5  -6   6    0.00    0.02
   4   6  -6    0.00    0.01
   4   6  -6    0.02    0.02
  -4  -6   6    0.02    0.02
   3   6  -6   -0.02    0.02
   3   6  -6   -0.02    0.01
  -3  -6   6    0.02    0.02
   2   6  -6    0.77    0.05
   2   6  -6    0.75    0.04
  -2  -6   6    0.63    0.05
   1   6  -6    0.07    0.02
   1   6  -6    0.11    0.02
  -1  -6   6    0.08    0.02
  -1  -6   6    0.09    0.02
  -1  -6   6    0.05    0.02
   0   6  -6    0.89    0.05
   0   6  -6    0.89    0.04
   0  -6   6    0.97    0.04
   0  -6   6    0.92    0.05
   0  -6   6    0.88    0.05
  -1   6  -6   -0.01    0.01
  -1   6  -6    0.00    0.01
  -1   6  -6    0.02    0.02
   1  -6   6    0.03    0.02
   1  -6   6    0.02    0.02
   1  -6   6   -0.01    0.01
  -2   6  -6    0.02    0.01
  -2   6  -6   -0.02    0.01
  -2   6  -6   -0.02    0.02
   2  -6   6   -0.02    0.01
   2  -6   6    0.01    0.02
   2  -6   6    0.02    0.02
  -3   6  -6    1.09    0.05
  -3   6  -6    1.03    0.06
  -3   6  -6    1.04    0.05
   3  -6   6    1.05    0.06
   3  -6   6    1.13    0.06
   3  -6   6    1.07    0.06
  -4   6  -6    0.57    0.04
  -4   6  -6    0.63    0.04
  -4   6  -6    0.68    0.05
   4  -6   6    0.69    0.05
   4  -6   6    0.59    0.05
   4  -6   6    0.57    0.04
  -5   6  -6    0.03    0.02
  -5   6  -6    0.03    0.02
   5  -6   6    0.03    0.02
   5  -6   6    0.06    0.03
   5   5  -6    0.04    0.02
   5   5  -6    0.07    0.02
  -5  -5   6    0.12    0.02
   4   5  -6    1.90    0.08
   4   5  -6    1.86    0.06
  -4  -5   6    1.90    0.07
   3   5  -6    0.77    0.05
   3   5  -6    0.75    0.04
  -3  -5   6    0.75    0.05
   2   5  -6   -0.03    0.01
   2   5  -6    0.00    0.01
  -2  -5   6   -0.02    0.01
   1   5  -6    1.19    0.05
   1   5  -6    1.35    0.06
  -1  -5   6    1.30    0.05
  -1  -5   6    1.22    0.06
  -1  -5   6    1.25    0.06
   0   5  -6    7.10    0.16
   0   5  -6    7.27    0.19
   0   5  -6    6.89    0.17
   0  -5   6    7.05    0.18
   0  -5   6    7.10    0.18
   0  -5   6    6.85    0.19
  -1   5  -6   20.40    0.48
  -1   5  -6   20.47    0.44
  -1   5  -6   21.06    0.45
   1  -5   6   20.32    0.49
   1  -5   6   20.29    0.47
   1  -5   6   21.08    0.47
  -2   5  -6    0.06    0.02
  -2   5  -6    0.06    0.02
  -2   5  -6    0.06    0.02
   2  -5   6    0.05    0.02
   2  -5   6    0.05    0.02
   2  -5   6    0.05    0.02
  -3   5  -6    4.19    0.11
  -3   5  -6    4.21    0.13
  -3   5  -6    4.29    0.12
   3  -5   6    4.08    0.13
   3  -5   6    4.17    0.13
   3  -5   6    4.21    0.13
  -4   5  -6    0.03    0.02
  -4   5  -6    0.01    0.02
  -4   5  -6    0.04    0.02
   4  -5   6    0.02    0.02
   4  -5   6    0.03    0.02
   4  -5   6    0.01    0.02
  -5   5  -6    0.00    0.01
  -5   5  -6   -0.03    0.02
  -5   5  -6    0.00    0.02
   5  -5   6   -0.02    0.02
   5  -5   6    0.00    0.02
   5  -5   6    0.00    0.02
  -6   5  -6    0.01    0.02
  -6   5  -6    0.02    0.02
   6  -5   6    0.04    0.02
   6  -5   6    0.03    0.02
   6   4  -6    0.10    0.03
   5   4  -6    0.02    0.02
   5   4  -6    0.06    0.01
  -5  -4   6    0.05    0.02
   4   4  -6    2.74    0.10
   4   4  -6    2.65    0.07
  -4  -4   6    2.66    0.09
   3   4  -6    0.03    0.01
   3   4  -6    0.01    0.02
  -3  -4   6    0.02    0.02
   2   4  -6   11.01    0.24
   2   4  -6   10.97    0.27
  -2  -4   6   11.13    0.27
   1   4  -6    0.27    0.03
   1   4  -6    0.25    0.02
  -1  -4   6    0.27    0.03
  -1  -4   6    0.32    0.02
  -1  -4   6    0.24    0.03
   0   4  -6   14.65    0.31
   0   4  -6   14.77    0.35
   0   4  -6   14.76    0.32
   0  -4   6   14.84    0.36
   0  -4   6   14.83    0.34
   0  -4   6   14.66    0.34
  -1   4  -6    1.55    0.05
  -1   4  -6    1.45    0.05
  -1   4  -6    1.52    0.06
   1  -4   6    1.44    0.06
   1  -4   6    1.57    0.06
   1  -4   6    1.48    0.07
  -2   4  -6    0.02    0.01
  -2   4  -6    0.00    0.01
  -2   4  -6    0.00    0.01
   2  -4   6   -0.01    0.01
   2  -4   6    0.01    0.02
   2  -4   6   -0.01    0.01
  -3   4  -6    0.44    0.03
  -3   4  -6    0.44    0.03
  -3   4  -6    0.44    0.03
   3  -4   6    0.40    0.03
   3  -4   6    0.52    0.04
   3  -4   6    0.42    0.04
  -4   4  -6    0.27    0.03
  -4   4  -6    0.28    0.03
  -4   4  -6    0.34    0.03
   4  -4   6    0.27    0.04
   4  -4   6    0.30    0.03
  -5   4  -6    3.93    0.12
  -5   4  -6    3.76    0.11
  -5   4  -6    3.77    0.11
   5  -4   6    3.90    0.13
   5  -4   6    3.81    0.13
  -6   4  -6    0.00    0.01
  -6   4  -6    0.02    0.02
   6  -4   6    0.01    0.02
   6  -4   6    0.02    0.02
  -7   4  -6    1.14    0.07
  -7   4  -6    1.03    0.05
   7  -4   6    1.19    0.07
   6   3  -6   -0.01    0.02
   5   3  -6    0.26    0.03
  -5  -3   6    0.33    0.03
   4   3  -6    0.12    0.02
   4   3  -6    0.11    0.02
  -4  -3   6    0.15    0.02
   3   3  -6    8.50    0.22
   3   3  -6    8.65    0.19
  -3  -3   6    8.25    0.21
   2   3  -6    0.04    0.01
   2   3  -6    0.04    0.02
  -2  -3   6    0.03    0.02
   1   3  -6    0.05    0.01
   1   3  -6    0.06    0.01
   1   3  -6    0.04    0.01
  -1  -3   6    0.03    0.02
  -1  -3   6    0.05    0.01
  -1  -3   6    0.02    0.01
   0   3  -6    1.10    0.05
   0   3  -6    1.03    0.04
   0  -3   6    1.15    0.04
   0  -3   6    1.08    0.05
   0  -3   6    1.07    0.04
  -1   3  -6    0.61    0.03
  -1   3  -6    0.55    0.02
  -1   3  -6    0.49    0.03
   1  -3   6    0.53    0.03
   1  -3   6    0.51    0.04
   1  -3   6    0.51    0.03
  -2   3  -6    5.80    0.14
  -2   3  -6    5.80    0.15
  -2   3  -6    5.90    0.14
   2  -3   6    5.87    0.16
   2  -3   6    5.77    0.15
   2  -3   6    5.78    0.15
  -3   3  -6    0.65    0.03
  -3   3  -6    0.65    0.03
  -3   3  -6    0.59    0.03
   3  -3   6    0.59    0.04
   3  -3   6    0.62    0.04
  -4   3  -6    2.07    0.07
  -4   3  -6    2.05    0.07
  -4   3  -6    1.96    0.06
   4  -3   6    1.95    0.08
   4  -3   6    1.96    0.08
  -5   3  -6    7.82    0.20
  -5   3  -6    8.19    0.19
  -5   3  -6    8.18    0.21
   5  -3   6    8.03    0.22
   5  -3   6    8.18    0.22
  -6   3  -6    0.25    0.03
  -6   3  -6    0.23    0.03
   6  -3   6    0.27    0.04
   6  -3   6    0.27    0.04
  -7   3  -6    0.26    0.04
  -7   3  -6    0.22    0.03
   7  -3   6    0.22    0.03
   7  -3   6    0.25    0.04
   6   2  -6    0.07    0.03
   5   2  -6   -0.02    0.02
  -5  -2   6   -0.01    0.01
   4   2  -6    1.24    0.06
  -4  -2   6    1.35    0.05
   3   2  -6    0.25    0.03
   3   2  -6    0.29    0.02
   3   2  -6    0.34    0.02
  -3  -2   6    0.27    0.03
  -3  -2   6    0.27    0.02
   2   2  -6    2.09    0.05
   2   2  -6    2.06    0.06
   2   2  -6    1.97    0.07
  -2  -2   6    1.97    0.07
   1   2  -6    6.28    0.16
   1   2  -6    6.33    0.14
   1   2  -6    6.19    0.14
  -1  -2   6    6.24    0.16
  -1  -2   6    6.41    0.17
  -1  -2   6    6.27    0.14
   0   2  -6    1.02    0.04
   0   2  -6    1.04    0.04
   0   2  -6    1.08    0.03
   0  -2   6    1.00    0.03
   0  -2   6    0.96    0.05
   0  -2   6    1.01    0.04
  -1   2  -6    3.45    0.08
  -1   2  -6    3.57    0.08
  -1   2  -6    3.46    0.10
   1  -2   6    3.63    0.11
   1  -2   6    3.60    0.10
   1  -2   6    3.49    0.10
  -2   2  -6    4.36    0.12
  -2   2  -6    4.58    0.11
  -2   2  -6    4.57    0.11
   2  -2   6    4.61    0.12
   2  -2   6    4.66    0.12
   2  -2   6    4.52    0.13
  -3   2  -6    6.45    0.16
  -3   2  -6    6.28    0.15
  -3   2  -6    6.42    0.16
   3  -2   6    6.46    0.17
   3  -2   6    6.39    0.18
  -4   2  -6    6.77    0.17
  -4   2  -6    6.80    0.16
  -4   2  -6    6.70    0.17
   4  -2   6    6.80    0.19
   4  -2   6    6.89    0.18
  -5   2  -6    1.66    0.06
  -5   2  -6    1.70    0.07
  -5   2  -6    1.49    0.05
   5  -2   6    1.60    0.07
   5  -2   6    1.58    0.07
  -6   2  -6   -0.01    0.01
  -6   2  -6   -0.03    0.02
   6  -2   6   -0.02    0.02
   6  -2   6   -0.01    0.02
  -7   2  -6    0.50    0.05
  -7   2  -6    0.45    0.03
   7  -2   6    0.50    0.04
   7  -2   6    0.45    0.05
  -8   2  -6    0.02    0.03
  -8   2  -6    0.04    0.02
   8  -2   6    0.03    0.02
   7   1  -6    0.36    0.04
   6   1  -6    1.01    0.06
   5   1  -6    8.42    0.22
   4   1  -6    0.00    0.01
  -4  -1   6    0.01    0.01
  -4  -1   6   -0.01    0.01
   3   1  -6    2.12    0.06
   3   1  -6    2.04    0.07
  -3  -1   6    2.00    0.06
  -3  -1   6    2.06    0.07
   2   1  -6    1.30    0.05
   2   1  -6    1.37    0.05
   2   1  -6    1.33    0.03
  -2  -1   6    1.30    0.05
   1   1  -6    0.17    0.01
   1   1  -6    0.17    0.02
  -1  -1   6    0.16    0.02
  -1  -1   6    0.16    0.02
   0   1  -6    4.02    0.10
   0   1  -6    4.05    0.11
   0   1  -6    4.09    0.09
   0  -1   6    3.86    0.11
   0  -1   6    4.06    0.10
   0  -1   6    3.87    0.10
  -1   1  -6    4.59    0.10
  -1   1  -6    4.56    0.11
  -1   1  -6    4.59    0.12
   1  -1   6    4.61    0.12
   1  -1   6    4.52    0.10
   1  -1   6    4.60    0.13
   1  -1   6    4.68    0.12
  -2   1  -6    6.05    0.14
  -2   1  -6    5.78    0.13
  -2   1  -6    5.72    0.14
   2  -1   6    6.02    0.15
   2  -1   6    5.87    0.16
  -3   1  -6    3.64    0.10
  -3   1  -6    3.54    0.08
  -3   1  -6    3.51    0.09
   3  -1   6    3.52    0.10
   3  -1   6    3.45    0.11
  -4   1  -6    9.98    0.24
  -4   1  -6    9.80    0.21
  -4   1  -6    9.84    0.23
   4  -1   6    9.91    0.25
   4  -1   6    9.85    0.25
  -5   1  -6    4.63    0.11
  -5   1  -6    4.57    0.13
   5  -1   6    4.38    0.14
   5  -1   6    4.55    0.14
  -6   1  -6    1.51    0.07
  -6   1  -6    1.54    0.05
   6  -1   6    1.49    0.07
   6  -1   6    1.54    0.07
  -7   1  -6    0.83    0.06
  -7   1  -6    0.70    0.04
   7  -1   6    0.81    0.05
   7  -1   6    0.75    0.05
  -8   1  -6    1.12    0.07
  -8   1  -6    1.19    0.05
   8  -1   6    0.98    0.06
   7   0  -6    0.01    0.02
   6   0  -6    1.28    0.06
   5   0  -6    2.32    0.08
  -5   0   6    2.30    0.08
   4   0  -6    0.07    0.02
   4   0  -6    0.10    0.02
  -4   0   6    0.08    0.01
  -4   0   6    0.07    0.01
   3   0  -6    4.94    0.13
   3   0  -6    4.88    0.12
  -3   0   6    4.66    0.12
  -3   0   6    4.85    0.12
   2   0  -6    6.57    0.15
   2   0  -6    6.37    0.16
  -2   0   6    6.32    0.16
  -2   0   6    6.30    0.14
   1   0  -6    0.19    0.02
  -1   0   6    0.26    0.02
  -1   0   6    0.23    0.02
   0   0  -6    1.18    0.04
   0   0   6    1.18    0.04
   0   0   6    1.24    0.04
   0   0   6    1.23    0.05
  -1   0  -6    8.57    0.19
  -1   0  -6    8.57    0.20
  -1   0  -6    8.35    0.20
   1   0   6    8.44    0.20
   1   0   6    8.51    0.19
   1   0   6    8.64    0.21
  -2   0  -6   17.29    0.35
  -2   0  -6   17.03    0.38
  -2   0  -6   17.52    0.35
  -2   0  -6   17.37    0.39
   2   0   6   17.61    0.40
   2   0   6   17.43    0.41
  -3   0  -6    3.03    0.09
  -3   0  -6    3.07    0.08
  -3   0  -6    3.07    0.07
  -3   0  -6    3.11    0.07
   3   0   6    3.07    0.10
   3   0   6    2.94    0.09
  -4   0  -6    0.30    0.02
  -4   0  -6    0.29    0.03
  -4   0  -6    0.28    0.02
  -4   0  -6    0.27    0.01
   4   0   6    0.26    0.03
   4   0   6    0.27    0.03
  -5   0  -6    7.15    0.18
  -5   0  -6    6.83    0.16
   5   0   6    6.82    0.19
   5   0   6    6.99    0.19
  -6   0  -6   10.45    0.23
  -6   0  -6   10.30    0.27
   6   0   6   10.84    0.27
   6   0   6   10.32    0.27
  -7   0  -6    0.25    0.04
  -7   0  -6    0.27    0.02
   7   0   6    0.27    0.04
   7   0   6    0.27    0.04
  -8   0  -6    0.52    0.03
  -8   0  -6    0.53    0.05
   8   0   6    0.57    0.05
   8   0   6    0.59    0.05
   7  -1  -6    0.10    0.03
   6  -1  -6    0.20    0.03
  -6   1   6    0.22    0.03
   5  -1  -6    0.94    0.05
  -5   1   6    0.86    0.04
   4  -1  -6    0.51    0.04
   4  -1  -6    0.55    0.03
  -4   1   6    0.54    0.03
  -4   1   6    0.55    0.02
   3  -1  -6    0.00    0.01
   3  -1  -6    0.00    0.01
  -3   1   6    0.00    0.01
  -3   1   6    0.00    0.01
   2  -1  -6    0.59    0.02
   2  -1  -6    0.55    0.03
  -2   1   6    0.57    0.03
  -2   1   6    0.57    0.02
   1  -1  -6    1.59    0.05
  -1   1   6    1.62    0.04
  -1   1   6    1.58    0.05
  -1   1   6    1.64    0.06
  -1   1   6    1.56    0.04
  -1   1   6    1.55    0.05
  -1   1   6    1.64    0.04
   0  -1  -6    2.11    0.06
   0   1   6    2.14    0.07
   0   1   6    2.14    0.06
   0   1   6    2.13    0.05
   0   1   6    2.17    0.06
   0   1   6    2.10    0.06
  -1  -1  -6    5.73    0.14
  -1  -1  -6    5.83    0.14
   1   1   6    5.98    0.14
   1   1   6    5.76    0.15
   1   1   6    5.79    0.13
  -2  -1  -6   14.14    0.31
  -2  -1  -6   14.09    0.31
   2   1   6   13.88    0.32
   2   1   6   13.68    0.33
  -3  -1  -6    0.87    0.02
  -3  -1  -6    0.83    0.02
  -3  -1  -6    0.90    0.04
  -3  -1  -6    0.88    0.02
   3   1   6    0.97    0.04
   3   1   6    0.81    0.04
  -4  -1  -6    0.00    0.01
  -4  -1  -6    0.01    0.01
  -4  -1  -6   -0.01    0.01
   4   1   6    0.00    0.01
   4   1   6    0.02    0.01
  -5  -1  -6    9.06    0.19
  -5  -1  -6    9.29    0.20
  -5  -1  -6    9.19    0.23
   5   1   6    8.63    0.23
   5   1   6    8.77    0.23
  -6  -1  -6    1.02    0.04
  -6  -1  -6    0.99    0.06
   6   1   6    1.08    0.06
   6   1   6    0.97    0.06
  -7  -1  -6    0.70    0.05
  -7  -1  -6    0.73    0.03
   7   1   6    0.69    0.05
   7   1   6    0.68    0.05
  -8  -1  -6    0.20    0.04
  -8  -1  -6    0.14    0.02
   8   1   6    0.15    0.03
   8   1   6    0.14    0.03
   7  -2  -6    0.63    0.05
  -7   2   6    0.63    0.05
   6  -2  -6    0.02    0.02
  -6   2   6    0.00    0.02
   5  -2  -6    0.63    0.04
  -5   2   6    0.55    0.04
   4  -2  -6    0.29    0.02
   4  -2  -6    0.25    0.02
   4  -2  -6    0.23    0.03
  -4   2   6    0.33    0.03
   3  -2  -6    3.77    0.11
   3  -2  -6    3.86    0.09
   3  -2  -6    3.83    0.09
  -3   2   6    3.60    0.09
  -3   2   6    3.73    0.09
  -3   2   6    3.84    0.10
  -3   2   6    3.69    0.09
   2  -2  -6    2.89    0.07
   2  -2  -6    2.91    0.09
  -2   2   6    2.95    0.08
  -2   2   6    2.97    0.08
  -2   2   6    2.89    0.08
  -2   2   6    2.86    0.07
   1  -2  -6    0.19    0.02
  -1   2   6    0.26    0.02
  -1   2   6    0.27    0.02
  -1   2   6    0.27    0.01
   0  -2  -6    7.49    0.18
   0   2   6    7.62    0.17
   0   2   6    7.37    0.16
   0   2   6    7.52    0.17
   0   2   6    7.54    0.18
   0   2   6    7.35    0.19
  -1  -2  -6    7.49    0.17
  -1  -2  -6    7.57    0.18
   1   2   6    7.33    0.18
   1   2   6    7.30    0.17
   1   2   6    7.71    0.19
  -2  -2  -6    0.00    0.01
  -2  -2  -6    0.00    0.01
   2   2   6    0.00    0.01
   2   2   6    0.00    0.01
  -3  -2  -6    8.17    0.19
  -3  -2  -6    8.68    0.21
   3   2   6    8.35    0.19
   3   2   6    8.40    0.21
   3   2   6    8.74    0.22
  -4  -2  -6    0.69    0.02
  -4  -2  -6    0.75    0.04
  -4  -2  -6    0.72    0.02
   4   2   6    0.69    0.04
   4   2   6    0.71    0.04
  -5  -2  -6    0.44    0.02
  -5  -2  -6    0.47    0.02
  -5  -2  -6    0.41    0.04
   5   2   6    0.36    0.04
   5   2   6    0.41    0.04
  -6  -2  -6    2.15    0.06
  -6  -2  -6    2.05    0.08
   6   2   6    2.18    0.09
   6   2   6    2.05    0.08
  -7  -2  -6    0.14    0.03
  -7  -2  -6    0.15    0.02
   7   2   6    0.15    0.03
   7   2   6    0.13    0.03
  -8  -2  -6    0.15    0.03
  -8  -2  -6    0.11    0.02
   8   2   6    0.14    0.03
   8   2   6    0.11    0.03
  -9  -2  -6    0.14    0.02
  -9  -2  -6    0.16    0.04
   9   2   6    0.13    0.03
   6  -3  -6    0.06    0.02
  -6   3   6    0.04    0.02
   5  -3  -6    0.05    0.02
  -5   3   6    0.07    0.02
   4  -3  -6    2.20    0.06
   4  -3  -6    2.14    0.06
   4  -3  -6    2.18    0.08
  -4   3   6    2.12    0.07
   3  -3  -6    0.06    0.02
   3  -3  -6    0.08    0.01
  -3   3   6    0.07    0.01
  -3   3   6    0.06    0.01
  -3   3   6    0.08    0.01
   2  -3  -6    0.52    0.02
   2  -3  -6    0.53    0.03
  -2   3   6    0.55    0.03
  -2   3   6    0.55    0.03
  -2   3   6    0.57    0.03
  -2   3   6    0.54    0.03
   1  -3  -6   15.67    0.35
   1  -3  -6   15.82    0.36
  -1   3   6   15.75    0.35
  -1   3   6   16.00    0.36
   0  -3  -6   39.29    0.88
   0  -3  -6   39.14    0.90
   0   3   6   41.13    0.88
  -1  -3  -6    8.94    0.21
  -1  -3  -6    8.84    0.21
   1   3   6    9.02    0.22
   1   3   6    9.19    0.22
  -2  -3  -6    0.26    0.01
  -2  -3  -6    0.25    0.02
  -2  -3  -6    0.28    0.02
   2   3   6    0.26    0.03
   2   3   6    0.30    0.03
  -3  -3  -6    4.85    0.13
  -3  -3  -6    4.58    0.13
   3   3   6    4.70    0.10
   3   3   6    4.66    0.13
   3   3   6    4.65    0.11
   3   3   6    4.65    0.14
  -4  -3  -6    2.69    0.09
  -4  -3  -6    2.60    0.09
   4   3   6    2.84    0.10
   4   3   6    2.54    0.07
   4   3   6    2.74    0.09
  -5  -3  -6    0.30    0.01
  -5  -3  -6    0.26    0.03
  -5  -3  -6    0.24    0.03
  -5  -3  -6    0.30    0.01
   5   3   6    0.29    0.03
   5   3   6    0.27    0.02
   5   3   6    0.36    0.04
  -6  -3  -6    2.21    0.06
  -6  -3  -6    2.16    0.09
  -6  -3  -6    2.20    0.08
   6   3   6    2.08    0.09
   6   3   6    2.25    0.09
  -7  -3  -6    0.78    0.03
  -7  -3  -6    0.81    0.06
   7   3   6    0.81    0.06
   7   3   6    0.78    0.05
  -8  -3  -6    0.52    0.06
  -8  -3  -6    0.43    0.03
   8   3   6    0.49    0.05
   8   3   6    0.53    0.05
  -9  -3  -6    0.07    0.03
  -9  -3  -6    0.03    0.01
   9   3   6    0.03    0.02
   9   3   6   -0.01    0.02
   6  -4  -6    0.08    0.02
  -6   4   6    0.11    0.03
   5  -4  -6    0.14    0.02
  -5   4   6    0.11    0.02
   4  -4  -6    2.29    0.06
   4  -4  -6    2.35    0.07
   4  -4  -6    2.34    0.08
  -4   4   6    2.39    0.08
   3  -4  -6    0.95    0.05
   3  -4  -6    0.95    0.04
  -3   4   6    0.95    0.03
  -3   4   6    0.99    0.04
   2  -4  -6    1.11    0.04
   2  -4  -6    1.09    0.05
  -2   4   6    1.05    0.03
  -2   4   6    1.04    0.04
  -2   4   6    1.07    0.04
   1  -4  -6    0.02    0.01
   1  -4  -6    0.03    0.01
  -1   4   6    0.03    0.01
   0  -4  -6  123.31    2.75
   0  -4  -6  120.56    2.74
   0  -4  -6  125.61    2.77
   0   4   6  125.44    2.76
  -1  -4  -6    7.49    0.17
  -1  -4  -6    7.22    0.18
  -1  -4  -6    7.41    0.18
  -1  -4  -6    7.42    0.18
  -2  -4  -6   11.80    0.28
  -2  -4  -6   12.04    0.28
  -2  -4  -6   11.83    0.27
   2   4   6   12.15    0.29
  -3  -4  -6    5.59    0.15
  -3  -4  -6    5.93    0.16
   3   4   6    5.52    0.15
  -4  -4  -6    0.34    0.03
  -4  -4  -6    0.32    0.03
   4   4   6    0.37    0.02
   4   4   6    0.40    0.03
   4   4   6    0.41    0.01
  -5  -4  -6    0.74    0.04
  -5  -4  -6    0.79    0.05
   5   4   6    0.79    0.05
   5   4   6    0.75    0.03
  -6  -4  -6    0.33    0.03
  -6  -4  -6    0.38    0.02
  -6  -4  -6    0.34    0.02
  -6  -4  -6    0.39    0.04
   6   4   6    0.38    0.04
  -7  -4  -6    0.62    0.03
  -7  -4  -6    0.55    0.05
  -7  -4  -6    0.65    0.05
   7   4   6    0.66    0.05
   7   4   6    0.66    0.05
  -8  -4  -6    0.32    0.05
  -8  -4  -6    0.25    0.03
  -8  -4  -6    0.35    0.02
   8   4   6    0.34    0.04
   8   4   6    0.37    0.04
  -9  -4  -6    0.05    0.03
  -9  -4  -6    0.06    0.02
   9   4   6    0.09    0.03
   9   4   6    0.03    0.02
   6  -5  -6   -0.01    0.02
  -6   5   6    0.00    0.02
   5  -5  -6    0.63    0.04
   5  -5  -6    0.62    0.02
   5  -5  -6    0.65    0.04
  -5   5   6    0.62    0.04
   4  -5  -6    0.20    0.03
   4  -5  -6    0.25    0.03
  -4   5   6    0.25    0.03
   3  -5  -6    0.13    0.02
   3  -5  -6    0.12    0.02
  -3   5   6    0.12    0.02
   2  -5  -6    0.12    0.02
   2  -5  -6    0.11    0.02
  -2   5   6    0.13    0.02
  -2   5   6    0.15    0.01
  -2   5   6    0.12    0.02
   1  -5  -6    0.01    0.01
   1  -5  -6    0.02    0.01
   1  -5  -6   -0.02    0.01
  -1   5   6   -0.02    0.01
   0  -5  -6    4.96    0.13
   0  -5  -6    4.90    0.13
   0  -5  -6    4.91    0.13
  -1  -5  -6    0.00    0.01
  -1  -5  -6    0.02    0.01
  -1  -5  -6   -0.01    0.01
  -1  -5  -6    0.04    0.01
  -2  -5  -6    2.88    0.09
  -3  -5  -6   -0.01    0.01
  -3  -5  -6    0.01    0.01
   3   5   6   -0.01    0.01
  -4  -5  -6    0.10    0.02
  -4  -5  -6    0.10    0.02
   4   5   6    0.09    0.01
   4   5   6    0.11    0.02
  -5  -5  -6    0.73    0.05
  -5  -5  -6    0.61    0.04
   5   5   6    0.65    0.04
   5   5   6    0.71    0.02
  -6  -5  -6    0.42    0.04
  -6  -5  -6    0.45    0.05
   6   5   6    0.40    0.04
  -7  -5  -6    2.44    0.11
  -7  -5  -6    2.73    0.10
  -7  -5  -6    2.52    0.06
   7   5   6    2.68    0.10
  -8  -5  -6    0.19    0.03
  -8  -5  -6    0.13    0.02
  -8  -5  -6    0.12    0.03
   8   5   6    0.18    0.03
   8   5   6    0.21    0.03
  -9  -5  -6    0.29    0.05
   6  -6  -6   -0.01    0.02
  -6   6   6   -0.01    0.02
   5  -6  -6    0.00    0.02
   5  -6  -6    0.02    0.02
  -5   6   6    0.00    0.02
   4  -6  -6    0.08    0.02
   4  -6  -6    0.09    0.02
  -4   6   6    0.12    0.02
   3  -6  -6    0.07    0.02
   3  -6  -6    0.04    0.02
  -3   6   6    0.09    0.02
   2  -6  -6    5.10    0.13
   2  -6  -6    5.00    0.14
   2  -6  -6    4.95    0.12
  -2   6   6    5.02    0.13
  -2   6   6    4.90    0.13
   1  -6  -6    0.42    0.03
   1  -6  -6    0.38    0.03
   1  -6  -6    0.42    0.03
   0  -6  -6    0.14    0.02
   0  -6  -6    0.13    0.02
   0  -6  -6    0.11    0.02
   0   6   6    0.12    0.01
  -1  -6  -6    1.05    0.04
  -1  -6  -6    1.03    0.05
  -1  -6  -6    1.10    0.05
  -2  -6  -6    0.26    0.03
  -2  -6  -6    0.35    0.03
  -2  -6  -6    0.30    0.03
  -3  -6  -6    1.77    0.08
  -3  -6  -6    1.88    0.07
  -4  -6  -6    1.32    0.07
  -4  -6  -6    1.27    0.06
   4   6   6    1.26    0.06
  -5  -6  -6    0.06    0.02
  -5  -6  -6    0.04    0.02
   5   6   6    0.07    0.01
  -6  -6  -6    6.70    0.19
  -6  -6  -6    6.84    0.20
   6   6   6    6.71    0.20
  -7  -6  -6    0.30    0.01
  -7  -6  -6    0.34    0.04
  -7  -6  -6    0.27    0.04
   7   6   6    0.28    0.04
  -8  -6  -6    0.05    0.03
  -8  -6  -6    0.01    0.02
  -8  -6  -6    0.00    0.01
   8   6   6   -0.01    0.02
   5  -7  -6    1.56    0.07
   5  -7  -6    1.42    0.06
  -5   7   6    1.53    0.07
   4  -7  -6    0.13    0.02
   4  -7  -6    0.17    0.03
  -4   7   6    0.15    0.03
   3  -7  -6    0.02    0.02
   3  -7  -6    0.03    0.02
  -3   7   6    0.03    0.02
   2  -7  -6    0.07    0.01
   2  -7  -6    0.08    0.02
   2  -7  -6    0.04    0.02
  -2   7   6    0.06    0.02
   1  -7  -6    0.03    0.02
   1  -7  -6    0.03    0.01
   1  -7  -6    0.03    0.01
   0  -7  -6    0.08    0.02
   0  -7  -6    0.10    0.02
  -1  -7  -6    0.08    0.02
  -1  -7  -6    0.12    0.02
  -2  -7  -6    1.65    0.07
  -2  -7  -6    1.64    0.06
  -2  -7  -6    1.67    0.06
  -3  -7  -6    0.11    0.02
  -3  -7  -6    0.14    0.03
  -3  -7  -6    0.13    0.02
  -4  -7  -6    0.55    0.04
  -4  -7  -6    0.66    0.05
  -5  -7  -6    5.68    0.16
  -5  -7  -6    5.76    0.18
   5   7   6    5.80    0.18
   5   7   6    6.04    0.15
  -6  -7  -6    0.32    0.05
  -6  -7  -6    0.25    0.04
   6   7   6    0.23    0.04
  -7  -7  -6    0.03    0.02
  -7  -7  -6    0.03    0.02
   7   7   6    0.04    0.02
  -8  -7  -6    0.08    0.03
  -8  -7  -6    0.10    0.03
   8   7   6    0.10    0.03
   5  -8  -6    0.33    0.04
   5  -8  -6    0.36    0.04
  -5   8   6    0.38    0.04
   4  -8  -6    0.02    0.02
   4  -8  -6    0.04    0.02
  -4   8   6   -0.02    0.02
   3  -8  -6    0.04    0.02
   3  -8  -6    0.03    0.02
  -3   8   6   -0.01    0.02
   2  -8  -6    0.19    0.03
  -2   8   6    0.15    0.03
   1  -8  -6    0.17    0.02
   1  -8  -6    0.17    0.02
   0  -8  -6    0.37    0.03
   0  -8  -6    0.36    0.03
  -1  -8  -6    8.73    0.21
  -1  -8  -6    8.32    0.22
  -2  -8  -6    5.62    0.15
  -2  -8  -6    5.57    0.17
  -2  -8  -6    5.47    0.15
  -3  -8  -6    0.01    0.01
  -3  -8  -6    0.00    0.02
  -3  -8  -6    0.02    0.01
  -4  -8  -6    0.68    0.04
  -4  -8  -6    0.65    0.05
  -5  -8  -6    5.51    0.18
  -5  -8  -6    5.61    0.16
   5   8   6    5.88    0.15
   5   8   6    5.77    0.18
  -6  -8  -6    2.49    0.10
  -6  -8  -6    2.76    0.12
   6   8   6    2.48    0.11
  -7  -8  -6    0.01    0.02
  -7  -8  -6   -0.01    0.02
   7   8   6    0.00    0.02
  -8  -8  -6    1.49    0.08
  -8  -8  -6    1.52    0.09
   8   8   6    1.48    0.08
   4  -9  -6    0.19    0.03
  -4   9   6    0.24    0.04
   3  -9  -6    0.03    0.02
  -3   9   6    0.01    0.02
   2  -9  -6    0.19    0.03
  -2   9   6    0.24    0.03
   1  -9  -6    0.38    0.03
   1  -9  -6    0.37    0.03
   0  -9  -6    0.04    0.02
   0  -9  -6    0.00    0.01
  -1  -9  -6    0.02    0.02
  -1  -9  -6    0.01    0.02
  -2  -9  -6    1.23    0.06
  -2  -9  -6    1.43    0.06
  -3  -9  -6    0.16    0.02
  -3  -9  -6    0.14    0.02
  -3  -9  -6    0.22    0.04
  -4  -9  -6    1.44    0.08
  -4  -9  -6    1.38    0.06
  -5  -9  -6    6.05    0.18
  -5  -9  -6    6.30    0.20
   5   9   6    6.46    0.17
  -6  -9  -6    0.17    0.03
  -6  -9  -6    0.17    0.04
   6   9   6    0.20    0.04
  -7  -9  -6    0.13    0.04
  -7  -9  -6    0.16    0.03
   7   9   6    0.12    0.03
   3 -10  -6    0.07    0.02
   2 -10  -6    0.31    0.04
  -2  10   6    0.26    0.04
   1 -10  -6    0.06    0.02
   1 -10  -6    0.06    0.02
   0 -10  -6    0.30    0.03
   0 -10  -6    0.24    0.03
  -1 -10  -6    0.16    0.03
  -1 -10  -6    0.22    0.03
  -2 -10  -6    0.33    0.03
  -2 -10  -6    0.33    0.04
  -3 -10  -6    0.54    0.04
  -3 -10  -6    0.57    0.06
  -3 -10  -6    0.65    0.04
  -4 -10  -6    3.59    0.14
  -4 -10  -6    3.53    0.12
  -4 -10  -6    3.55    0.12
  -5 -10  -6    0.05    0.02
  -5 -10  -6    0.02    0.03
   5  10   6    0.06    0.02
  -6 -10  -6    0.02    0.02
  -6 -10  -6   -0.03    0.02
   6  10   6   -0.01    0.02
  -7 -10  -6    0.49    0.06
  -7 -10  -6    0.53    0.05
   7  10   6    0.47    0.06
   2 -11  -6    0.02    0.02
  -2  11   6   -0.03    0.02
   1 -11  -6    0.09    0.03
   0 -11  -6    0.55    0.04
   0 -11  -6    0.49    0.04
  -1 -11  -6    0.18    0.03
  -1 -11  -6    0.14    0.03
  -2 -11  -6    0.23    0.03
  -2 -11  -6    0.20    0.03
  -3 -11  -6    0.00    0.02
  -3 -11  -6    0.00    0.02
  -4 -11  -6    0.84    0.07
  -4 -11  -6    0.85    0.05
  -4 -11  -6    0.79    0.05
  -5 -11  -6   -0.01    0.02
  -5 -11  -6    0.01    0.03
   5  11   6    0.03    0.02
  -6 -11  -6   -0.02    0.02
  -6 -11  -6   -0.01    0.03
   6  11   6    0.00    0.02
   0 -12  -6    0.96    0.05
   0 -12  -6    0.82    0.06
  -1 -12  -6    0.10    0.03
  -1 -12  -6    0.19    0.03
  -2 -12  -6    0.07    0.02
  -2 -12  -6    0.06    0.03
  -3 -12  -6    0.14    0.03
  -3 -12  -6    0.08    0.03
  -4 -12  -6    0.09    0.03
  -4 -12  -6    0.13    0.03
  -4 -12  -6    0.13    0.04
   1   8  -7    1.76    0.08
   1   8  -7    1.90    0.07
  -1  -8   7    1.75    0.08
   0   8  -7    0.57    0.04
   0   8  -7    0.55    0.05
   0  -8   7    0.59    0.05
  -1   8  -7    0.07    0.02
  -1   8  -7    0.05    0.02
   1  -8   7    0.06    0.03
   3   7  -7    0.01    0.02
   3   7  -7    0.03    0.02
  -3  -7   7    0.02    0.02
   2   7  -7    0.06    0.02
   2   7  -7    0.07    0.02
  -2  -7   7    0.06    0.02
   1   7  -7    0.05    0.02
   1   7  -7    0.05    0.02
  -1  -7   7    0.06    0.02
   0   7  -7    0.50    0.04
   0   7  -7    0.57    0.04
   0  -7   7    0.44    0.04
  -1   7  -7    0.31    0.03
  -1   7  -7    0.34    0.04
   1  -7   7    0.27    0.04
   1  -7   7    0.37    0.04
  -2   7  -7    0.22    0.03
  -2   7  -7    0.28    0.03
   2  -7   7    0.28    0.04
   2  -7   7    0.29    0.03
  -3   7  -7    0.01    0.02
  -3   7  -7    0.00    0.02
   3  -7   7    0.00    0.02
   3  -7   7    0.01    0.02
   4   6  -7    0.13    0.02
   4   6  -7    0.09    0.03
  -4  -6   7    0.10    0.02
   3   6  -7    0.13    0.02
   3   6  -7    0.11    0.03
  -3  -6   7    0.14    0.03
   2   6  -7    0.19    0.02
   2   6  -7    0.23    0.03
  -2  -6   7    0.22    0.03
   1   6  -7    0.09    0.02
   1   6  -7    0.08    0.02
  -1  -6   7    0.12    0.03
   0   6  -7    0.47    0.04
   0   6  -7    0.44    0.03
   0  -6   7    0.49    0.03
   0  -6   7    0.53    0.04
  -1   6  -7   -0.01    0.02
  -1   6  -7    0.00    0.01
   1  -6   7    0.01    0.01
   1  -6   7   -0.01    0.02
  -2   6  -7    0.49    0.04
  -2   6  -7    0.53    0.03
   2  -6   7    0.52    0.04
   2  -6   7    0.55    0.04
  -3   6  -7    0.06    0.02
  -3   6  -7    0.03    0.02
   3  -6   7    0.04    0.02
   3  -6   7    0.05    0.02
  -4   6  -7    0.44    0.04
  -4   6  -7    0.42    0.03
  -4   6  -7    0.51    0.04
   4  -6   7    0.41    0.04
   4  -6   7    0.53    0.05
  -5   6  -7    0.03    0.02
   5  -6   7    0.00    0.02
   5   5  -7    0.41    0.03
   5   5  -7    0.39    0.04
   4   5  -7    0.30    0.04
   4   5  -7    0.34    0.03
  -4  -5   7    0.31    0.03
   3   5  -7    0.36    0.04
   3   5  -7    0.45    0.03
  -3  -5   7    0.49    0.04
   2   5  -7    0.02    0.01
   2   5  -7    0.00    0.02
  -2  -5   7    0.01    0.02
   1   5  -7    2.07    0.08
   1   5  -7    2.05    0.06
  -1  -5   7    2.14    0.08
   0   5  -7    3.25    0.11
   0   5  -7    3.22    0.09
   0  -5   7    3.23    0.10
   0  -5   7    3.12    0.11
   0  -5   7    3.31    0.09
  -1   5  -7    4.16    0.13
  -1   5  -7    4.28    0.11
   1  -5   7    4.23    0.13
   1  -5   7    4.39    0.12
   1  -5   7    3.90    0.13
  -2   5  -7    0.02    0.01
  -2   5  -7    0.00    0.02
  -2   5  -7    0.00    0.01
   2  -5   7    0.02    0.02
   2  -5   7    0.00    0.02
   2  -5   7    0.01    0.02
  -3   5  -7    0.31    0.03
  -3   5  -7    0.25    0.03
  -3   5  -7    0.25    0.03
   3  -5   7    0.25    0.04
   3  -5   7    0.23    0.03
  -4   5  -7    0.01    0.02
  -4   5  -7    0.04    0.02
  -4   5  -7    0.03    0.02
   4  -5   7    0.01    0.02
   4  -5   7    0.05    0.02
  -5   5  -7    2.08    0.07
  -5   5  -7    2.17    0.08
   5  -5   7    2.13    0.09
   5  -5   7    2.18    0.09
   5   4  -7   -0.02    0.02
   5   4  -7    0.00    0.01
  -5  -4   7    0.02    0.02
   4   4  -7    1.26    0.04
   4   4  -7    1.29    0.06
  -4  -4   7    1.25    0.06
   3   4  -7    7.32    0.16
   3   4  -7    7.35    0.20
  -3  -4   7    6.83    0.19
   2   4  -7    3.57    0.09
   2   4  -7    3.55    0.11
  -2  -4   7    3.60    0.12
   1   4  -7    1.47    0.05
   1   4  -7    1.53    0.06
  -1  -4   7    1.47    0.07
  -1  -4   7    1.60    0.06
   0   4  -7    1.72    0.06
   0   4  -7    1.67    0.07
   0  -4   7    1.76    0.08
   0  -4   7    1.77    0.07
   0  -4   7    1.73    0.06
  -1   4  -7    0.62    0.04
  -1   4  -7    0.63    0.03
   1  -4   7    0.65    0.04
   1  -4   7    0.62    0.04
   1  -4   7    0.59    0.05
  -2   4  -7    0.17    0.02
  -2   4  -7    0.15    0.02
  -2   4  -7    0.16    0.02
   2  -4   7    0.11    0.03
   2  -4   7    0.16    0.02
   2  -4   7    0.18    0.02
  -3   4  -7    1.63    0.06
  -3   4  -7    1.68    0.06
  -3   4  -7    1.58    0.06
   3  -4   7    1.54    0.07
   3  -4   7    1.66    0.07
   3  -4   7    1.58    0.07
  -4   4  -7    0.06    0.02
  -4   4  -7    0.04    0.02
  -4   4  -7    0.04    0.02
   4  -4   7    0.04    0.02
   4  -4   7    0.03    0.02
  -5   4  -7    0.02    0.02
  -5   4  -7    0.00    0.01
   5  -4   7    0.01    0.02
   5  -4   7    0.01    0.02
  -6   4  -7    0.10    0.03
  -6   4  -7    0.08    0.02
   6  -4   7    0.15    0.03
   6  -4   7    0.09    0.03
   6   3  -7    0.53    0.05
   5   3  -7    0.01    0.02
  -5  -3   7    0.03    0.02
   4   3  -7    0.14    0.02
   4   3  -7    0.12    0.03
  -4  -3   7    0.13    0.02
   3   3  -7    2.67    0.07
   3   3  -7    2.79    0.10
  -3  -3   7    2.74    0.09
   2   3  -7    1.86    0.07
   2   3  -7    1.75    0.05
  -2  -3   7    1.80    0.07
   1   3  -7    3.72    0.11
   1   3  -7    3.70    0.09
  -1  -3   7    3.86    0.12
  -1  -3   7    3.63    0.11
  -1  -3   7    3.80    0.09
   0   3  -7    0.14    0.01
   0   3  -7    0.11    0.02
   0  -3   7    0.13    0.03
   0  -3   7    0.12    0.02
   0  -3   7    0.14    0.02
  -1   3  -7    0.28    0.02
  -1   3  -7    0.26    0.02
  -1   3  -7    0.24    0.02
   1  -3   7    0.26    0.03
   1  -3   7    0.29    0.03
   1  -3   7    0.27    0.02
  -2   3  -7    0.20    0.02
  -2   3  -7    0.18    0.02
  -2   3  -7    0.20    0.02
   2  -3   7    0.19    0.02
   2  -3   7    0.22    0.02
   2  -3   7    0.20    0.03
  -3   3  -7    1.30    0.05
  -3   3  -7    1.31    0.05
  -3   3  -7    1.41    0.05
   3  -3   7    1.33    0.06
   3  -3   7    1.26    0.06
   3  -3   7    1.32    0.06
  -4   3  -7    0.01    0.01
  -4   3  -7    0.05    0.02
  -4   3  -7    0.05    0.02
   4  -3   7    0.04    0.02
   4  -3   7    0.04    0.02
  -5   3  -7    1.14    0.06
  -5   3  -7    1.04    0.04
   5  -3   7    1.07    0.06
   5  -3   7    0.95    0.06
  -6   3  -7    0.15    0.03
  -6   3  -7    0.15    0.02
   6  -3   7    0.12    0.03
   6  -3   7    0.15    0.03
  -7   3  -7    0.45    0.03
  -7   3  -7    0.48    0.05
   7  -3   7    0.51    0.05
   7  -3   7    0.47    0.05
   6   2  -7    0.15    0.03
   5   2  -7    0.10    0.02
   4   2  -7   -0.01    0.02
  -4  -2   7    0.01    0.01
   3   2  -7    2.36    0.06
   3   2  -7    2.38    0.08
  -3  -2   7    2.48    0.08
   2   2  -7    0.11    0.01
   2   2  -7    0.09    0.02
   2   2  -7    0.13    0.02
  -2  -2   7    0.10    0.02
   1   2  -7    0.40    0.02
   1   2  -7    0.41    0.03
  -1  -2   7    0.40    0.02
  -1  -2   7    0.36    0.03
  -1  -2   7    0.34    0.03
   0   2  -7    1.59    0.06
   0   2  -7    1.58    0.05
   0   2  -7    1.60    0.04
   0  -2   7    1.54    0.07
   0  -2   7    1.58    0.05
   0  -2   7    1.57    0.06
  -1   2  -7    3.99    0.09
  -1   2  -7    3.84    0.11
  -1   2  -7    3.91    0.09
   1  -2   7    4.05    0.12
   1  -2   7    3.80    0.11
   1  -2   7    3.88    0.10
  -2   2  -7    0.06    0.01
  -2   2  -7    0.07    0.01
  -2   2  -7    0.02    0.01
   2  -2   7    0.03    0.02
   2  -2   7    0.05    0.02
   2  -2   7    0.06    0.02
  -3   2  -7    0.04    0.01
  -3   2  -7    0.03    0.01
  -3   2  -7    0.08    0.02
   3  -2   7    0.06    0.02
   3  -2   7    0.05    0.02
  -4   2  -7    1.65    0.05
  -4   2  -7    1.67    0.06
  -4   2  -7    1.63    0.05
   4  -2   7    1.69    0.07
   4  -2   7    1.64    0.07
  -5   2  -7    0.44    0.03
  -5   2  -7    0.34    0.04
   5  -2   7    0.35    0.04
   5  -2   7    0.39    0.04
  -6   2  -7    0.42    0.03
  -6   2  -7    0.48    0.05
   6  -2   7    0.47    0.05
   6  -2   7    0.46    0.04
  -7   2  -7    0.76    0.05
  -7   2  -7    0.70    0.04
   7  -2   7    0.75    0.05
   7  -2   7    0.80    0.06
   6   1  -7    0.79    0.05
   5   1  -7    0.00    0.02
   4   1  -7    0.40    0.03
  -4  -1   7    0.40    0.03
   3   1  -7    0.00    0.01
  -3  -1   7    0.00    0.01
   2   1  -7    0.05    0.02
   2   1  -7    0.06    0.01
  -2  -1   7    0.07    0.02
   1   1  -7    0.91    0.04
  -1  -1   7    0.98    0.05
  -1  -1   7    0.94    0.04
   0   1  -7    5.38    0.13
   0   1  -7    5.54    0.11
   0   1  -7    5.60    0.14
   0  -1   7    5.51    0.14
   0  -1   7    5.55    0.13
   0  -1   7    5.33    0.15
  -1   1  -7    1.18    0.04
  -1   1  -7    1.22    0.03
  -1   1  -7    1.16    0.04
   1  -1   7    1.20    0.04
   1  -1   7    1.22    0.06
   1  -1   7    1.21    0.04
  -2   1  -7    0.87    0.03
  -2   1  -7    0.83    0.03
  -2   1  -7    0.83    0.03
   2  -1   7    0.73    0.04
   2  -1   7    0.86    0.04
  -3   1  -7    4.00    0.11
  -3   1  -7    3.97    0.09
  -3   1  -7    3.90    0.10
  -3   1  -7    3.89    0.09
   3  -1   7    4.00    0.13
   3  -1   7    4.02    0.11
  -4   1  -7   15.11    0.31
  -4   1  -7   14.83    0.33
  -4   1  -7   14.75    0.34
   4  -1   7   14.50    0.35
   4  -1   7   14.67    0.36
  -5   1  -7    0.97    0.05
  -5   1  -7    0.93    0.04
   5  -1   7    0.91    0.05
   5  -1   7    0.96    0.06
  -6   1  -7    0.09    0.02
  -6   1  -7    0.15    0.03
   6  -1   7    0.16    0.03
   6  -1   7    0.11    0.03
  -7   1  -7    0.00    0.01
  -7   1  -7    0.00    0.02
   7  -1   7    0.01    0.02
   7  -1   7   -0.02    0.02
  -8   1  -7    0.19    0.04
  -8   1  -7    0.15    0.02
   8  -1   7    0.16    0.03
   8  -1   7    0.16    0.03
   6   0  -7    1.86    0.08
   5   0  -7    0.29    0.03
   4   0  -7    0.11    0.02
  -4   0   7    0.12    0.02
   3   0  -7    0.05    0.01
   3   0  -7    0.02    0.01
  -3   0   7    0.05    0.01
  -3   0   7    0.06    0.01
   2   0  -7    8.96    0.22
  -2   0   7    8.82    0.22
   1   0  -7    0.00    0.01
  -1   0   7    0.03    0.01
  -1   0   7    0.01    0.01
   0   0  -7    2.29    0.07
   0   0   7    2.26    0.07
   0   0   7    2.18    0.08
   0   0   7    2.28    0.06
   0   0   7    2.29    0.06
  -1   0  -7    1.77    0.05
  -1   0  -7    1.86    0.06
   1   0   7    1.79    0.07
   1   0   7    1.79    0.05
   1   0   7    1.88    0.06
   1   0   7    1.81    0.06
  -2   0  -7   10.69    0.24
  -2   0  -7   10.82    0.25
   2   0   7   10.36    0.27
   2   0   7   10.74    0.25
  -3   0  -7    0.03    0.01
  -3   0  -7    0.03    0.01
  -3   0  -7    0.03    0.01
  -3   0  -7    0.02    0.01
   3   0   7    0.04    0.01
   3   0   7    0.02    0.02
  -4   0  -7    1.29    0.04
  -4   0  -7    1.23    0.06
  -4   0  -7    1.32    0.04
  -4   0  -7    1.28    0.04
   4   0   7    1.18    0.06
   4   0   7    1.40    0.06
  -5   0  -7    9.76    0.24
  -5   0  -7    9.78    0.21
   5   0   7    9.75    0.26
   5   0   7    9.67    0.25
  -6   0  -7    1.13    0.04
  -6   0  -7    1.25    0.07
   6   0   7    1.08    0.06
   6   0   7    0.94    0.06
  -7   0  -7    0.03    0.02
  -7   0  -7    0.02    0.01
   7   0   7    0.03    0.02
   7   0   7    0.03    0.02
  -8   0  -7    0.01    0.01
  -8   0  -7    0.01    0.02
   8   0   7    0.01    0.02
   8   0   7    0.02    0.02
   6  -1  -7    0.44    0.04
   5  -1  -7    0.63    0.04
   4  -1  -7    0.06    0.02
  -4   1   7    0.08    0.02
   3  -1  -7    0.29    0.02
   3  -1  -7    0.27    0.03
  -3   1   7    0.28    0.02
  -3   1   7    0.30    0.02
   2  -1  -7    2.34    0.08
  -2   1   7    2.34    0.07
  -2   1   7    2.37    0.08
  -2   1   7    2.38    0.06
   1  -1  -7    3.37    0.10
  -1   1   7    3.43    0.10
  -1   1   7    3.37    0.08
  -1   1   7    3.35    0.08
  -1   1   7    3.25    0.08
  -1   1   7    3.48    0.09
  -1   1   7    3.25    0.08
   0  -1  -7    6.04    0.15
   0   1   7    6.28    0.16
   0   1   7    6.08    0.14
   0   1   7    6.04    0.14
   0   1   7    6.02    0.14
   0   1   7    6.26    0.15
  -1  -1  -7    2.66    0.07
  -1  -1  -7    2.55    0.07
   1   1   7    2.64    0.07
   1   1   7    2.58    0.07
   1   1   7    2.53    0.09
  -2  -1  -7    2.70    0.07
  -2  -1  -7    2.65    0.08
   2   1   7    2.70    0.08
   2   1   7    2.81    0.09
  -3  -1  -7    0.53    0.03
  -3  -1  -7    0.55    0.02
   3   1   7    0.49    0.04
   3   1   7    0.56    0.03
  -4  -1  -7    0.45    0.02
  -4  -1  -7    0.41    0.03
  -4  -1  -7    0.49    0.02
   4   1   7    0.51    0.04
   4   1   7    0.42    0.03
  -5  -1  -7    1.89    0.05
  -5  -1  -7    1.68    0.07
  -5  -1  -7    1.89    0.05
   5   1   7    1.85    0.08
   5   1   7    1.77    0.08
  -6  -1  -7    4.38    0.10
  -6  -1  -7    4.44    0.14
   6   1   7    4.40    0.14
   6   1   7    4.07    0.13
  -7  -1  -7    1.46    0.08
  -7  -1  -7    1.55    0.05
   7   1   7    1.54    0.07
   7   1   7    1.62    0.08
  -8  -1  -7    0.03    0.03
  -8  -1  -7    0.00    0.01
   8   1   7   -0.02    0.02
   8   1   7    0.03    0.02
   6  -2  -7    0.03    0.02
   5  -2  -7    0.26    0.03
  -5   2   7    0.26    0.03
   4  -2  -7    0.37    0.03
   4  -2  -7    0.40    0.02
  -4   2   7    0.40    0.03
   3  -2  -7    2.75    0.09
  -3   2   7    2.83    0.08
  -3   2   7    2.71    0.08
   2  -2  -7    2.18    0.07
  -2   2   7    2.10    0.07
  -2   2   7    2.07    0.06
  -2   2   7    2.05    0.05
   1  -2  -7    3.75    0.10
  -1   2   7    3.60    0.09
  -1   2   7    3.63    0.09
  -1   2   7    3.61    0.09
  -1   2   7    3.72    0.11
  -1   2   7    3.66    0.09
  -1   2   7    3.73    0.10
   0  -2  -7    2.04    0.06
   0   2   7    2.00    0.06
   0   2   7    2.05    0.06
   0   2   7    2.04    0.07
   0   2   7    1.97    0.05
   0   2   7    1.97    0.06
  -1  -2  -7    6.38    0.15
  -1  -2  -7    6.27    0.15
   1   2   7    6.55    0.17
   1   2   7    6.20    0.16
  -2  -2  -7    7.44    0.18
  -2  -2  -7    7.49    0.17
   2   2   7    7.46    0.20
   2   2   7    7.41    0.19
  -3  -2  -7    0.03    0.01
  -3  -2  -7    0.04    0.01
   3   2   7    0.05    0.02
   3   2   7    0.03    0.01
  -4  -2  -7    0.96    0.05
   4   2   7    0.84    0.05
   4   2   7    0.89    0.05
  -5  -2  -7    0.25    0.03
  -5  -2  -7    0.33    0.02
  -5  -2  -7    0.34    0.02
   5   2   7    0.30    0.04
   5   2   7    0.18    0.03
  -6  -2  -7    0.05    0.03
  -6  -2  -7    0.09    0.01
   6   2   7    0.05    0.03
   6   2   7    0.06    0.02
  -7  -2  -7    0.11    0.02
  -7  -2  -7    0.08    0.03
   7   2   7    0.07    0.02
   7   2   7    0.09    0.03
  -8  -2  -7    0.13    0.03
  -8  -2  -7    0.13    0.02
   8   2   7    0.12    0.03
   8   2   7    0.12    0.03
   6  -3  -7    0.16    0.03
  -6   3   7    0.25    0.03
   5  -3  -7    0.06    0.02
  -5   3   7    0.06    0.02
   4  -3  -7    0.27    0.03
  -4   3   7    0.31    0.03
   3  -3  -7    0.23    0.02
   3  -3  -7    0.28    0.03
  -3   3   7    0.28    0.02
  -3   3   7    0.24    0.02
   2  -3  -7    0.04    0.01
   2  -3  -7    0.03    0.01
  -2   3   7    0.05    0.01
  -2   3   7    0.05    0.01
  -2   3   7    0.05    0.01
   1  -3  -7    2.12    0.06
   1  -3  -7    2.00    0.07
  -1   3   7    2.14    0.06
  -1   3   7    2.11    0.07
   0  -3  -7    0.51    0.03
   0   3   7    0.57    0.04
   0   3   7    0.52    0.02
  -1  -3  -7    0.38    0.02
  -1  -3  -7    0.39    0.03
   1   3   7    0.46    0.03
   1   3   7    0.40    0.03
  -2  -3  -7    3.20    0.09
  -2  -3  -7    3.18    0.08
   2   3   7    3.14    0.10
   2   3   7    3.13    0.10
  -3  -3  -7    5.46    0.13
  -3  -3  -7    5.78    0.15
   3   3   7    5.57    0.16
   3   3   7    5.72    0.15
  -4  -3  -7    0.50    0.04
   4   3   7    0.48    0.02
   4   3   7    0.42    0.04
   4   3   7    0.49    0.04
  -5  -3  -7    0.23    0.03
   5   3   7    0.21    0.03
   5   3   7    0.23    0.03
  -6  -3  -7    0.01    0.01
  -6  -3  -7    0.03    0.01
  -6  -3  -7   -0.01    0.02
   6   3   7    0.02    0.02
   6   3   7   -0.04    0.02
  -7  -3  -7    0.12    0.03
  -7  -3  -7    0.13    0.01
   7   3   7    0.13    0.03
   7   3   7    0.11    0.03
  -8  -3  -7    0.02    0.03
  -8  -3  -7    0.04    0.01
   8   3   7    0.00    0.02
   8   3   7    0.00    0.02
   6  -4  -7    0.00    0.02
  -6   4   7    0.02    0.02
   5  -4  -7    0.01    0.02
  -5   4   7    0.00    0.02
   4  -4  -7    0.42    0.04
  -4   4   7    0.51    0.03
   3  -4  -7    3.56    0.11
   3  -4  -7    3.51    0.10
  -3   4   7    3.69    0.10
   2  -4  -7    0.06    0.02
   2  -4  -7    0.06    0.01
  -2   4   7    0.07    0.02
  -2   4   7    0.07    0.01
   1  -4  -7    0.12    0.02
   1  -4  -7    0.11    0.02
  -1   4   7    0.12    0.02
   0  -4  -7    3.08    0.09
   0  -4  -7    3.11    0.09
   0   4   7    3.09    0.10
  -1  -4  -7    1.00    0.04
  -1  -4  -7    1.05    0.05
   1   4   7    0.96    0.05
  -2  -4  -7    1.79    0.07
  -2  -4  -7    1.75    0.05
  -2  -4  -7    1.68    0.06
   2   4   7    1.75    0.07
   2   4   7    1.70    0.07
  -3  -4  -7    0.50    0.04
  -3  -4  -7    0.53    0.03
   3   4   7    0.46    0.04
   3   4   7    0.45    0.03
  -4  -4  -7    0.14    0.03
  -4  -4  -7    0.18    0.02
   4   4   7    0.15    0.02
   4   4   7    0.13    0.03
  -5  -4  -7    0.03    0.02
  -5  -4  -7    0.05    0.02
   5   4   7    0.05    0.02
   5   4   7    0.03    0.02
  -6  -4  -7   -0.01    0.02
  -6  -4  -7    0.10    0.03
   6   4   7    0.02    0.02
   6   4   7    0.03    0.02
  -7  -4  -7   -0.02    0.02
  -7  -4  -7   -0.01    0.01
   7   4   7   -0.02    0.02
   7   4   7   -0.01    0.02
  -8  -4  -7    0.02    0.01
  -8  -4  -7    0.01    0.03
   8   4   7    0.04    0.02
   8   4   7    0.02    0.02
   5  -5  -7    0.00    0.02
  -5   5   7    0.02    0.02
   4  -5  -7    0.27    0.03
   4  -5  -7    0.29    0.03
  -4   5   7    0.31    0.03
   3  -5  -7    0.04    0.01
   3  -5  -7    0.03    0.02
  -3   5   7    0.00    0.02
   2  -5  -7    0.89    0.04
   2  -5  -7    0.82    0.04
  -2   5   7    0.85    0.04
  -2   5   7    0.94    0.04
   1  -5  -7    1.61    0.06
   1  -5  -7    1.57    0.05
  -1   5   7    1.55    0.06
   0  -5  -7    0.87    0.04
   0  -5  -7    0.79    0.04
   0  -5  -7    0.81    0.04
   0   5   7    0.86    0.05
  -1  -5  -7    0.14    0.02
  -1  -5  -7    0.13    0.02
  -1  -5  -7    0.17    0.02
  -1  -5  -7    0.13    0.02
   1   5   7    0.12    0.02
  -2  -5  -7    0.37    0.03
  -2  -5  -7    0.39    0.02
  -2  -5  -7    0.34    0.03
  -3  -5  -7   13.46    0.33
  -3  -5  -7   14.54    0.33
   3   5   7   13.25    0.33
  -4  -5  -7    0.12    0.02
  -4  -5  -7    0.01    0.02
   4   5   7    0.02    0.02
  -5  -5  -7    0.23    0.03
  -5  -5  -7    0.27    0.03
   5   5   7    0.16    0.03
  -6  -5  -7    1.80    0.08
  -6  -5  -7    1.72    0.07
   6   5   7    1.70    0.08
  -7  -5  -7    2.25    0.09
  -7  -5  -7    2.36    0.10
   7   5   7    2.21    0.09
   7   5   7    2.21    0.10
  -8  -5  -7    0.25    0.05
  -8  -5  -7    0.34    0.04
  -8  -5  -7    0.33    0.02
   8   5   7    0.31    0.04
   8   5   7    0.26    0.04
   5  -6  -7   -0.01    0.02
  -5   6   7    0.03    0.02
   4  -6  -7    0.43    0.03
   4  -6  -7    0.40    0.04
  -4   6   7    0.45    0.04
   3  -6  -7   -0.01    0.01
   3  -6  -7    0.00    0.01
  -3   6   7    0.00    0.02
   2  -6  -7    5.39    0.14
   2  -6  -7    5.08    0.14
  -2   6   7    5.04    0.14
  -2   6   7    5.24    0.14
   1  -6  -7    2.37    0.08
   1  -6  -7    2.53    0.07
   1  -6  -7    2.36    0.08
  -1   6   7    2.21    0.08
   0  -6  -7    0.32    0.03
   0  -6  -7    0.38    0.03
   0  -6  -7    0.35    0.03
  -1  -6  -7    1.45    0.05
  -1  -6  -7    1.37    0.05
  -1  -6  -7    1.46    0.06
  -2  -6  -7    1.03    0.05
  -2  -6  -7    1.02    0.06
  -2  -6  -7    1.00    0.05
  -3  -6  -7    1.22    0.06
  -3  -6  -7    0.95    0.05
  -4  -6  -7    0.17    0.03
  -4  -6  -7    0.19    0.03
   4   6   7    0.18    0.03
  -5  -6  -7    3.03    0.11
  -5  -6  -7    2.88    0.10
   5   6   7    2.83    0.11
  -6  -6  -7    3.78    0.14
  -6  -6  -7    3.98    0.13
   6   6   7    4.07    0.14
  -7  -6  -7    0.00    0.02
  -7  -6  -7    0.00    0.02
   7   6   7    0.01    0.02
  -8  -6  -7    0.00    0.02
  -8  -6  -7    0.01    0.03
   8   6   7    0.03    0.02
   5  -7  -7    0.03    0.02
  -5   7   7    0.06    0.03
   4  -7  -7   -0.01    0.02
   4  -7  -7    0.00    0.02
  -4   7   7    0.03    0.02
   3  -7  -7    0.04    0.02
   3  -7  -7    0.06    0.02
  -3   7   7    0.05    0.02
   2  -7  -7    0.01    0.02
   2  -7  -7   -0.01    0.01
  -2   7   7    0.00    0.02
   1  -7  -7    0.04    0.02
   1  -7  -7    0.02    0.02
   1  -7  -7    0.04    0.02
   0  -7  -7    0.06    0.02
   0  -7  -7    0.04    0.02
   0  -7  -7    0.05    0.02
  -1  -7  -7    0.03    0.01
  -1  -7  -7    0.05    0.02
  -2  -7  -7    0.14    0.02
  -2  -7  -7    0.12    0.02
  -2  -7  -7    0.11    0.03
  -3  -7  -7    0.16    0.02
  -3  -7  -7    0.14    0.03
  -4  -7  -7   -0.03    0.01
  -4  -7  -7    0.01    0.02
   4   7   7    0.03    0.02
  -5  -7  -7    0.12    0.03
  -5  -7  -7    0.10    0.03
   5   7   7    0.08    0.03
  -6  -7  -7    4.52    0.16
  -6  -7  -7    4.60    0.15
   6   7   7    4.66    0.15
  -7  -7  -7    0.00    0.02
  -7  -7  -7   -0.01    0.02
   7   7   7    0.02    0.02
  -8  -7  -7    0.05    0.03
  -8  -7  -7   -0.01    0.02
   8   7   7    0.06    0.03
   4  -8  -7    0.02    0.02
   4  -8  -7    0.01    0.02
  -4   8   7    0.00    0.02
   3  -8  -7    0.01    0.02
   3  -8  -7    0.01    0.02
  -3   8   7    0.01    0.02
   2  -8  -7    0.51    0.04
   2  -8  -7    0.49    0.04
  -2   8   7    0.54    0.04
   1  -8  -7    0.05    0.02
   1  -8  -7    0.10    0.02
   0  -8  -7    0.73    0.04
   0  -8  -7    0.77    0.04
  -1  -8  -7    0.41    0.03
  -1  -8  -7    0.45    0.03
  -2  -8  -7    0.30    0.04
  -2  -8  -7    0.34    0.03
  -2  -8  -7    0.28    0.03
  -3  -8  -7    2.18    0.09
  -3  -8  -7    2.23    0.08
  -3  -8  -7    2.44    0.08
  -4  -8  -7    0.47    0.04
  -4  -8  -7    0.38    0.05
  -5  -8  -7    7.03    0.22
  -5  -8  -7    7.31    0.20
   5   8   7    7.19    0.22
   5   8   7    7.63    0.19
  -6  -8  -7    2.99    0.12
  -6  -8  -7    3.03    0.11
   6   8   7    3.07    0.12
  -7  -8  -7    0.02    0.02
  -7  -8  -7    0.05    0.03
   7   8   7    0.03    0.02
  -8  -8  -7   -0.03    0.02
  -8  -8  -7   -0.01    0.02
   8   8   7    0.02    0.02
   3  -9  -7    0.72    0.05
  -3   9   7    0.84    0.05
   2  -9  -7    0.79    0.05
  -2   9   7    0.73    0.05
   1  -9  -7    0.02    0.02
   1  -9  -7    0.01    0.01
   0  -9  -7    0.08    0.02
   0  -9  -7    0.09    0.02
  -1  -9  -7    0.77    0.04
  -1  -9  -7    0.79    0.05
  -2  -9  -7    0.17    0.03
  -2  -9  -7    0.17    0.03
  -3  -9  -7    0.12    0.02
  -3  -9  -7    0.14    0.02
  -3  -9  -7    0.09    0.03
  -4  -9  -7    0.12    0.03
  -4  -9  -7    0.17    0.03
  -5  -9  -7    0.48    0.06
  -5  -9  -7    0.50    0.05
   5   9   7    0.49    0.06
   5   9   7    0.50    0.04
  -6  -9  -7    0.55    0.06
  -6  -9  -7    0.59    0.05
   6   9   7    0.51    0.05
  -7  -9  -7    0.22    0.03
  -7  -9  -7    0.11    0.04
   7   9   7    0.16    0.04
   3 -10  -7   -0.01    0.02
  -3  10   7    0.01    0.02
   2 -10  -7    0.00    0.02
  -2  10   7    0.04    0.02
   1 -10  -7    0.09    0.02
   0 -10  -7    0.78    0.04
   0 -10  -7    0.83    0.05
  -1 -10  -7    1.02    0.05
  -1 -10  -7    0.89    0.05
  -2 -10  -7    0.01    0.02
  -2 -10  -7    0.02    0.02
  -3 -10  -7    0.27    0.03
  -3 -10  -7    0.27    0.03
  -3 -10  -7    0.32    0.05
  -4 -10  -7   -0.02    0.03
  -4 -10  -7    0.03    0.02
  -5 -10  -7    0.24    0.04
  -5 -10  -7    0.26    0.05
   5  10   7    0.27    0.03
  -6 -10  -7    0.03    0.02
  -6 -10  -7    0.02    0.03
   6  10   7    0.05    0.03
   1 -11  -7    0.01    0.02
   0 -11  -7    0.02    0.02
   0 -11  -7    0.03    0.02
  -1 -11  -7    0.01    0.02
  -1 -11  -7    0.00    0.02
  -2 -11  -7   -0.02    0.02
  -2 -11  -7    0.00    0.02
  -3 -11  -7    0.01    0.02
  -3 -11  -7   -0.01    0.02
  -4 -11  -7    0.25    0.03
  -4 -11  -7    0.24    0.03
  -4 -11  -7    0.25    0.05
  -5 -11  -7    0.59    0.05
  -5 -11  -7    0.60    0.07
   5  11   7    0.63    0.05
  -6 -11  -7    0.02    0.03
  -6 -11  -7    0.02    0.02
   6  11   7    0.03    0.03
   0 -12  -7    0.39    0.04
  -1 -12  -7    0.03    0.02
  -1 -12  -7    0.00    0.02
  -2 -12  -7    0.10    0.03
  -2 -12  -7    0.08    0.03
  -3 -12  -7    0.07    0.03
  -3 -12  -7    0.09    0.03
  -4 -12  -7    0.00    0.02
  -4 -12  -7    0.00    0.02
  -4 -12  -7    0.00    0.03
   1   7  -8    0.82    0.06
   1   7  -8    0.79    0.04
  -1  -7   8    0.80    0.06
   0   7  -8    0.00    0.02
   0   7  -8    0.00    0.01
   0  -7   8    0.00    0.02
  -1   7  -8    0.03    0.02
  -1   7  -8    0.03    0.02
   1  -7   8    0.02    0.02
  -2   7  -8    0.09    0.03
  -2   7  -8    0.12    0.02
   2  -7   8    0.09    0.03
   2  -7   8    0.09    0.03
   3   6  -8    0.03    0.02
   3   6  -8    0.01    0.01
  -3  -6   8    0.04    0.02
   2   6  -8    0.95    0.04
   2   6  -8    0.96    0.06
  -2  -6   8    0.94    0.06
   1   6  -8    0.00    0.02
   1   6  -8    0.00    0.01
  -1  -6   8   -0.01    0.02
   0   6  -8    0.61    0.04
   0   6  -8    0.56    0.05
   0  -6   8    0.64    0.05
  -1   6  -8    0.17    0.03
  -1   6  -8    0.19    0.02
   1  -6   8    0.17    0.03
  -2   6  -8    0.02    0.02
  -2   6  -8    0.02    0.01
   2  -6   8    0.00    0.02
   2  -6   8   -0.01    0.02
  -3   6  -8    0.12    0.03
  -3   6  -8    0.12    0.02
   3  -6   8    0.15    0.03
   3  -6   8    0.13    0.03
  -4   6  -8    0.08    0.02
   4  -6   8    0.08    0.03
   4  -6   8    0.09    0.03
   4   5  -8    1.09    0.06
   4   5  -8    1.15    0.04
  -4  -5   8    1.21    0.06
   3   5  -8   -0.01    0.02
   3   5  -8    0.02    0.01
  -3  -5   8    0.00    0.02
   2   5  -8    0.02    0.01
   2   5  -8    0.01    0.02
  -2  -5   8    0.01    0.02
   1   5  -8    0.06    0.01
   1   5  -8    0.11    0.03
  -1  -5   8    0.11    0.02
   0   5  -8   -0.02    0.01
   0   5  -8    0.01    0.01
   0  -5   8    0.03    0.02
  -1   5  -8    0.10    0.02
  -1   5  -8    0.11    0.02
   1  -5   8    0.13    0.02
   1  -5   8    0.11    0.03
  -2   5  -8    2.61    0.08
  -2   5  -8    2.65    0.09
   2  -5   8    2.67    0.10
   2  -5   8    2.77    0.09
  -3   5  -8    0.38    0.04
  -3   5  -8    0.36    0.03
   3  -5   8    0.39    0.04
   3  -5   8    0.45    0.04
  -4   5  -8    0.27    0.03
   4  -5   8    0.28    0.04
   4  -5   8    0.29    0.04
  -5   5  -8    0.03    0.02
   5  -5   8    0.03    0.02
   5  -5   8    0.04    0.02
   4   4  -8    0.05    0.01
   4   4  -8    0.02    0.02
  -4  -4   8    0.06    0.02
   3   4  -8    0.05    0.02
   3   4  -8    0.07    0.01
  -3  -4   8    0.05    0.02
   2   4  -8    0.01    0.02
   2   4  -8    0.02    0.01
  -2  -4   8    0.01    0.02
   1   4  -8    2.17    0.08
   1   4  -8    2.13    0.06
  -1  -4   8    2.27    0.09
   0   4  -8    0.04    0.01
   0   4  -8    0.02    0.02
   0  -4   8    0.00    0.02
  -1   4  -8    0.77    0.03
  -1   4  -8    0.82    0.05
   1  -4   8    0.78    0.05
   1  -4   8    0.78    0.04
  -2   4  -8    0.50    0.03
  -2   4  -8    0.48    0.04
   2  -4   8    0.52    0.04
   2  -4   8    0.43    0.04
  -3   4  -8    1.88    0.07
  -3   4  -8    1.96    0.06
   3  -4   8    1.99    0.08
   3  -4   8    1.98    0.09
  -4   4  -8    0.47    0.03
  -4   4  -8    0.47    0.04
  -4   4  -8    0.50    0.04
   4  -4   8    0.51    0.04
   4  -4   8    0.42    0.05
  -5   4  -8    0.10    0.02
  -5   4  -8    0.06    0.02
   5  -4   8    0.10    0.03
   5  -4   8    0.12    0.03
  -6   4  -8   -0.01    0.01
  -6   4  -8   -0.02    0.02
   6  -4   8    0.00    0.02
   6  -4   8   -0.02    0.02
   5   3  -8    0.13    0.03
   4   3  -8    1.03    0.06
  -4  -3   8    1.19    0.06
   3   3  -8    1.89    0.05
   3   3  -8    1.87    0.08
  -3  -3   8    1.85    0.07
   2   3  -8    5.65    0.13
   2   3  -8    5.26    0.16
  -2  -3   8    5.62    0.16
   1   3  -8    1.65    0.07
   1   3  -8    1.47    0.05
  -1  -3   8    1.60    0.07
   0   3  -8   30.53    0.63
   0   3  -8   31.05    0.70
   0  -3   8   30.57    0.71
   0  -3   8   31.91    0.68
  -1   3  -8    1.10    0.05
  -1   3  -8    1.05    0.04
   1  -3   8    1.08    0.05
   1  -3   8    1.04    0.06
  -2   3  -8    4.24    0.12
  -2   3  -8    4.34    0.11
   2  -3   8    4.57    0.13
   2  -3   8    4.46    0.14
  -3   3  -8    0.00    0.01
  -3   3  -8   -0.02    0.01
  -3   3  -8    0.01    0.01
   3  -3   8   -0.01    0.01
   3  -3   8   -0.01    0.02
  -4   3  -8    1.42    0.05
  -4   3  -8    1.41    0.06
  -4   3  -8    1.29    0.05
   4  -3   8    1.26    0.06
   4  -3   8    1.26    0.07
  -5   3  -8    0.08    0.02
  -5   3  -8    0.10    0.02
   5  -3   8    0.07    0.02
   5  -3   8    0.10    0.03
  -6   3  -8    0.07    0.03
  -6   3  -8    0.03    0.02
   6  -3   8    0.08    0.03
   6  -3   8    0.06    0.02
   5   2  -8    0.03    0.02
   4   2  -8    0.28    0.03
  -4  -2   8    0.22    0.03
   3   2  -8    2.31    0.09
  -3  -2   8    2.24    0.08
   2   2  -8    0.08    0.01
   2   2  -8    0.10    0.02
  -2  -2   8    0.06    0.02
   1   2  -8    4.16    0.09
   1   2  -8    4.33    0.12
  -1  -2   8    4.01    0.13
   0   2  -8    1.83    0.05
   0   2  -8    1.75    0.07
   0  -2   8    1.82    0.05
   0  -2   8    1.85    0.07
   0  -2   8    1.75    0.07
  -1   2  -8    0.46    0.03
  -1   2  -8    0.43    0.02
   1  -2   8    0.44    0.03
   1  -2   8    0.36    0.04
   1  -2   8    0.45    0.03
  -2   2  -8    0.25    0.02
  -2   2  -8    0.31    0.03
  -2   2  -8    0.24    0.02
   2  -2   8    0.24    0.03
   2  -2   8    0.24    0.03
   2  -2   8    0.20    0.03
  -3   2  -8    0.01    0.01
  -3   2  -8    0.03    0.01
  -3   2  -8   -0.01    0.01
   3  -2   8    0.00    0.01
   3  -2   8    0.08    0.02
  -4   2  -8    5.68    0.14
  -4   2  -8    5.54    0.13
  -4   2  -8    5.66    0.15
   4  -2   8    5.51    0.17
   4  -2   8    5.49    0.16
  -5   2  -8    2.00    0.08
  -5   2  -8    1.94    0.06
   5  -2   8    2.07    0.09
   5  -2   8    2.07    0.08
  -6   2  -8   -0.02    0.02
  -6   2  -8    0.02    0.01
   6  -2   8    0.01    0.02
   6  -2   8    0.01    0.02
  -7   2  -8    0.24    0.04
  -7   2  -8    0.15    0.02
   7  -2   8    0.16    0.03
   7  -2   8    0.19    0.04
   5   1  -8   -0.01    0.02
   4   1  -8    0.02    0.02
  -4  -1   8    0.02    0.01
   3   1  -8    0.58    0.04
  -3  -1   8    0.52    0.04
   2   1  -8    0.01    0.01
  -2  -1   8   -0.01    0.01
   1   1  -8    0.07    0.02
  -1  -1   8    0.06    0.02
  -1  -1   8    0.07    0.02
   0   1  -8    1.37    0.05
   0  -1   8    1.39    0.04
   0  -1   8    1.37    0.05
   0  -1   8    1.40    0.06
  -1   1  -8    0.03    0.01
   1  -1   8    0.02    0.02
   1  -1   8    0.02    0.01
   1  -1   8    0.02    0.01
  -2   1  -8    0.01    0.01
  -2   1  -8    0.00    0.01
  -2   1  -8    0.01    0.01
  -2   1  -8    0.01    0.01
   2  -1   8    0.01    0.02
   2  -1   8    0.00    0.01
   2  -1   8    0.01    0.01
  -3   1  -8    1.80    0.06
  -3   1  -8    1.85    0.06
  -3   1  -8    1.76    0.05
  -3   1  -8    1.76    0.05
   3  -1   8    1.80    0.08
   3  -1   8    1.79    0.07
  -4   1  -8    8.25    0.20
  -4   1  -8    8.21    0.18
  -4   1  -8    8.37    0.21
   4  -1   8    8.67    0.23
   4  -1   8    8.20    0.22
  -5   1  -8    0.71    0.03
  -5   1  -8    0.72    0.05
   5  -1   8    0.68    0.05
   5  -1   8    0.80    0.05
  -6   1  -8    0.02    0.01
  -6   1  -8    0.01    0.02
   6  -1   8    0.01    0.02
   6  -1   8    0.05    0.02
  -7   1  -8    0.04    0.01
  -7   1  -8    0.04    0.02
   7  -1   8    0.05    0.02
   7  -1   8    0.07    0.03
   6   0  -8    0.25    0.04
   5   0  -8    2.18    0.09
   4   0  -8    0.23    0.03
   3   0  -8    1.43    0.06
  -3   0   8    1.41    0.06
   2   0  -8    0.30    0.03
  -2   0   8    0.37    0.03
   1   0  -8    1.28    0.05
  -1   0   8    1.25    0.06
  -1   0   8    1.31    0.05
   0   0  -8    7.44    0.18
   0   0   8    7.28    0.17
   0   0   8    7.63    0.17
   0   0   8    7.20    0.20
   0   0   8    7.26    0.18
  -1   0  -8    1.43    0.05
  -1   0  -8    1.52    0.04
   1   0   8    1.51    0.04
   1   0   8    1.53    0.05
   1   0   8    1.39    0.06
   1   0   8    1.52    0.05
  -2   0  -8    0.92    0.04
  -2   0  -8    0.92    0.04
   2   0   8    0.95    0.04
   2   0   8    0.96    0.05
  -3   0  -8    1.03    0.04
  -3   0  -8    1.11    0.05
   3   0   8    1.03    0.06
   3   0   8    1.13    0.05
  -4   0  -8    3.81    0.08
  -4   0  -8    3.73    0.09
  -4   0  -8    3.79    0.11
   4   0   8    3.71    0.12
   4   0   8    3.88    0.13
  -5   0  -8    1.45    0.04
  -5   0  -8    1.35    0.06
   5   0   8    1.44    0.07
   5   0   8    1.48    0.07
  -6   0  -8   -0.01    0.01
  -6   0  -8   -0.01    0.02
   6   0   8   -0.01    0.02
   6   0   8    0.00    0.02
  -7   0  -8    0.60    0.05
  -7   0  -8    0.54    0.03
   7   0   8    0.46    0.05
   7   0   8    0.60    0.05
  -8   0  -8    0.02    0.01
  -8   0  -8    0.01    0.02
   8   0   8   -0.02    0.02
   8   0   8    0.00    0.02
   6  -1  -8    2.57    0.10
   5  -1  -8    1.41    0.07
   4  -1  -8    0.11    0.02
   3  -1  -8    2.10    0.08
  -3   1   8    1.93    0.07
   2  -1  -8    1.74    0.07
  -2   1   8    1.75    0.06
   1  -1  -8    6.78    0.17
  -1   1   8    6.58    0.15
  -1   1   8    6.90    0.16
  -1   1   8    6.85    0.18
  -1   1   8    7.07    0.15
   0  -1  -8    0.01    0.01
   0   1   8    0.00    0.01
   0   1   8    0.00    0.01
   0   1   8    0.01    0.01
   0   1   8    0.01    0.01
   0   1   8    0.02    0.01
  -1  -1  -8    3.51    0.09
  -1  -1  -8    3.83    0.10
   1   1   8    3.66    0.12
   1   1   8    3.55    0.09
   1   1   8    3.63    0.09
   1   1   8    3.63    0.10
  -2  -1  -8    0.61    0.03
  -2  -1  -8    0.57    0.03
   2   1   8    0.61    0.03
   2   1   8    0.63    0.04
  -3  -1  -8    3.40    0.10
  -3  -1  -8    3.33    0.08
   3   1   8    3.31    0.11
   3   1   8    3.25    0.10
  -4  -1  -8    0.78    0.05
   4   1   8    0.78    0.05
   4   1   8    0.81    0.05
  -5  -1  -8    5.21    0.15
  -5  -1  -8    5.22    0.11
  -5  -1  -8    5.28    0.11
   5   1   8    5.19    0.16
   5   1   8    5.11    0.15
  -6  -1  -8    5.59    0.13
  -6  -1  -8    5.44    0.17
   6   1   8    5.55    0.17
   6   1   8    5.70    0.17
  -7  -1  -8    1.10    0.04
  -7  -1  -8    1.08    0.07
   7   1   8    1.14    0.07
   7   1   8    1.23    0.07
  -8  -1  -8    0.61    0.03
  -8  -1  -8    0.66    0.06
   8   1   8    0.60    0.05
   8   1   8    0.76    0.06
   6  -2  -8    0.14    0.03
   5  -2  -8    0.13    0.03
   4  -2  -8    1.63    0.07
   3  -2  -8    0.00    0.02
  -3   2   8    0.01    0.01
  -3   2   8    0.02    0.01
   2  -2  -8    0.90    0.04
  -2   2   8    0.92    0.04
  -2   2   8    0.97    0.03
   1  -2  -8    0.12    0.02
  -1   2   8    0.13    0.01
  -1   2   8    0.14    0.01
  -1   2   8    0.09    0.02
  -1   2   8    0.13    0.01
  -1   2   8    0.15    0.01
   0  -2  -8    2.82    0.08
   0   2   8    2.76    0.08
   0   2   8    2.74    0.07
   0   2   8    2.71    0.07
   0   2   8    2.65    0.09
   0   2   8    2.66    0.07
  -1  -2  -8    0.01    0.01
  -1  -2  -8    0.01    0.01
   1   2   8    0.00    0.02
   1   2   8    0.01    0.01
  -2  -2  -8    0.05    0.01
  -2  -2  -8    0.04    0.01
   2   2   8    0.03    0.01
   2   2   8    0.06    0.02
  -3  -2  -8    0.92    0.05
  -3  -2  -8    0.91    0.03
   3   2   8    0.95    0.05
   3   2   8    0.89    0.05
  -4  -2  -8    0.52    0.04
   4   2   8    0.52    0.04
   4   2   8    0.58    0.04
  -5  -2  -8    8.41    0.22
   5   2   8    8.70    0.23
   5   2   8    8.17    0.22
  -6  -2  -8    2.38    0.10
  -6  -2  -8    2.41    0.06
  -6  -2  -8    2.46    0.06
   6   2   8    2.14    0.10
   6   2   8    2.45    0.09
  -7  -2  -8    0.66    0.03
  -7  -2  -8    0.67    0.06
   7   2   8    0.59    0.05
   7   2   8    0.73    0.05
  -8  -2  -8    0.39    0.05
  -8  -2  -8    0.45    0.03
   8   2   8    0.47    0.05
   8   2   8    0.48    0.05
   5  -3  -8    0.22    0.03
   4  -3  -8    0.00    0.02
  -4   3   8    0.00    0.02
   3  -3  -8    0.14    0.02
  -3   3   8    0.13    0.02
   2  -3  -8    0.06    0.02
  -2   3   8    0.09    0.01
  -2   3   8    0.09    0.02
   1  -3  -8    0.43    0.03
  -1   3   8    0.41    0.02
  -1   3   8    0.43    0.03
  -1   3   8    0.42    0.03
  -1   3   8    0.44    0.02
   0  -3  -8    0.32    0.03
   0   3   8    0.33    0.03
   0   3   8    0.38    0.03
   0   3   8    0.37    0.02
  -1  -3  -8    0.20    0.02
  -1  -3  -8    0.21    0.02
   1   3   8    0.21    0.03
   1   3   8    0.22    0.02
  -2  -3  -8    0.56    0.04
  -2  -3  -8    0.57    0.03
   2   3   8    0.48    0.04
   2   3   8    0.51    0.03
  -3  -3  -8    0.07    0.02
  -3  -3  -8    0.05    0.01
   3   3   8    0.05    0.02
   3   3   8    0.12    0.02
  -4  -3  -8    3.55    0.11
   4   3   8    3.39    0.12
   4   3   8    3.29    0.11
  -5  -3  -8    1.13    0.06
   5   3   8    1.23    0.07
   5   3   8    1.09    0.06
  -6  -3  -8    2.08    0.09
   6   3   8    1.92    0.09
   6   3   8    1.76    0.08
  -7  -3  -8    0.96    0.06
  -7  -3  -8    1.12    0.03
   7   3   8    1.16    0.07
   7   3   8    1.03    0.06
  -8  -3  -8   -0.01    0.02
  -8  -3  -8    0.01    0.01
   8   3   8    0.02    0.02
   8   3   8    0.01    0.02
   5  -4  -8    0.09    0.02
  -5   4   8    0.11    0.02
   4  -4  -8    0.51    0.04
  -4   4   8    0.46    0.03
   3  -4  -8    0.17    0.03
  -3   4   8    0.21    0.02
   2  -4  -8    0.31    0.03
   2  -4  -8    0.29    0.02
  -2   4   8    0.34    0.03
  -2   4   8    0.34    0.03
   1  -4  -8    0.53    0.03
   1  -4  -8    0.64    0.03
  -1   4   8    0.58    0.04
   0  -4  -8    0.06    0.02
   0   4   8    0.07    0.01
   0   4   8    0.05    0.02
  -1  -4  -8    0.54    0.03
  -1  -4  -8    0.59    0.04
   1   4   8    0.54    0.04
   1   4   8    0.56    0.04
  -2  -4  -8    0.74    0.03
  -2  -4  -8    0.65    0.04
   2   4   8    0.70    0.05
   2   4   8    0.68    0.04
  -3  -4  -8    3.63    0.09
  -3  -4  -8    3.85    0.12
   3   4   8    3.75    0.12
   3   4   8    3.67    0.12
  -4  -4  -8    2.83    0.10
   4   4   8    2.87    0.11
   4   4   8    2.71    0.10
  -5  -4  -8    0.98    0.06
   5   4   8    0.78    0.05
   5   4   8    1.01    0.06
  -6  -4  -8    0.23    0.04
   6   4   8    0.24    0.04
   6   4   8    0.26    0.04
  -7  -4  -8    0.12    0.03
   7   4   8    0.11    0.03
   7   4   8    0.09    0.03
  -8  -4  -8    0.40    0.05
   8   4   8    0.31    0.04
   8   4   8    0.40    0.05
   5  -5  -8    0.24    0.03
  -5   5   8    0.24    0.03
   4  -5  -8    0.07    0.02
  -4   5   8    0.06    0.02
   3  -5  -8   -0.01    0.01
   3  -5  -8    0.02    0.01
  -3   5   8   -0.01    0.02
   2  -5  -8    0.09    0.02
   2  -5  -8    0.13    0.02
  -2   5   8    0.08    0.02
  -2   5   8    0.16    0.02
   1  -5  -8    4.86    0.12
   1  -5  -8    4.30    0.13
  -1   5   8    4.75    0.13
   0  -5  -8    6.26    0.16
   0  -5  -8    6.48    0.16
   0   5   8    6.46    0.17
  -1  -5  -8    0.12    0.02
  -1  -5  -8    0.10    0.02
   1   5   8    0.07    0.02
  -2  -5  -8    0.33    0.03
  -2  -5  -8    0.40    0.02
  -2  -5  -8    0.30    0.03
   2   5   8    0.39    0.03
   2   5   8    0.32    0.03
  -3  -5  -8    0.03    0.02
  -3  -5  -8    0.02    0.02
   3   5   8    0.03    0.02
   3   5   8    0.03    0.02
  -4  -5  -8    3.74    0.12
  -4  -5  -8    3.80    0.12
   4   5   8    4.00    0.13
   4   5   8    3.69    0.12
  -5  -5  -8    1.25    0.06
  -5  -5  -8    0.94    0.05
   5   5   8    1.07    0.06
   5   5   8    0.97    0.06
  -6  -5  -8    0.19    0.03
  -6  -5  -8    0.23    0.04
   6   5   8    0.22    0.03
   6   5   8    0.21    0.04
  -7  -5  -8    0.02    0.02
  -7  -5  -8   -0.01    0.02
   7   5   8    0.02    0.02
   7   5   8   -0.01    0.02
  -8  -5  -8    0.92    0.07
   8   5   8    0.87    0.06
   8   5   8    0.87    0.06
   5  -6  -8    0.01    0.02
  -5   6   8    0.02    0.02
   4  -6  -8    0.03    0.02
  -4   6   8    0.03    0.02
   3  -6  -8    0.55    0.04
   3  -6  -8    0.54    0.04
  -3   6   8    0.56    0.04
   2  -6  -8    0.10    0.02
   2  -6  -8    0.07    0.02
  -2   6   8    0.08    0.02
   1  -6  -8   25.10    0.56
   1  -6  -8   25.38    0.57
  -1   6   8   24.66    0.57
   0  -6  -8    5.47    0.15
   0  -6  -8    5.45    0.14
   0  -6  -8    5.65    0.15
   0   6   8    5.39    0.16
  -1  -6  -8    0.21    0.02
  -1  -6  -8    0.20    0.02
  -1  -6  -8    0.19    0.02
   1   6   8    0.17    0.03
  -2  -6  -8    0.69    0.05
  -2  -6  -8    0.68    0.04
  -3  -6  -8    1.00    0.05
  -3  -6  -8    0.99    0.06
   3   6   8    0.98    0.06
  -4  -6  -8    2.13    0.09
  -4  -6  -8    1.91    0.08
   4   6   8    1.84    0.08
  -5  -6  -8    0.10    0.03
  -5  -6  -8    0.10    0.03
   5   6   8    0.09    0.02
  -6  -6  -8   -0.01    0.02
  -6  -6  -8    0.02    0.02
   6   6   8    0.00    0.02
  -7  -6  -8    0.57    0.05
  -7  -6  -8    0.64    0.06
   7   6   8    0.51    0.05
   7   6   8    0.65    0.05
  -8  -6  -8    0.08    0.03
  -8  -6  -8    0.09    0.03
   8   6   8    0.04    0.02
   8   6   8    0.09    0.03
   4  -7  -8    0.08    0.02
  -4   7   8    0.07    0.02
   3  -7  -8    0.00    0.02
   3  -7  -8    0.02    0.02
  -3   7   8    0.01    0.02
   2  -7  -8    0.15    0.02
   2  -7  -8    0.14    0.02
  -2   7   8    0.13    0.02
   1  -7  -8    0.44    0.03
   1  -7  -8    0.59    0.04
  -1   7   8    0.48    0.04
   0  -7  -8    0.02    0.02
   0  -7  -8   -0.03    0.01
   0  -7  -8    0.00    0.02
  -1  -7  -8    0.05    0.02
  -1  -7  -8    0.07    0.02
  -1  -7  -8    0.08    0.02
  -2  -7  -8    0.03    0.02
  -2  -7  -8    0.00    0.02
  -2  -7  -8    0.02    0.01
  -3  -7  -8   -0.01    0.02
  -3  -7  -8    0.02    0.02
  -4  -7  -8    0.53    0.05
  -4  -7  -8    0.44    0.04
   4   7   8    0.44    0.04
  -5  -7  -8    0.30    0.04
  -5  -7  -8    0.33    0.04
   5   7   8    0.38    0.04
  -6  -7  -8    1.02    0.06
  -6  -7  -8    1.01    0.07
   6   7   8    1.01    0.06
  -7  -7  -8    0.12    0.03
  -7  -7  -8    0.08    0.03
   7   7   8    0.14    0.03
  -8  -7  -8    0.03    0.02
  -8  -7  -8    0.04    0.03
   8   7   8    0.02    0.02
   4  -8  -8    0.01    0.02
  -4   8   8    0.01    0.02
   3  -8  -8    0.07    0.02
   3  -8  -8    0.08    0.02
  -3   8   8    0.08    0.03
   2  -8  -8    0.23    0.03
   2  -8  -8    0.25    0.03
  -2   8   8    0.22    0.03
   1  -8  -8    0.21    0.03
   1  -8  -8    0.22    0.03
   1  -8  -8    0.25    0.03
  -1   8   8    0.25    0.03
   0  -8  -8    0.14    0.02
   0  -8  -8    0.10    0.02
  -1  -8  -8    0.88    0.05
  -1  -8  -8    0.77    0.04
  -2  -8  -8    0.02    0.02
  -2  -8  -8    0.02    0.02
  -2  -8  -8    0.05    0.02
  -3  -8  -8    0.49    0.04
  -3  -8  -8    0.58    0.05
  -4  -8  -8    0.46    0.04
  -4  -8  -8    0.64    0.05
   4   8   8    0.45    0.05
  -5  -8  -8    0.94    0.06
  -5  -8  -8    1.06    0.07
   5   8   8    1.01    0.07
  -6  -8  -8    0.01    0.02
  -6  -8  -8   -0.01    0.02
   6   8   8    0.03    0.02
  -7  -8  -8    0.00    0.02
  -7  -8  -8    0.04    0.03
   7   8   8    0.02    0.03
   3  -9  -8    0.09    0.03
   3  -9  -8    0.07    0.02
  -3   9   8    0.09    0.03
   2  -9  -8    0.56    0.04
  -2   9   8    0.47    0.04
   1  -9  -8    0.22    0.03
   0  -9  -8    0.01    0.02
   0  -9  -8    0.02    0.02
  -1  -9  -8    0.12    0.02
  -1  -9  -8    0.16    0.03
  -2  -9  -8    1.07    0.05
  -2  -9  -8    0.91    0.05
  -3  -9  -8    0.14    0.03
  -3  -9  -8    0.17    0.03
  -3  -9  -8    0.12    0.02
  -4  -9  -8    0.22    0.03
  -4  -9  -8    0.26    0.04
  -5  -9  -8    1.77    0.08
  -5  -9  -8    1.65    0.09
   5   9   8    1.79    0.09
  -6  -9  -8    0.21    0.04
  -6  -9  -8    0.24    0.04
   6   9   8    0.23    0.04
  -7  -9  -8    0.01    0.02
  -7  -9  -8    0.03    0.03
   7   9   8    0.05    0.03
   2 -10  -8   -0.01    0.02
  -2  10   8   -0.02    0.02
   1 -10  -8    0.01    0.02
   0 -10  -8    0.30    0.03
   0 -10  -8    0.36    0.03
  -1 -10  -8    0.13    0.03
  -1 -10  -8    0.11    0.03
  -2 -10  -8    0.11    0.03
  -2 -10  -8    0.07    0.02
  -3 -10  -8    0.00    0.02
  -3 -10  -8    0.03    0.02
  -3 -10  -8    0.00    0.03
  -4 -10  -8    0.50    0.06
  -4 -10  -8    0.53    0.04
  -5 -10  -8    1.93    0.09
  -5 -10  -8    2.06    0.11
   5  10   8    1.92    0.10
  -6 -10  -8    0.11    0.04
  -6 -10  -8    0.11    0.03
   6  10   8    0.10    0.03
   1 -11  -8    0.05    0.02
   0 -11  -8    0.01    0.02
  -1 -11  -8    0.00    0.02
  -1 -11  -8    0.00    0.02
  -2 -11  -8    0.27    0.03
  -2 -11  -8    0.28    0.04
  -3 -11  -8    0.03    0.02
  -3 -11  -8    0.02    0.02
  -4 -11  -8    0.31    0.05
  -4 -11  -8    0.36    0.04
  -5 -11  -8    0.02    0.03
  -5 -11  -8   -0.01    0.02
  -1 -12  -8    0.10    0.03
  -1 -12  -8    0.05    0.02
  -2 -12  -8    0.03    0.02
  -2 -12  -8    0.03    0.02
  -3 -12  -8    0.15    0.03
  -3 -12  -8    0.13    0.03
   1   6  -9    0.47    0.05
   1   6  -9    0.46    0.03
  -1  -6   9    0.44    0.05
   0   6  -9    0.00    0.01
   0   6  -9   -0.02    0.02
   0  -6   9    0.01    0.02
  -1   6  -9    0.52    0.05
  -1   6  -9    0.49    0.03
   1  -6   9    0.56    0.05
  -2   6  -9    1.97    0.08
  -2   6  -9    1.85    0.07
   2  -6   9    2.02    0.09
   2   5  -9    0.04    0.01
   2   5  -9    0.01    0.02
  -2  -5   9    0.05    0.02
   1   5  -9    0.77    0.04
   1   5  -9    0.85    0.05
  -1  -5   9    0.77    0.05
   0   5  -9    1.27    0.05
   0   5  -9    1.26    0.06
   0  -5   9    1.32    0.07
  -1   5  -9    0.12    0.02
  -1   5  -9    0.12    0.03
   1  -5   9    0.16    0.03
  -2   5  -9    0.20    0.02
  -2   5  -9    0.16    0.03
   2  -5   9    0.15    0.03
   2  -5   9    0.18    0.03
  -3   5  -9    0.04    0.02
  -3   5  -9    0.01    0.02
   3  -5   9   -0.01    0.02
   3  -5   9    0.00    0.02
  -4   5  -9    0.00    0.01
   4  -5   9   -0.01    0.02
   4  -5   9    0.00    0.02
   3   4  -9    0.01    0.01
   3   4  -9   -0.02    0.02
  -3  -4   9    0.01    0.02
   2   4  -9    0.26    0.02
   2   4  -9    0.26    0.03
  -2  -4   9    0.25    0.03
   1   4  -9    0.62    0.03
   1   4  -9    0.65    0.05
  -1  -4   9    0.69    0.05
   0   4  -9    1.16    0.06
   0   4  -9    1.10    0.04
   0  -4   9    1.09    0.06
  -1   4  -9    0.42    0.04
  -1   4  -9    0.43    0.03
   1  -4   9    0.33    0.04
  -2   4  -9    0.00    0.01
  -2   4  -9   -0.01    0.02
   2  -4   9    0.01    0.02
   2  -4   9    0.01    0.02
  -3   4  -9    0.33    0.03
  -3   4  -9    0.35    0.03
   3  -4   9    0.34    0.04
   3  -4   9    0.34    0.04
  -4   4  -9    0.58    0.03
   4  -4   9    0.50    0.05
   4  -4   9    0.52    0.04
  -5   4  -9    0.02    0.02
   5  -4   9    0.01    0.02
   5  -4   9    0.07    0.03
   4   3  -9    0.58    0.05
  -4  -3   9    0.61    0.04
   3   3  -9    0.14    0.03
  -3  -3   9    0.19    0.03
   2   3  -9    0.36    0.02
   2   3  -9    0.37    0.04
  -2  -3   9    0.34    0.04
   1   3  -9    1.86    0.05
   1   3  -9    1.91    0.08
  -1  -3   9    1.85    0.08
   0   3  -9    2.10    0.08
   0   3  -9    2.08    0.06
   0  -3   9    2.17    0.09
  -1   3  -9    7.09    0.16
  -1   3  -9    7.20    0.19
   1  -3   9    7.43    0.18
   1  -3   9    6.85    0.20
  -2   3  -9    0.11    0.01
  -2   3  -9    0.14    0.02
   2  -3   9    0.17    0.02
   2  -3   9    0.15    0.03
  -3   3  -9    1.45    0.06
  -3   3  -9    1.46    0.05
   3  -3   9    1.25    0.07
   3  -3   9    1.45    0.06
  -4   3  -9    0.15    0.02
   4  -3   9    0.17    0.03
   4  -3   9    0.12    0.03
  -5   3  -9    0.03    0.01
  -5   3  -9    0.03    0.02
   5  -3   9    0.02    0.02
   5  -3   9    0.06    0.03
  -6   3  -9    0.32    0.04
  -6   3  -9    0.24    0.02
   6  -3   9    0.29    0.04
   6  -3   9    0.23    0.04
   4   2  -9    2.05    0.08
   3   2  -9    0.96    0.05
  -3  -2   9    0.97    0.05
   2   2  -9    2.60    0.09
  -2  -2   9    2.55    0.09
   1   2  -9    0.02    0.02
  -1  -2   9    0.00    0.02
   0   2  -9    2.79    0.09
   0   2  -9    2.80    0.06
   0  -2   9    2.84    0.10
  -1   2  -9    0.17    0.01
  -1   2  -9    0.15    0.02
   1  -2   9    0.10    0.03
   1  -2   9    0.12    0.02
  -2   2  -9    0.09    0.01
  -2   2  -9    0.10    0.02
   2  -2   9    0.10    0.02
   2  -2   9    0.08    0.02
  -3   2  -9   -0.01    0.01
  -3   2  -9    0.00    0.01
   3  -2   9   -0.01    0.02
   3  -2   9    0.03    0.02
  -4   2  -9    0.48    0.04
  -4   2  -9    0.43    0.03
   4  -2   9    0.48    0.05
   4  -2   9    0.53    0.04
  -5   2  -9    1.07    0.06
  -5   2  -9    0.99    0.04
   5  -2   9    1.09    0.06
   5  -2   9    1.34    0.07
  -6   2  -9    0.12    0.02
  -6   2  -9    0.13    0.03
   6  -2   9    0.09    0.03
   6  -2   9    0.14    0.03
   5   1  -9    0.05    0.03
   4   1  -9   -0.02    0.02
   3   1  -9    2.59    0.09
  -3  -1   9    2.75    0.09
   2   1  -9    0.16    0.03
  -2  -1   9    0.17    0.03
   1   1  -9    0.68    0.04
  -1  -1   9    0.71    0.05
   0   1  -9    0.02    0.01
   0  -1   9    0.04    0.02
  -1   1  -9    0.52    0.03
   1  -1   9    0.43    0.04
   1  -1   9    0.51    0.03
  -2   1  -9    1.75    0.06
   2  -1   9    1.63    0.08
   2  -1   9    1.77    0.06
  -3   1  -9   -0.02    0.01
  -3   1  -9    0.02    0.01
  -3   1  -9   -0.01    0.01
  -3   1  -9   -0.02    0.01
   3  -1   9   -0.01    0.02
   3  -1   9    0.03    0.02
  -4   1  -9    0.06    0.01
  -4   1  -9    0.05    0.02
   4  -1   9    0.04    0.02
   4  -1   9    0.05    0.03
  -5   1  -9    3.43    0.11
  -5   1  -9    3.24    0.08
   5  -1   9    3.28    0.12
   5  -1   9    3.23    0.11
  -6   1  -9    0.02    0.01
  -6   1  -9    0.02    0.02
   6  -1   9    0.03    0.02
   6  -1   9    0.05    0.02
  -7   1  -9    0.04    0.03
  -7   1  -9    0.00    0.01
   7  -1   9   -0.01    0.02
   7  -1   9    0.01    0.02
   5   0  -9   -0.01    0.02
   4   0  -9    0.89    0.05
   3   0  -9    0.05    0.02
  -3   0   9    0.10    0.02
   2   0  -9    0.07    0.02
  -2   0   9    0.11    0.02
   1   0  -9    1.54    0.06
  -1   0   9    1.48    0.07
   0   0  -9    0.33    0.03
   0   0   9    0.33    0.04
   0   0   9    0.31    0.02
  -1   0  -9    0.01    0.01
   1   0   9    0.03    0.02
   1   0   9    0.01    0.01
  -2   0  -9    0.81    0.04
  -2   0  -9    0.92    0.04
   2   0   9    0.82    0.05
   2   0   9    0.86    0.04
  -3   0  -9    4.31    0.11
  -3   0  -9    4.45    0.12
   3   0   9    4.52    0.13
   3   0   9    4.11    0.14
  -4   0  -9    5.39    0.15
   4   0   9    5.47    0.17
   4   0   9    5.30    0.15
  -5   0  -9    0.00    0.01
  -5   0  -9    0.00    0.02
   5   0   9    0.00    0.02
   5   0   9    0.01    0.02
  -6   0  -9    0.01    0.02
  -6   0  -9    0.00    0.01
   6   0   9    0.03    0.02
   6   0   9    0.03    0.02
  -7   0  -9    0.13    0.03
  -7   0  -9    0.14    0.02
   7   0   9    0.11    0.03
   7   0   9    0.13    0.03
   5  -1  -9    1.44    0.07
   4  -1  -9    0.07    0.02
   3  -1  -9    0.09    0.02
  -3   1   9    0.10    0.02
   2  -1  -9    0.00    0.01
  -2   1   9   -0.01    0.01
   1  -1  -9    0.03    0.02
  -1   1   9    0.05    0.02
   0  -1  -9    0.34    0.03
   0   1   9    0.32    0.02
   0   1   9    0.32    0.02
   0   1   9    0.29    0.03
  -1  -1  -9    0.62    0.03
  -1  -1  -9    0.62    0.03
   1   1   9    0.62    0.04
   1   1   9    0.66    0.03
   1   1   9    0.61    0.03
  -2  -1  -9    3.96    0.11
  -2  -1  -9    3.95    0.10
   2   1   9    4.00    0.11
   2   1   9    3.94    0.13
  -3  -1  -9    8.56    0.20
  -3  -1  -9    8.45    0.21
   3   1   9    8.19    0.23
   3   1   9    8.62    0.22
  -4  -1  -9    2.02    0.08
   4   1   9    2.21    0.09
   4   1   9    2.00    0.08
  -5  -1  -9    1.92    0.08
   5   1   9    1.87    0.09
   5   1   9    2.08    0.08
  -6  -1  -9    0.80    0.06
  -6  -1  -9    0.85    0.02
   6   1   9    0.79    0.06
   6   1   9    0.84    0.06
  -7  -1  -9    0.06    0.01
  -7  -1  -9    0.03    0.03
   7   1   9    0.02    0.02
   7   1   9    0.04    0.02
   5  -2  -9    0.11    0.03
   4  -2  -9    0.00    0.02
   3  -2  -9    1.19    0.06
   2  -2  -9    0.69    0.04
  -2   2   9    0.66    0.04
   1  -2  -9    0.36    0.03
  -1   2   9    0.33    0.03
   0  -2  -9    0.01    0.01
   0   2   9    0.01    0.02
   0   2   9    0.03    0.01
   0   2   9    0.03    0.01
  -1  -2  -9    3.89    0.10
  -1  -2  -9    3.75    0.10
   1   2   9    3.81    0.11
   1   2   9    3.82    0.10
   1   2   9    3.84    0.12
  -2  -2  -9    4.05    0.10
  -2  -2  -9    3.86    0.11
   2   2   9    3.91    0.13
   2   2   9    3.94    0.11
  -3  -2  -9    0.80    0.03
  -3  -2  -9    0.77    0.04
   3   2   9    0.72    0.04
   3   2   9    0.72    0.05
  -4  -2  -9    0.77    0.05
   4   2   9    0.82    0.05
   4   2   9    0.92    0.06
  -5  -2  -9    3.66    0.12
   5   2   9    3.59    0.13
   5   2   9    3.55    0.12
  -6  -2  -9    4.11    0.14
   6   2   9    4.14    0.14
   6   2   9    4.30    0.15
  -7  -2  -9    0.14    0.03
   7   2   9    0.14    0.03
   7   2   9    0.13    0.03
  -8  -2  -9    0.15    0.04
  -8  -2  -9    0.22    0.02
   8   2   9    0.23    0.04
   8   2   9    0.15    0.04
   5  -3  -9    0.15    0.03
   4  -3  -9    0.16    0.03
   3  -3  -9   -0.02    0.01
   2  -3  -9    0.41    0.03
  -2   3   9    0.41    0.03
  -2   3   9    0.45    0.03
   1  -3  -9   -0.03    0.01
  -1   3   9    0.03    0.01
  -1   3   9    0.04    0.02
  -1   3   9    0.03    0.01
   0  -3  -9    0.86    0.04
   0   3   9    0.92    0.05
   0   3   9    0.86    0.04
   0   3   9    0.89    0.03
  -1  -3  -9    0.76    0.04
  -1  -3  -9    0.83    0.04
   1   3   9    0.78    0.05
   1   3   9    0.76    0.04
  -2  -3  -9    0.69    0.04
  -2  -3  -9    0.69    0.03
   2   3   9    0.67    0.04
   2   3   9    0.68    0.05
  -3  -3  -9    0.02    0.02
  -3  -3  -9    0.02    0.01
   3   3   9    0.03    0.02
   3   3   9    0.01    0.02
  -4  -3  -9    0.05    0.02
   4   3   9    0.08    0.03
   4   3   9    0.05    0.02
  -5  -3  -9    4.20    0.13
   5   3   9    4.16    0.13
   5   3   9    4.13    0.14
  -6  -3  -9    1.26    0.07
   6   3   9    1.30    0.08
   6   3   9    1.33    0.07
  -7  -3  -9    0.00    0.02
   7   3   9   -0.01    0.02
   7   3   9   -0.01    0.02
  -8  -3  -9    0.05    0.03
   8   3   9    0.10    0.03
   8   3   9    0.06    0.03
   5  -4  -9    0.19    0.03
   4  -4  -9    0.01    0.02
   3  -4  -9    0.31    0.03
  -3   4   9    0.35    0.03
   2  -4  -9    0.27    0.03
  -2   4   9    0.25    0.02
  -2   4   9    0.35    0.03
   1  -4  -9    0.17    0.03
  -1   4   9    0.26    0.03
   0  -4  -9    0.35    0.03
   0   4   9    0.40    0.03
   0   4   9    0.38    0.04
   0   4   9    0.40    0.02
  -1  -4  -9    1.55    0.05
   1   4   9    1.52    0.07
   1   4   9    1.45    0.06
  -2  -4  -9    0.13    0.02
  -2  -4  -9    0.17    0.02
   2   4   9    0.17    0.03
   2   4   9    0.18    0.03
  -3  -4  -9    1.11    0.06
  -3  -4  -9    1.08    0.04
   3   4   9    1.14    0.06
   3   4   9    1.14    0.06
  -4  -4  -9    1.11    0.06
   4   4   9    1.02    0.06
   4   4   9    0.99    0.06
  -5  -4  -9    0.08    0.03
   5   4   9    0.06    0.02
   5   4   9    0.06    0.03
  -6  -4  -9    0.36    0.04
   6   4   9    0.40    0.05
   6   4   9    0.36    0.04
  -7  -4  -9    0.10    0.03
   7   4   9    0.05    0.03
   7   4   9    0.03    0.02
  -8  -4  -9   -0.01    0.03
   8   4   9    0.01    0.02
   8   4   9    0.01    0.02
   4  -5  -9    0.41    0.04
   3  -5  -9    0.10    0.02
  -3   5   9    0.11    0.02
   2  -5  -9    0.21    0.02
   2  -5  -9    0.14    0.02
  -2   5   9    0.14    0.02
   1  -5  -9    2.47    0.08
   1  -5  -9    2.48    0.08
  -1   5   9    2.49    0.09
   0  -5  -9    6.12    0.16
   0   5   9    5.92    0.14
   0   5   9    6.30    0.17
  -1  -5  -9    0.73    0.04
   1   5   9    0.79    0.05
   1   5   9    0.81    0.05
  -2  -5  -9    0.93    0.04
  -2  -5  -9    0.98    0.05
   2   5   9    0.93    0.05
   2   5   9    0.99    0.06
  -3  -5  -9    1.00    0.06
  -3  -5  -9    1.09    0.04
   3   5   9    1.01    0.05
   3   5   9    0.99    0.06
  -4  -5  -9   -0.01    0.02
   4   5   9   -0.01    0.02
   4   5   9    0.02    0.02
  -5  -5  -9    0.16    0.03
   5   5   9    0.14    0.03
   5   5   9    0.13    0.03
  -6  -5  -9    0.94    0.06
   6   5   9    0.94    0.07
   6   5   9    0.76    0.05
  -7  -5  -9    0.12    0.03
   7   5   9    0.06    0.02
   7   5   9    0.05    0.03
  -8  -5  -9    0.27    0.04
   8   5   9    0.30    0.04
   8   5   9    0.31    0.05
   4  -6  -9    0.65    0.05
  -4   6   9    0.65    0.05
   3  -6  -9    0.11    0.03
  -3   6   9    0.11    0.02
   2  -6  -9    0.32    0.03
   2  -6  -9    0.35    0.03
  -2   6   9    0.33    0.03
   1  -6  -9    0.18    0.02
   1  -6  -9    0.20    0.03
  -1   6   9    0.22    0.03
   0  -6  -9    7.79    0.20
   0  -6  -9    8.32    0.20
   0   6   9    8.23    0.22
  -1  -6  -9    1.60    0.06
   1   6   9    1.68    0.08
  -2  -6  -9    0.81    0.05
  -2  -6  -9    0.93    0.05
  -2  -6  -9    0.93    0.04
   2   6   9    0.87    0.06
   2   6   9    0.79    0.05
  -3  -6  -9    0.54    0.04
  -3  -6  -9    0.51    0.04
   3   6   9    0.51    0.04
   3   6   9    0.54    0.04
  -4  -6  -9    0.08    0.02
  -4  -6  -9    0.07    0.02
   4   6   9    0.06    0.02
   4   6   9    0.04    0.02
  -5  -6  -9    0.11    0.03
  -5  -6  -9    0.09    0.03
   5   6   9    0.10    0.03
   5   6   9    0.10    0.03
  -6  -6  -9    0.06    0.03
  -6  -6  -9    0.13    0.03
   6   6   9    0.10    0.03
   6   6   9    0.10    0.03
  -7  -6  -9    0.28    0.05
  -7  -6  -9    0.26    0.04
   7   6   9    0.24    0.04
   7   6   9    0.26    0.04
  -8  -6  -9    0.19    0.04
   8   6   9    0.17    0.04
   8   6   9    0.09    0.03
   4  -7  -9    0.01    0.02
  -4   7   9    0.06    0.02
   3  -7  -9   -0.02    0.02
  -3   7   9   -0.01    0.02
   2  -7  -9    0.36    0.03
   2  -7  -9    0.35    0.04
  -2   7   9    0.36    0.04
   1  -7  -9    0.33    0.03
   1  -7  -9    0.28    0.03
  -1   7   9    0.30    0.03
   0  -7  -9    0.37    0.03
   0  -7  -9    0.39    0.03
   0   7   9    0.37    0.04
  -1  -7  -9    0.04    0.02
  -1  -7  -9    0.03    0.02
  -1  -7  -9    0.04    0.02
   1   7   9    0.00    0.02
  -2  -7  -9    1.23    0.06
  -2  -7  -9    1.29    0.07
   2   7   9    1.35    0.07
  -3  -7  -9    0.01    0.02
  -3  -7  -9   -0.01    0.02
   3   7   9    0.01    0.02
  -4  -7  -9    0.00    0.02
  -4  -7  -9    0.00    0.02
   4   7   9    0.00    0.02
  -5  -7  -9    0.49    0.04
  -5  -7  -9    0.52    0.05
   5   7   9    0.51    0.05
  -6  -7  -9    0.10    0.03
  -6  -7  -9    0.07    0.03
   6   7   9    0.11    0.03
  -7  -7  -9    0.46    0.05
  -7  -7  -9    0.44    0.06
   7   7   9    0.49    0.06
   7   7   9    0.47    0.05
   3  -8  -9    0.12    0.03
  -3   8   9    0.14    0.03
   2  -8  -9    0.84    0.05
   2  -8  -9    0.87    0.05
  -2   8   9    0.86    0.05
   1  -8  -9    0.16    0.02
   1  -8  -9    0.15    0.03
   0  -8  -9    0.08    0.02
   0  -8  -9    0.07    0.02
   0  -8  -9    0.03    0.02
   0   8   9    0.04    0.02
  -1  -8  -9    0.02    0.02
  -1  -8  -9    0.04    0.02
  -2  -8  -9    0.07    0.02
  -2  -8  -9    0.07    0.02
  -2  -8  -9    0.09    0.03
  -3  -8  -9    0.36    0.04
  -3  -8  -9    0.35    0.04
  -4  -8  -9    0.43    0.05
  -4  -8  -9    0.41    0.04
   4   8   9    0.39    0.05
  -5  -8  -9    0.26    0.04
  -5  -8  -9    0.23    0.03
   5   8   9    0.27    0.04
  -6  -8  -9    0.96    0.07
  -6  -8  -9    0.91    0.06
   6   8   9    0.84    0.06
  -7  -8  -9    0.10    0.03
  -7  -8  -9    0.07    0.03
   7   8   9    0.07    0.03
   2  -9  -9    0.04    0.02
   2  -9  -9    0.02    0.02
  -2   9   9    0.01    0.02
   1  -9  -9   -0.01    0.02
   0  -9  -9    0.01    0.02
   0  -9  -9    0.00    0.02
  -1  -9  -9    0.07    0.02
  -1  -9  -9    0.09    0.02
  -2  -9  -9    0.00    0.02
  -2  -9  -9    0.00    0.02
  -3  -9  -9   -0.01    0.02
  -3  -9  -9    0.00    0.02
  -4  -9  -9    0.10    0.03
  -4  -9  -9    0.08    0.03
   4   9   9    0.11    0.03
  -5  -9  -9    1.14    0.08
  -5  -9  -9    1.19    0.07
   5   9   9    1.26    0.08
  -6  -9  -9    0.01    0.02
  -6  -9  -9    0.01    0.03
   6   9   9   -0.01    0.03
  -7  -9  -9    0.02    0.03
  -7  -9  -9    0.02    0.03
   7   9   9    0.04    0.03
   1 -10  -9   -0.01    0.02
   0 -10  -9    0.06    0.02
   0 -10  -9    0.08    0.02
  -1 -10  -9    0.94    0.05
  -1 -10  -9    0.83    0.05
  -2 -10  -9    1.53    0.07
  -2 -10  -9    1.46    0.07
  -3 -10  -9    0.00    0.02
  -3 -10  -9    0.00    0.02
  -3 -10  -9   -0.03    0.03
  -4 -10  -9    1.13    0.08
  -4 -10  -9    1.01    0.06
  -5 -10  -9    2.63    0.12
  -5 -10  -9    2.51    0.10
   5  10   9    2.43    0.12
  -6 -10  -9    0.92    0.07
  -6 -10  -9    1.05    0.08
   6  10   9    1.02    0.07
   0 -11  -9    0.04    0.02
  -1 -11  -9   -0.01    0.02
  -1 -11  -9    0.02    0.02
  -2 -11  -9    0.04    0.02
  -2 -11  -9    0.06    0.02
  -3 -11  -9    0.06    0.02
  -3 -11  -9    0.02    0.02
  -4 -11  -9    0.53    0.06
  -4 -11  -9    0.74    0.06
  -5 -11  -9    1.15    0.07
  -5 -11  -9    1.32    0.09
   5  11   9    1.07    0.08
   0   5 -10    0.09    0.03
   0   5 -10    0.09    0.02
   0  -5  10    0.08    0.03
  -1   5 -10    0.05    0.02
  -1   5 -10    0.06    0.01
   1  -5  10    0.06    0.03
  -2   5 -10    0.09    0.02
   2   4 -10    0.07    0.02
   2   4 -10    0.05    0.01
  -2  -4  10    0.06    0.03
   1   4 -10    0.03    0.01
   1   4 -10    0.04    0.02
  -1  -4  10   -0.01    0.02
   0   4 -10    0.25    0.02
   0   4 -10    0.25    0.03
   0  -4  10    0.27    0.04
  -1   4 -10    0.02    0.02
  -1   4 -10    0.03    0.01
   1  -4  10    0.00    0.02
  -2   4 -10    0.17    0.03
  -2   4 -10    0.16    0.02
   2  -4  10    0.22    0.04
  -3   4 -10    0.01    0.01
   3  -4  10    0.03    0.02
   3  -4  10    0.00    0.02
  -4   4 -10    0.67    0.03
   4  -4  10    0.74    0.05
   4  -4  10    0.81    0.06
   3   3 -10    0.23    0.03
  -3  -3  10    0.24    0.03
   2   3 -10    0.05    0.02
  -2  -3  10    0.11    0.03
   1   3 -10    0.26    0.03
  -1  -3  10    0.22    0.03
   0   3 -10    0.38    0.02
   0   3 -10    0.35    0.04
   0  -3  10    0.48    0.05
  -1   3 -10    2.76    0.07
  -1   3 -10    2.77    0.09
   1  -3  10    2.87    0.11
  -2   3 -10    0.35    0.02
  -2   3 -10    0.30    0.03
   2  -3  10    0.27    0.04
  -3   3 -10    0.07    0.01
   3  -3  10    0.08    0.02
   3  -3  10    0.08    0.03
  -4   3 -10   -0.01    0.01
   4  -3  10    0.00    0.02
   4  -3  10    0.01    0.02
  -5   3 -10    0.78    0.04
   5  -3  10    0.83    0.06
   5  -3  10    0.95    0.07
   3   2 -10    1.36    0.07
  -3  -2  10    1.47    0.07
   2   2 -10    1.06    0.06
  -2  -2  10    1.13    0.06
   1   2 -10    0.02    0.02
  -1  -2  10    0.03    0.02
   0   2 -10    0.73    0.05
   0  -2  10    0.70    0.06
  -1   2 -10    0.16    0.02
  -2   2 -10    0.02    0.02
   2  -2  10    0.05    0.02
   2  -2  10    0.04    0.02
  -3   2 -10    0.87    0.04
  -3   2 -10    0.84    0.03
   3  -2  10    0.88    0.05
   3  -2  10    0.81    0.06
  -4   2 -10    0.09    0.01
   4  -2  10    0.13    0.03
   4  -2  10    0.10    0.03
  -5   2 -10    0.10    0.01
   5  -2  10    0.08    0.03
   5  -2  10    0.11    0.03
   4   1 -10    0.32    0.04
   3   1 -10    1.92    0.08
  -3  -1  10    1.88    0.08
   2   1 -10    0.01    0.02
  -2  -1  10    0.07    0.02
   1   1 -10    2.51    0.09
  -1  -1  10    2.53    0.10
   0   1 -10    0.10    0.02
   0  -1  10    0.11    0.03
  -1   1 -10    0.20    0.02
   1  -1  10    0.14    0.03
  -2   1 -10    0.26    0.02
   2  -1  10    0.19    0.03
   2  -1  10    0.26    0.03
  -3   1 -10    0.41    0.03
   3  -1  10    0.36    0.04
   3  -1  10    0.42    0.03
   4  -1  10   -0.01    0.02
   4  -1  10    0.00    0.02
  -5   1 -10    0.16    0.01
  -5   1 -10    0.18    0.03
   5  -1  10    0.21    0.04
   5  -1  10    0.13    0.03
  -6   1 -10    0.12    0.03
  -6   1 -10    0.09    0.01
   6  -1  10    0.10    0.03
   6  -1  10    0.12    0.03
   4   0 -10    0.33    0.04
   3   0 -10    0.39    0.04
  -3   0  10    0.33    0.03
   2   0 -10    0.05    0.02
  -2   0  10    0.03    0.02
   1   0 -10   -0.01    0.02
  -1   0  10    0.00    0.02
   0   0 -10    0.14    0.02
   0   0  10    0.13    0.03
  -1   0 -10    0.40    0.03
   1   0  10    0.37    0.04
   1   0  10    0.39    0.03
  -2   0 -10    0.02    0.01
   2   0  10   -0.02    0.02
   2   0  10    0.02    0.01
  -3   0 -10    1.44    0.05
   3   0  10    1.37    0.07
   3   0  10    1.50    0.06
  -4   0 -10    0.02    0.02
   4   0  10    0.03    0.02
   4   0  10    0.03    0.02
  -5   0 -10    0.00    0.02
   5   0  10   -0.01    0.02
   5   0  10    0.01    0.02
  -6   0 -10    0.31    0.04
   6   0  10    0.28    0.04
   6   0  10    0.25    0.04
  -7   0 -10    0.57    0.06
   7   0  10    0.47    0.05
   4  -1 -10    0.18    0.03
   3  -1 -10    0.01    0.02
   2  -1 -10    0.14    0.03
  -2   1  10    0.10    0.02
   1  -1 -10    0.44    0.04
  -1   1  10    0.37    0.04
   0  -1 -10    0.79    0.04
   0   1  10    0.75    0.05
  -1  -1 -10    0.91    0.04
   1   1  10    0.80    0.05
   1   1  10    0.83    0.04
  -2  -1 -10    0.17    0.02
   2   1  10    0.17    0.03
   2   1  10    0.21    0.02
  -3  -1 -10    0.02    0.01
  -3  -1 -10    0.03    0.02
   3   1  10    0.00    0.02
   3   1  10    0.04    0.02
  -4  -1 -10    3.76    0.12
   4   1  10    3.74    0.12
   4   1  10    3.68    0.13
  -5  -1 -10    0.67    0.05
   5   1  10    0.52    0.05
   5   1  10    0.57    0.04
  -6  -1 -10    0.01    0.02
   6   1  10    0.05    0.02
   6   1  10    0.04    0.03
  -7  -1 -10    0.02    0.02
   7   1  10    0.03    0.03
   7   1  10   -0.01    0.02
   4  -2 -10    0.06    0.02
   3  -2 -10    0.00    0.02
   2  -2 -10    1.73    0.07
  -2   2  10    1.76    0.07
   1  -2 -10    0.07    0.02
  -1   2  10    0.10    0.02
   0  -2 -10    0.05    0.02
   0   2  10    0.02    0.02
  -1  -2 -10    0.53    0.03
   1   2  10    0.52    0.04
   1   2  10    0.55    0.03
  -2  -2 -10    1.39    0.05
  -2  -2 -10    1.37    0.05
   2   2  10    1.37    0.07
   2   2  10    1.32    0.06
  -3  -2 -10    0.93    0.05
  -3  -2 -10    0.96    0.04
   3   2  10    0.90    0.05
   3   2  10    0.92    0.06
  -4  -2 -10    1.35    0.06
   4   2  10    1.30    0.06
   4   2  10    1.32    0.07
  -5  -2 -10    2.32    0.09
   5   2  10    2.09    0.10
   5   2  10    1.99    0.09
  -6  -2 -10    0.25    0.04
   6   2  10    0.24    0.04
   6   2  10    0.27    0.04
  -7  -2 -10    0.05    0.03
   7   2  10    0.07    0.03
   7   2  10    0.06    0.03
   4  -3 -10    0.04    0.02
   3  -3 -10    0.30    0.03
   2  -3 -10    0.68    0.05
  -2   3  10    0.68    0.04
   1  -3 -10    0.03    0.02
  -1   3  10    0.10    0.02
   0  -3 -10    0.74    0.04
   0   3  10    0.73    0.05
   0   3  10    0.79    0.04
  -1  -3 -10    0.42    0.03
   1   3  10    0.40    0.03
   1   3  10    0.34    0.04
  -2  -3 -10    1.58    0.06
  -2  -3 -10    1.44    0.05
   2   3  10    1.42    0.07
   2   3  10    1.36    0.06
  -3  -3 -10    0.15    0.02
  -3  -3 -10    0.14    0.03
   3   3  10    0.16    0.03
   3   3  10    0.13    0.02
  -4  -3 -10   -0.02    0.02
   4   3  10    0.01    0.02
   4   3  10   -0.03    0.02
  -5  -3 -10    1.44    0.07
   5   3  10    1.48    0.07
   5   3  10    1.48    0.08
  -6  -3 -10    1.02    0.07
   6   3  10    0.95    0.06
   6   3  10    0.99    0.07
  -7  -3 -10    0.09    0.03
   7   3  10    0.06    0.03
   7   3  10    0.06    0.03
   4  -4 -10    0.01    0.02
   3  -4 -10    0.27    0.03
   2  -4 -10    0.01    0.02
   1  -4 -10    0.32    0.03
  -1   4  10    0.34    0.03
  -1   4  10    0.30    0.03
   0  -4 -10    0.39    0.03
   0   4  10    0.45    0.03
   0   4  10    0.40    0.04
  -1  -4 -10    1.20    0.05
   1   4  10    1.12    0.05
   1   4  10    1.11    0.06
  -2  -4 -10    0.22    0.02
  -2  -4 -10    0.20    0.03
   2   4  10    0.21    0.03
   2   4  10    0.20    0.03
  -3  -4 -10    0.03    0.01
  -3  -4 -10    0.04    0.02
   3   4  10    0.03    0.02
   3   4  10    0.02    0.02
  -4  -4 -10    0.01    0.02
   4   4  10    0.04    0.02
   4   4  10    0.05    0.02
  -5  -4 -10    0.00    0.02
   5   4  10    0.04    0.03
   5   4  10    0.03    0.02
  -6  -4 -10    0.06    0.03
   6   4  10    0.09    0.03
   6   4  10    0.06    0.03
  -7  -4 -10    0.11    0.03
   7   4  10    0.20    0.04
   7   4  10    0.16    0.03
   4  -5 -10    0.01    0.02
   3  -5 -10    0.01    0.02
   2  -5 -10    0.01    0.02
  -2   5  10    0.07    0.02
   1  -5 -10    0.14    0.02
  -1   5  10    0.12    0.02
   0  -5 -10    0.05    0.02
   0   5  10    0.06    0.02
   0   5  10    0.04    0.02
  -1  -5 -10    0.03    0.01
   1   5  10    0.01    0.02
   1   5  10   -0.01    0.02
  -2  -5 -10    0.24    0.03
  -2  -5 -10    0.21    0.02
   2   5  10    0.20    0.03
   2   5  10    0.27    0.04
  -3  -5 -10    0.93    0.06
  -3  -5 -10    0.96    0.04
   3   5  10    1.03    0.06
   3   5  10    0.93    0.06
  -4  -5 -10    0.02    0.02
   4   5  10    0.05    0.02
   4   5  10    0.03    0.02
  -5  -5 -10    0.13    0.03
   5   5  10    0.08    0.03
   5   5  10    0.13    0.03
  -6  -5 -10    0.13    0.03
   6   5  10    0.16    0.04
   6   5  10    0.16    0.03
  -7  -5 -10    0.01    0.03
   7   5  10   -0.03    0.02
   7   5  10    0.01    0.02
   3  -6 -10    0.24    0.03
   2  -6 -10    0.04    0.02
  -2   6  10    0.02    0.02
   1  -6 -10    0.03    0.02
   1  -6 -10    0.02    0.02
  -1   6  10    0.03    0.02
   0  -6 -10    0.31    0.03
   0   6  10    0.30    0.04
  -1  -6 -10    0.21    0.02
   1   6  10    0.13    0.03
   1   6  10    0.15    0.03
  -2  -6 -10    0.96    0.04
  -2  -6 -10    0.91    0.06
   2   6  10    1.03    0.06
   2   6  10    0.94    0.06
  -3  -6 -10    1.18    0.06
   3   6  10    1.22    0.06
   3   6  10    1.20    0.07
  -4  -6 -10    0.43    0.05
   4   6  10    0.39    0.04
   4   6  10    0.35    0.04
  -5  -6 -10   -0.01    0.02
   5   6  10   -0.02    0.02
   5   6  10    0.00    0.02
  -6  -6 -10    0.00    0.02
   6   6  10    0.01    0.02
   6   6  10    0.04    0.03
  -7  -6 -10    0.06    0.03
   7   6  10    0.06    0.03
   7   6  10    0.06    0.03
   3  -7 -10   -0.02    0.02
  -3   7  10   -0.04    0.02
   2  -7 -10    0.00    0.02
  -2   7  10    0.01    0.02
   1  -7 -10    0.03    0.02
   1  -7 -10    0.04    0.02
   0  -7 -10    0.09    0.02
   0  -7 -10    0.05    0.02
   0   7  10    0.06    0.02
  -1  -7 -10    0.08    0.02
   1   7  10    0.09    0.03
  -2  -7 -10    0.00    0.02
  -2  -7 -10    0.03    0.01
   2   7  10    0.03    0.02
   2   7  10    0.00    0.02
  -3  -7 -10    1.98    0.08
  -3  -7 -10    2.05    0.09
   3   7  10    2.00    0.09
   3   7  10    2.04    0.09
  -4  -7 -10    0.03    0.02
  -4  -7 -10    0.01    0.02
   4   7  10    0.04    0.02
   4   7  10    0.00    0.02
  -5  -7 -10   -0.02    0.02
  -5  -7 -10   -0.01    0.02
   5   7  10   -0.03    0.02
   5   7  10    0.01    0.02
  -6  -7 -10    0.12    0.03
  -6  -7 -10    0.09    0.03
   6   7  10    0.11    0.04
   6   7  10    0.11    0.03
  -7  -7 -10    1.17    0.08
  -7  -7 -10    1.22    0.07
   7   7  10    1.14    0.08
   7   7  10    1.04    0.07
   2  -8 -10    1.60    0.07
  -2   8  10    1.69    0.07
   1  -8 -10    0.02    0.02
   1  -8 -10   -0.03    0.02
   0  -8 -10    0.02    0.02
   0  -8 -10    0.06    0.02
   0   8  10    0.03    0.02
  -1  -8 -10    0.17    0.02
  -1  -8 -10    0.13    0.03
  -1  -8 -10    0.14    0.03
   1   8  10    0.14    0.03
  -2  -8 -10    0.12    0.03
   2   8  10    0.11    0.03
  -3  -8 -10    0.19    0.03
  -3  -8 -10    0.21    0.03
   3   8  10    0.20    0.04
   3   8  10    0.15    0.03
  -4  -8 -10    0.01    0.02
  -4  -8 -10   -0.01    0.02
   4   8  10   -0.02    0.02
  -5  -8 -10    0.82    0.06
  -5  -8 -10    0.95    0.07
   5   8  10    0.82    0.06
  -6  -8 -10    1.59    0.08
  -6  -8 -10    1.52    0.09
   6   8  10    1.40    0.09
   6   8  10    1.50    0.08
  -7  -8 -10    0.07    0.03
  -7  -8 -10    0.09    0.04
   7   8  10    0.00    0.03
   7   8  10    0.09    0.03
   2  -9 -10    0.02    0.02
  -2   9  10    0.05    0.02
   1  -9 -10    0.00    0.02
   1  -9 -10    0.03    0.02
   0  -9 -10   -0.02    0.02
   0   9  10    0.00    0.02
  -1  -9 -10    0.02    0.02
  -1  -9 -10    0.03    0.02
   1   9  10    0.01    0.02
  -2  -9 -10    0.00    0.02
  -3  -9 -10    0.01    0.02
  -3  -9 -10    0.00    0.02
  -4  -9 -10    0.16    0.03
  -4  -9 -10    0.15    0.04
   4   9  10    0.14    0.03
  -5  -9 -10    0.37    0.05
  -5  -9 -10    0.42    0.05
   5   9  10    0.32    0.05
  -6  -9 -10    0.20    0.05
  -6  -9 -10    0.15    0.03
   6   9  10    0.18    0.04
   1 -10 -10   -0.01    0.02
   0 -10 -10    0.11    0.03
  -1 -10 -10    0.02    0.02
  -1 -10 -10    0.01    0.02
  -2 -10 -10   -0.01    0.02
  -2 -10 -10    0.02    0.02
  -3 -10 -10    0.32    0.04
  -4 -10 -10   -0.02    0.03
  -4 -10 -10    0.00    0.02
   4  10  10    0.00    0.03
  -5 -10 -10    0.97    0.08
  -5 -10 -10    0.91    0.06
   5  10  10    0.96    0.07
  -1 -11 -10    0.24    0.04
  -1 -11 -10    0.27    0.04
  -2 -11 -10    0.06    0.02
  -2 -11 -10    0.08    0.03
  -3 -11 -10    0.02    0.02
  -4 -11 -10    0.21    0.05
  -4 -11 -10    0.23    0.04
   1   3 -11    0.05    0.02
  -1  -3  11    0.09    0.03
   0   3 -11    0.03    0.02
   0  -3  11    0.01    0.02
  -1   3 -11    0.00    0.02
   1  -3  11   -0.01    0.02
  -2   3 -11    0.49    0.04
   2  -3  11    0.35    0.04
  -3   3 -11    0.02    0.01
   3  -3  11    0.01    0.02
   2   2 -11    0.00    0.02
  -2  -2  11   -0.01    0.02
   1   2 -11    0.87    0.05
  -1  -2  11    0.92    0.06
   0   2 -11    0.71    0.05
   0  -2  11    0.62    0.05
  -1   2 -11    0.24    0.03
   1  -2  11    0.24    0.04
  -2   2 -11    0.30    0.03
   2  -2  11    0.30    0.04
   3  -2  11    1.68    0.07
   3  -2  11    1.52    0.08
   4  -2  11    0.44    0.04
   4  -2  11    0.34    0.05
   2   1 -11    0.29    0.04
  -2  -1  11    0.31    0.04
   1   1 -11    0.94    0.05
  -1  -1  11    0.87    0.06
   0   1 -11   11.62    0.29
   0  -1  11   11.44    0.31
  -1   1 -11    1.13    0.05
   1  -1  11    1.00    0.07
  -2   1 -11    1.55    0.06
   2  -1  11    1.41    0.08
   3  -1  11    0.02    0.02
   3  -1  11    0.03    0.02
   4  -1  11    0.78    0.06
   4  -1  11    0.78    0.05
   5  -1  11    0.13    0.04
   5  -1  11    0.08    0.03
   3   0 -11    0.85    0.05
   2   0 -11    0.11    0.03
  -2   0  11    0.08    0.03
   1   0 -11    1.12    0.06
  -1   0  11    1.12    0.06
   0   0 -11    0.28    0.03
   0   0  11    0.20    0.03
  -1   0 -11    0.14    0.02
   1   0  11    0.10    0.03
  -2   0 -11    0.05    0.02
   2   0  11    0.05    0.02
   2   0  11    0.03    0.03
   3   0  11    0.03    0.02
   3   0  11    0.02    0.02
   4   0  11    1.20    0.06
   4   0  11    1.18    0.07
   5   0  11    0.30    0.04
   5   0  11    0.30    0.04
   6   0  11    0.05    0.03
   6   0  11    0.04    0.02
   3  -1 -11    0.00    0.02
   2  -1 -11    0.03    0.02
  -2   1  11    0.00    0.02
   1  -1 -11    0.00    0.02
  -1   1  11   -0.01    0.02
   0  -1 -11    0.21    0.03
   0   1  11    0.20    0.03
  -1  -1 -11    0.11    0.02
   1   1  11    0.07    0.03
  -2  -1 -11   -0.01    0.01
   2   1  11   -0.02    0.01
   2   1  11   -0.03    0.02
   3   1  11    0.59    0.04
   3   1  11    0.68    0.05
   4   1  11    4.63    0.14
   4   1  11    4.36    0.15
  -5  -1 -11    0.02    0.02
   5   1  11    0.00    0.02
   5   1  11   -0.02    0.02
  -6  -1 -11   -0.01    0.02
   6   1  11   -0.01    0.02
   6   1  11    0.03    0.02
   3  -2 -11    0.22    0.03
   2  -2 -11    0.03    0.02
  -2   2  11    0.04    0.02
   1  -2 -11    0.40    0.04
  -1   2  11    0.38    0.04
   0  -2 -11    0.68    0.04
   0   2  11    0.66    0.05
  -1  -2 -11    0.14    0.02
   1   2  11    0.12    0.03
  -2  -2 -11    1.18    0.05
   2   2  11    1.18    0.07
   2   2  11    1.25    0.05
   3   2  11    1.23    0.07
   3   2  11    1.20    0.06
  -4  -2 -11    0.10    0.03
   4   2  11    0.07    0.03
   4   2  11    0.06    0.02
  -5  -2 -11    0.02    0.02
   5   2  11    0.01    0.03
   5   2  11    0.04    0.02
  -6  -2 -11    0.26    0.04
   6   2  11    0.17    0.04
   6   2  11    0.20    0.03
   3  -3 -11    0.14    0.03
   2  -3 -11    0.33    0.04
   1  -3 -11    1.34    0.06
  -1   3  11    1.27    0.06
   0  -3 -11    0.32    0.03
   0   3  11    0.27    0.04
  -1  -3 -11    0.95    0.05
   1   3  11    0.90    0.04
   1   3  11    0.75    0.05
  -2  -3 -11    0.34    0.03
   2   3  11    0.28    0.04
   2   3  11    0.29    0.03
  -3  -3 -11    1.05    0.05
   3   3  11    0.95    0.05
   3   3  11    0.96    0.07
  -4  -3 -11    0.44    0.04
   4   3  11    0.37    0.05
   4   3  11    0.48    0.04
  -5  -3 -11    2.27    0.09
   5   3  11    2.37    0.11
   5   3  11    2.30    0.09
  -6  -3 -11    1.78    0.09
   6   3  11    1.81    0.09
   6   3  11    1.73    0.09
  -7  -3 -11    0.32    0.05
   7   3  11    0.39    0.05
   7   3  11    0.28    0.04
   3  -4 -11   -0.02    0.02
   2  -4 -11   -0.02    0.02
   1  -4 -11    0.01    0.02
  -1   4  11    0.01    0.02
   0  -4 -11    0.02    0.02
   0   4  11    0.02    0.02
  -1  -4 -11    0.07    0.02
   1   4  11    0.10    0.02
   1   4  11    0.09    0.03
  -2  -4 -11    0.18    0.02
  -2  -4 -11    0.14    0.02
   2   4  11    0.15    0.03
   2   4  11    0.19    0.03
  -3  -4 -11    0.02    0.02
   3   4  11    0.04    0.02
   3   4  11    0.03    0.02
  -4  -4 -11    0.40    0.04
   4   4  11    0.40    0.04
   4   4  11    0.39    0.05
  -5  -4 -11    2.66    0.11
   5   4  11    2.78    0.11
   5   4  11    2.85    0.12
  -6  -4 -11    1.16    0.07
   6   4  11    1.20    0.07
   6   4  11    1.11    0.08
  -7  -4 -11    0.03    0.03
   7   4  11    0.04    0.03
   7   4  11    0.02    0.03
   3  -5 -11   -0.03    0.02
   2  -5 -11    0.01    0.02
   1  -5 -11    0.13    0.02
  -1   5  11    0.11    0.03
   0  -5 -11    0.13    0.02
   0   5  11    0.16    0.03
  -1  -5 -11    0.01    0.01
   1   5  11    0.01    0.02
   1   5  11    0.01    0.02
  -2  -5 -11    0.27    0.03
  -2  -5 -11    0.21    0.02
   2   5  11    0.21    0.03
   2   5  11    0.21    0.03
  -3  -5 -11   -0.03    0.02
   3   5  11    0.02    0.02
   3   5  11   -0.01    0.02
  -4  -5 -11    1.06    0.06
   4   5  11    0.99    0.07
   4   5  11    1.03    0.06
  -5  -5 -11    0.63    0.06
   5   5  11    0.68    0.06
   5   5  11    0.43    0.05
  -6  -5 -11    0.26    0.04
   6   5  11    0.19    0.04
   6   5  11    0.21    0.04
  -7  -5 -11    0.34    0.05
   7   5  11    0.29    0.05
   7   5  11    0.35    0.04
   3  -6 -11    0.02    0.02
   2  -6 -11    0.04    0.02
   1  -6 -11   -0.02    0.02
   0  -6 -11    0.22    0.03
   0   6  11    0.25    0.03
   0   6  11    0.22    0.03
  -1  -6 -11    0.35    0.03
   1   6  11    0.29    0.03
   1   6  11    0.38    0.04
  -2  -6 -11    0.15    0.03
  -2  -6 -11    0.10    0.02
   2   6  11    0.11    0.03
   2   6  11    0.14    0.03
  -3  -6 -11    0.19    0.03
   3   6  11    0.18    0.03
   3   6  11    0.25    0.04
  -4  -6 -11    0.36    0.04
   4   6  11    0.31    0.05
   4   6  11    0.34    0.04
  -5  -6 -11    0.22    0.04
   5   6  11    0.16    0.03
   5   6  11    0.27    0.04
  -6  -6 -11    0.20    0.04
   6   6  11    0.22    0.04
   6   6  11    0.15    0.03
  -7  -6 -11    0.13    0.04
   7   6  11    0.16    0.04
   7   6  11    0.18    0.04
   2  -7 -11    0.19    0.03
   1  -7 -11    1.92    0.08
   0  -7 -11    1.83    0.07
   0   7  11    1.71    0.08
  -1  -7 -11    0.01    0.02
   1   7  11    0.00    0.02
   1   7  11    0.02    0.02
  -2  -7 -11    0.05    0.02
   2   7  11    0.05    0.03
   2   7  11    0.05    0.02
  -3  -7 -11    0.09    0.03
   3   7  11    0.11    0.03
   3   7  11    0.08    0.03
  -4  -7 -11    0.39    0.05
   4   7  11    0.37    0.05
   4   7  11    0.39    0.05
  -5  -7 -11    0.07    0.03
   5   7  11    0.09    0.03
   5   7  11    0.07    0.03
  -6  -7 -11    0.03    0.03
   6   7  11    0.04    0.02
   6   7  11    0.05    0.03
   1  -8 -11    2.39    0.09
   0  -8 -11    0.92    0.05
   0  -8 -11    1.09    0.05
   0   8  11    0.92    0.06
  -1  -8 -11    0.00    0.02
   1   8  11    0.01    0.02
   2   8  11    0.16    0.03
   2   8  11    0.17    0.03
  -3  -8 -11    0.19    0.04
  -3  -8 -11    0.25    0.03
   3   8  11    0.20    0.04
   3   8  11    0.20    0.04
  -4  -8 -11    0.13    0.03
  -4  -8 -11    0.10    0.03
   4   8  11    0.14    0.03
   4   8  11    0.13    0.03
  -5  -8 -11   -0.04    0.02
  -5  -8 -11    0.00    0.03
   5   8  11    0.03    0.03
   5   8  11    0.00    0.02
  -6  -8 -11    0.06    0.03
  -6  -8 -11    0.01    0.02
   6   8  11    0.03    0.03
   6   8  11    0.00    0.03
   1  -9 -11    0.09    0.02
   0  -9 -11    0.02    0.02
   0  -9 -11    0.01    0.02
   1   9  11    0.07    0.03
  -2  -9 -11    0.03    0.02
   2   9  11    0.02    0.03
  -3  -9 -11    0.00    0.02
  -3  -9 -11   -0.03    0.02
   3   9  11   -0.03    0.02
   3   9  11    0.01    0.02
  -4  -9 -11    0.00    0.03
  -4  -9 -11   -0.02    0.02
   4   9  11   -0.02    0.02
   4   9  11    0.04    0.03
  -5  -9 -11    0.10    0.03
  -5  -9 -11    0.12    0.04
   5   9  11    0.08    0.03
   5   9  11    0.09    0.03
  -1 -10 -11    0.12    0.03
  -1 -10 -11    0.12    0.03
   1  10  11    0.13    0.03
  -2 -10 -11    0.01    0.02
   2  10  11   -0.02    0.02
  -3 -10 -11    0.05    0.02
  -4 -10 -11    0.08    0.03
  -4 -10 -11    0.05    0.03
   4  10  11    0.05    0.03
  -1   2 -12    0.34    0.04
   1  -2  12    0.28    0.04
   2  -2  12    0.00    0.02
   1   1 -12    0.46    0.04
  -1  -1  12    0.48    0.05
   0   1 -12    0.15    0.03
   0  -1  12    0.21    0.04
  -1   1 -12    1.14    0.06
   1  -1  12    1.07    0.07
   2  -1  12    0.04    0.03
   3  -1  12    0.13    0.03
   4  -1  12    0.20    0.03
   4  -1  12    0.19    0.04
   1   0 -12    0.04    0.02
  -1   0  12    0.01    0.02
   0   0 -12    0.36    0.04
   0   0  12    0.33    0.04
  -1   0 -12    0.03    0.02
   1   0  12    0.01    0.03
   2   0  12    0.04    0.03
   3   0  12    0.05    0.03
   4   0  12    0.15    0.03
   4   0  12    0.10    0.03
   5   0  12    0.28    0.04
   2  -1 -12    0.14    0.03
   1  -1 -12    0.53    0.04
  -1   1  12    0.40    0.04
   0  -1 -12    0.05    0.02
   0   1  12    0.03    0.02
  -1  -1 -12    0.34    0.03
   1   1  12    0.33    0.04
  -2  -1 -12    0.17    0.02
   2   1  12    0.12    0.03
   3   1  12    0.15    0.04
   3   1  12    0.15    0.03
   4   1  12    0.07    0.03
   4   1  12    0.12    0.03
   5   1  12    0.47    0.05
   5   1  12    0.50    0.06
   2  -2 -12    0.00    0.02
   1  -2 -12    0.09    0.02
  -1   2  12    0.13    0.03
   0  -2 -12    0.06    0.02
   0   2  12    0.03    0.02
  -1  -2 -12    0.00    0.02
   1   2  12    0.00    0.02
  -2  -2 -12    0.02    0.02
   2   2  12    0.00    0.02
   3   2  12    0.48    0.05
   3   2  12    0.39    0.04
   4   2  12    0.93    0.07
   4   2  12    1.14    0.06
   5   2  12    0.01    0.02
   5   2  12   -0.02    0.03
   6   2  12    0.11    0.03
   2  -3 -12    0.05    0.02
   1  -3 -12    0.02    0.02
  -1   3  12    0.02    0.02
   0  -3 -12   -0.01    0.02
   0   3  12    0.00    0.02
  -1  -3 -12   -0.01    0.01
   1   3  12    0.01    0.02
  -2  -3 -12    1.10    0.05
   2   3  12    0.95    0.06
   2   3  12    1.04    0.05
   3   3  12    3.59    0.12
   3   3  12    3.56    0.13
   4   3  12    0.27    0.04
   4   3  12    0.23    0.04
   5   3  12    0.95    0.07
   5   3  12    0.81    0.06
  -6  -3 -12    0.43    0.05
   6   3  12    0.37    0.05
   6   3  12    0.37    0.04
   2  -4 -12    0.00    0.02
   1  -4 -12    0.10    0.02
  -1   4  12    0.11    0.03
   0  -4 -12    0.15    0.03
   0   4  12    0.14    0.03
  -1  -4 -12    0.61    0.04
   1   4  12    0.63    0.05
  -2  -4 -12    0.26    0.03
   2   4  12    0.24    0.03
   2   4  12    0.22    0.04
   3   4  12   -0.02    0.02
   3   4  12    0.00    0.02
  -4  -4 -12    0.59    0.05
   4   4  12    0.55    0.04
   4   4  12    0.53    0.06
  -5  -4 -12    1.41    0.08
   5   4  12    1.22    0.07
   5   4  12    1.26    0.08
  -6  -4 -12    0.97    0.07
   6   4  12    0.78    0.07
   6   4  12    0.90    0.06
   2  -5 -12    0.06    0.02
   1  -5 -12   -0.01    0.02
   0  -5 -12    0.09    0.02
   0   5  12    0.14    0.03
  -1  -5 -12    0.23    0.03
   1   5  12    0.22    0.04
  -2  -5 -12   -0.02    0.01
   2   5  12   -0.02    0.02
   2   5  12    0.01    0.02
  -3  -5 -12    0.00    0.02
   3   5  12    0.00    0.02
   3   5  12    0.00    0.02
  -4  -5 -12    0.00    0.02
   4   5  12    0.05    0.03
   4   5  12    0.01    0.03
  -5  -5 -12    1.08    0.07
   5   5  12    1.06    0.07
   5   5  12    1.15    0.08
  -6  -5 -12    0.37    0.05
   6   5  12    0.32    0.04
   6   5  12    0.33    0.05
   1  -6 -12    0.00    0.02
   0  -6 -12   -0.01    0.02
   0   6  12    0.00    0.02
  -1  -6 -12    0.04    0.02
   1   6  12    0.07    0.02
   1   6  12    0.10    0.03
  -2  -6 -12    0.04    0.02
   2   6  12   -0.01    0.02
   2   6  12    0.05    0.02
  -3  -6 -12    0.03    0.02
   3   6  12    0.06    0.02
   3   6  12    0.06    0.03
  -4  -6 -12    0.26    0.04
   4   6  12    0.32    0.05
   4   6  12    0.22    0.04
  -5  -6 -12    0.13    0.04
   5   6  12    0.23    0.04
   5   6  12    0.18    0.04
  -6  -6 -12    0.02    0.03
   6   6  12   -0.01    0.02
   6   6  12    0.00    0.03
   1  -7 -12    0.17    0.03
   0  -7 -12    0.80    0.05
   0   7  12    0.70    0.05
  -1  -7 -12    0.07    0.02
   1   7  12    0.12    0.03
   1   7  12    0.10    0.03
  -2  -7 -12    0.29    0.03
   2   7  12    0.30    0.04
   2   7  12    0.29    0.04
  -3  -7 -12    0.03    0.03
   3   7  12    0.04    0.02
   3   7  12    0.02    0.03
  -4  -7 -12    0.10    0.03
   4   7  12    0.09    0.03
   4   7  12    0.07    0.03
  -5  -7 -12   -0.02    0.02
   5   7  12   -0.01    0.02
   5   7  12    0.01    0.03
   0  -8 -12    0.65    0.05
  -1  -8 -12    0.57    0.04
   1   8  12    0.45    0.05
   1   8  12    0.51    0.05
   2   8  12   -0.02    0.02
   2   8  12    0.00    0.02
  -3  -8 -12    0.00    0.03
   3   8  12   -0.02    0.02
   3   8  12   -0.01    0.02
  -4  -8 -12    0.01    0.03
   4   8  12    0.00    0.03
   4   8  12    0.01    0.02
  -5  -8 -12    0.00    0.03
   5   8  12    0.01    0.03
   5   8  12    0.03    0.03
   1   9  12   -0.03    0.02
   2   9  12    0.25    0.04
   2   9  12    0.19    0.04
   3   9  12    0.00    0.02
   3   9  12    0.00    0.03
  -4  -9 -12   -0.03    0.02
   4   9  12   -0.03    0.02
   4   9  12    0.01    0.02
   0  -1 -13    0.14    0.03
   0   1  13    0.19    0.04
  -1  -1 -13    0.07    0.02
   1   1  13    0.05    0.03
   2   1  13    0.03    0.03
   3   1  13    0.26    0.04
   0  -2 -13    0.00    0.02
   0   2  13   -0.03    0.02
  -1  -2 -13    0.01    0.02
   1   2  13    0.02    0.03
   2   2  13    0.03    0.03
   3   2  13    0.84    0.07
   4   2  13    0.11    0.03
   4   2  13    0.13    0.04
   0  -3 -13    0.06    0.02
   0   3  13    0.06    0.03
   1   3  13    0.17    0.03
   2   3  13    0.18    0.04
   3   3  13    0.29    0.05
   4   3  13    0.24    0.04
   4   3  13    0.12    0.04
   0  -4 -13   -0.01    0.02
   0   4  13   -0.03    0.02
  -1  -4 -13    0.22    0.03
   1   4  13    0.23    0.04
   2   4  13    0.28    0.04
   3   4  13    0.20    0.03
   3   4  13    0.15    0.04
   4   4  13    0.22    0.04
   4   4  13    0.14    0.04
   5   4  13    0.06    0.03
   5   4  13    0.10    0.03
   0  -5 -13    0.03    0.02
   0   5  13    0.05    0.03
  -1  -5 -13    0.02    0.02
   1   5  13    0.00    0.02
   2   5  13    0.66    0.06
   3   5  13    0.01    0.03
   3   5  13   -0.02    0.02
   4   5  13    0.07    0.03
   4   5  13    0.05    0.03
   5   5  13    0.45    0.06
   5   5  13    0.36    0.04
   0  -6 -13    0.02    0.02
  -1  -6 -13    0.10    0.02
   1   6  13    0.10    0.03
   2   6  13   -0.01    0.02
   3   6  13    0.04    0.02
   3   6  13    0.04    0.03
   4   6  13    0.07    0.03
   4   6  13    0.05    0.03
  -1  -7 -13    0.01    0.02
   1   7  13    0.03    0.03
   2   7  13    0.00    0.02
   2   7  13    0.08    0.03
   3   7  13    0.08    0.03
   3   7  13    0.08    0.03
  -4  -7 -13    0.08    0.03
   4   7  13    0.07    0.03
   4   7  13    0.08    0.03
   2   8  13    0.15    0.03
   3   8  13    0.30    0.04
   0   0   0    0.00    0.00
;
_shelx_hkl_checksum              46465
loop_
_space_group_symop_operation_xyz
'x, y, z'
'-x, -y, -z'
loop_
_atom_site_label
_atom_site_type_symbol
_atom_site_fract_x
_atom_site_fract_y
_atom_site_fract_z
_atom_site_U_iso_or_equiv
_atom_site_adp_type
_atom_site_occupancy
_atom_site_site_symmetry_order
_atom_site_calc_flag
_atom_site_refinement_flags_posn
_atom_site_refinement_flags_adp
C1 C 0.18688(16) 0.24623(12) 0.14500(12) 0.0399(3) Uani 1 1 d . .
C2 C 0.22192(18) 0.12192(13) 0.24235(13) 0.0452(3) Uani 1 1 d . .
H2 H 0.334380 0.102276 0.272327 0.054 Uiso 1 1 calc R U
C3 C -0.0563(2) 0.06323(15) 0.24598(15) 0.0591(4) Uani 1 1 d . .
H3 H -0.144709 0.000915 0.278231 0.071 Uiso 1 1 calc R U
C4 C -0.0922(2) 0.18745(16) 0.14933(16) 0.0607(4) Uani 1 1 d . .
H4 H -0.204526 0.206736 0.119220 0.073 Uiso 1 1 calc R U
C5 C 0.32803(16) 0.34795(12) 0.08814(12) 0.0418(3) Uani 1 1 d . .
C6 C 0.05299(18) 0.56029(12) 0.28478(12) 0.0424(3) Uani 1 1 d . .
C7 C 0.15110(17) 0.44463(12) 0.36515(12) 0.0415(3) Uani 1 1 d . .
H7 H 0.274275 0.447619 0.368477 0.050 Uiso 1 1 calc R U
C8 C 0.06773(17) 0.32654(12) 0.43929(11) 0.0399(3) Uani 1 1 d . .
C9 C -0.11862(17) 0.32108(13) 0.43606(12) 0.0432(3) Uani 1 1 d . .
C10 C -0.21494(19) 0.43527(15) 0.35648(14) 0.0517(3) Uani 1 1 d . .
H10 H -0.338340 0.432739 0.353296 0.062 Uiso 1 1 calc R U
C11 C -0.13009(19) 0.55336(14) 0.28144(13) 0.0498(3) Uani 1 1 d . .
H11 H -0.196970 0.628949 0.228142 0.060 Uiso 1 1 calc R U
C12 C 0.1413(2) 0.68512(13) 0.20393(13) 0.0469(3) Uani 1 1 d . .
H12 H 0.069749 0.755270 0.149320 0.056 Uiso 1 1 calc R U
C13 C 0.3111(2) 0.70931(14) 0.19984(14) 0.0523(3) Uani 1 1 d . .
H13 H 0.384823 0.641873 0.254754 0.063 Uiso 1 1 calc R U
C14 C 0.38923(19) 0.83643(13) 0.11359(13) 0.0481(3) Uani 1 1 d . .
C15 C 0.3492(2) 0.20444(17) 0.51565(17) 0.0642(4) Uani 1 1 d . .
H15A H 0.416455 0.222256 0.427075 0.096 Uiso 1 1 calc R U
H15B H 0.397479 0.113400 0.567482 0.096 Uiso 1 1 calc R U
H15C H 0.364230 0.275254 0.550800 0.096 Uiso 1 1 calc R U
H2A H 0.607(4) 0.9356(18) 0.071(3) 0.198(15) Uiso 1 1 d D .
H3A H 0.366(2) 0.5282(19) -0.0454(17) 0.066(5) Uiso 1 1 d . .
H5A H -0.139(3) 0.145(2) 0.5552(19) 0.076(6) Uiso 1 1 d . .
H3B H 0.174(3) 0.4702(18) -0.0283(17) 0.064(5) Uiso 1 1 d . .
N1 N 0.02881(15) 0.28023(12) 0.09808(11) 0.0517(3) Uani 1 1 d . .
N2 N 0.09973(16) 0.02950(11) 0.29450(11) 0.0521(3) Uani 1 1 d . .
N3 N 0.28469(18) 0.46044(12) -0.00823(12) 0.0532(3) Uani 1 1 d . .
O1 O 0.47332(13) 0.32349(10) 0.13172(10) 0.0595(3) Uani 1 1 d . .
O2 O 0.55090(16) 0.85065(11) 0.12432(12) 0.0690(3) Uani 1 1 d D .
O3 O 0.29722(15) 0.92710(10) 0.03279(10) 0.0599(3) Uani 1 1 d . .
O4 O 0.15490(12) 0.20803(9) 0.51800(10) 0.0524(3) Uani 1 1 d . .
O5 O -0.20720(14) 0.20744(11) 0.50558(10) 0.0575(3) Uani 1 1 d . .
loop_
_atom_site_aniso_label
_atom_site_aniso_U_11
_atom_site_aniso_U_22
_atom_site_aniso_U_33
_atom_site_aniso_U_23
_atom_site_aniso_U_13
_atom_site_aniso_U_12
C1 0.0382(6) 0.0369(6) 0.0408(6) -0.0071(5) -0.0070(5) -0.0046(5)
C2 0.0433(6) 0.0393(6) 0.0492(7) -0.0049(5) -0.0138(5) -0.0059(5)
C3 0.0523(8) 0.0525(8) 0.0651(9) 0.0022(7) -0.0134(7) -0.0216(6)
C4 0.0463(7) 0.0597(8) 0.0687(9) 0.0032(7) -0.0213(7) -0.0168(6)
C5 0.0380(6) 0.0382(6) 0.0443(6) -0.0064(5) -0.0068(5) -0.0056(5)
C6 0.0497(7) 0.0373(6) 0.0368(6) -0.0061(5) -0.0045(5) -0.0113(5)
C7 0.0381(6) 0.0402(6) 0.0438(6) -0.0079(5) -0.0053(5) -0.0108(5)
C8 0.0391(6) 0.0372(6) 0.0389(6) -0.0053(5) -0.0059(5) -0.0073(5)
C9 0.0421(6) 0.0422(6) 0.0414(6) -0.0041(5) -0.0061(5) -0.0136(5)
C10 0.0419(7) 0.0541(8) 0.0536(8) -0.0010(6) -0.0152(6) -0.0128(6)
C11 0.0517(7) 0.0448(7) 0.0459(7) 0.0005(5) -0.0155(6) -0.0077(6)
C12 0.0574(8) 0.0366(6) 0.0414(6) -0.0042(5) -0.0063(5) -0.0109(5)
C13 0.0559(8) 0.0370(6) 0.0544(8) -0.0001(5) -0.0076(6) -0.0117(6)
C14 0.0526(7) 0.0359(6) 0.0504(7) -0.0068(5) -0.0042(6) -0.0113(5)
C15 0.0425(7) 0.0569(8) 0.0785(10) 0.0041(7) -0.0180(7) -0.0081(6)
N1 0.0445(6) 0.0476(6) 0.0548(6) 0.0032(5) -0.0158(5) -0.0118(5)
N2 0.0542(7) 0.0406(6) 0.0541(7) 0.0006(5) -0.0133(5) -0.0116(5)
N3 0.0478(6) 0.0439(6) 0.0592(7) 0.0061(5) -0.0175(5) -0.0147(5)
O1 0.0438(5) 0.0533(6) 0.0709(6) 0.0058(5) -0.0195(5) -0.0141(4)
O2 0.0580(6) 0.0487(6) 0.0860(8) 0.0082(5) -0.0164(5) -0.0211(5)
O3 0.0686(7) 0.0449(5) 0.0594(6) 0.0032(4) -0.0159(5) -0.0203(5)
O4 0.0405(5) 0.0416(5) 0.0623(6) 0.0062(4) -0.0132(4) -0.0102(4)
O5 0.0467(5) 0.0518(6) 0.0634(6) 0.0100(5) -0.0169(5) -0.0220(4)
loop_
_atom_type_symbol
_atom_type_description
_atom_type_scat_dispersion_real
_atom_type_scat_dispersion_imag
_atom_type_scat_source
C C 0.0033 0.0016 'International Tables Vol C Tables 4.2.6.8 and 6.1.1.4'
H H 0.0000 0.0000 'International Tables Vol C Tables 4.2.6.8 and 6.1.1.4'
N N 0.0061 0.0033 'International Tables Vol C Tables 4.2.6.8 and 6.1.1.4'
O O 0.0106 0.0060 'International Tables Vol C Tables 4.2.6.8 and 6.1.1.4'
loop_
_geom_angle_atom_site_label_1
_geom_angle_atom_site_label_2
_geom_angle_atom_site_label_3
_geom_angle
N1 C1 C2 121.80(11)
N1 C1 C5 117.56(10)
C2 C1 C5 120.64(11)
N2 C2 C1 122.04(12)
N2 C2 H2 119.0
C1 C2 H2 119.0
N2 C3 C4 122.35(13)
N2 C3 H3 118.8
C4 C3 H3 118.8
N1 C4 C3 121.89(13)
N1 C4 H4 119.1
C3 C4 H4 119.1
O1 C5 N3 124.25(12)
O1 C5 C1 119.89(11)
N3 C5 C1 115.86(11)
C11 C6 C7 118.47(11)
C11 C6 C12 120.15(12)
C7 C6 C12 121.36(12)
C8 C7 C6 120.94(11)
C8 C7 H7 119.5
C6 C7 H7 119.5
O4 C8 C7 124.61(11)
O4 C8 C9 115.26(10)
C7 C8 C9 120.13(11)
O5 C9 C10 118.40(11)
O5 C9 C8 122.79(11)
C10 C9 C8 118.79(11)
C9 C10 C11 120.85(12)
C9 C10 H10 119.6
C11 C10 H10 119.6
C6 C11 C10 120.81(12)
C6 C11 H11 119.6
C10 C11 H11 119.6
C13 C12 C6 127.23(13)
C13 C12 H12 116.4
C6 C12 H12 116.4
C12 C13 C14 123.42(13)
C12 C13 H13 118.3
C14 C13 H13 118.3
O3 C14 O2 122.61(12)
O3 C14 C13 120.17(13)
O2 C14 C13 117.21(12)
O4 C15 H15A 109.5
O4 C15 H15B 109.5
H15A C15 H15B 109.5
O4 C15 H15C 109.5
H15A C15 H15C 109.5
H15B C15 H15C 109.5
C4 N1 C1 116.11(11)
C3 N2 C2 115.79(11)
C5 N3 H3A 119.4(10)
C5 N3 H3B 116.7(11)
H3A N3 H3B 123.6(15)
C14 O2 H2A 120.2(19)
C8 O4 C15 117.07(10)
C9 O5 H5A 111.2(13)
loop_
_geom_bond_atom_site_label_1
_geom_bond_atom_site_label_2
_geom_bond_distance
C1 N1 1.3295(16)
C1 C2 1.3826(17)
C1 C5 1.5005(16)
C2 N2 1.3307(17)
C2 H2 0.9300
C3 N2 1.3248(18)
C3 C4 1.379(2)
C3 H3 0.9300
C4 N1 1.3269(18)
C4 H4 0.9300
C5 O1 1.2301(15)
C5 N3 1.3203(16)
C6 C11 1.3836(19)
C6 C7 1.4009(17)
C6 C12 1.4619(17)
C7 C8 1.3772(16)
C7 H7 0.9300
C8 O4 1.3698(14)
C8 C9 1.4036(17)
C9 O5 1.3529(15)
C9 C10 1.3823(18)
C10 C11 1.3846(19)
C10 H10 0.9300
C11 H11 0.9300
C12 C13 1.319(2)
C12 H12 0.9300
C13 C14 1.4598(17)
C13 H13 0.9300
C14 O3 1.2635(17)
C14 O2 1.2737(18)
C15 O4 1.4280(16)
C15 H15A 0.9600
C15 H15B 0.9600
C15 H15C 0.9600
N3 H3A 0.930(19)
N3 H3B 0.880(18)
O2 H2A 0.9802(10)
O5 H5A 0.86(2)
