#------------------------------------------------------------------------------
#$Date: 2019-12-26 21:22:11 +0200 (Thu, 26 Dec 2019) $
#$Revision: 246100 $
#$URL: file:///home/coder/svn-repositories/cod/cif/2/31/17/2311760.cif $
#------------------------------------------------------------------------------
#
# This file is available in the Crystallography Open Database (COD),
# http://www.crystallography.net/. The original data for this entry
# were provided by IUCr Journals, http://journals.iucr.org/.
#
# The file may be used within the scientific community so long as
# proper attribution is given to the journal article from which the
# data were obtained.
#
data_2311760
loop_
_publ_author_name
'Ende, Martin'
'Effenberger, Herta'
'Miletich, Ronald'
_publ_section_title
;
 Evolution of the \a-BaMg(CO<sub>3</sub>)<sub>2</sub> low-temperature
 superstructure and the tricritical nature of its \a-\b phase transition.
;
_journal_issue                   'Pt 5'
_journal_name_full
'Acta crystallographica Section B, Structural science, crystal engineering and materials'
_journal_page_first              827
_journal_page_last               835
_journal_paper_doi               10.1107/S2052520617009295
_journal_volume                  73
_journal_year                    2017
_chemical_formula_sum            'C6 Ba3 Mg3 O18'
_chemical_formula_weight         845.01
_space_group_crystal_system      trigonal
_space_group_IT_number           166
_space_group_name_Hall           '-R 3 2"'
_space_group_name_H-M_alt        'R -3 m :H'
_audit_creation_method           SHELXL-2014/7
_cell_angle_alpha                90
_cell_angle_beta                 90
_cell_angle_gamma                120
_cell_formula_units_Z            1
_cell_length_a                   5.0270(10)
_cell_length_b                   5.0270(10)
_cell_length_c                   16.778(3)
_cell_measurement_reflns_used    3872
_cell_measurement_temperature    480(2)
_cell_measurement_theta_max      45
_cell_measurement_theta_min      1.5
_cell_volume                     367.19(12)
_computing_structure_refinement  'SHELXL-2014/7 (Sheldrick, 2014)'
_diffrn_ambient_temperature      480(2)
_diffrn_measured_fraction_theta_full 0.848
_diffrn_measured_fraction_theta_max 0.963
_diffrn_measurement_device_type  StoeStadiVari
_diffrn_radiation_type           MoK\a
_diffrn_radiation_wavelength     0.71073
_diffrn_reflns_av_R_equivalents  0.0287
_diffrn_reflns_av_unetI/netI     0.0133
_diffrn_reflns_Laue_measured_fraction_full 0.848
_diffrn_reflns_Laue_measured_fraction_max 0.963
_diffrn_reflns_limit_h_max       10
_diffrn_reflns_limit_h_min       -9
_diffrn_reflns_limit_k_max       10
_diffrn_reflns_limit_k_min       -10
_diffrn_reflns_limit_l_max       33
_diffrn_reflns_limit_l_min       -16
_diffrn_reflns_number            3872
_diffrn_reflns_point_group_measured_fraction_full 0.848
_diffrn_reflns_point_group_measured_fraction_max 0.963
_diffrn_reflns_theta_full        25.242
_diffrn_reflns_theta_max         45.561
_diffrn_reflns_theta_min         12.533
_exptl_absorpt_coefficient_mu    8.197
_exptl_absorpt_correction_T_max  0.8
_exptl_absorpt_correction_T_min  0.7
_exptl_absorpt_correction_type   numerical
_exptl_absorpt_process_details   '(Stoe & Cie GmbH 2016)'
_exptl_crystal_density_diffrn    3.821
_exptl_crystal_description       prismatic
_exptl_crystal_F_000             384
_exptl_crystal_size_max          0.060
_exptl_crystal_size_mid          0.030
_exptl_crystal_size_min          0.030
_refine_diff_density_max         0.837
_refine_diff_density_min         -0.776
_refine_diff_density_rms         0.110
_refine_ls_extinction_method     none
_refine_ls_goodness_of_fit_ref   1.075
_refine_ls_hydrogen_treatment    undef
_refine_ls_matrix_type           full
_refine_ls_number_parameters     14
_refine_ls_number_reflns         415
_refine_ls_number_restraints     0
_refine_ls_restrained_S_all      1.075
_refine_ls_R_factor_all          0.0150
_refine_ls_R_factor_gt           0.0147
_refine_ls_shift/su_max          0.000
_refine_ls_shift/su_mean         0.000
_refine_ls_structure_factor_coef Fsqd
_refine_ls_weighting_details
'w=1/[\s^2^(Fo^2^)+(0.0175P)^2^+0.4063P] where P=(Fo^2^+2Fc^2^)/3'
_refine_ls_weighting_scheme      calc
_refine_ls_wR_factor_gt          0.0336
_refine_ls_wR_factor_ref         0.0337
_reflns_Friedel_coverage         0.000
_reflns_number_gt                414
_reflns_number_total             415
_reflns_threshold_expression     'I > 2\s(I)'
_cod_data_source_file            xk5041sup1.cif
_cod_data_source_block           norse_480
_cod_original_cell_volume        367.20(16)
_cod_original_sg_symbol_H-M      'R -3 m'
_cod_database_code               2311760
_shelx_shelxl_version_number     2014/7
_shelx_space_group_comment
;
The symmetry employed for this shelxl refinement is uniquely defined
by the following loop, which should always be used as a source of
symmetry information in preference to the above space-group names.
They are only intended as comments.
;
_shelx_estimated_absorpt_t_min   0.639
_shelx_estimated_absorpt_t_max   0.791
_shelx_res_file
;

    norse_480_a.res created by SHELXL-2014/7


TITL norse_440_a.res in R-3m
REM Old TITL norse_440 in R3m

REM SHELXT solution in R-3m
REM R1 0.034,  Rweak 0.143,  Alpha 0.055,  Orientation as input
REM Formula found by SHELXT:  C2 O6 Mg Ba

CELL  0.71073   5.0270   5.0270  16.7784   90.000   90.000  120.000
ZERR    1.0000   0.0010   0.0010   0.0030    0.000    0.000    0.000
LATT  3
SYMM -Y, X-Y, Z
SYMM -X+Y, -X, Z
SYMM Y, X, -Z
SYMM X-Y, -Y, -Z
SYMM -X, -X+Y, -Z
SFAC C O MG BA
UNIT 6 18 3 3
L.S. 20
TEMP 207.15
SIZE 0.06 0.03 0.03
BOND $H
LIST 4
ACTA
FMAP 2
PLAN 20
REM EXTI    0.012485
WGHT    0.017500    0.406300
FVAR       0.68830
BA1   4    0.000000    0.000000    0.500000    10.08333    0.01419    0.01419 =
         0.02038    0.00000    0.00000    0.00709
MG2   3    0.000000    0.000000    0.000000    10.08333    0.01084    0.01084 =
         0.01667    0.00000    0.00000    0.00542
O3    2    0.853654    0.707309    0.257676    10.50000    0.03816    0.01193 =
         0.03289    0.00521    0.00260    0.00596
C4    1    0.000000    0.000000    0.260743    10.16667    0.01215    0.01215 =
         0.01476    0.00000    0.00000    0.00607
HKLF 4

REM  norse_440_a.res in R-3m
REM R1 =  0.0147 for     414 Fo > 4sig(Fo)  and  0.0150 for all     415 data
REM     14 parameters refined using      0 restraints

END

WGHT      0.0175      0.4063

REM Highest difference peak  0.837,  deepest hole -0.776,  1-sigma level  0.110
Q1    1   0.0000  0.0000  0.4647  10.16667  0.05    0.59
Q2    1  -0.0704 -0.1408  0.2612  10.50000  0.05    0.49
Q3    1  -0.0903 -0.1806  0.4727  10.50000  0.05    0.35
Q4    1   0.0000  0.0000  0.3228  10.16667  0.05    0.34
Q5    1   0.9927  0.6891  0.2280  11.00000  0.05    0.29
Q6    1   1.0846  0.7817  0.2084  11.00000  0.05    0.27
Q7    1   0.8458  0.6917  0.2047  10.50000  0.05    0.27
Q8    1   0.7323  0.5836  0.2193  11.00000  0.05    0.26
Q9    1   0.9833  0.8183  0.2015  11.00000  0.05    0.24
Q10   1  -0.2259 -0.1130  0.1828  10.50000  0.05    0.23
Q11   1   0.1602  0.3204  0.0462  10.50000  0.05    0.23
Q12   1   0.0386  0.0771  0.0635  10.50000  0.05    0.23
Q13   1   0.9041  0.8083  0.2995  10.50000  0.05    0.23
Q14   1   0.4425  0.5575  0.2657  10.50000  0.05    0.23
Q15   1   0.7275  0.4550  0.2058  10.50000  0.05    0.22
Q16   1  -0.1124 -0.2249  0.4378  10.50000  0.05    0.22
Q17   1   1.1673  0.8327  0.2986  10.50000  0.05    0.21
Q18   1   0.8257  0.8270  0.2432  11.00000  0.05    0.21
Q19   1   0.0000  0.0000  0.3558  10.16667  0.05    0.21
Q20   1   0.7502  0.5004  0.2726  10.50000  0.05    0.21
;
_shelx_res_checksum              93818
_shelx_hkl_file
;
   4   1 -15  416.15   22.75   0
   2   6   8  495.01   25.96   0
   3   1   2 2801.99   39.31   0
   4   1  -3 1773.94   33.45   0
   4   3   1  397.46   22.00   0
   4   5  -1  205.28   24.41   0
   3   0  -3 1173.51   28.08   0
   5   3 -10  356.00   25.60   0
   4   2   2 1678.66   32.98   0
   4   4   3  285.36   24.87   0
   5   3  -7  170.16   24.50   0
   1   4  12 1486.60   34.18   0
   3   5   7  214.84   22.33   0
   5   2  -9  638.82   24.14   0
   5   3 -13  188.07   22.58   0
   5   4  -8  490.05   27.87   0
   4   1   0 2950.50   40.57   0
   5   2 -12  490.75   23.62   0
   5   2  -6  825.33   26.34   0
   5   3  -4  746.72   28.57   0
   5   4 -11   15.13   23.37   0
   3   4   8  663.11   26.64   0
   3   6   6  168.40   22.88   0
   4   0 -11 1330.10   31.06   0
   4   0  -8 3137.42   43.03   0
   4   3   4  974.76   28.61   0
   5   4  -5  209.00   24.07   0
   5   4 -14   64.80   20.70   0
   5   2 -15  115.89   21.07   0
   5   3 -16  243.25   23.92   0
   5   1 -11  362.99   22.58   0
   5   1  -8 1148.78   30.22   0
   3   0   0 5885.99   56.65   0
   4   0 -14 1168.37   30.74   0
   5   3  -1  373.86   22.39   0
   5   4  -2  186.26   21.96   0
   2   2   9 2070.50   36.24   0
   5   1  -5  838.73   27.17   0
   3   1   5 2378.73   37.32   0
   5   1 -14  617.97   25.42   0
   3   3   9  770.17   26.19   0
   4   2   5  597.56   24.65   0
   4   4   6  357.59   25.11   0
   4   5   5  161.32   22.28   0
   5   2   0 1097.19   30.47   0
   5   5  -3   98.59   21.88   0
   2   3  11  492.53   22.58   0
   4   0  -2 3288.60   41.49   0
   4   1   3  687.14   22.92   0
   5   1  -2 1374.41   30.79   0
   5   4   1  232.01   24.00   0
   5   3   2  430.81   25.40   0
   3   5  10  314.70   23.46   0
   4   3   7  610.19   25.60   0
   5   5   0  267.38   25.21   0
   3   6   9   85.96   20.08   0
   5   0 -10 1193.03   29.68   0
   5   0  -7 1236.54   29.24   0
   6   3  -9  114.50   21.68   0
   3   4  11  234.13   20.77   0
   5   2   3  755.99   25.12   0
   6   2 -11  162.64   21.36   0
   6   2  -8  463.26   23.17   0
   6   3 -12  220.36   23.90   0
   6   3  -6  201.88   24.63   0
   5   1   1  602.94   22.89   0
   6   2  -5  276.94   24.92   0
   2   4  13  543.29   23.89   0
   3   0   3 4665.08   50.88   0
   4   0   1 2920.02   38.90   0
   4   5   8  439.43   25.29   0
   5   0 -13  371.01   21.08   0
   6   3  -3  255.69   24.02   0
   4   4   9  281.79   23.74   0
   5   3   5  282.30   23.60   0
   6   2 -14  221.85   21.83   0
   1   2  11  912.94   28.28   0
   6   1 -10  350.30   24.55   0
   6   1  -7  223.51   21.92   0
   6   2  -2  381.22   25.19   0
   3   2  10 1153.48   28.51   0
   4   1   6 2195.93   35.94   0
   6   1 -13  337.31   23.65   0
   6   1  -4 1065.70   28.09   0
   6   3   0  438.11   26.94   0
   5   0  -1  619.00   21.88   0
   6   4  -1  101.71   21.30   0
   3   3  12 1041.74   28.44   0
   4  -1  -7 1446.60   31.16   0
   4   3  10  690.59   25.85   0
   5   1   4 1434.49   30.02   0
   5   2   6  658.42   23.82   0
   6   2   1  278.98   24.37   0
   4  -1 -10 1746.07   35.20   0
   5   4   7  104.54   21.43   0
   6   1  -1  526.82   23.40   0
   4   0   4 3235.79   41.56   0
   6   0  -9  527.05   23.93   0
   6   0  -6  715.41   26.22   0
   6   3   3   70.51   22.80   0
   6   4   2  138.73   23.30   0
   5   3   8  595.69   27.10   0
   2   2  12 3493.73   46.74   0
   5   0   2 2265.85   34.66   0
   6   0 -12  757.54   26.57   0
   4   5  11   86.45   19.14   0
   6   0  -3  405.31   23.32   0
   6   1   2  441.83   24.78   0
   6   2   4  665.28   25.37   0
   7   2  -7  171.55   21.87   0
   5  -1  -9  732.85   24.59   0
   5  -1  -6 1803.55   33.61   0
   7   2 -10  139.40   22.35   0
   7   2  -4  273.72   24.77   0
   3   0   6 4283.42   47.45   0
   4  -1  -1 1875.50   32.41   0
   4   2  11  613.25   24.62   0
   6   0   0 1664.99   33.27   0
   7   1  -9  146.30   21.52   0
   7   1  -6  233.20   23.19   0
   5  -1 -12 1560.21   33.49   0
   5   2   9  234.74   19.58   0
   5   4  10  121.74   21.28   0
   7   1 -12  317.26   23.58   0
   7   1  -3  239.23   23.42   0
   5   0   5 1351.95   28.41   0
   4   3  13  203.92   20.47   0
   4   0   7  575.16   21.16   0
   5  -1   0 2859.84   39.25   0
   5   3  11  146.66   21.76   0
   7   0  -8  736.24   27.84   0
   7   1   0  569.38   24.06   0
   7   2   2  271.19   23.34   0
   3  -1   1 1519.03   31.10   0
   6  -1  -8 1108.94   29.47   0
   6  -1  -5  839.33   25.63   0
   6   0   3  655.85   23.04   0
   7   0  -5  332.62   20.94   0
   4  -1   2 2895.59   39.43   0
   7   0 -11  146.83   20.14   0
   6  -1 -11  310.88   20.69   0
   7   0  -2  244.96   22.52   0
   6  -1  -2 1358.35   30.70   0
   6   3   9  237.09   21.55   0
   7   1   3  127.78   22.59   0
   5   2  12  732.68   26.29   0
   6   1   8  953.38   29.33   0
   7   0   1  339.10   23.46   0
   7   2   5  248.82   24.28   0
   5  -1   3  676.89   22.14   0
   4   1  12 1172.86   28.61   0
   5   0   8 1277.14   27.85   0
   6  -1   1  596.17   22.19   0
   6   0   6  551.18   22.65   0
   6   2  10  276.04   23.38   0
   8   1  -5  105.51   22.27   0
   4   2  14  691.53   25.39   0
   5   4  13  156.26   20.71   0
   7  -1  -7  197.40   18.48   0
   7  -1  -4 1093.39   29.92   0
   8   1  -2  205.71   22.55   0
   7  -1 -10  370.55   22.98   0
   7   1   6  284.26   24.56   0
   4  -1   5 2373.46   35.32   0
   7   0   4  979.06   29.88   0
   3  -1   4 7618.62   63.36   0
   5   3  14  214.81   20.61   0
   7  -1  -1  550.72   24.97   0
   8   0  -7  128.68   21.18   0
   8   0  -4  340.65   23.73   0
   6  -1   4 1503.67   31.53   0
   8   0 -10  157.00   22.54   0
   8   0  -1  148.76   22.83   0
   5  -1   6 2238.74   35.59   0
   5  -2  -8 3588.68   46.14   0
   5  -2  -5 1461.02   29.39   0
   6   0   9  433.67   23.67   0
   6   1  11  214.31   19.49   0
   7  -1   2  428.22   24.34   0
   5   1  13  314.46   21.94   0
   6  -2  -7  471.66   22.21   0
   6  -2  -4 1628.53   32.34   0
   7   0   7  174.94   23.58   0
   8   0   2  280.38   24.72   0
   8   1   4  193.42   22.63   0
   2   1  13 1019.98   27.49   0
   3   1  14 1292.11   29.72   0
   3   2  16 1089.98   30.00   0
   4  -2  -6 1650.64   33.19   0
   6   2  13  238.80   23.48   0
   5   2  15  223.88   21.89   0
   8  -1  -6  244.95   21.51   0
   8  -1  -3  241.06   22.62   0
   5  -2 -11  464.64   22.51   0
   6  -2 -10 1110.37   28.78   0
   8  -1  -9  207.18   20.36   0
   4  -2  -9 2054.35   38.59   0
   6  -1   7  726.56   23.70   0
   5  -2   1 1617.84   29.77   0
   7  -2  -6  822.84   26.73   0
   7  -1   5  356.11   21.02   0
   7   2  11   52.87   21.34   0
   8  -1   0  541.72   26.68   0
   4  -1   8 4139.01   45.03   0
   7  -2  -3  249.91   21.29   0
   8   0   5  174.93   22.46   0
   4  -2   0 9446.36   68.99   0
   4   1  15  269.74   19.98   0
   7  -2  -9  593.15   24.43   0
   3  -1   7 3620.58   44.72   0
   5  -1   9 1351.13   29.80   0
   6  -2   2 1614.31   30.44   0
   3   0  12 3160.61   42.43   0
   7  -2   0 1070.39   26.83   0
   7   0  10  200.03   23.05   0
   8  -1   3  143.07   22.30   0
   4   0  13 1351.76   29.71   0
   6   1  14  198.04   22.16   0
   5  -2   4 4527.76   46.10   0
   7  -1   8 1009.76   28.99   0
   7  -2   3  784.23   26.20   0
   8  -2  -5  269.38   22.17   0
   8   0   8  197.53   22.44   0
   6  -2   5  656.89   24.35   0
   6  -1  10  811.33   24.98   0
   8  -2  -8  522.76   24.67   0
   8  -2  -2  325.46   24.33   0
   9  -1  -5   69.22   19.60   0
   9  -1  -2  228.73   23.14   0
   2   0  11 3782.18   48.50   0
   4  -2   3 1727.04   30.69   0
   5   0  14  989.18   27.63   0
   8  -1   6  289.08   24.48   0
   6   2  16  210.34   21.78   0
   8  -2   1  350.77   24.46   0
   9  -1   1  129.21   21.48   0
   7  -2   6  672.73   25.90   0
   7   0  13  266.75   22.57   0
   5  -2   7  719.72   22.40   0
   7  -1  11  215.66   22.53   0
   8  -2   4  671.19   27.59   0
   9  -1   4  186.42   22.44   0
   6  -2   8 1363.49   29.75   0
   8  -1   9  204.71   23.15   0
   6   0  15  199.52   19.26   0
   7   1  15   41.53   18.92   0
   9  -2  -4  277.47   23.54   0
   9  -2  -1   72.72   21.26   0
   4  -2   6 1641.51   30.14   0
   6  -3  -6 1367.11   30.26   0
   6  -3  -3  815.71   23.75   0
   7  -3  -5  681.77   24.90   0
   7  -3  -2 1174.73   29.45   0
   9  -2  -7  167.08   21.28   0
   6   1  17  201.60   20.45   0
   4   1  18  670.65   26.15   0
   9  -2   2  273.77   23.81   0
   3  -2   2 6947.05   61.45   0
   7  -3  -8  723.88   25.40   0
   7  -3   1  370.77   20.53   0
   7  -2   9  271.91   22.69   0
   8  -2   7  131.83   19.40   0
   9  -1   7   91.95   22.48   0
   4   0  16  795.94   25.59   0
   8  -3  -4  762.62   27.34   0
   8  -3  -1  343.99   23.30   0
   3   0  15  979.07   26.54   0
   5  -3  -4 4672.15   49.94   0
   6  -3  -9  750.62   25.09   0
   8  -3  -7  223.71   22.33   0
   6  -3   3  883.03   24.15   0
   9  -2   5  256.27   23.61   0
   5  -3  -7  743.08   25.10   0
   5  -2  10 1135.15   26.25   0
   5   0  17  418.31   22.61   0
   7  -3   4 1016.46   28.30   0
   8  -3   2  412.74   24.31   0
   6  -2  11  599.51   22.61   0
   7  -1  14  189.91   21.53   0
   7   0  16  344.30   23.27   0
   5  -3   2 1404.29   29.20   0
   5  -1  15  278.43   20.62   0
   8  -2  10  284.37   23.31   0
   9  -3  -3  228.97   22.56   0
   4  -2   9 2183.20   33.68   0
   4  -1  14 1233.32   27.41   0
   8  -3   5  337.73   23.65   0
   9  -3   0  474.31   24.49   0
   3  -2   5 4641.77   49.34   0
   6  -3   6 1406.47   28.81   0
   7  -2  12  711.22   25.64   0
   9  -3  -6  212.77   21.55   0
   9  -2   8  217.62   22.84   0
   6   0  18  180.89   21.15   0
   7  -3   7  634.55   23.33   0
   6  -1  16  536.92   25.35   0
   9  -3   3   87.12   22.01   0
   5  -3   5 1536.11   29.22   0
   3  -1  13 1047.54   27.13   0
   8  -3   8  609.42   26.94   0
   8  -1  15   54.57   20.87   0
   4  -3  -2 2804.09   40.12   0
   9  -3   6  206.51   22.58   0
   6  -3   9  738.85   25.06   0
   8  -2  13  263.54   23.16   0
   9  -2  11   48.94   22.13   0
   4  -3  -5 2365.95   38.77   0
   4  -3   1 1862.42   32.91   0
   7  -1  17  219.35   22.86   0
   7  -4  -1  411.38   22.31   0
   8  -4  -3  306.87   22.53   0
   5  -3   8 3721.17   43.27   0
   7  -4  -4  992.21   27.81   0
   8  -4   0  842.62   25.75   0
   3  -2   8 4454.39   47.55   0
   4   0  19  160.93   18.14   0
   7  -2  15  226.39   19.77   0
   7   0  19   34.81   19.08   0
   8  -4  -6  385.32   22.97   0
   8  -4   3  303.17   22.71   0
   8  -3  11  170.28   23.44   0
   9  -3   9  225.68   23.01   0
   4  -3   4 5937.56   52.79   0
   7  -4  -7  609.95   25.54   0
   9  -4  -2  180.48   22.06   0
   9  -4   1  224.96   23.08   0
   5  -1  18  713.29   25.80   0
   9  -4  -5  204.45   21.47   0
   3   0  18  900.14   26.25   0
   4  -1  17  909.06   26.35   0
   7  -4   5  712.69   23.71   0
   4  -3  -8 4062.21   53.30   0
   6  -4  -5  667.39   23.42   0
   6  -3  12 1040.38   27.83   0
   6  -1  19  170.00   21.05   0
   8  -4   6  392.36   25.12   0
   9  -4   4  500.19   25.82   0
   7  -3  13  225.63   22.75   0
   8  -2  16  197.48   22.31   0
   6  -4   4 1676.51   30.24   0
   5  -3  11  543.05   22.70   0
   6  -2  17  254.10   22.23   0
   9  -3  12  185.42   22.38   0
  10  -4  -1   93.27   19.10   0
   4  -3   7 1465.56   28.35   0
   5  -2  16 1110.99   27.00   0
   7  -4   8  658.75   25.67   0
   9  -4   7  105.60   21.39   0
  10  -4   2  162.68   20.69   0
   8  -4   9  303.61   24.51   0
   8  -3  14  202.51   22.30   0
   2  -1  12 3738.16   47.28   0
   6  -4  -8 1329.12   31.20   0
   3  -1  16 2170.78   36.49   0
   6  -4   7  495.07   21.14   0
   7  -2  18  197.32   22.00   0
   7  -1  20  257.15   22.20   0
   4  -2  15  354.52   18.75   0
   5  -4  -3  771.06   24.13   0
   5  -4   3 1800.68   32.12   0
   9  -4  10  150.89   23.36   0
   4  -3  10 1919.89   32.71   0
   8  -4  12  503.75   26.40   0
   2   0  17  518.11   21.94   0
   6  -4  10 1179.26   28.72   0
   8  -5  -2  401.45   22.73   0
   8  -5   1  368.31   23.21   0
   9  -5  -1  225.42   20.92   0
   5  -4  -6 2300.84   37.66   0
   5  -4   6 1820.48   32.21   0
   9  -5   2  161.98   21.05   0
   3  -3   0 6007.09   57.79   0
   5  -1  21  279.73   20.24   0
   8  -3  17  174.65   21.62   0
   9  -5  -4  523.84   24.47   0
   7  -5   0 1105.37   28.63   0
   8  -5  -5  296.53   21.19   0
   3  -3   3 1201.44   26.92   0
   4  -1  20  700.07   26.15   0
   6  -2  20  352.43   23.07   0
   7  -5  -3  763.33   25.83   0
   9  -4  13  160.88   22.30   0
  10  -5   0  245.63   21.28   0
   5  -2  19  120.56   18.18   0
   8  -5   7  211.05   22.23   0
  10  -5  -3   64.04   19.64   0
  10  -5   3  100.56   21.28   0
   7  -4  14  559.54   25.97   0
   2  -2   7  722.94   22.69   0
   5  -4   9  727.15   24.68   0
   7  -5   6  845.14   25.50   0
   9  -5   8  461.44   24.13   0
   3  -2  14 2510.72   36.53   0
   6  -4  13  698.52   25.31   0
   7  -2  21   88.02   20.25   0
   8  -4  15  106.72   19.65   0
   3  -3   6 5915.57   53.49   0
   6  -3  18  481.03   24.18   0
   7  -5  -6  665.50   24.60   0
   4  -2  18  668.31   24.49   0
   7  -3  19  161.30   20.62   0
   8  -5  10  301.18   23.82   0
   6  -5  -1  640.84   23.63   0
   7  -5   9  657.93   25.99   0
   2  -1  15 1155.06   28.68   0
   5  -3  17  692.79   25.09   0
   9  -5  11  103.17   21.21   0
   4  -4   2 3339.05   40.52   0
   6  -5   5  836.13   24.10   0
   4  -4  -1 2894.51   38.85   0
   8  -3  20  164.77   19.96   0
   4  -4   5  852.05   24.15   0
   5  -4  12 1657.58   30.43   0
   6  -5  -4 1527.65   31.48   0
   3  -3   9 2814.75   37.49   0
   6  -5   8 1164.32   27.16   0
   8  -5  13  264.88   21.59   0
   4  -4  -4 3286.02   43.61   0
   7  -5  12  491.34   22.52   0
   8  -4  18  115.96   20.01   0
   9  -6   0  417.02   23.45   0
   9  -6   3  245.60   21.97   0
   9  -5  14   84.03   20.95   0
  10  -6   1   94.43   20.34   0
   4  -4   8 3059.02   38.32   0
   8  -6   2  391.11   23.53   0
   9  -6  -3   95.13   21.65   0
   4  -3  16 1594.56   31.36   0
   5  -2  22  299.62   21.26   0
   8  -6  -1  319.46   22.63   0
   2  -7  12  742.94   29.53   0
   1  -8   9  237.48   24.90   0
   4  -6  13  609.28   25.05   0
  -2  -4   5  600.93   24.82   0
   1  -5  12 1157.64   29.04   0
   2  -4  12 3754.85   45.10   0
   7  -9  10  162.23   22.57   0
   1  -7  11  184.25   21.37   0
   2  -5  13 1137.10   31.10   0
  -1  -3   8 4351.80   51.62   0
   0  -2   8 6692.94   63.42   0
   1  -9   7    0.34   21.36   0
   0  -5  11  414.74   23.96   0
   2  -3  11 1001.28   28.16   0
   4  -7  14  562.95   28.10   0
   6  -9  12  270.19   25.57   0
  -1  -4   9 1391.31   32.48   0
  -1  -6   8  990.76   30.59   0
   1  -2   9 2754.71   42.58   0
   3  -9  12  174.92   26.89   0
   1  -6  13  391.90   25.43   0
   2  -6  14  681.77   26.52   0
   3  -5  14  719.70   27.66   0
   4  -9  13  192.86   25.16   0
   0  -7  10  182.87   23.25   0
   3  -4  13 1184.85   30.49   0
   6  -7  13  339.97   24.65   0
   0  -8   8  168.22   22.53   0
   2  -9  11   64.77   21.95   0
   2  -8  13  245.75   26.25   0
   3  -8  14  220.77   26.23   0
   3  -6  15  242.98   21.82   0
   5  -6  14  560.18   27.58   0
   7  -8  12  335.61   24.39   0
   5  -9  14   82.28   23.15   0
  -1  -5  10  841.73   29.04   0
   0  -6  12  935.82   30.80   0
   4  -8  15  116.00   23.47   0
   5  -7  15   97.51   23.88   0
   6  -8  14  222.76   24.03   0
   1  -8  12  296.62   26.73   0
   2  -7  15  237.04   26.98   0
   3  -7  16  413.07   27.54   0
  -2  -3   7  728.22   26.09   0
   1  -4  14 1285.47   29.84   0
   2  -2  10 7347.05   66.41   0
   0  -4  13 1289.02   30.14   0
  -2  -4   8 1374.42   34.51   0
   0  -3  12 3236.19   42.58   0
   1  -5  15  258.28   21.60   0
   1  -3  13 1065.87   27.31   0
   2  -5  16 1112.94   31.79   0
   2  -4  15  340.43   22.42   0
   5  -4  12 1523.05   34.10   0
  -2  -2   6 1601.04   36.04   0
   4  -7  17  255.75   26.20   0
  -1  -6  11  235.41   23.01   0
   4  -4  14 1056.63   28.21   0
  -1  -3  11  705.56   25.58   0
   0  -8  11   90.76   20.70   0
   0  -7  13  298.96   24.53   0
   2  -6  17  237.09   25.29   0
  -1  -4  12 1191.22   29.23   0
   1  -6  16  579.59   25.32   0
   2  -8  16  200.69   25.28   0
   3  -8  17  115.35   25.40   0
   3  -5  17  663.32   27.56   0
   6  -7  16  316.26   24.82   0
   0  -2  11 3966.14   47.47   0
   6  -6  15  167.13   22.49   0
   7  -8  15   45.21   24.33   0
   3  -6  18  450.40   24.14   0
   4  -8  18  131.04   24.82   0
  -1  -5  13  362.73   23.97   0
   0  -6  15  210.86   20.93   0
   1  -8  15   41.52   21.95   0
   6  -8  17  107.47   22.57   0
   1  -2  12 3962.92   47.27   0
   5  -7  18  320.87   25.72   0
   2  -7  18  206.76   23.27   0
   5  -5  16  722.18   27.51   0
   3  -7  19  141.58   25.11   0
   6  -5  14  602.52   26.27   0
  -2  -3  10 1147.18   30.62   0
   4  -3  13 1196.83   30.75   0
   0  -4  16  793.68   28.25   0
   1  -5  18  709.22   28.12   0
   1  -4  17  867.08   26.87   0
   4  -5  18  495.63   26.19   0
  -2  -4  11  586.29   25.32   0
  -1  -6  14  203.09   23.04   0
   0  -3  15  997.42   26.84   0
   2  -5  19  132.81   23.75   0
   3  -3  15  546.32   22.45   0
   4  -7  20  190.54   24.15   0
   0  -7  16  323.66   25.87   0
   1  -3  16 2346.99   38.86   0
   1  -6  19  149.99   25.30   0
   2  -6  20  308.79   27.31   0
   2  -2  13 2553.24   39.03   0
   3  -8  20  156.15   24.04   0
  -2  -2   9 2168.12   39.21   0
  -1  -4  15  289.02   23.25   0
   4  -4  17  397.74   24.18   0
   5  -4  15  484.78   24.13   0
   3  -5  20  632.82   28.43   0
   6  -7  19   69.63   21.57   0
  -1  -5  16  598.44   27.27   0
   0  -6  18  198.25   24.99   0
   2  -3  17 1080.24   29.82   0
   3  -6  21  188.15   26.07   0
   6  -6  18  212.80   23.41   0
   0  -2  14 2263.25   37.33   0
   0  -1  10 3547.34   47.54   0
   2  -7  21   84.69   23.13   0
   5  -7  21  118.77   23.15   0
   5  -6  20  269.34   23.37   0
  -1  -1   9 2568.08   41.13   0
   1  -2  15 1200.55   29.84   0
   3  -7  22  117.84   24.84   0
   5  -5  19  223.03   23.88   0
  -2  -3  13 1097.26   30.35   0
  -2  -4  14  706.31   27.44   0
  -1  -6  17  207.69   24.34   0
   0  -4  19  194.00   23.14   0
   1  -5  21  264.30   25.88   0
   1  -4  20  680.23   26.00   0
   1  -1  11 1051.66   28.79   0
   0  -7  19   43.07   22.82   0
   4  -5  21  220.50   24.18   0
   0  -3  18  918.27   29.37   0
   2  -5  22  316.84   27.37   0
   4  -3  16 1502.56   33.82   0
   2  -4  21  591.33   26.70   0
   3  -3  18 1419.21   32.62   0
   3  -2  14 2569.70   40.72   0
  -1  -4  18  752.86   27.90   0
   1  -6  22  171.96   23.37   0
   2  -6  23  104.89   24.58   0
  -2  -5  15  244.98   22.75   0
  -2  -1   8 4353.04   55.16   0
   4  -4  20  617.61   27.19   0
  -1  -5  19  159.15   22.82   0
   0  -6  21  132.10   25.16   0
   3  -5  23   56.92   23.19   0
   5  -4  18  494.12   24.87   0
   6  -7  22  120.61   24.74   0
   3  -6  24  139.97   23.30   0
   4  -2  12 3511.45   50.80   0
   2  -3  20  710.57   25.33   0
   6  -6  21  144.61   22.46   0
  -1  -2  16 2216.25   37.46   0
  -1  -1  12 3895.59   46.95   0
   0  -1  13 2521.34   38.39   0
  -2  -3  16 1138.37   31.11   0
  -2  -4  17  247.31   22.15   0
   2  -1  12 3779.22   47.76   0
   5  -5  22  193.65   24.26   0
  -1  -6  20  225.77   24.91   0
   1  -5  24  168.07   24.35   0
   1  -4  23  116.76   23.39   0
   1  -1  14 2856.90   40.41   0
   4  -6  25  132.85   21.32   0
   0  -3  21  355.60   25.14   0
   2  -5  25  190.12   24.54   0
   4  -5  24  245.71   24.97   0
  -2  -5  18  194.48   23.40   0
  -2  -2  15  370.67   20.02   0
  -2  -1  11  934.80   27.23   0
  -1  -4  21  286.96   25.61   0
   4  -3  19  268.05   21.65   0
   1  -6  25   39.64   24.18   0
   1  -3  22  525.21   24.11   0
   2  -6  26  106.49   23.67   0
   2  -4  24  410.28   23.93   0
   3  -3  21  504.33   25.45   0
   3  -2  17 1060.96   29.41   0
  -3  -2  11  505.07   23.18   0
  -1  -5  22  196.39   23.73   0
   0  -6  24  145.69   24.02   0
   4  -4  23  153.01   22.78   0
  -1  -1  15 1155.95   27.67   0
   0  -2  20 1309.92   31.75   0
   0  -1  16 3571.19   44.90   0
   3  -6  27    9.91   22.15   0
   3  -5  26  162.48   22.58   0
   5  -4  21  227.96   22.61   0
  -1  -2  19  531.37   25.16   0
   2  -3  23  173.63   20.63   0
   4  -2  15  369.61   21.61   0
  -2  -3  19  118.23   21.48   0
  -3  -3  15  278.70   23.01   0
  -2  -4  20  322.56   23.54   0
   1  -2  21  575.05   26.08   0
   2  -1  15 1090.47   28.47   0
   5  -6  26   89.14   21.02   0
  -2  -1  14 2593.99   40.19   0
   0  -4  25  163.63   24.06   0
  -2  -2  18  637.60   25.23   0
   1  -5  27   65.52   23.47   0
   1  -4  26  259.12   23.75   0
   5  -5  25   89.16   24.14   0
  -3  -2  14  704.10   26.21   0
   0  -3  24  456.22   26.07   0
  -2  -5  21  107.97   21.75   0
  -1  -4  24  201.00   23.68   0
   2  -5  28  138.47   23.75   0
   4  -5  27   41.40   23.20   0
   1  -3  25  246.10   21.73   0
   2  -4  27   47.61   23.71   0
   3  -2  20  813.93   27.63   0
   3  -1  13  984.20   28.42   0
   4  -3  22  407.85   24.92   0
  -3  -1  10 1762.19   36.43   0
   3  -3  24  267.58   21.21   0
  -1  -5  25   52.97   23.43   0
  -1  -1  18 1692.13   32.09   0
   0  -1  19  468.16   24.00   0
  -1   0  11 1046.96   26.79   0
  -1  -2  22  513.16   23.83   0
   4  -4  26  203.37   23.41   0
  -2  -3  22  303.89   23.93   0
   1   0  10 3270.34   46.23   0
   2  -3  26  355.98   25.79   0
   4  -2  18  626.63   25.32   0
  -2  -4  23  123.60   21.11   0
   2  -1  18 1590.21   31.52   0
  -3  -2  17  670.17   26.43   0
   1  -2  24  491.29   24.16   0
  -3  -1  13 1221.12   30.61   0
  -2  -2  21  579.15   26.63   0
   3  -4  28  139.30   22.05   0
   0  -4  28  108.39   22.61   0
  -1   0  14 2847.46   39.96   0
   1  -4  29  126.25   24.11   0
   3  -1  16 2104.29   37.95   0
   0  -3  27   83.22   21.56   0
   1   0  13 2502.54   39.73   0
  -1  -4  27   56.65   22.17   0
  -1  -1  21  540.45   25.47   0
   3  -2  23  191.56   22.02   0
   1  -3  28  217.77   23.87   0
   4  -3  25  256.71   25.88   0
   3  -3  27   62.77   22.72   0
  -3  -3  21  233.23   24.68   0
  -3  -1  16 1527.59   33.59   0
  -1  -2  25  234.56   24.67   0
   0  -2  26  287.12   25.11   0
   2  -1  21  539.29   24.39   0
   4  -2  21  540.69   26.52   0
  -3  -2  20  647.65   26.80   0
  -2  -3  25  184.38   21.96   0
  -1   0  17 1754.01   33.44   0
  -2  -4  26  100.42   22.68   0
   1  -1  23  197.61   19.58   0
   4  -4  29   58.27   22.68   0
  -2  -2  24  426.61   23.03   0
  -2   0  16 1304.51   30.55   0
   3  -1  19  525.04   23.76   0
  -1  -1  24  464.70   25.42   0
  -3  -1  19  273.55   21.88   0
   0  -3  30   98.40   24.10   0
   3  -2  26  318.23   24.37   0
  -3   0  12 2205.10   37.11   0
  -1   0  20 1330.32   29.89   0
   1  -3  31   25.39   22.55   0
   2   0  14 2098.60   36.33   0
  -3  -3  24  129.62   21.03   0
  -3  -2  23   61.10   21.86   0
  -1  -2  28  195.58   24.16   0
   2  -1  24  470.33   25.73   0
  -2   0  19  394.08   21.16   0
   0  -2  29  106.13   22.87   0
   0   0  21 1242.52   30.60   0
   3  -3  30  192.83   23.34   0
   4  -3  28  137.09   23.20   0
  -3   0  15  581.11   23.89   0
  -2  -3  28  111.95   21.88   0
   1  -1  26  429.20   26.09   0
   4  -2  24  405.63   25.12   0
  -2  -2  27   13.03   21.58   0
   3  -1  22  509.12   25.10   0
   1  -2  30  195.58   24.89   0
   2   0  17  538.46   23.09   0
  -3  -1  22  442.56   25.46   0
  -1  -1  27  112.69   23.46   0
  -3   0  18 1426.37   32.70   0
  -1   0  23  187.21   19.52   0
  -2   0  22 1090.64   30.90   0
   0  -1  28  217.85   23.02   0
  -4  -1  18  444.03   24.00   0
  -3  -2  26  151.79   22.89   0
  -1   1  13 2499.77   37.94   0
   0   0  24  698.41   25.49   0
   3  -2  29  114.56   21.75   0
  -1   1  10 3432.73   45.63   0
   2  -2  31   59.98   22.83   0
   2  -1  27  141.46   19.49   0
   2   0  20 1275.04   29.70   0
  -1  -2  31   41.87   20.96   0
  -1   1  16 3645.16   45.22   0
   0  -2  32  109.58   24.56   0
  -3  -1  25  218.50   24.46   0
  -3   0  21  498.85   25.64   0
  -2   1  12 3789.59   46.11   0
   0   1  11 1029.53   27.06   0
   0   1  14 2850.35   40.17   0
   1  -1  29  156.28   24.74   0
   3  -1  25  247.08   22.28   0
   4  -2  27   49.94   21.34   0
  -2  -2  30   96.39   22.58   0
  -2   1  15 1158.91   27.79   0
  -1   0  26  447.65   26.67   0
  -4  -1  21  241.76   23.83   0
  -2   0  25  250.28   24.61   0
  -1  -1  30  170.98   25.59   0
  -1   1  19  469.32   23.20   0
   0   1  17 1801.41   32.69   0
   1  -2  33   55.77   23.93   0
  -4   0  14 1078.77   29.96   0
  -2   1  18 1665.94   32.08   0
   0  -1  31   66.72   24.07   0
   2   0  23  377.85   24.10   0
   3   0  12 3078.12   48.19   0
   3   0  15  948.72   28.44   0
  -4   0  17  405.54   22.76   0
  -3   0  24  304.82   24.60   0
   0   1  20 1367.86   31.87   0
  -3  -2  29  109.54   22.43   0
  -3   1  14 2497.97   38.35   0
   1   1  15 1105.99   28.75   0
   2  -1  30  175.98   23.89   0
   3   0  18  917.04   28.02   0
  -3   1  11  942.79   27.27   0
  -2   1  21  554.67   23.54   0
  -1   1  22  697.33   25.12   0
   1   1  12 3912.06   49.17   0
   3  -2  32   55.87   20.56   0
  -3  -1  28  124.70   21.79   0
   3  -1  28  201.68   23.36   0
  -4  -1  24  222.81   24.37   0
  -2   0  28  129.88   24.02   0
  -1   0  29  167.79   24.88   0
   1   1  18 1609.34   31.84   0
   0   1  23  201.92   20.27   0
   2   0  26  325.12   23.80   0
   3   0  21  377.64   24.71   0
  -2   1  24  527.10   25.79   0
  -1  -1  33   70.46   22.75   0
   0   0  30  181.49   25.91   0
  -3   0  27   93.54   23.48   0
  -1   1  25  370.51   26.52   0
   1   1  21  551.95   23.07   0
  -4   0  23  177.51   22.21   0
  -3   1   8 4255.50   54.55   0
  -4  -1  27   50.97   20.09   0
   2  -1  33   33.43   23.27   0
  -4   1  16 1564.24   34.41   0
  -2   0  31   49.12   24.19   0
   3   0  24  414.81   24.74   0
  -4   1  13 1192.03   30.64   0
  -4   1  19  244.62   22.32   0
  -2   1  27  123.87   24.45   0
  -1   0  32  100.00   25.39   0
   1   0  31   30.21   22.54   0
   3  -1  31   37.97   20.13   0
  -1   1  28  238.64   26.60   0
   2   0  29  112.43   23.39   0
   2   1  16 2109.93   38.51   0
  -4   0  26  175.39   24.10   0
  -3   0  30  156.20   24.28   0
   2   1  19  533.53   24.77   0
  -2   2  17  532.27   22.59   0
   0   0  33   94.68   23.36   0
   2   1  13 1021.56   28.93   0
  -4   1  22  423.02   25.41   0
  -2   2  14 2226.45   36.34   0
  -2   2  20 1373.46   32.69   0
  -1   2  15 1153.55   28.19   0
  -1   2  18 1638.64   32.43   0
  -1   2  21  539.43   23.68   0
   0   1  29  149.68   21.49   0
   1   1  27   96.71   24.16   0
   2   1  22  503.03   25.20   0
   3   0  27   92.37   24.27   0
  -3   2  16 2141.40   36.16   0
  -3   2  19  524.06   24.77   0
  -1   2  12 3936.78   47.07   0
  -2   1  30  199.46   23.94   0
  -2   2  11 4056.06   49.14   0
  -2   2  23  358.23   23.14   0
   0   2  16 1358.45   31.20   0
   0   2  19  431.10   23.95   0
  -4   0  29   69.73   23.65   0
  -4   1  25  233.73   22.04   0
  -1   1  31   17.42   23.46   0
  -3   2  22  548.19   24.27   0
  -1   2  24  507.37   24.39   0
  -3   8  -8  647.98   25.53   0
   0   3   6 6050.60   55.23   0
  -3   6  18  455.26   23.86   0
  -1   4  13 1240.01   28.46   0
  -4   7  19  172.18   20.16   0
  -3   8  10  344.11   21.37   0
  -1   6   2 1478.94   30.98   0
  -2   4  18  607.74   23.89   0
  -2   7   9  664.50   26.24   0
  -4   9  11  125.86   20.29   0
  -1   6   5  908.25   26.21   0
   0   4   2 3577.26   42.77   0
  -1   2  15 1114.32   29.85   0
  -1   6  -4 1563.19   31.80   0
  -5   8  20  143.20   20.48   0
  -2   7  -9  254.93   20.32   0
  -3   7  17  257.39   21.82   0
  -3   8  13  259.74   23.81   0
  -1   6   8 1217.36   29.44   0
   0   4  -4 3278.78   42.69   0
  -3   9   0  445.33   23.77   0
  -2   7  12  515.81   25.30   0
  -4   8  18  177.15   20.86   0
  -4  10   1   67.71   19.89   0
  -3   9  -3   80.47   21.68   0
  -4  10  -2  145.19   19.78   0
  -3   9   6  167.33   22.81   0
  -2   8  -1  357.98   23.71   0
  -1   6  -7  744.09   24.72   0
  -2   8   5  285.64   24.22   0
   0   4   8 3167.56   39.51   0
  -2   8  -4  676.66   27.10   0
  -1   4  16 1571.74   32.24   0
  -1   6  11  355.15   22.58   0
   0   5   1  622.44   23.31   0
  -3   9   9  125.42   22.31   0
   0   5   4 1950.89   33.45   0
  -3   6  21  208.20   20.72   0
  -1   3  17 1078.08   29.17   0
  -1   5  15  489.45   23.28   0
   0   5  -2 2348.46   36.32   0
  -3   8  16  252.61   22.72   0
  -1   7  -2  418.84   23.37   0
  -1   7   4 1134.81   28.08   0
   0   4  -7  624.98   23.31   0
   0   5   7 1241.97   29.35   0
  -2   8  -7  158.77   20.25   0
   0   4  11 1287.14   27.67   0
  -3   7  20  167.96   21.66   0
  -3   9  12  323.10   23.60   0
  -2   5  20  650.77   25.32   0
  -2   8  11  131.01   22.52   0
   0   5  -5 1418.95   30.45   0
  -2   6  19  125.53   20.19   0
  -1   7  -5  390.43   22.82   0
  -1   7  10  388.33   25.50   0
   0   5  10 1254.85   29.80   0
   0   6   3  445.78   23.37   0
  -2   9   1   82.23   21.59   0
  -3   8  19   57.49   21.20   0
  -2   7  18  312.58   24.07   0
  -2   8  14  198.12   21.59   0
   0   6   6  723.38   26.35   0
  -2   9  -2  251.73   23.00   0
  -1   5  18  470.20   23.65   0
   0   4  14 1071.66   26.21   0
  -2   9   7  134.91   21.33   0
  -1   4  19  265.65   19.89   0
  -1   7  13  432.05   25.10   0
   0   6  -3  673.35   25.41   0
   1   2   2 7205.34   63.28   0
   1   3   1 1861.87   31.96   0
   1   3   4 5873.82   53.13   0
   0   3  15  565.17   22.78   0
   0   5  -8 1294.50   31.45   0
  -1   6  17  296.09   22.91   0
  -1   8   0  584.75   24.71   0
  -1   8   6  261.06   23.62   0
   0   6   9  574.20   23.59   0
   1   2   5 4653.73   49.92   0
  -2   9  10  180.72   22.52   0
   1   3   7 1463.96   28.70   0
   1   4   3 1776.87   32.31   0
  -1   8  -3  169.86   21.38   0
   1   4   0 2850.27   39.26   0
  -1   8   9  153.31   23.03   0
   1   4   6 1951.41   32.36   0
  -2   8  17  146.73   21.55   0
   0   6  -6  611.65   24.15   0
   1   2   8 4630.60   49.89   0
   0   6  12  773.14   25.24   0
  -1   7  16  371.75   24.46   0
   0   7   5  365.90   24.47   0
   1   3  10 1883.50   33.15   0
   1   4   9  712.06   22.74   0
  -2   7  21  161.60   22.14   0
  -1   8  12  364.33   24.51   0
   0   4  17  414.13   22.19   0
   0   5  16  769.99   25.95   0
   0   7  -1  356.43   20.90   0
   1   5   2 1401.77   30.66   0
   1   5   5  862.28   26.86   0
   0   2  16 1300.54   30.87   0
   0   7   8  826.46   26.44   0
   1   3  -5 2267.45   36.76   0
   1   5  -1  573.46   22.73   0
  -1   5  21  244.24   20.70   0
   1   5   8 1153.52   27.46   0
  -1   6  20  290.49   22.78   0
   0   7  -4 1062.98   29.91   0
   0   3  18 1377.28   31.11   0
   0   7  11  149.41   19.29   0
   1   4  12 1658.18   30.80   0
  -1   9   2  226.74   23.87   0
   1   3  13 1206.01   28.52   0
   1   4  -6 2253.11   37.51   0
   1   5  -4 1534.07   31.85   0
   1   5  11  375.73   22.41   0
  -1   7  19   29.65   21.44   0
  -1   9  -1  127.17   21.95   0
   0   7  14  139.57   22.14   0
   1   6   7  200.36   19.77   0
   0   5  19  257.83   21.71   0
   0   7  -7  178.36   22.09   0
   0   8   1  141.66   21.33   0
   0   8   7  160.68   22.61   0
   1   6  -2  453.61   22.99   0
   0   4  20  638.11   24.91   0
   1   4  15  491.06   21.34   0
   1   6  10  387.37   22.17   0
   0   8  -2  244.42   21.79   0
   0   8  10  188.31   23.25   0
   1   2  14 2583.28   39.22   0
   1   3  -8 4118.71   53.62   0
   1   3  16 1538.84   32.11   0
   1   5  -7  707.63   24.85   0
   2   3   5 1546.50   30.93   0
   2   3   2 1404.38   28.28   0
   2   4   4 1648.48   32.26   0
   0   7  17  190.26   23.51   0
   1   6  -5  349.49   21.25   0
   1   6  13  367.19   21.94   0
   1   7   6  256.07   23.55   0
   2   3   8 3766.94   43.71   0
   2   4   7  536.47   23.78   0
  -1   7  22  123.99   22.84   0
   0   8  13  111.56   21.55   0
   2   4   1 1147.60   26.94   0
   0   8  -5  184.62   21.33   0
   1   7   0  563.95   25.62   0
   2   2   3 1766.68   31.22   0
   2   2   6 1654.94   30.29   0
   1   1  12 3888.37   49.60   0
   1   4  -9 1295.95   31.18   0
   1   5  17  304.69   23.39   0
   2   4  10 1182.94   27.49   0
   2   5   3  259.90   21.36   0
   2   5   6  840.67   27.21   0
   2   2   0 9299.29   68.77   0
   2   2   9 2265.32   35.35   0
   2   3  11  548.57   21.23   0
   2   4  -2 1642.63   30.55   0
   0   5  22  241.60   21.13   0
   0   6  21  156.19   22.11   0
   1   7  -3  122.04   20.56   0
   1   7  12  313.63   24.16   0
   2   5   0 1065.55   28.43   0
   2   5   9  684.03   26.25   0
   0   7  20  200.24   20.78   0
   1   2  17 1045.21   28.12   0
   2   3  -4 4490.65   49.61   0
   2   4  13  637.41   23.51   0
   1   3  19  250.46   19.87   0
   2   5  12  478.33   24.64   0
   2   3  14  693.93   24.52   0
   2   5  -3  756.22   26.21   0
   2   6   5  293.28   20.61   0
   1   7  15   66.24   22.04   0
   1   8   2  221.50   21.64   0
   2   6   8  514.58   24.72   0
   1   5  20  292.81   22.88   0
   2   1   4 7708.23   64.32   0
   2   2  -3 1721.74   31.85   0
   2   1   7 3655.36   44.91   0
   1   6  19   68.70   21.71   0
   1   8  -1  129.19   21.43   0
   2   6  -1  292.39   20.51   0
   2   6  11  166.64   20.65   0
   1   1  15 1124.18   29.91   0
   1   4  21  237.21   21.08   0
   2   4  16  537.42   22.68   0
   2   1   1 1534.63   30.88   0
   2   2  15  369.29   20.76   0
   2   5  -6  683.30   24.45   0
   2   6  14  230.29   23.73   0
   2   3  17  689.29   23.72   0
   2   6  -4  686.59   26.37   0
   2   7   7  175.35   22.46   0
   3   3   3  839.81   25.59   0
   3   3   6 1363.56   28.50   0
   3   4   5  629.76   25.00   0
   2   7   1  116.03   22.18   0
   3   3   9  785.95   26.03   0
   3   4   2 1173.33   29.68   0
   2   3  -7  716.61   23.94   0
   2   7  10  177.95   22.17   0
   2   5  18  337.36   24.34   0
   2   4  -8 1301.02   30.47   0
   3   2   4 4397.76   45.76   0
   3   2   7  720.96   22.81   0
   3   4  11  277.69   23.03   0
   3   5   4  731.22   27.25   0
   3   5   7  198.91   23.27   0
   1   6  22  122.06   20.63   0
   2   4  19  149.33   21.45   0
   3   3  12 1074.94   28.47   0
   3   4  -1  398.71   21.70   0
   2   1  13 1039.00   26.87   0
   2   2  -6 1631.48   33.50   0
   2   6  17  137.18   22.33   0
   2   7  -2  234.07   22.62   0
   3   2   1 1687.48   31.57   0
   3   2  10 1131.01   27.79   0
   3   5   1  358.95   22.83   0
   3   5  10  327.43   24.10   0
   3   4  14  498.99   22.58   0
   2   2  18  617.45   24.02   0
   2   3  20  612.33   24.99   0
   3   3  -3  841.90   24.02   0
   3   5  -2  404.57   23.77   0
   3   5  13  281.58   24.13   0
   3   6   6  185.26   22.24   0
   3   3  15  291.63   21.88   0
   3   6   9  117.75   21.63   0
   3   4  -4  948.52   27.60   0
   2   5  21  160.68   20.63   0
   3   1   5 2370.77   35.78   0
   3   1   8 4322.19   45.58   0
   3   6   0  416.66   24.88   0
   3   6  12  228.64   23.17   0
   3   4  17  226.81   22.48   0
   2   1  16 2155.52   36.83   0
   2   4  22  279.26   21.47   0
   3   1   2 2788.06   38.01   0
   3   2  16 1091.19   29.33   0
   3   5  -5  289.16   21.76   0
   3   3  18  444.05   24.33   0
   3   6  -3   65.74   20.14   0
   4   3   4  924.21   28.02   0
   4   3   7  587.00   23.29   0
   4   4   6  393.13   24.31   0
   3   3  -6 1295.91   28.85   0
   4   3  10  693.74   26.29   0
   4   4   9  318.31   24.07   0
   3   1  -1 1889.88   33.17   0
   3   4  -7  552.59   23.82   0
   4   2   5  617.89   22.39   0
   4   2   8 1315.11   28.57   0
   3   1  14 1297.10   29.53   0
   3   2  -5 1449.21   29.44   0
   3   5  19   65.48   21.47   0
   4   4   0  827.51   28.59   0
   4   4  12  496.12   23.28   0
   4   5   5  167.75   22.24   0
   4   5   8  486.43   25.25   0
   3   4  20  180.63   22.51   0
   4   2   2 1661.00   30.54   0
   4   2  11  586.87   24.63   0
   4   3  13  216.14   20.04   0
   2   0  11 3761.88   48.24   0
   4   5   2  154.21   22.51   0
   4   5  11   89.14   21.36   0
   3   2  19  153.05   19.55   0
   4   3  -2 1152.84   29.79   0
   2   2  -9 1887.55   38.03   0
   3   3  21  189.75   20.89   0
   4   1   6 2205.59   35.08   0
   4   3  16  390.55   24.18   0
   4   4  -3  350.96   23.19   0
   4   5  -1  225.90   22.40   0
   4   5  14  107.13   22.17   0
   4   1   9 1426.53   30.42   0
   4   1   3  694.29   23.79   0
   3   0   6 4366.14   47.12   0
   3   1  17  853.67   26.40   0
   4   6   1   62.85   21.19   0
   3   1  -4 5723.84   55.78   0
   2   0  14 2184.70   38.40   0
   3   0   3 4599.21   49.40   0
   3   3  -9  674.17   25.51   0
   4   4  18  140.47   22.72   0
   4   2  17  232.10   22.59   0
   4   3  -5  661.65   24.78   0
   4   5  -4  565.22   25.28   0
   4   1   0 2864.91   37.91   0
   5   3   5  264.13   22.64   0
   5   3   8  654.34   27.01   0
   3   0  12 3147.25   41.81   0
   4   2  -4 1577.25   30.65   0
   4   3  19  128.33   21.93   0
   5   4   7  107.62   21.62   0
   3   2  -8 3455.95   46.25   0
   4   4  -6  400.66   23.32   0
   5   2   6  684.17   26.67   0
   5   2   9  222.16   22.87   0
   5   3  11  145.64   19.72   0
   5   4   4  529.71   26.58   0
   5   4  10  151.03   22.58   0
   4   1  15  289.21   18.77   0
   3   0   0 5872.33   56.19   0
   5   4   1  226.21   23.16   0
   3   1  20  684.93   24.94   0
   4   0   7  612.80   21.25   0
   5   3  -1  372.16   24.00   0
   5   5   3  120.66   20.28   0
   3   0  15  947.67   26.63   0
   4   0   4 3319.88   41.38   0
   4   1  -3 1709.51   30.91   0
   4   2  20  313.64   22.16   0
   5   1   7  703.30   23.86   0
   5   1   4 1437.24   29.38   0
   5   1  10  825.51   25.05   0
   4   1  18  693.96   26.03   0
   4   3  22  142.39   22.55   0
   5   4  -2  186.43   21.65   0
   4   3  -8  674.12   24.94   0
   5   3  17  119.90   21.64   0
   5   5   0  234.45   22.04   0
   4   0  13 1344.92   30.03   0
   5   1   1  604.23   24.45   0
   3   1  -7 1360.24   30.93   0
   4   0   1 2968.84   38.64   0
   4   2  -7  456.04   21.75   0
   5   2  -3  240.88   20.19   0
   5   2  18  174.84   21.41   0
   5   1  16  536.83   25.15   0
   5   5  -3   95.62   18.41   0
   6   2   7  150.21   23.27   0
   6   3   6  224.44   22.32   0
   6   3   9  225.92   23.87   0
   5   0   8 1285.92   29.32   0
   5   3  20  169.15   21.69   0
   6   2  10  256.15   23.93   0
   4   0  16  809.63   25.99   0
   5   0   5 1326.70   27.87   0
   6   2   4  633.23   24.72   0
   6   3  12  198.72   23.06   0
   4   1  -6 1795.19   32.58   0
   4   0  -2 3306.17   40.95   0
   4   1  21  277.55   21.94   0
   6   2  13  285.79   24.28   0
   5   0   2 2324.48   35.00   0
   6   1   5  329.28   23.32   0
   6   1   8  988.22   27.41   0
   6   3   0  488.77   25.39   0
   5   2  21   94.90   20.85   0
   5   3  -7  202.27   21.07   0
   5   1  19  166.04   21.66   0
   6   1   2  459.20   24.41   0
   6   2  16  224.88   23.05   0
   3  -1  10 3089.63   42.66   0
   6   2  -2  347.22   24.19   0
   3  -1   4 7453.75   63.43   0
   4  -1   8 4312.95   46.34   0
   4   0  19  170.29   18.79   0
   5   0  -1  612.75   21.76   0
   5   1  -5  825.54   26.44   0
   4  -1   5 2412.24   35.54   0
   6   3  -3  214.38   23.16   0
   4  -1  11  658.94   21.89   0
   5   0  17  391.80   22.82   0
   6   0   6  594.59   23.66   0
   6   0   9  436.71   22.02   0
   6   0   3  679.83   23.57   0
   6   1  17  231.29   23.87   0
   6   2  19   35.15   19.39   0
  -6   0  15  160.69   26.48   0
  -5   0  16  803.70   32.30   0
  -5   1  12 1566.98   34.70   0
  -3   0  15  581.43   25.12   0
  -1  -1  15 1101.40   30.11   0
   1  -2  12 3789.69   54.90   0
  -7  -1  15   94.23   26.20   0
  -7   1  10  368.94   27.76   0
  -5   2   5 1455.51   35.97   0
   1  -3  16 2207.85   41.79   0
  -3  -1  19  264.76   25.66   0
  -2  -4  23  119.26   25.64   0
  -4   0  17  382.04   24.91   0
  -4   1  13 1143.13   32.43   0
  -3   1  11  958.69   27.90   0
  -6   2   7  482.69   25.26   0
  -5  -2  21  147.35   26.90   0
  -1   0  11 1073.87   31.04   0
  -5  -1  20  279.32   29.44   0
   0  -2  17  521.41   23.72   0
  -4  -3  23   53.77   25.63   0
  -4  -2  22  254.28   26.24   0
  -6   1  14  603.09   26.93   0
  -5   2   8 3742.55   51.55   0
  -4  -1  21  244.60   27.81   0
   0  -4  22  528.38   27.63   0
  -7   1  13  389.76   27.47   0
  -4   2   6 1677.15   36.84   0
   0  -5  23   67.61   24.67   0
  -5   0  19  240.28   27.22   0
  -3  -2  23   30.56   26.97   0
   1  -4  20  681.79   28.69   0
  -3   0  18 1465.49   33.16   0
  -2   0  16 1312.10   31.05   0
  -2   1   9 2639.10   42.76   0
  -1  -4  24  150.15   24.57   0
  -6   2  10 1135.95   32.66   0
  -2  -1  20  760.39   28.02   0
  -1  -3  23  129.32   24.20   0
   0  -3  21  388.81   25.53   0
  -7   2   9  624.98   29.59   0
  -1  -1  18 1559.48   33.58   0
  -3   1  14 2668.25   41.97   0
  -1  -5  25   71.73   22.33   0
  -4   0  20  654.52   30.40   0
  -4   1  16 1538.80   33.54   0
  -3  -1  22  400.09   28.34   0
  -5   2  11  506.01   23.28   0
  -4   2   9 2188.26   39.54   0
   1  -2  15 1128.81   31.49   0
  -6   1  17  346.38   28.32   0
  -2  -3  25  180.48   28.03   0
  -1  -2  22  565.38   27.87   0
   1  -3  19  519.38   27.27   0
  -7   1  16  367.68   26.75   0
  -6  -1  22  111.69   24.95   0
  -5  -1  23   71.65   25.63   0
  -2  -4  26  122.04   23.62   0
  -1   0  14 2811.54   42.05   0
  -5   1  18  493.61   28.28   0
  -4  -2  25   88.77   24.86   0
  -6   2  13  675.26   28.48   0
   0  -2  20 1326.08   33.78   0
  -7   2  12  436.74   27.31   0
  -2   1  12 3928.03   48.71   0
  -5   0  22  229.16   27.16   0
  -7   0  20  135.06   23.95   0
  -3   0  21  507.09   27.82   0
  -2   0  19  416.33   25.59   0
  -5   2  14  694.50   28.06   0
  -3  -3  27    7.46   24.87   0
  -3  -2  26  157.16   24.28   0
  -3   1  17 1072.57   30.93   0
  -2  -1  23  155.41   25.14   0
   0  -4  25  200.10   23.62   0
  -4   1  19  236.35   22.24   0
  -6   1  20  285.29   26.32   0
  -4   0  23  169.50   26.19   0
  -1  -4  27   50.01   25.49   0
  -7   1  19   42.80   22.68   0
  -3  -1  25  219.53   26.77   0
   0  -3  24  419.13   26.86   0
  -7   2  15   73.95   23.06   0
  -6   2  16  515.61   25.67   0
  -5   1  21  248.48   25.94   0
  -3   2  10 3026.76   43.98   0
   1  -2  18 1542.21   34.88   0
  -6   0  24  135.65   26.34   0
  -4   2  15  385.53   22.74   0
  -2  -3  28   94.54   23.69   0
  -1  -2  25  250.79   25.88   0
  -2  -2  27   21.14   24.37   0
  -5   0  25   91.39   24.57   0
   0  -1  19  479.27   24.17   0
  -6   3   9  765.11   29.26   0
  -4  -1  27   42.00   22.68   0
   0  -2  23  390.55   24.75   0
  -4   1  22  400.86   26.66   0
  -3   1  20  722.66   26.55   0
   0   0  12 9900.63   78.49   0
  -7   2  18  311.01   25.09   0
  -6   2  19  128.26   24.69   0
  -7   1  22   85.02   22.59   0
  -3   2  13 1038.66   27.44   0
  -5   3   7  712.49   25.97   0
  -4   0  26  187.34   25.83   0
  -1   1  10 3434.09   46.76   0
  -6   3  12 1027.34   30.64   0
  -2   1  18 1669.05   32.78   0
  -1  -1  24  485.87   24.20   0
  -5   1  24  210.44   27.39   0
  -5   3  10 1127.90   30.56   0
  -4   2  18  664.73   25.23   0
  -3  -1  28  151.22   25.42   0
  -1   0  20 1256.75   29.98   0
  -1  -3  29  115.31   24.06   0
   0  -3  27   90.22   22.53   0
  -7   3  14  525.97   26.66   0
  -3   2  16 2199.81   38.19   0
  -6   3  15  269.16   23.25   0
  -5   3  13 1154.84   30.26   0
  -1   1  13 2453.23   38.63   0
   1  -2  21  561.39   25.80   0
  -7   2  21  139.72   23.29   0
  -3   1  23  200.02   24.27   0
  -1  -2  28  201.07   24.27   0
   0  -1  22  723.14   27.46   0
  -6   2  22  289.26   24.55   0
  -3   0  27  126.22   24.91   0
  -2   0  25  288.62   25.41   0
  -2  -2  30   77.19   22.52   0
  -4   2  21  586.08   27.04   0
  -2   1  21  561.85   25.58   0
   0  -2  26  296.85   24.17   0
   1  -3  25  229.40   22.50   0
  -7   3  17  252.01   23.38   0
  -4   3   8 4309.63   52.50   0
  -5   2  23   75.73   24.17   0
  -5   3  16 1184.87   29.66   0
  -4   0  29   78.46   24.39   0
  -2   2   8 6429.45   62.65   0
  -1   1  16 3522.81   45.06   0
   1  -1  17 1736.94   35.26   0
  -6   3  18  426.28   26.44   0
  -5   1  27   73.17   23.68   0
  -3   2  19  551.10   25.93   0
  -2  -1  29  109.69   25.24   0
  -2   2  11 3972.79   47.35   0
  -1  -1  27  154.73   24.31   0
  -4   3   5 2266.09   41.50   0
  -2   2  14 2206.16   35.64   0
  -7   3  20  158.23   23.70   0
  -5   3  19  136.54   22.54   0
   2  -2  16 1233.01   31.95   0
  -4   1  28  178.70   24.67   0
  -4   2  24  399.28   26.02   0
   0  -1  25  373.82   24.70   0
   1  -2  24  470.18   24.65   0
  -6   3  21  212.04   23.84   0
  -2   1  24  494.43   24.10   0
  -1   1  19  451.10   21.73   0
  -3   0  30  166.21   22.53   0
  -3   2  22  557.91   26.97   0
  -5   2  26  170.51   23.50   0
  -2   2  17  554.99   22.46   0
  -1  -2  31   54.45   21.69   0
   1  -1  20 1306.02   31.48   0
  -1   0  26  406.20   24.50   0
   0   0  21 1167.18   28.82   0
   0  -2  29  121.00   22.27   0
  -7   3  23   55.55   20.88   0
  -6   4  11  601.86   26.50   0
  -2  -1  32   50.25   21.03   0
  -1  -1  30  173.90   23.51   0
  -4   3  20  742.50   25.62   0
  -1   1  22  734.91   27.22   0
   2  -2  19  379.55   21.38   0
  -6   3  24  133.40   22.98   0
  -6   4  14  736.18   27.11   0
  -7   4  16  369.13   24.55   0
  -4   2  27   20.88   21.74   0
  -3   3  15 1014.67   28.37   0
  -3   2  25  267.68   21.75   0
  -2   1  27  102.48   20.38   0
  -6   4  17  252.64   22.22   0
   0  -1  28  239.51   23.70   0
  -5   2  29   65.73   24.46   0
  -5   4  12 1172.86   30.27   0
  -2   0  31   34.94   22.77   0
   0   0  24  705.53   27.47   0
   1  -2  27  138.86   21.35   0
   1  -1  23  180.02   19.95   0
  -7   4  19  150.90   24.67   0
  -5   3  25  158.06   23.85   0
  -4   3  23  135.93   22.96   0
  -3   3  18  952.65   26.45   0
   0   1  11 1031.25   28.00   0
  -5   4   9 1365.93   31.92   0
  -5   4  15  289.71   22.42   0
  -3   3   6 4148.67   51.27   0
  -1   0  29  188.88   24.15   0
   0   1  14 2782.65   39.52   0
  -2   2  23  355.85   21.91   0
   1   0  13 2247.97   37.72   0
  -6   4  20  370.41   25.45   0
  -6   3  27   26.57   21.21   0
  -5   4  18  715.91   28.00   0
  -1   2  12 4014.41   47.27   0
   0   1  17 1761.12   32.44   0
   1   0  16 3212.50   43.88   0
  -1   2  15 1195.17   27.75   0
  -7   4  22  160.34   23.02   0
  -4   2  30   79.35   24.38   0
  -3   2  28  235.55   22.72   0
  -3   1  32   68.06   20.27   0
  -1  -1  33   45.95   20.10   0
  -1   2   9 2739.01   41.09   0
  -4   3  26  243.64   25.13   0
  -1   2  18 1710.53   31.78   0
  -6   4  23  134.06   22.75   0
  -5   4  21  311.07   21.34   0
  -4   4  13 1389.48   31.46   0
   0   0  27   69.10   20.78   0
   1  -1  26  400.40   23.96   0
   1   0  19  467.05   20.76   0
  -2   2  26  297.72   22.22   0
  -3   3  24  443.03   26.69   0
   0  -1  31   39.85   21.59   0
  -4   4  10 2516.53   38.13   0
  -2   3  13 1049.83   26.23   0
  -2   3  16 2205.86   36.25   0
  -1   2  21  578.36   25.73   0
   2  -1  15 1116.03   29.78   0
  -1   0  32   95.76   21.87   0
  -3   2  31   28.20   22.60   0
  -2   3  10 2971.27   40.40   0
  -2   3  19  558.01   22.99   0
   0   1  23  183.27   18.86   0
   1   0  22  716.20   24.00   0
   2  -1  18 1568.86   33.89   0
  -6   4  26  110.25   21.92   0
  -4   3  29  105.99   24.11   0
  -4   4   7  591.02   23.27   0
  -3   3  27   96.14   24.26   0
  -2   1  33   41.05   22.88   0
  -2   2  29   74.40   22.81   0
  -1   2  24  520.85   25.32   0
  -2   3  22  557.68   25.63   0
   0   0  30  200.29   22.31   0
  -6   5  13  331.95   23.84   0
  -6   5  16  560.93   26.21   0
   1  -1  29  169.79   21.10   0
   2  -1  21  526.74   23.56   0
  -6   5  19  190.84   22.75   0
  -3   4  17  888.39   27.19   0
  -1   1  31   67.30   21.64   0
   0   1  26  429.32   25.17   0
   1   0  25  355.29   23.34   0
  -7   5  21   91.06   21.58   0
  -4   4  25  196.84   21.95   0
  -3   4  20  745.39   27.83   0
  -6   5  22  183.18   24.19   0
  -2   3  25  233.47   21.15   0
  -5   5  14 1046.95   29.55   0
  -5   5  17  442.76   22.20   0
  -3   3  30  115.36   22.01   0
   2  -1  24  488.88   23.45   0
  -5   5  20  321.45   21.49   0
  -3   4  23  142.37   22.01   0
   0   2  16 1357.31   28.77   0
  -5   5  11  423.96   22.22   0
  -4   4  28  109.65   22.20   0
   0   2  19  426.18   23.09   0
   0   0  33   84.23   23.27   0
   0   1  29  202.15   22.58   0
   0   2  13 2556.74   37.54   0
   1   0  28  265.10   23.61   0
   1   1  18 1585.20   32.43   0
  -5   5  23   99.90   22.11   0
  -2   3  28  251.00   24.15   0
  -1   3  14 2690.38   39.23   0
  -1   3  17 1025.41   26.56   0
  -3   4   8 4394.48   50.58   0
  -1   3  20  813.60   27.82   0
  -3   4  26  282.51   25.13   0
   1   1  21  543.37   22.42   0
  -4   5  18  779.82   27.25   0
  -4   5  15  295.24   20.08   0
  -1   3  23  227.07   22.11   0
  -5   5  26  143.30   23.17   0
  -1   3  11  967.20   25.29   0
   0   2  10 7316.34   62.19   0
  -5   5   8 1244.52   30.92   0
  -2   4  15  378.36   22.48   0
  -2   4  18  661.75   24.42   0
   1   1  24  474.93   24.03   0
   2   0  17  541.57   22.87   0
  -4   5  12 1228.27   28.61   0
   2   0  20 1286.44   31.57   0
  -2   3  31   32.70   21.92   0
   0   1  32   86.88   22.40   0
  -3   4  29  110.49   22.08   0
   1   0  31   45.27   20.58   0
   2   0  14 2158.61   37.86   0
  -2   4  12 3579.44   43.22   0
  -2   4  24  467.90   26.93   0
  -1   2  33   71.33   22.48   0
   2   0  23  339.62   22.33   0
  -6   6  18  225.65   22.91   0
   0   2  28  153.60   22.75   0
   1   1  27  148.68   21.31   0
  -6   6  15  197.11   22.45   0
  -6   6  21  147.73   23.46   0
  -4   5  27   70.87   22.65   0
  -4   5   9 1392.00   31.68   0
  -3   5  19  156.64   21.74   0
  -1   3   8 4405.73   48.99   0
  -3   4   5 2363.94   40.00   0
  -2   4  27   47.68   22.83   0
  -6   6  24  127.30   22.96   0
  -3   5  22  340.52   22.97   0
  -5   6  19  165.64   23.20   0
   0   2   7  769.82   24.40   0
   2   0  26  256.43   23.03   0
  -5   6  16  591.23   26.82   0
  -5   6  22  175.84   23.99   0
  -3   5  25  230.82   25.46   0
   0   3  18 1389.14   32.49   0
   0   3  21  503.42   23.21   0
   1   1  30  153.51   23.51   0
   1   2  20  803.69   27.76   0
  -2   4  30   87.40   23.60   0
  -1   4  19  276.32   23.62   0
   0   3  15  578.47   22.77   0
  -5   6  13  364.30   23.36   0
  -5   6  25   64.11   21.79   0
   1   2  23  193.17   22.38   0
  -1   3  32   50.78   23.48   0
  -3   5  10 1132.64   29.51   0
  -3   5  28  118.44   22.29   0
   1   2  14 2480.43   37.68   0
  -4   6  20  324.18   25.66   0
  -4   6  17  255.88   23.49   0
   0   3  12 2165.35   35.24   0
   2   1  19  520.37   24.14   0
  -4   5   6 2204.32   39.27   0
  -4   6  23  121.79   22.39   0
  -2   5  20  686.46   26.74   0
   2   1  22  527.05   25.38   0
  -2   5  17  698.89   25.31   0
  -2   5  23   92.43   23.47   0
   2   1  16 2130.25   37.94   0
  -5   6  10  882.55   28.29   0
  -1   3   5 4540.76   52.53   0
  -1   4  28  168.48   22.86   0
   2   1  25  209.37   22.57   0
  -2   5  14  740.00   25.37   0
  -2   5  26  186.67   25.00   0
   1   2  11  967.48   26.31   0
   0   3  30  149.53   23.08   0
   1   2  29  123.49   22.33   0
  -1   4  10 1866.67   34.94   0
   2   1  13 1014.51   26.85   0
  -3   5   7  748.32   25.79   0
  -3   6  21  223.96   25.08   0
   0   3   9 2787.94   40.07   0
  -2   5  29   89.95   25.60   0
   2   1  28  205.09   23.86   0
  -3   6  24  159.11   24.02   0
  -3   6  15  278.05   23.34   0
   0   4  20  673.26   28.32   0
  -5   7  18  216.21   24.60   0
  -5   7  21   98.13   23.11   0
   1   2  32   72.75   22.51   0
   3   0  21  340.77   22.82   0
  -3   6  27   53.99   24.68   0
   0   4  17  437.75   23.45   0
   3   0  18  913.36   29.04   0
  -3   2  10 3141.84   40.24   0
  -5   2  17  697.58   26.19   0
  -4   2  15  382.77   22.57   0
  -9   3   9   89.61   19.24   0
  -7   2  18  332.41   24.78   0
  -5   1  21  228.44   24.18   0
  -2   0  19  421.08   21.71   0
  -1  -2  22  506.67   23.09   0
  -8   3  13  217.91   22.08   0
  -6   0  24  139.38   21.90   0
  -6   2  19  113.77   22.67   0
  -4   3   2 2801.44   42.75   0
  -4   3   5 2305.42   37.00   0
  -3  -2  26  116.49   20.46   0
  -2   1  15 1209.20   28.08   0
  -9   3  12  220.56   22.74   0
  -7   1  22  134.13   20.48   0
  -3   2  13 1102.25   27.26   0
  -2  -1  23  175.00   20.13   0
  -6   3  15  281.96   22.45   0
  -5   3  13 1149.95   28.72   0
  -3  -1  25  203.74   22.60   0
   0  -1  16 3199.86   44.39   0
  -6   1  23   37.82   20.60   0
  -8   3  16  260.77   23.16   0
  -4   1  22  404.32   21.91   0
  -4   2  18  625.43   24.92   0
  -3   1  20  813.75   25.78   0
  -1  -1  21  550.10   23.00   0
  -1   0  17 1727.28   32.38   0
  -7   2  21  169.61   22.12   0
  -5   2  20  670.27   24.42   0
  -8   4   9  275.31   21.92   0
  -5   1  24  232.51   23.34   0
  -4  -1  27   27.46   20.49   0
  -4   3  11  689.18   23.37   0
  -3   0  24  274.28   22.24   0
  -7   4  10  724.38   26.06   0
  -6   4   5  620.14   22.99   0
  -6   2  22  285.18   23.21   0
  -2   0  22 1052.80   28.11   0
  -1   1  10 3292.73   43.08   0
  -6   3  18  475.01   22.50   0
  -6   4   2 1597.30   33.05   0
  -6   4   8 1275.05   27.94   0
  -4   0  26  175.23   23.28   0
  -3   2  16 2219.54   33.88   0
  -8   4  12  489.32   23.81   0
  -2   2   8 6745.62   58.97   0
  -9   4  11   84.51   19.85   0
  -7   4  13  228.28   21.19   0
  -6   4  11  609.15   23.90   0
  -7   3  20  199.16   21.74   0
  -4   3  14 1300.02   27.42   0
  -5   2  23   88.56   21.10   0
  -4   2  21  592.57   22.85   0
   0   0  12 9594.16   74.79   0
  -2  -1  26  314.33   21.89   0
  -2   2  11 4068.94   44.54   0
  -1   1  13 2467.12   36.79   0
  -8   4  15   87.88   19.76   0
  -3  -1  28  152.62   19.99   0
  -1   0  20 1271.19   29.17   0
   0  -1  19  449.52   20.85   0
  -9   4  14   79.02   18.47   0
  -5   3  19  136.79   18.12   0
  -7   4  16  421.67   24.61   0
  -6   3  21  192.89   20.02   0
  -5   4   6 2215.67   34.45   0
  -3   2  19  516.35   20.89   0
  -6   2  25   93.44   20.35   0
  -5   4   9 1411.67   28.27   0
  -1  -1  24  456.62   22.14   0
  -5   4   3  722.18   23.44   0
  -4   3  17  913.74   25.00   0
  -3   0  27   77.01   20.23   0
  -3   3   9 1106.43   25.22   0
  -2   1  21  538.10   21.03   0
  -2   2  14 2267.35   33.48   0
  -8   4  18  157.58   20.69   0
  -2   0  25  264.48   21.51   0
  -6   4  17  212.59   21.52   0
  -4   0  29   65.27   19.09   0
  -4   2  24  430.05   24.71   0
  -3   3   3 4260.09   50.57   0
  -3   3  12 3315.54   40.10   0
   0   0  15  358.18   18.84   0
  -5   3  22  350.13   24.12   0
  -5   2  26  150.18   20.75   0
  -5   4  15  293.04   20.93   0
  -6   3  24  172.63   21.60   0
  -8   5  11  134.51   19.51   0
  -4   1  28  139.86   20.33   0
  -4   3  20  730.79   23.73   0
  -3   1  26  323.20   23.24   0
  -3   2  22  506.78   21.43   0
  -2   2  17  551.10   21.62   0
  -7   5   9  254.65   19.65   0
  -5   4   0 2591.33   43.12   0
  -3   3  15 1041.87   26.03   0
  -1   0  23  172.19   18.52   0
  -7   5   6  649.15   23.82   0
  -6   4  20  369.21   24.14   0
  -8   5  14  193.78   21.14   0
  -7   5  12  717.59   25.67   0
  -5   4  18  765.61   25.89   0
  -2   1  24  501.42   22.99   0
  -7   4  22  164.14   20.02   0
  -4   4   7  634.46   21.76   0
  -1   1  19  415.35   20.60   0
  -7   5  15  238.28   22.01   0
   0   0  18 1174.46   27.54   0
  -5   3  25  219.85   21.82   0
  -4   4  13 1354.90   28.29   0
  -3   0  30  136.70   19.23   0
  -3   3  18  956.33   26.13   0
  -8   5  17  154.45   20.17   0
  -6   5   7  711.72   23.50   0
  -6   5  10  854.45   24.17   0
  -2   0  28  132.66   18.92   0
  -2   2  20 1331.80   28.71   0
  -6   5  13  367.79   21.79   0
  -4   3  23   86.80   17.93   0
  -4   4   4 3185.81   41.73   0
  -6   3  27   40.74   17.72   0
  -6   4  23  149.01   21.68   0
  -7   5  18  227.85   21.83   0
  -6   5   4 1452.19   31.34   0
  -3   1  29  133.20   20.95   0
  -8   5  20  149.36   19.64   0
  -3   3  21  407.66   20.21   0
  -1   0  26  390.25   21.45   0
  -1   1  22  722.85   24.09   0
  -2   1  27  122.74   19.84   0
  -1   2   9 2635.77   36.95   0
  -1   2  12 3884.55   42.78   0
  -5   3  28  111.51   21.10   0
  -4   4  19  201.32   18.36   0
  -2   3  10 3107.79   38.80   0
   0   0  21 1186.02   27.88   0
  -6   5  19  181.81   21.56   0
  -5   5  11  404.32   20.80   0
  -4   3  26  237.53   22.16   0
  -2   3  13 1099.29   25.88   0
  -6   4  26  125.77   20.62   0
  -5   4  24  209.94   21.54   0
  -5   5   8 1332.22   28.48   0
  -1   2  15 1202.42   26.70   0
  -4   2  30  101.86   20.22   0
  -2   3   7 3649.02   42.40   0
  -4   4   1 2781.78   42.09   0
  -3   2  28  234.08   21.04   0
  -2   3  16 2295.17   34.40   0
  -8   6  13  234.35   20.98   0
  -4   4  22  573.19   24.83   0
  -3   3  24  400.05   20.95   0
  -3   4  11  700.82   21.24   0
  -6   5  22  207.79   21.78   0
  -5   5   5 1336.72   28.99   0
  -3   4  14 1298.62   26.55   0
  -8   6  16  206.37   21.31   0
  -7   6  11  233.18   19.97   0
  -1   1  25  361.31   20.83   0
  -7   6  14  228.71   19.64   0
  -2   3  19  490.00   21.43   0
  -7   6   8  948.79   26.97   0
  -5   5  20  297.23   21.38   0
  -3   1  32   43.60   18.43   0
  -3   4  17  883.71   24.03   0
  -2   2  26  281.93   21.17   0
   0   1  17 1675.74   29.54   0
  -5   4  27   46.82   20.18   0
  -7   6  17  226.68   20.15   0
  -2   1  30  171.53   19.86   0
  -6   5  25   69.38   20.41   0
  -4   4  25  214.94   19.89   0
  -3   4   5 2271.07   34.88   0
  -1   2  21  536.36   20.41   0
  -6   6  12  988.97   26.45   0
  -4   5  15  304.14   20.00   0
  -3   4  20  765.01   23.45   0
  -2   3  22  524.66   22.90   0
  -7   6  20  261.51   21.92   0
  -6   6  15  229.47   20.43   0
  -5   5  23   98.76   20.52   0
  -4   5   9 1379.51   28.49   0
  -3   2  31   55.87   18.34   0
   0   1  20 1307.45   28.35   0
  -6   6  18  205.31   21.42   0
  -4   5  18  790.00   25.92   0
   1   0  13 2301.81   37.82   0
  -3   4  23  117.76   20.96   0
  -1   1  28  209.45   20.37   0
  -4   5   6 2222.13   34.58   0
  -2   2  29  113.22   19.56   0
  -1   2  24  512.45   22.95   0
   1   0  16 3218.50   43.08   0
  -6   6   6  575.11   22.16   0
  -4   4  28   80.79   20.39   0
  -5   5  26  183.55   21.12   0
   0   1  23  154.23   17.71   0
  -5   6  13  383.36   21.80   0
  -3   3  30   95.36   20.24   0
  -2   4  15  380.98   19.89   0
  -1   3  14 2524.29   34.33   0
   1   0  19  445.70   20.04   0
  -5   6  10  871.05   23.67   0
  -3   4   2 2811.31   40.73   0
  -1   3  11  981.03   23.52   0
  -1   3  17 1062.71   26.14   0
  -6   6  24  160.93   20.42   0
  -5   6  19  178.15   21.86   0
  -4   5  24  212.09   22.28   0
  -3   4  26  229.12   20.79   0
  -2   4  18  684.37   23.52   0
  -3   5  13 1112.31   26.50   0
  -3   5  16 1217.09   28.49   0
  -2   4   9 2186.39   32.33   0
  -1   2  27  155.29   19.61   0
   0   2  13 2593.01   36.48   0
  -7   7  13  283.37   21.15   0
  -7   7  16  338.30   21.66   0
  -5   6   7  674.59   23.67   0
  -5   6  22  219.26   21.63   0
  -4   5   3  709.30   22.99   0
  -2   3  28  232.86   20.44   0
  -2   4  21  568.43   21.90   0
  -1   3   8 4410.01   45.34   0
  -7   7  19   41.01   18.00   0
  -3   5  10 1072.84   24.97   0
  -3   5  19  174.36   18.00   0
  -2   2  32  112.72   17.79   0
   0   1  26  387.09   21.58   0
   0   2  19  407.46   20.14   0
   1   0  22  695.84   24.75   0
   0   2  10 7430.38   59.19   0
  -4   5  27   51.78   20.65   0
  -3   5  22  321.63   23.20   0
  -1   3  23  189.05   17.24   0
  -5   6  25   82.60   21.32   0
  -4   6  17  245.43   22.32   0
  -2   4   6 1595.54   29.82   0
  -2   4  24  437.40   22.78   0
  -6   7  17  192.49   22.19   0
  -3   5   7  731.15   22.96   0
   0   2  22 1044.62   27.18   0
  -6   7  11  220.19   19.45   0
  -6   7  20  231.92   21.50   0
  -4   6  20  316.56   20.84   0
  -5   6   4 1413.43   30.08   0
  -1   2  30  173.69   19.94   0
  -3   5  25  184.48   19.71   0
  -2   3  31   32.24   19.07   0
  -1   3  26  340.59   22.84   0
   1   1  15 1069.66   25.05   0
  -1   3   5 4544.82   47.76   0
   0   2   7  746.10   22.11   0
   1   1  18 1606.32   30.89   0
  -6   7   8  999.46   28.45   0
  -4   6   8 1393.82   29.60   0
  -4   6  23  115.69   19.04   0
  -2   4  27   58.20   19.34   0
   0   2  25  302.13   20.76   0
  -1   4  16 1539.90   28.78   0
   1   1  21  545.07   22.23   0
  -5   7  12  755.16   26.09   0
  -3   5  28  104.72   21.16   0
  -2   5  14  672.46   22.01   0
  -1   4  13 1237.81   26.25   0
  -1   4  19  294.39   20.96   0
  -4   6  26  149.19   21.29   0
  -3   5   4 4590.92   48.21   0
  -2   5  20  655.30   25.70   0
  -4   5   0 2606.61   42.14   0
  -3   6  15  285.70   20.98   0
  -2   4   3 1739.17   30.94   0
  -2   5  11  521.99   20.04   0
  -1   3  29  119.32   20.94   0
   0   3  15  580.62   20.13   0
  -7   8  15   26.53   20.44   0
  -2   4  30  127.41   19.70   0
  -1   4  10 1822.09   31.52   0
  -5   7   9  246.35   19.71   0
  -4   6   5  643.58   22.91   0
  -3   6  21  226.92   22.81   0
  -2   5  23   52.48   18.44   0
   0   2  28  145.50   19.81   0
   0   3  12 2211.39   34.08   0
   0   3  21  509.27   22.52   0
   1   1  24  479.22   21.79   0
  -1   4  25  215.71   22.23   0
  -3   6  24  155.78   21.67   0
  -2   5   8 3539.15   40.44   0
  -6   8  16  249.16   23.37   0
  -4   7  19  166.66   21.29   0
  -3   6   9  770.38   24.05   0
  -2   5  26  174.95   20.41   0
   0   3  24  275.88   21.23   0
  -6   8  19   29.90   18.01   0
  -4   7  13  215.49   21.20   0
   1   2  17 1101.61   26.91   0
  -6   8  13  275.79   21.89   0
  -4   7  22  174.03   22.00   0
  -1   4   7 1429.44   27.88   0
   0   3   9 2704.11   36.13   0
  -5   7   6  659.86   24.08   0
  -1   3  32   51.72   17.39   0
   1   2  20  791.90   24.63   0
  -3   6  27   58.39   19.32   0
  -1   4  28  156.77   21.07   0
  -4   7  10  735.64   25.01   0
   2   0  17  515.57   21.93   0
  -2   5  29  108.72   19.95   0
   0   3  27   95.36   18.70   0
   1   2  23  172.82   18.76   0
  -3   5   1 1638.83   32.16   0
  -3   6   6 1414.49   29.81   0
  -1   5  18  497.70   21.72   0
   2   0  14 2153.32   37.68   0
  -5   8  17  161.10   20.40   0
  -4   6   2 1676.23   33.78   0
  -2   6  16  519.82   22.47   0
  -2   6  19   91.56   18.70   0
  -1   5  21  274.50   23.09   0
  -5   8  14  229.29   21.66   0
  -5   8  20  152.46   21.57   0
   0   4  17  432.73   21.81   0
  -2   6  13  666.22   23.23   0
  -1   5  12 1681.67   31.34   0
   0   3   6 5822.32   53.34   0
   0   4  14 1154.83   26.44   0
   1   2  26  333.61   22.13   0
  -4   7   7  612.37   24.20   0
  -3   7  20  205.06   22.20   0
   0   4  23  201.86   22.26   0
  -5   8  11  198.82   20.27   0
  -2   6  25  115.55   21.29   0
   0   3  30  154.94   20.92   0
  -3   7  23   59.43   20.94   0
  -2   4   0 9326.00   73.88   0
  -2   6  10 1172.04   28.66   0
  -1   4   4 5802.42   52.59   0
   0   4  11 1336.58   29.13   0
  -1   5   9  712.55   22.59   0
  -1   5  27   52.81   20.00   0
   1   3  19  243.28   19.67   0
  -3   7  11  238.63   19.15   0
   0   4  26  191.77   21.20   0
   1   2   8 4210.76   46.11   0
   2   1  16 2181.40   36.19   0
   2   1  19  520.38   21.90   0
  -4   8  18  155.84   21.34   0
   1   3  22  441.58   23.17   0
  -4   8  15  111.81   21.10   0
   2   1  22  499.78   22.36   0
  -5   8   8  604.86   24.43   0
  -3   6   3  829.43   24.77   0
   1   3  13 1170.86   26.29   0
   2   1  13 1106.14   27.42   0
   1   3  25  226.63   20.62   0
  -4   7   4  980.94   27.40   0
  -4   8  12  506.09   23.85   0
  -3   7   8  691.85   25.68   0
  -2   5   2 1427.28   28.75   0
   0   4   8 3020.62   38.18   0
  -1   6  17  316.67   23.89   0
  -1   6  20  277.00   23.55   0
   0   4  29   47.60   20.64   0
  -1   5   6 1868.07   32.73   0
   0   5  19  280.34   22.95   0
  -2   7  18  367.27   23.12   0
  -2   7  21  191.50   22.54   0
  -1   6  14  642.20   26.29   0
  -1   6  23   67.78   21.01   0
   0   5  16  825.01   27.22   0
   1   3  10 1895.29   31.64   0
  -2   7  15   92.39   22.10   0
  -4   8   9  318.52   22.94   0
   0   3   3 1157.02   26.57   0
   1   3  28  129.56   20.80   0
   2   2  18  653.19   24.26   0
   0   5  13  400.49   21.02   0
   2   2  21  580.15   23.96   0
   8  -7  -9  314.72   23.79   0
   4  -5  -3  783.42   24.08   0
   4  -4   2 3570.54   42.56   0
   6  -2   8 1315.36   28.02   0
   7  -4   5  687.94   23.44   0
   6  -5   2 1504.49   30.86   0
   7  -7 -10  240.81   20.91   0
   8  -6  -1  346.02   23.29   0
   3  -3   3 1196.94   26.80   0
   7  -3   7  578.19   22.23   0
   9  -7  -8  231.42   22.68   0
   5  -1   9 1341.12   29.67   0
   8  -2   7  140.98   19.75   0
   9  -5   2  178.94   23.03   0
   9  -4   4  558.63   26.06   0
   9  -2   5  199.33   19.75   0
  10  -5   0  298.66   22.59   0
   5  -5   1  646.38   23.26   0
   8  -7  -6  285.97   21.93   0
   7  -7  -7  196.23   21.22   0
   9  -6   0  413.30   24.82   0
   8  -5   4  727.44   24.68   0
   3  -5  -7  685.83   24.28   0
   5  -6  -4 1584.17   31.79   0
   9  -3   6  214.36   21.63   0
   7  -6   1  624.20   24.89   0
   7  -2   9  255.33   20.26   0
   5  -3   8 3593.89   41.46   0
   6  -4   7  518.40   22.28   0
   8  -7  -3  143.42   21.15   0
   8  -6   2  404.16   22.04   0
   8  -3   8  600.80   24.98   0
   5  -4   6 1852.96   31.12   0
   6  -7  -8 1024.22   28.09   0
   7  -7  -4 1022.99   28.54   0
   4  -5   0 3026.61   39.62   0
   6  -3   9  743.88   24.73   0
   9  -7  -2  259.01   23.04   0
   4  -3   7 1443.40   28.09   0
   6  -5   5  851.22   25.45   0
   9  -5   5  194.82   22.34   0
  10  -6   1  100.81   20.35   0
   4   0  10 2284.22   38.58   0
   5  -2  10 1093.24   26.79   0
   9  -4   7  117.99   20.08   0
   4  -4   5  865.55   23.06   0
   5  -6  -1  640.85   21.67   0
   5  -5   4 1957.62   31.93   0
   6  -7  -5  382.41   21.50   0
   3  -5  -4 4793.22   52.50   0
   8  -5   7  221.82   21.80   0
   6  -2  11  588.55   23.22   0
   7  -7  -1  348.85   23.04   0
   7  -6   4 1125.04   27.53   0
   8  -8  -8  243.99   20.30   0
   8  -6   5  297.09   24.12   0
   8  -4   9  292.29   23.01   0
   9  -7   1   97.56   20.77   0
   2  -3   2 6992.21   62.24   0
   4  -6  -5  660.13   24.30   0
   6  -6   3  453.36   20.98   0
   3  -3   6 6060.63   54.19   0
   3  -2   8 4565.91   48.56   0
   9  -3   9  212.87   21.66   0
   8  -8  -5  212.42   21.08   0
   9  -8  -4  159.45   21.03   0
   4  -1  11  676.88   22.91   0
   9  -6   6  206.16   21.81   0
   4  -5   3 1750.74   30.17   0
   6  -4  10 1076.37   27.27   0
   8  -3  11  164.41   20.21   0
   5  -4   9  743.13   24.41   0
   6  -5   8 1134.67   27.89   0
   8  -7   3  287.87   20.06   0
   7  -5   9  684.48   23.60   0
   5  -7  -6  688.04   24.24   0
   7  -8  -6  276.97   20.50   0
   7  -4  11  272.01   21.43   0
   9  -7   4  260.85   23.09   0
   9  -4  10  141.25   21.08   0
   3  -5  -1 1691.80   31.87   0
   3  -4   4 5866.72   52.31   0
   4  -6  -2 1702.62   32.24   0
   6  -3  12 1024.57   27.29   0
   8  -8  -2  313.60   22.16   0
   9  -8  -1  141.47   19.08   0
   5  -5   7 1233.43   26.57   0
   6  -7   1  592.84   24.43   0
   6  -6   6  758.15   25.49   0
   8  -6   8  540.17   25.32   0
   4  -3  10 1854.95   30.82   0
   4  -4   8 3061.87   37.71   0
   7  -8  -3  135.00   19.24   0
   5  -7  -3  775.96   24.68   0
   7  -3  13  206.66   20.33   0
   8  -4  12  432.64   23.28   0
   8  -7   6  222.44   23.04   0
   5  -2  13 1110.71   27.53   0
   7  -7   5  370.27   22.50   0
   8  -8   1  118.57   21.95   0
   9  -6   9  108.13   21.82   0
   2  -4   0 9524.50   72.67   0
   4  -2  12 3461.72   42.25   0
   9  -5  11  118.34   21.00   0
   2  -2   7  744.75   22.62   0
   5  -6   5  867.19   23.88   0
   9  -7   7  178.96   21.09   0
   4  -6   1 1174.66   27.59   0
   4  -5   6 1881.71   30.83   0
   7  -8   0  598.28   25.28   0
   2  -3   5 4584.29   48.44   0
   6  -5  11  364.87   19.52   0
   7  -5  12  461.21   24.63   0
   3  -5   2 1462.73   28.30   0
   3  -3   9 2850.19   37.01   0
   5  -7   0 1100.67   26.70   0
   7  -6  10  407.63   21.08   0
   5  -4  12 1662.82   31.46   0
   8  -6  11  143.91   22.35   0
   8  -3  14  193.91   20.75   0
   5  -5  10 1273.10   28.78   0
   6  -6   9  544.17   22.16   0
   9  -8   5  130.14   20.48   0
   9  -4  13  157.73   19.09   0
   3  -4   7 1478.43   27.86   0
   8  -5  13  199.13   20.55   0
   8  -7   9  188.94   21.94   0
   5  -3  14  681.23   23.64   0
   7  -8   3  296.17   21.86   0
   7  -7   8  798.01   24.82   0
   6  -8  -1  321.76   21.72   0
   6  -3  15  243.72   19.52   0
   4  -4  11 1367.74   27.14   0
   9  -7  10  139.67   21.83   0
   4  -6   4 1682.59   29.77   0
   5  -7   3  267.55   19.31   0
   5  -6   8 1165.54   26.61   0
   8  -9  -1  101.77   19.90   0
   8  -4  15  109.91   20.34   0
   6  -7   7  216.25   18.56   0
   4  -5   9  699.68   23.29   0
   9  -5  14  113.47   18.67   0
   7  -3  16  394.58   22.21   0
   8  -8   7  128.68   20.00   0
   3  -6  -3  824.23   25.26   0
   6  -8   2  384.55   22.94   0
   6  -5  14  595.11   24.17   0
   7  -6  13  398.95   21.25   0
   3  -1  13  991.64   26.10   0
   6  -6  12  850.19   26.29   0
   8  -9   2  217.96   20.29   0
   8  -6  14  188.61   21.70   0
   8  -7  12  318.90   24.28   0
   5  -5  13  407.74   22.05   0
   6  -4  16  507.49   23.51   0
   7  -7  11  114.05   18.14   0
   2  -3   8 4608.27   47.48   0
   4  -7  -1  402.11   21.19   0
   4  -2  15  343.32   19.31   0
   5  -7   6  841.40   26.44   0
   2  -2  10 7655.33   61.31   0
   3  -6   0 2133.35   36.28   0
   3  -4  10 1872.59   31.71   0
   3  -3  12 2199.30   33.84   0
   8  -5  16  258.31   20.18   0
   6  -7  10  408.91   23.03   0
   7  -4  17  229.11   20.69   0
   2  -5  -2 1346.32   30.29   0
   5  -6  11  361.79   19.94   0
   6  -8   5  267.47   21.40   0
   7  -9   1   79.76   19.46   0
   8  -8  10  180.04   21.46   0
   8  -9   5  113.09   19.27   0
   2  -4   6 1661.75   30.22   0
   4  -7   2 1136.67   27.97   0
   3  -5   8 3626.71   41.86   0
   3  -2  14 2431.30   36.13   0
   4  -5  12 1650.23   29.44   0
   5  -3  17  665.16   24.05   0
   5  -8   1  356.58   22.95   0
   3  -6   3  841.30   24.40   0
   7  -9   4  301.16   21.97   0
   7  -6  16  299.62   22.98   0
   8  -4  18  138.95   20.08   0
   2  -5   1 1665.85   31.97   0
   4  -3  16 1475.36   29.58   0
   6  -6  15  154.47   20.36   0
   7  -7  14  186.76   21.74   0
   8  -7  15   59.39   18.93   0
   8  -6  17  118.58   20.16   0
   4  -6  10 1126.32   27.72   0
   6  -8   8  539.60   22.09   0
   7  -5  18  304.63   22.63   0
   6  -7  13  398.88   23.95   0
   1  -3   4 7248.50   62.84   0
   4  -7   5  670.08   24.17   0
   5  -5  16  775.12   23.86   0
   8  -8  13  127.32   22.03   0
   5  -8   4  720.74   25.27   0
   5  -6  14  630.94   25.32   0
   7  -8  12  334.17   23.34   0
   3  -4  13 1236.63   27.87   0
   6  -4  19  137.94   19.34   0
   7  -9   7  156.45   20.90   0
   8  -5  19   72.87   19.62   0
   2  -3  11  955.73   23.42   0
   5  -4  18  502.88   22.96   0
   2  -5   4 4685.93   48.39   0
   3  -6   6 1404.21   29.22   0
   3  -3  15  604.80   22.37   0
   2  -4   9 2174.79   32.50   0
   3  -5  11  547.12   22.10   0
   6  -9   3  243.91   21.11   0
   7  -4  20  167.97   22.36   0
   4  -5  15  476.99   22.05   0
   5  -7  12  523.73   24.32   0
   5  -2  19  127.85   17.23   0
   3  -1  16 2090.38   36.05   0
   4  -4  17  379.54   21.47   0
   4  -2  18  610.17   22.99   0
   4  -7   8  702.30   24.05   0
   5  -8   7  219.55   21.04   0
   6  -6  18  250.07   23.11   0
   7  -7  17  178.35   20.31   0
   4  -6  13  685.04   22.75   0
   7  -9  10  143.04   21.66   0
   6  -9   6  190.64   20.37   0
   6  -7  16  322.36   23.48   0
   1  -2   9 2621.78   37.00   0
   6  -5  20  269.47   21.71   0
   7  -8  15   82.53   20.46   0
   1  -3   7 3619.16   42.25   0
   5  -6  17  290.22   22.72   0
   6  -3  21  199.64   19.70   0
   1  -4   2 2805.92   40.40   0
   4  -3  19  251.52   19.77   0
   5  -5  19  264.46   22.12   0
   7  -5  21  118.97   20.84   0
   3  -7   1  383.32   20.04   0
   3  -4  16 1543.77   30.08   0
   5  -8  10  323.46   20.18   0
   6  -8  14  224.59   22.24   0
   2  -4  12 3662.48   41.65   0
   2  -3  14 2651.63   36.79   0
   3  -5  14  680.54   22.24   0
   5  -7  15  119.70   21.42   0
   4  -8   3  299.36   20.82   0
   6  -9   9   93.16   19.78   0
   2  -1  15 1073.18   25.26   0
   5  -4  21  202.80   20.86   0
   6  -4  22  240.18   21.29   0
   3  -7   4  940.57   26.18   0
   4  -5  18  490.66   21.46   0
   1  -4   5 2267.97   35.12   0
   4  -6  16  541.17   22.19   0
   7  -7  20  200.48   20.87   0
   2  -5  10 1157.73   27.09   0
   3  -6  12 1072.70   27.22   0
   2  -6   2 1695.40   32.35   0
   4  -8   6  407.25   22.16   0
   6  -7  19   72.25   20.07   0
   7  -6  22  107.88   20.83   0
   1  -3  10 3086.10   39.21   0
   3  -7   7  606.40   23.39   0
   1  -2  12 4071.54   44.54   0
   4  -7  14  532.62   24.87   0
   5  -6  20  275.12   22.38   0
   6  -9  12  281.38   22.07   0
   2  -6   5  635.85   22.60   0
   6  -8  17  144.13   21.94   0
   6  -5  23   79.73   20.17   0
   5  -7  18  335.65   24.12   0
   5  -5  22  206.48   22.31   0
   1  -4   8 4216.66   45.24   0
   2  -4  15  380.12   20.59   0
   3  -5  17  715.49   23.62   0
   3  -1  19  479.75   20.89   0
   4  -8   9  296.75   21.87   0
   5  -9   8  425.35   23.62   0
   5  -3  23   57.29   18.19   0
   3  -2  20  740.90   24.40   0
   4  -3  22  386.07   22.53   0
   2  -5  13 1096.45   25.71   0
   3  -7  10  726.94   25.18   0
   3  -6  15  311.53   21.64   0
   4  -6  19  121.55   21.95   0
   2  -6   8 1381.77   27.79   0
   4  -5  21  245.70   22.50   0
   5  -8  16  299.98   23.36   0
   5  -4  24  232.60   21.48   0
   6  -7  22  128.10   21.58   0
   1  -5   0 2719.45   42.54   0
   1  -3  13 1045.91   24.34   0
   1  -1  14 2676.47   37.95   0
   4  -8  12  484.93   24.58   0
   4  -7  17  247.47   22.23   0
   5  -9  11  109.41   19.31   0
   1  -4  11  699.81   22.83   0
   6  -6  24  144.71   19.80   0
   6  -4  25  119.01   18.19   0
   4  -4  23  175.12   17.80   0
   1   0  13 2327.72   38.72   0
   2  -6  11  606.14   23.79   0
   3  -7  13  245.66   21.66   0
   5  -7  21  151.81   22.11   0
   5  -6  23   41.64   19.59   0
   1  -5   6 2274.52   35.40   0
   1  -2  15 1141.69   25.36   0
   2  -2  19  406.08   18.70   0
   2  -4  18  640.70   21.89   0
   3  -5  20  658.71   23.52   0
   2  -5  16 1209.35   27.18   0
   2   0  17  510.17   21.41   0
   3  -6  18  459.03   23.91   0
   5  -8  19   44.37   20.06   0
   5  -5  25  102.90   19.77   0
   0  -2   8 6439.27   56.55   0
   4  -8  15  107.93   19.05   0
   4  -6  22  303.64   23.80   0
   0  -3   3 4181.44   49.11   0
   1  -5   9 1411.13   27.76   0
   1  -4  14 1343.50   28.21   0
   1  -3  16 2303.07   34.70   0
   4  -7  20  210.66   22.01   0
   3  -8   8  636.63   24.91   0
   2  -7   6  700.75   24.05   0
   3  -2  23  172.74   18.47   0
   4  -3  25  196.75   20.32   0
   0  -1  10 3353.11   42.44   0
   4  -9  10  135.72   18.61   0
   0  -2  11 4112.18   44.94   0
   1  -1  17 1789.40   31.81   0
   2  -7   9  230.30   20.06   0
   3  -8  11  185.23   20.81   0
   3  -3  24  322.14   22.15   0
   0  -3   9 1075.94   24.74   0
   5  -4  27   44.90   19.25   0
   2  -4  21  606.13   22.81   0
   3  -6  21  241.94   19.67   0
   3  -5  23   65.55   17.76   0
   4  -4  26  162.38   20.09   0
   1  -4  17  875.58   25.59   0
   2  -6  17  263.14   22.60   0
   2  -2  22  994.04   25.53   0
   2  -1  21  524.11   21.75   0
   1   0  16 3212.24   44.16   0
   2  -7  12  702.20   25.61   0
   3  -7  19  135.06   21.18   0
   4  -9  13  161.72   20.77   0
   1  -6   4 1484.55   30.87   0
   1  -6   7  733.44   24.54   0
   1  -3  19  538.31   22.81   0
   3  -8  14  227.18   20.76   0
   3  -4  25  210.56   21.22   0
   4  -7  23   41.82   20.71   0
   4  -6  25  145.31   21.71   0
   0  -4   4 3194.96   42.03   0
   0  -4   7  630.43   21.76   0
   0  -3  12 3200.09   38.48   0
   0  -1  13 2495.16   36.56   0
   1  -5  15  295.00   18.74   0
   2  -3  23  214.40   20.50   0
   0  -2  14 2201.69   32.90   0
   2  -8   1  310.51   22.31   0
   5 -10   3   86.25   21.10   0
   8  -8  10  168.68   20.37   0
   4  -5  12 1530.09   30.34   0
   5  -4  12 1574.00   31.65   0
   1  -6   4 1494.22   31.04   0
   3  -5  11  500.20   20.38   0
   5  -8  10  317.02   24.97   0
   5  -3  11  481.88   21.28   0
   2  -6   8 1336.71   29.82   0
   6  -9   9  103.06   20.07   0
   6  -8  11  111.99   20.90   0
   5  -9   8  486.43   24.12   0
   5  -7  12  480.36   23.74   0
   0  -5   2 2277.98   36.84   0
   2  -7   6  709.81   23.22   0
   4  -8   9  325.00   20.73   0
   4  -7  11  246.71   19.74   0
   7  -9  10  132.06   19.92   0
   0  -4   4 3251.82   41.27   0
   1  -4   8 4265.17   44.74   0
   2  -5  10 1129.87   27.47   0
   3  -9   3  109.56   20.17   0
   6  -7  13  403.18   23.38   0
   7  -8  12  319.69   23.56   0
   1  -7   2  435.62   21.89   0
   7  -6  13  322.62   21.45   0
   8  -7  12  301.68   22.13   0
   3  -7  10  659.44   25.37   0
   4  -6  13  576.47   25.02   0
   2  -8   4  680.97   26.45   0
   3  -6  12 1059.43   26.49   0
   2  -3  11  930.43   24.02   0
   6  -5  14  561.23   23.83   0
   6  -4  13  552.62   22.88   0
   0  -3   6 4397.03   48.28   0
   3  -4  13 1164.33   26.31   0
   7  -7  14  165.20   21.38   0
   1  -6   7  754.75   24.52   0
   5  -8  13  219.04   24.22   0
   6  -9  12  289.04   23.00   0
   8  -8  13  102.02   19.04   0
   3  -2  11  938.53   26.12   0
   4  -4  14 1026.94   25.48   0
   4  -3  13 1172.98   28.29   0
   5  -9  11   82.78   20.08   0
   6  -6  15  145.77   20.24   0
   1  -5   9 1365.11   27.75   0
   2  -4  12 3654.84   41.48   0
   3  -9   6  215.98   22.97   0
   4  -8  12  472.75   25.97   0
   0  -5   5 1384.53   29.61   0
   2  -6  11  564.75   22.15   0
  -1  -4   0 2622.32   43.15   0
   1  -7   5  349.33   21.86   0
   3  -5  14  688.32   24.23   0
   4  -7  14  549.66   25.95   0
   5  -7  15  115.07   20.91   0
   1  -3  10 3094.69   39.32   0
   1  -2   9 2715.28   39.30   0
   0  -6   3  683.46   25.34   0
   2  -8   7  158.19   20.63   0
   5  -4  15  466.30   22.52   0
   7  -8  15   60.47   20.41   0
  -1  -3   2 2771.10   42.93   0
   2  -5  13 1070.26   27.54   0
   3  -7  13  229.36   19.78   0
   5  -5  16  719.71   26.00   0
   6  -7  16  324.95   23.82   0
   1  -4  11  651.79   21.52   0
   4  -6  16  488.71   24.78   0
   7  -6  16  324.64   22.61   0
   3  -9   9  231.26   22.03   0
   3  -6  15  306.81   19.81   0
   5  -3  14  668.75   25.06   0
   1  -6  10  846.43   26.69   0
   5  -9  14   80.93   21.21   0
   5  -6  17  266.08   19.54   0
   5  -8  16  274.23   22.89   0
   1  -7   8  962.96   26.63   0
   2  -9   5  227.26   21.41   0
   4  -8  15  138.86   22.69   0
   7  -7  17  166.19   21.19   0
   0  -5   8 1313.01   29.32   0
   1  -5  12 1198.71   28.56   0
  -1  -4   3  696.18   23.62   0
   0  -6   6  590.10   23.43   0
   0  -3   9 1085.54   25.47   0
   2  -8  10  288.32   22.05   0
   2  -6  14  710.93   24.09   0
   0  -2   8 6696.07   58.96   0
   2  -3  14 2573.10   35.91   0
   3  -3  15  562.61   21.86   0
   2  -4  15  366.92   19.22   0
   4  -7  17  249.73   20.18   0
   6  -6  18  217.09   21.53   0
   3  -8  14  213.55   22.62   0
   1  -8   6  262.20   21.53   0
   3  -7  16  408.51   24.63   0
   3  -5  17  655.03   23.37   0
  -1  -3   5 2351.97   37.58   0
   1  -3  13 1075.53   25.14   0
   2  -5  16 1183.76   29.30   0
   3  -9  12  224.25   21.29   0
   4  -3  16 1473.53   31.20   0
   2  -9   8  191.65   21.45   0
   6  -7  19   66.03   19.86   0
   1  -4  14 1210.65   26.80   0
   3  -2  14 2573.32   39.15   0
   1  -7  11  215.97   19.11   0
   1  -2  12 3999.10   44.39   0
   3  -6  18  474.48   25.52   0
   5  -5  19  241.20   20.73   0
   2  -7  15  219.70   22.58   0
  -1  -5   4 1458.98   31.60   0
  -1  -4   6 2264.33   36.94   0
   0  -6   9  434.69   22.40   0
   2  -8  13  237.71   22.36   0
   5  -8  19   54.92   20.31   0
   5  -4  18  462.67   22.71   0
   0  -5  11  394.41   19.54   0
   4  -8  18  136.96   20.52   0
   5  -6  20  266.50   22.08   0
   1  -8   9  291.05   23.82   0
   1  -5  15  310.79   21.65   0
   2  -6  17  275.54   23.62   0
   0  -7   7  170.92   21.50   0
   0  -3  12 3323.94   40.83   0
   3  -8  17  148.61   21.45   0
   2  -9  11   49.98   19.56   0
   4  -7  20  159.09   22.09   0
  -1  -3   8 4223.64   46.93   0
   0  -4  13 1352.48   27.79   0
   0  -2  11 4002.28   44.25   0
   2  -4  18  618.79   22.43   0
   3  -7  19  193.64   21.26   0
   4  -2  15  354.79   20.15   0
   5  -7  21  140.46   19.97   0
   3  -5  20  611.07   24.84   0
   6  -6  21  115.78   21.15   0
  -1  -5   7  683.03   24.14   0
   1  -7  14  234.53   22.18   0
   0  -6  12  942.30   27.81   0
   1  -6  16  608.74   25.86   0
   1  -3  16 2234.71   35.11   0
   2  -5  19  138.10   18.50   0
   4  -5  21  241.54   21.64   0
   4  -4  20  598.00   23.77   0
  -1  -4   9 1365.59   29.75   0
   1  -4  17  906.84   27.00   0
   2  -8  16  236.38   22.01   0
   1  -8  12  300.99   21.81   0
   2  -7  18  209.56   21.66   0
   6  -7  22  108.91   19.11   0
   0  -7  10  201.29   20.49   0
   2  -2  16 1225.53   27.65   0
   3  -6  21  251.74   23.10   0
   1  -5  18  740.92   25.71   0
   1  -2  15 1183.56   26.30   0
   4  -3  19  269.95   19.47   0
   2  -6  20  322.98   21.81   0
   5  -5  22  198.38   20.10   0
   3  -8  20  192.72   21.26   0
   3  -1  13 1017.02   28.84   0
  -1  -5  10  848.14   25.74   0
   0  -3  15 1035.24   24.93   0
   0  -1  10 3472.69   43.47   0
   0  -4  16  810.93   25.17   0
   4  -7  23   50.54   20.63   0
   5  -4  21  221.53   20.33   0
   1  -7  17  237.22   21.80   0
   3  -7  22  191.52   22.09   0
  -1  -4  12 1186.30   28.39   0
  -1  -2  10 3060.00   40.01   0
   0  -6  15  196.22   21.13   0
   0  -2  14 2243.50   33.56   0
   0  -7  13  286.46   24.35   0
   1  -8  15   44.90   18.88   0
   1  -6  19  179.91   22.04   0
   2  -4  21  557.88   22.59   0
   3  -4  22  395.87   22.60   0
   0  -5  17  408.86   23.53   0
   2  -5  22  324.20   23.74   0
   1  -4  20  699.25   23.73   0
   1  -3  19  542.70   21.09   0
  -2  -3   4 4252.32   52.33   0
   4  -5  24  230.57   21.17   0
  -1  -5  13  387.81   21.79   0
   3  -6  24  149.21   21.33   0
   4  -4  23  164.38   20.14   0
  -1  -6  11  209.02   20.24   0
   1  -5  21  271.75   22.87   0
   2  -1  15 1202.15   28.16   0
  -1  -3  14 1245.82   27.88   0
   2  -6  23   89.15   21.47   0
   4  -6  25   99.57   21.53   0
   0  -3  18  950.04   26.67   0
   1  -2  18 1644.77   29.92   0
   2  -2  19  433.76   20.73   0
   0  -4  19  198.02   20.38   0
   0  -1  13 2601.71   37.23   0
  -2  -3   7  725.42   23.60   0
  -1  -2  13 1042.82   24.66   0
  -1  -1   9 2716.59   38.26   0
   0  -7  16  333.71   22.01   0
   0  -6  18  219.22   20.38   0
   4  -3  22  391.49   22.96   0
   5  -5  25   72.33   19.40   0
  -2  -4   8 1321.99   29.64   0
   0  -2  17  544.64   20.96   0
   1  -6  22  209.27   22.11   0
   0  -5  20  286.83   23.73   0
   3  -2  20  768.82   24.81   0
  -2  -2   6 1614.65   32.03   0
  -1  -6  14  215.33   20.97   0
  -1  -5  16  580.84   22.69   0
   3  -1  16 2083.00   38.04   0
  -2  -3  10 1145.17   27.70   0
   1  -4  23  105.61   18.13   0
   1  -3  22  509.62   23.76   0
   2  -3  23  151.64   19.45   0
   3  -5  26  174.59   20.95   0
   3  -4  25  227.73   21.37   0
  -2  -4  11  566.37   23.06   0
  -1  -3  17  872.88   24.47   0
  -2  -2   9 2195.76   35.10   0
  -1  -1  12 3955.21   44.51   0
   1  -5  24  183.60   21.13   0
   1  -1  17 1727.52   31.80   0
  -1  -2  16 2223.83   34.78   0
   0  -7  19   29.95   18.58   0
   0  -3  21  421.91   22.87   0
   2  -6  26  154.87   22.19   0
   3  -3  24  272.15   21.23   0
   4  -5  27   37.71   18.58   0
   0  -4  22  552.64   26.28   0
   0  -1  16 3506.43   41.88   0
   2  -1  18 1592.80   31.62   0
   4  -4  26  189.88   19.90   0
  -2  -3  13 1094.12   27.46   0
   2  -2  22 1049.79   27.94   0
  -1  -5  19  157.02   21.11   0
   0  -2  20 1353.27   28.15   0
   1  -6  25   47.41   21.67   0
   0  -5  23   92.61   19.35   0
  -1  -3  20  705.55   23.46   0
  -1  -1  15 1215.48   27.44   0
   2  -4  27   65.15   19.73   0
  -1  -4  21  291.68   21.68   0
   1  -4  26  241.09   20.57   0
   1  -3  25  220.68   22.50   0
   3  -2  23  193.35   20.33   0
  -1  -2  19  479.67   23.20   0
   1   0  13 2246.15   36.46   0
   2  -3  26  354.92   23.24   0
  -2  -3  16 1132.38   26.86   0
   0   0  12 9487.16   69.85   0
   1  -5  27   32.09   21.12   0
   3  -5  29   61.31   19.43   0
   3  -4  28  149.10   20.58   0
  -2  -5  15  251.14   20.90   0
  -2  -2  15  343.32   20.43   0
  -1  -6  20  240.45   22.16   0
   0  -3  24  460.94   24.42   0
   0  -1  19  445.30   20.96   0
   1  -1  20 1328.72   27.79   0
  -2  -4  17  234.87   21.76   0
   0  -4  25  236.31   19.79   0
  -2  -1  11  960.21   23.99   0
  -1  -5  22  186.18   21.66   0
   1  -2  24  443.74   22.58   0
   0  -2  23  368.88   21.92   0
   3  -3  27   85.29   19.40   0
   0  -5  26  162.27   22.46   0
   2  -1  21  545.67   22.29   0
  -1  -1  18 1659.29   29.83   0
   2  -2  25  272.80   21.04   0
   2   0  14 2156.23   39.26   0
  -1  -3  23   91.90   20.96   0
  -1   0  11 1082.25   25.64   0
  -2  -5  18  224.00   21.01   0
  -2  -1  14 2590.62   36.80   0
  -2  -2  18  649.36   24.04   0
  -1  -4  24  153.82   20.30   0
  -1  -2  22  545.91   24.58   0
   1   0  16 3387.77   43.39   0
  -3  -3   9  746.40   24.98   0
  -2  -4  20  326.11   22.51   0
   1  -4  29  131.15   21.02   0
   2  -4  30   86.97   21.06   0
  -3  -3  12 1020.64   27.53   0
  -1   0  14 2885.64   38.82   0
  -3  -2   8 3498.57   44.82   0
   0  -4  28  119.68   21.59   0
   0  -3  27   94.43   21.85   0
   1  -1  23  160.34   18.90   0
  -3  -2  11  523.37   21.93   0
   2  -3  29  123.90   21.72   0
  -3  -4  13  196.89   20.77   0
  -2  -1  17 1057.09   25.60   0
  -1  -1  21  567.91   23.92   0
  -2  -5  21   95.06   19.72   0
  -2  -3  22  303.04   21.78   0
   0  -2  26  282.85   20.26   0
   1  -2  27  136.41   21.13   0
  -3  -3  15  295.80   20.76   0
  -2  -2  21  584.74   25.10   0
  -1  -3  26  243.98   24.10   0
   2   0  17  526.05   22.43   0
  -3  -2  14  694.12   22.40   0
  -2  -4  23  130.23   21.56   0
  -1  -4  27   71.64   19.97   0
  -1  -2  25  237.96   22.62   0
   1   0  19  446.65   20.65   0
  -3  -4  16  364.60   21.83   0
  -2   0  10 7530.46   60.70   0
   2  -2  28  146.58   19.43   0
  -2   0   7  738.33   23.87   0
  -3  -3  18  439.34   23.63   0
  -3  -2  17  686.96   25.40   0
  -3  -1  10 1867.85   33.29   0
  -2  -1  20  747.02   23.66   0
  -2   0  13 2635.20   36.15   0
  -1  -1  24  502.45   24.38   0
  -2  -3  25  185.10   22.07   0
   0  -3  30  105.38   20.70   0
   0   0  21 1231.58   28.68   0
   1  -3  31   10.94   21.03   0
   1  -1  26  390.49   23.32   0
  -3  -4  19  167.09   21.51   0
  -2  -2  24  400.68   22.06   0
  -2   0  16 1317.69   27.49   0
  -1   0  20 1306.06   29.29   0
  -1  -3  29   98.71   21.18   0
   2  -3  32   77.49   18.41   0
   2   0  20 1296.59   31.47   0
  -3  -3  21  221.00   20.74   0
  -1  -2  28  234.89   23.50   0
   1  -2  30  175.61   21.56   0
   1   0  22  736.31   24.84   0
  -2  -1  23  201.12   19.26   0
  -2   0  19  454.62   22.39   0
  -3  -1  19  267.31   19.18   0
   2  -1  27  120.76   19.77   0
  -3  -4  22  144.07   21.59   0
  -1  -1  27  127.19   21.69   0
  -1   0  23  185.90   19.51   0
   0  -1  28  236.70   19.81   0
   0   0  24  680.03   25.64   0
   2  -2  31   38.20   20.07   0
  -3   0  12 2166.86   34.55   0
  -2  -3  28  130.48   20.22   0
  -2  -2  27   49.68   19.28   0
  -3  -3  24  133.74   21.55   0
  -3   0  15  610.30   23.31   0
   0   1  11  996.18   27.31   0
  -1   1  13 2453.01   36.36   0
   1  -1  29  187.77   20.70   0
  -4  -2  13  612.02   23.74   0
  -3  -1  22  438.91   22.07   0
  -2  -1  26  357.15   25.49   0
  -1   1  10 3418.62   44.14   0
  -4  -2  10 1064.45   28.50   0
  -1   1  16 3370.31   41.31   0
   0  -2  32  104.45   21.95   0
   1   0  25  395.41   22.58   0
  -3   0  18 1414.48   29.21   0
  -2  -5   9  264.37   21.14   0
   0  -8  11   82.65   21.83   0
   0  -3  12 3332.36   40.62   0
   1  -4  14 1223.45   27.65   0
  -1  -4  12 1213.00   28.79   0
  -1  -3  11  662.96   23.80   0
   0  -7  13  260.23   24.81   0
   0  -5  14 1081.06   29.39   0
   1  -5  15  267.74   19.30   0
  -3  -5   5  341.41   22.25   0
   1  -3  13 1042.62   27.08   0
  -1  -5  13  323.87   23.46   0
   1  -6  16  550.24   26.19   0
   4  -6  16  544.95   23.78   0
   2  -8  16  232.15   23.20   0
   2  -4  15  356.78   18.95   0
  -3  -4   7  604.84   24.07   0
  -1  -2  10 3067.05   39.71   0
   0  -6  15  196.61   20.35   0
   2  -2  10 7202.71   68.10   0
   3  -3  12 2160.01   39.13   0
  -3  -2   5 1438.50   29.84   0
  -2  -7   8  192.97   22.16   0
  -2  -6  10  290.56   22.95   0
   0  -2  11 4117.91   45.87   0
   1  -8  15   20.35   19.89   0
   3  -8  17  146.95   21.97   0
   4  -7  17  251.37   21.93   0
  -1  -6  14  188.40   23.74   0
  -2  -5  12  725.46   27.55   0
   1  -7  17  222.69   23.90   0
  -3  -5   8  629.14   25.51   0
   2  -3  14 2556.85   38.60   0
   3  -6  18  403.89   23.62   0
   3  -5  17  657.35   25.06   0
   0  -7  16  367.49   25.28   0
   0  -4  16  825.43   26.94   0
   4  -8  18  142.63   20.34   0
   4  -4  14 1127.25   30.14   0
  -1  -4  15  274.22   19.66   0
   0  -5  17  418.10   25.11   0
  -3  -3   9  744.78   25.80   0
  -1  -3  14 1216.13   27.56   0
   0  -3  15  972.73   27.04   0
   1  -5  18  676.98   24.56   0
   1  -4  17  898.93   27.17   0
   3  -7  19  119.96   22.38   0
  -3  -4  10  673.29   26.15   0
   3  -4  16 1507.81   32.05   0
  -1  -5  16  542.36   23.93   0
  -3  -2   8 3629.72   45.22   0
  -3  -1   4 5824.58   60.74   0
  -2  -6  13  276.55   22.62   0
   0  -6  18  185.07   24.21   0
   1  -6  19  148.67   22.42   0
  -2  -3  13 1081.90   26.68   0
  -3  -6   9  230.13   22.31   0
  -1  -1   9 2642.23   38.64   0
   2  -5  19  118.90   17.62   0
  -3  -5  11  184.23   22.47   0
  -2  -1   8 4631.82   50.49   0
  -1  -2  13 1058.76   25.76   0
   2  -6  20  311.17   23.55   0
   3  -8  20  157.13   22.46   0
  -1  -6  17  202.37   23.21   0
   2  -4  18  641.54   24.10   0
   4  -6  19   99.56   19.37   0
  -2  -2  12 3607.36   43.53   0
   1  -7  20  220.49   23.34   0
   4  -7  20  180.63   21.43   0
   0  -1  10 3536.50   44.89   0
   4  -5  18  465.06   23.98   0
   0  -7  19   42.08   19.24   0
  -3  -3  12 1021.48   26.68   0
  -3  -4  13  235.28   21.98   0
  -1  -4  18  691.68   24.59   0
   0  -5  20  294.91   24.93   0
   0  -4  19  206.28   19.02   0
   3  -6  21  194.45   21.91   0
  -4  -3   8  701.78   26.82   0
  -2  -6  16  251.51   21.98   0
  -1  -3  17  834.61   26.92   0
   2  -2  13 2509.73   39.88   0
   3  -5  20  597.23   25.17   0
   3  -3  15  569.43   22.97   0
  -3  -6  12  181.17   21.23   0
  -3  -2  11  526.98   22.78   0
  -3  -1   7 1458.21   29.61   0
  -1  -5  19  167.74   23.43   0
  -4  -4   9  269.97   23.15   0
   0  -3  18  922.59   25.25   0
   2  -3  17 1048.64   26.22   0
   3  -7  22  118.90   21.07   0
  -3  -5  14  190.92   21.58   0
  -2  -4  17  244.30   19.77   0
  -2  -3  16 1096.90   27.57   0
   0  -6  21  158.97   22.39   0
  -4  -2   7  479.56   21.88   0
   1  -6  22  175.04   23.32   0
  -2  -5  18  211.68   23.46   0
  -2  -1  11  939.09   24.40   0
  -1  -6  20  262.92   22.75   0
   3  -4  19  214.88   19.40   0
  -1  -2  16 2329.47   34.94   0
   2  -5  22  329.11   22.85   0
  -2  -2  15  351.89   19.35   0
   2  -6  23  105.06   20.79   0
  -3  -3  15  275.77   21.00   0
  -4  -3  11  273.30   21.01   0
  -3  -4  16  431.71   24.96   0
   0  -2  17  570.07   22.78   0
   2  -4  21  582.74   24.62   0
  -4  -4  12  469.31   26.05   0
  -3  -1  10 1817.80   32.83   0
  -1  -4  21  304.93   24.56   0
   0  -1  13 2563.05   37.82   0
  -4  -2  10 1105.86   28.52   0
   0  -4  22  516.52   25.74   0
  -3  -5  17  164.60   21.39   0
  -1  -5  22  203.43   22.95   0
  -1  -3  20  779.54   26.33   0
   0  -5  23   63.90   20.63   0
  -2  -4  20  312.93   23.85   0
  -2  -3  19  130.83   21.01   0
   3  -6  24  133.94   21.64   0
   0  -6  24  186.45   21.29   0
   0  -3  21  417.99   20.90   0
  -2  -5  21  132.35   20.99   0
  -2  -1  14 2546.12   35.75   0
   1  -4  23  124.72   17.62   0
   3  -5  23   66.20   19.05   0
  -4  -3  14  544.86   24.88   0
  -2   0   7  742.07   23.00   0
  -1  -1  15 1158.19   27.04   0
   1  -2  18 1643.18   31.81   0
   2  -3  20  770.85   25.44   0
   2  -2  16 1258.06   28.92   0
   3  -3  18 1374.55   31.95   0
  -2  -2  18  616.68   22.97   0
  -1  -2  19  512.01   23.58   0
  -4  -4  15  129.73   20.15   0
  -3  -4  19  162.33   21.47   0
  -4  -2  13  628.74   22.30   0
   1  -3  22  534.64   23.12   0
   2  -5  25  193.45   20.89   0
   2  -6  26  134.83   21.42   0
   3  -4  22  405.14   21.90   0
  -3  -5  20  127.55   20.22   0
   0  -2  20 1307.12   28.08   0
  -1  -4  24  183.41   21.72   0
   0  -1  16 3626.10   42.91   0
  -2  -4  23  129.55   22.22   0
  -2   0  10 7621.94   61.86   0
  -1  -5  25   62.82   21.91   0
  -1  -3  23   98.50   20.84   0
   0  -4  25  181.05   23.10   0
   2  -4  24  400.52   20.91   0
  -2  -3  22  339.16   20.76   0
   0  -5  26  147.77   22.57   0
  -4  -3  17  238.20   22.02   0
  -4  -1  12 1593.22   31.64   0
  -2  -1  17 1079.32   27.28   0
  -4  -4  18  130.52   21.70   0
  -4  -2  16  493.15   22.34   0
  -3  -3  21  184.57   22.77   0
  -3  -1  16 1564.16   31.47   0
  -1   0  11 1060.01   25.41   0
   0  -3  24  428.20   21.77   0
   1  -5  27   33.17   20.67   0
  -2  -2  21  608.90   23.37   0
  -1  -2  22  519.22   21.58   0
   1  -4  26  278.00   22.47   0
  -3  -2  20  626.32   25.94   0
   1  -2  21  543.44   22.85   0
   2  -2  19  409.09   20.55   0
  -5  -2  12  449.98   23.94   0
   2  -3  23  176.14   19.14   0
  -2   0  13 2510.93   35.39   0
  -4  -1  15  455.41   22.36   0
   3  -3  21  463.83   21.63   0
   1  -3  25  236.58   21.98   0
  -4  -3  20  190.82   22.22   0
  -4   0   8 2923.03   41.18   0
  -1  -4  27   38.26   19.89   0
   1  -1  17 1767.46   32.07   0
   2  -5  28  113.92   18.77   0
  -4  -2  19  116.31   20.10   0
  -2  -4  26  111.23   22.16   0
  -2  -3  25  198.27   23.70   0
  -2  -1  20  727.31   23.13   0
  -1  -3  26  240.98   22.60   0
  -1   0  14 2872.09   37.50   0
  -3  -1  19  236.60   18.49   0
  -5  -2  15   78.81   18.93   0
  -5  -1  11  346.37   20.18   0
   0   0  12 9999.99   71.82   0
   2  -4  27   31.73   19.65   0
  -4   0  11 1312.30   28.90   0
  -3  -3  24  153.15   20.15   0
  -2  -2  24  433.07   23.73   0
  -1  -1  21  574.79   21.51   0
  -3   0  15  553.85   22.14   0
  -2   0  16 1350.34   28.54   0
  -4  -1  18  467.20   23.82   0
  -3  -2  23   87.92   17.57   0
  -1  -2  25  226.12   21.25   0
   1  -2  24  478.21   23.22   0
   1  -4  29   92.01   20.89   0
   2  -1  15 1139.74   29.03   0
  -4  -3  23   38.07   20.66   0
  -4   0  14 1167.89   26.30   0
  -1   0  17 1831.32   30.62   0
   2  -2  22 1037.48   27.51   0
  -5  -3  19   59.63   17.62   0
  -5  -2  18  305.80   21.35   0
  -4  -2  22  275.79   21.16   0
  -3  -1  22  416.79   22.70   0
  -2  -1  23  176.88   20.38   0
   2  -3  26  348.43   22.17   0
   0  -2  26  274.90   22.25   0
   1  -1  20 1298.37   28.86   0
  -3   0  18 1434.22   28.56   0
  -2  -3  28  121.40   20.95   0
   1  -3  28  193.43   20.76   0
  -2   0  19  425.73   19.81   0
  -1  -3  29   85.54   20.61   0
  -5  -1  17  323.13   21.46   0
  -3  -3  27   38.59   19.53   0
  -1  -1  24  506.54   23.77   0
  -3  -2  26  149.75   22.66   0
  -2  -2  27   58.75   21.30   0
  -1  -2  28  227.03   22.95   0
  -5  -2  21  169.32   21.42   0
  -5   0  13  371.39   20.55   0
  -1   0  20 1319.35   27.33   0
   0  -3  30  109.72   19.83   0
   2  -4  30   95.85   19.29   0
   2  -1  18 1553.26   31.57   0
  -3  -1  25  203.79   22.50   0
  -3   0  21  488.97   21.33   0
  -3   1  11  948.72   25.15   0
  -2   1   9 2725.21   38.96   0
  -5  -1  20  289.86   22.10   0
  -2  -1  26  362.74   24.32   0
   1  -2  27  107.39   19.92   0
  -5   0  16  735.61   25.49   0
  -2   0  22 1045.56   26.12   0
  -2   1  12 3891.85   43.20   0
   0  -1  25  380.33   20.26   0
   1  -1  23  198.74   18.88   0
   1   0  13 2306.39   37.16   0
   2  -2  25  278.59   22.05   0
  -3   1  14 2535.02   36.28   0
  -4   1  10 1844.85   32.57   0
   0  -2  29   91.37   20.60   0
  -2   1  15 1195.49   27.66   0
  -1  -1  27  109.44   19.83   0
   2  -3  29  116.65   18.46   0
  -4   1   7 1385.51   29.84   0
  -4   1  13 1201.32   26.34   0
  -3  -2  29   79.37   22.27   0
  -2  -2  30  114.89   19.60   0
  -1   0  23  185.17   19.76   0
   1  -3  31   13.68   19.74   0
  -3   1  17 1048.52   25.02   0
  -1   1  10 3522.55   44.24   0
   0   0  21 1186.70   26.54   0
   1   0  16 3313.18   42.65   0
  -5  -1  23   75.76   19.93   0
  -3   0  24  319.49   20.24   0
  -1   1  13 2571.47   36.99   0
  -4   0  23  174.50   22.28   0
   2  -1  21  567.55   22.48   0
  -3  -1  28  142.12   20.70   0
  -2   0  25  287.55   20.20   0
  -2   1  18 1657.69   29.87   0
  -4  -1  27   58.50   21.58   0
  -2  -1  29  141.19   21.96   0
  -5   1  12 1583.82   31.85   0
  -1   1  16 3513.49   40.86   0
  -4   1  19  247.38   20.27   0
  -3   1  20  751.14   23.88   0
   1  -2  30  159.51   20.52   0
   1  -1  26  431.63   23.12   0
  -6   0  15  129.30   19.03   0
  -5   1   9  733.04   24.05   0
  -5   1  15  495.59   22.50   0
   1   0  19  455.75   21.05   0
  -2   1  21  548.76   21.76   0
   0  -2  32  109.24   19.90   0
   0   0  24  694.83   25.09   0
  -6   0  18  229.84   23.45   0
  -4   0  26  160.15   21.96   0
  -3   0  27   89.85   18.33   0
  -1   1  19  488.20   21.96   0
  -5   1  18  519.68   24.09   0
  -6  -1  22  135.03   19.59   0
  -4   1  22  421.01   23.16   0
  -3   1  23  180.08   20.65   0
  -2   0  28  138.73   21.80   0
   2  -1  24  469.85   22.37   0
  -5   0  25   68.31   20.80   0
  -6  -1  19   57.55   21.26   0
  -5  -1  20  267.66   20.98   0
   0  -1  13 2326.52   37.38   0
  -8   1   9  181.38   20.59   0
  -7   2   6  822.20   25.86   0
  -5   2   8 3592.22   43.22   0
  -8   0  13  108.82   20.71   0
  -7   1  13  355.42   23.17   0
  -5   1  15  476.07   23.64   0
  -4  -1  21  246.79   20.81   0
  -4   2   6 1598.89   31.02   0
  -6   0  18  213.91   20.18   0
  -3  -3  24  136.71   20.22   0
  -5   0  19  245.63   20.02   0
  -3  -2  23   69.11   17.35   0
  -3   0  18 1419.45   28.54   0
  -2   0  16 1350.96   28.89   0
  -2   1   9 2733.21   38.29   0
  -6   2  10 1149.57   28.63   0
  -1  -3  23  113.81   18.97   0
   0  -3  21  345.21   20.36   0
  -7   2   9  611.60   24.55   0
  -1  -1  18 1644.99   31.11   0
  -8   1  12  335.35   22.62   0
  -4   0  20  660.11   25.12   0
  -4   1  16 1574.07   29.41   0
  -3   1  14 2620.03   35.51   0
  -6   1  17  338.53   20.40   0
  -2  -3  25  209.64   21.32   0
   1  -2  15 1114.61   28.92   0
  -7   1  16  345.73   24.01   0
  -6  -1  22  146.83   21.05   0
  -5  -1  23   81.92   20.46   0
  -2  -4  26   98.22   21.30   0
  -1  -2  22  486.73   22.59   0
  -1   0  14 2807.85   38.47   0
  -5   1  18  484.60   24.30   0
  -7   2  12  479.36   23.13   0
  -6   2  13  587.05   22.04   0
  -2  -2  24  432.13   23.53   0
  -6   0  21  178.93   21.17   0
  -2   1  12 3933.49   44.13   0
  -8   1  15   69.32   19.95   0
  -7   0  20  165.88   22.58   0
  -5   0  22  240.88   23.20   0
   0  -2  20 1238.91   28.73   0
   0  -1  16 3359.96   42.83   0
  -8   2  11  133.64   20.40   0
  -5   2  14  686.36   22.19   0
  -4   2  12 3611.46   40.77   0
  -3   0  21  497.70   21.18   0
  -2   0  19  424.00   21.14   0
  -3  -3  27   13.97   19.47   0
  -3  -2  26  154.09   22.15   0
  -3   1  17 1074.43   26.87   0
  -4   1  19  251.78   18.77   0
  -3   2   7 3452.90   42.27   0
  -2  -1  23  207.85   20.02   0
  -7   2  15   86.63   20.18   0
  -6   1  20  271.86   23.45   0
  -1  -1  21  565.03   22.67   0
  -3  -1  25  220.25   21.28   0
  -6   3   6 1388.16   29.95   0
  -5   1  21  232.38   22.08   0
  -1  -3  26  201.26   20.43   0
  -8   2  14  210.34   21.26   0
  -5  -1  26  127.08   19.79   0
  -3   2  10 3066.10   38.29   0
  -2   1  15 1206.73   26.78   0
  -7   3   8  734.19   24.45   0
  -6   0  24  163.14   20.38   0
  -5   2  17  688.42   24.05   0
  -4   2  15  394.08   18.60   0
  -6   3   9  783.95   24.20   0
  -2  -3  28   89.49   17.87   0
  -1  -2  25  226.58   19.35   0
  -7   2  18  325.52   22.86   0
  -5   3   4 4451.30   49.74   0
  -2  -2  27   56.60   19.61   0
   1  -2  18 1512.90   32.16   0
  -7   3  11  261.31   20.12   0
  -6   2  19  126.99   21.35   0
  -5   3   7  735.31   21.80   0
  -3   1  20  833.45   24.86   0
  -7   1  22  146.52   20.05   0
  -6   1  23   83.08   19.92   0
  -6   3  12 1064.31   27.25   0
  -4   1  22  420.58   21.31   0
  -3   2  13 1078.54   25.49   0
   0  -1  19  432.13   20.07   0
  -8   2  17  120.25   19.16   0
  -5   3  10 1145.50   26.52   0
   0  -2  23  326.86   19.87   0
  -8   3  10  331.04   21.11   0
  -4   0  26  189.16   21.16   0
  -4   2  18  664.61   23.37   0
  -1   1  10 3419.43   42.19   0
  -7   3  14  544.30   24.12   0
  -5   1  24  274.54   23.34   0
  -5   2  20  677.11   25.32   0
  -3  -2  29   72.60   19.56   0
  -2  -1  26  330.55   19.72   0
  -2   1  18 1661.09   29.17   0
  -1  -1  24  489.54   22.47   0
  -8   3  13  226.12   20.06   0
  -6   3  15  277.30   20.42   0
  -3  -1  28  143.45   19.73   0
  -1   0  20 1305.30   26.85   0
  -3   2  16 2373.62   34.47   0
  -6   2  22  289.42   21.31   0
  -1   1  13 2517.99   35.97   0
  -7   3  17  226.44   21.18   0
  -4   3   8 4121.72   43.93   0
  -3   1  23  199.06   20.08   0
  -8   3  16  231.74   21.03   0
  -6   1  26  110.21   19.58   0
  -4   1  25  212.02   18.71   0
  -4   3   5 2380.87   36.32   0
   0   0  15  359.22   18.08   0
  -5   3  16 1160.76   26.12   0
  -4   2  21  591.80   23.45   0
  -4   3  11  673.52   20.54   0
  -3   0  27  108.73   19.51   0
  -2   0  25  295.21   21.45   0
  -5   2  23   79.42   20.89   0
  -2   2   8 6480.38   56.09   0
  -1  -2  28  218.12   20.31   0
  -2  -2  30   93.64   20.48   0
   0  -1  22  673.14   23.13   0
  -5   1  27   50.55   19.08   0
  -3   2  19  552.13   21.92   0
  -2   2  11 3887.57   42.11   0
  -4   0  29   49.88   19.25   0
  -4   3  14 1326.00   26.66   0
  -1   1  16 3364.38   40.38   0
  -7   3  20  168.50   20.56   0
  -8   3  19   57.44   17.79   0
  -6   2  25  114.84   20.51   0
  -5   3  19  147.72   19.83   0
  -2  -1  29  108.12   18.86   0
  -1   0  23  174.61   16.21   0
  -7   4  10  676.37   23.65   0
  -2   2  14 2232.83   32.44   0
  -6   3  21  215.79   22.03   0
  -1  -1  27  105.18   18.43   0
   0   0  18 1137.38   26.38   0
  -4   2  24  440.42   24.04   0
  -4   3  17  913.11   24.62   0
   1  -1  17 1712.13   33.16   0
  -7   4  13  214.60   17.70   0
  -6   4   8 1323.00   28.45   0
  -6   4  11  617.82   22.56   0
  -4   1  28  167.02   20.15   0
  -5   2  26  171.13   20.88   0
  -3   2  22  510.54   21.03   0
  -7   4  16  407.00   22.67   0
  -6   4   5  595.31   21.67   0
  -6   4  14  680.35   22.21   0
  -3   0  30  163.83   20.36   0
  -2   0  28  141.26   19.09   0
  -2   2  17  535.22   19.54   0
  -8   4  15  105.24   19.32   0
  -5   3  22  294.78   22.82   0
  -3   3   9 1115.58   25.69   0
  -3   3  12 3286.52   38.08   0
   0  -1  25  367.75   21.75   0
  -4   3  20  757.70   23.13   0
  -6   4  17  259.11   21.04   0
  -5   4   9 1404.02   28.49   0
  -5   4  12 1205.63   26.82   0
  -8   4  18  140.94   19.59   0
  -3   3  15 1010.43   23.88   0
  -1   0  26  376.76   21.09   0
   0   0  21 1144.45   26.91   0
  -7   4  19  157.14   19.22   0
  -4   2  27    5.07   20.07   0
  -2   2  20 1343.80   28.43   0
  -5   4   6 2223.33   34.78   0
  -3   1  29  112.90   20.00   0
  -3   2  25  211.20   20.84   0
  -1   1  22  712.55   23.03   0
  -5   2  29   90.14   18.96   0
  -5   3  25  165.85   21.33   0
  -3   3  18  942.83   25.53   0
  -4   3  23   91.07   19.64   0
  -2   1  27  117.53   19.51   0
  -5   4  18  732.09   22.81   0
  -7   4  22  160.53   19.98   0
  -6   3  27   25.50   18.80   0
  -2   0  31   31.40   18.38   0
  -4   4  13 1334.10   27.85   0
  -3   3  21  390.98   20.94   0
  -1   2  12 3978.45   43.01   0
  -6   4  23  119.45   19.04   0
  -5   4   3  664.38   22.63   0
  -5   4  21  320.47   21.62   0
   0   0  24  672.86   23.00   0
  -1   0  29  181.30   19.31   0
  -1   2   9 2707.79   37.51   0
  -1   2  15 1157.46   24.77   0
  -7   5  12  713.68   24.10   0
  -5   3  28  120.12   20.01   0
  -4   3  26  236.53   21.44   0
  -1   1  25  376.30   19.11   0
  -7   5  15  209.35   20.20   0
  -4   4   7  637.05   21.50   0
   0   1  17 1723.12   30.43   0
  -7   5   9  225.69   17.77   0
  -3   1  32   53.48   17.65   0
  -8   5  17  137.47   18.23   0
  -4   4  19  171.27   17.24   0
  -2   3  13 1048.42   23.92   0
  -1   2  18 1611.50   28.39   0
   1   0  13 2333.83   37.02   0
  -7   5  18  229.81   20.80   0
  -6   5  13  338.32   18.52   0
  -5   4  24  175.07   21.73   0
  -3   3  24  435.86   22.30   0
  -2   1  30  177.89   20.64   0
  -2   3  10 3046.21   38.08   0
  -2   3  16 2320.18   33.79   0
  -6   4  26  121.45   20.05   0
  -6   5  10  854.07   24.70   0
  -6   5  16  570.48   23.84   0
  -2   2  26  284.68   18.82   0
   1   0  16 3208.67   41.77   0
   0   1  20 1310.62   27.86   0
  -8   5  20  139.89   18.08   0
  -7   5  21   77.00   18.81   0
  -6   5  19  172.09   19.88   0
  -4   4  22  570.31   21.58   0
  -2   3  19  551.87   20.19   0
  -6   5   7  717.52   23.00   0
  -4   3  29  135.61   19.95   0
   0   0  27   49.45   16.30   0
  -4   4   4 3156.96   41.29   0
  -2   3   7 3479.97   40.79   0
  -1   1  28  254.92   19.76   0
   1   0  19  431.63   19.50   0
  -5   5  14 1083.32   26.68   0
  -3   2  31    9.88   17.21   0
  -3   4  14 1290.34   26.99   0
  -5   4  27   43.85   19.56   0
  -5   5  11  384.61   19.95   0
  -3   3  27  126.16   19.82   0
  -3   4  11  700.51   22.06   0
  -3   4  17  901.31   25.05   0
  -2   3  22  521.70   22.97   0
   0   1  23  191.67   17.69   0
  -4   4  25  205.18   20.99   0
  -2   2  29  116.21   19.72   0
  -5   5  20  318.79   21.87   0
  -1   2  24  482.24   19.70   0
  -5   5   8 1291.92   27.88   0
  -3   4  20  772.35   23.04   0
   1   0  22  728.57   23.27   0
  -6   5  25   52.47   19.65   0
  -5   5  23   97.14   18.09   0
  -3   4  23  130.21   19.71   0
  -4   4  28   76.23   20.48   0
  -4   5  15  302.48   20.30   0
  -1   1  31   42.56   18.01   0
  -7   6  14  184.21   18.54   0
  -7   6  17  254.93   20.85   0
  -4   5  18  804.10   25.40   0
   0   1  26  411.53   21.69   0
  -1   2  27  120.29   19.60   0
  -7   6  11  198.34   18.46   0
  -7   6  20  246.78   21.11   0
  -5   5   5 1349.67   28.69   0
  -4   5  21  289.23   21.24   0
  -2   2  32  100.07   18.23   0
  -1   3  14 2616.34   34.47   0
  -1   3  17 1021.00   24.22   0
  -6   6  15  229.04   19.58   0
  -3   4  26  273.78   21.87   0
   0   2  13 2537.87   34.51   0
  -6   6  18  216.92   20.91   0
  -4   5   9 1428.80   27.18   0
  -3   4   5 2244.18   33.59   0
  -2   3  28  234.87   21.76   0
  -1   3  20  832.79   24.16   0
   0   2  19  377.94   17.99   0
  -6   6  12  946.38   26.49   0
  -2   4  15  372.87   18.26   0
  -2   4  18  670.42   23.55   0
  -1   3  11  950.23   23.10   0
  -6   6  21  152.06   19.88   0
  -4   4   1 2661.01   42.30   0
  -4   5  24  184.58   19.36   0
  -2   4  12 3651.64   39.81   0
   0   2  10 7416.83   58.53   0
   0   2  22 1040.08   24.79   0
   1   1  15 1152.26   26.26   0
  -6   6   9  421.42   20.82   0
  -1   2  30  197.29   18.92   0
   0   1  29  171.63   18.71   0
   1   1  18 1546.38   29.91   0
  -5   6  16  596.91   23.91   0
  -3   4  29  142.33   18.79   0
  -3   5  16 1181.37   27.65   0
  -5   6  13  325.06   18.35   0
  -4   5   6 2287.39   35.03   0
  -4   5  27   58.90   19.21   0
  -3   5  19  141.97   19.99   0
  -2   4   9 2201.83   33.12   0
  -2   4  24  445.13   23.04   0
  -1   3   8 4442.32   45.21   0
   1   1  21  579.11   21.85   0
  -3   5  13 1144.09   25.33   0
  -2   3  31   59.54   20.05   0
   0   2  25  264.30   20.28   0
  -5   6  22  195.98   20.31   0
  -1   3  26  382.56   22.24   0
  -3   5  22  309.25   19.87   0
  -5   6  10  879.48   25.54   0
   7  -9  -8  238.35   22.45   0
   9  -8  -1  135.19   22.21   0
   3  -5   2 1406.74   28.50   0
   3  -3   6 6088.53   55.98   0
   8  -7   3  260.21   23.92   0
   6  -2   8 1244.74   30.22   0
   9  -5   5  188.52   21.69   0
   6  -9  -9  221.81   23.68   0
   7  -4   8  711.93   25.55   0
   8  -8   1  173.08   22.29   0
   7  -9  -5  259.28   23.33   0
   8  -5   7  225.84   21.56   0
   5  -6   5  909.17   27.36   0
   5  -5   7 1292.81   29.06   0
   6  -6   6  735.54   24.45   0
   4  -7  -1  407.52   21.78   0
   6  -3   9  748.04   25.13   0
   3  -6   0 2210.74   35.56   0
   6  -7   4 1118.84   30.02   0
   6  -5   8 1182.57   27.55   0
   7  -6   7  187.99   21.73   0
   4  -5   6 1880.13   31.65   0
   7  -7   5  388.58   21.84   0
   9  -8   2  215.34   21.37   0
   2  -4   3 1755.34   31.34   0
   6  -9  -6  244.72   21.50   0
   2  -3   5 4693.53   49.75   0
   5  -7   3  242.27   20.77   0
   8  -9  -1  161.41   21.47   0
   3  -7  -5  681.47   24.46   0
   4  -6   4 1683.74   30.65   0
   4  -4   8 3075.63   38.69   0
   7  -9  -2  272.66   22.45   0
   8  -7   6  257.54   23.64   0
   1  -4  -1 1950.85   36.29   0
   7  -8   3  248.15   20.59   0
   7  -5   9  637.42   25.28   0
   8  -8   4  384.48   25.50   0
   2  -6  -4 1661.78   33.30   0
   2  -5   1 1721.63   32.08   0
   6  -4  10 1057.49   27.69   0
   8  -6   8  535.33   22.89   0
   8  -4   9  269.40   20.42   0
   3  -5   5 1485.65   28.55   0
   3  -4   7 1454.87   29.36   0
   6  -9  -3   72.67   21.42   0
   9  -5   8  397.70   23.27   0
   4  -7   2 1227.15   27.68   0
   9  -8   5  107.20   21.16   0
   5  -8   1  395.73   23.91   0
   9  -7   7  137.76   19.90   0
   5  -6   8 1134.70   28.69   0
   6  -7   7  214.60   19.19   0
   6  -6   9  546.54   22.88   0
   2  -2   7  733.32   22.61   0
   4  -8  -3  331.77   21.83   0
   8  -5  10  300.86   22.34   0
   5  -5  10 1188.36   28.50   0
   5  -3  11  481.77   21.53   0
   3  -3   9 2820.49   38.60   0
   5  -7   6  865.96   25.35   0
   7  -8   6  232.92   23.59   0
   9  -6   9  124.68   20.63   0
   6  -9   0  447.43   23.29   0
   6  -8   5  281.81   22.96   0
   4  -6   7  503.13   22.64   0
   4  -5   9  711.48   22.51   0
   5  -9  -4  558.09   23.67   0
   8  -8   7  144.32   20.63   0
   2  -6  -1 1169.15   28.60   0
   1  -5  -3 1637.80   34.26   0
   2  -4   6 1673.53   30.71   0
   4  -8   0  857.93   27.12   0
   5  -8   4  763.02   26.37   0
   7  -9   4  295.91   23.31   0
   7  -5  12  461.26   23.33   0
   8  -9   5   95.16   19.59   0
   8  -6  11  154.70   21.18   0
   4  -4  11 1295.75   28.31   0
   5  -4  12 1488.05   29.32   0
   1  -4   2 2829.40   40.39   0
   1  -3   4 7389.31   63.09   0
   3  -5   8 3647.25   42.50   0
   5  -9  -1  239.44   20.78   0
   6  -9   3  247.77   22.23   0
   9  -7  10  171.82   20.44   0
   2  -3   8 4598.33   47.95   0
   6  -7  10  401.69   22.96   0
   6  -4  13  594.14   23.54   0
   7  -7  11  150.67   21.17   0
   5  -6  11  337.53   21.46   0
   6  -6  12  738.29   24.43   0
   7  -8   9  178.23   21.73   0
   3  -4  10 1821.86   30.82   0
   5  -7   9  668.70   23.32   0
   6  -8   8  536.83   22.69   0
   8  -8  10  176.15   21.95   0
   2  -6   2 1657.49   32.01   0
   7  -6  13  321.42   23.60   0
   8  -5  13  233.29   21.48   0
   3  -2  11  904.75   24.76   0
   4  -8   3  318.79   22.14   0
   5  -5  13  397.80   22.39   0
   8  -7  12  315.57   21.76   0
   9  -6  12  210.83   19.75   0
   1  -5   0 2910.83   42.03   0
   4  -6  10 1190.93   26.92   0
   4  -1  11  653.92   23.88   0
   5  -9   2  200.76   20.32   0
   6  -5  14  550.56   24.06   0
   3  -7   4  981.63   27.21   0
   4  -7   8  747.04   25.07   0
   4  -5  12 1616.82   29.87   0
   6  -9   6  175.89   20.96   0
   3  -3  12 2113.22   34.04   0
   6 -10   1   72.18   18.06   0
   8  -6  14  196.02   21.79   0
   2  -4   9 2172.22   33.81   0
   2  -2  10 7512.64   61.65   0
   6  -7  13  333.35   24.49   0
   7  -8  12  317.39   23.13   0
   7  -5  15   76.19   19.83   0
   3  -6   9  775.41   24.71   0
   3  -5  11  536.44   22.77   0
   6  -8  11  106.10   20.53   0
   4  -8   6  380.76   22.96   0
   5  -9   5  199.81   20.59   0
   5  -7  12  487.64   22.98   0
   5  -4  15  466.52   22.14   0
   2  -6   5  627.93   23.06   0
   5  -6  14  640.05   24.90   0
   7  -9  10  192.83   22.38   0
   8  -8  13  107.30   21.46   0
   1  -3   7 3697.54   43.25   0
   6  -3  15  238.75   19.02   0
   5  -8  10  317.93   20.60   0
   1  -5   3  727.67   23.24   0
   3  -7   7  638.16   24.41   0
   3  -4  13 1194.03   27.76   0
   6  -4  16  501.75   22.86   0
   8  -7  15   82.13   19.76   0
   2  -3  11  944.42   23.78   0
   3  -8   2  425.23   22.33   0
   4  -6  13  646.29   22.88   0
   7  -6  16  290.07   22.91   0
   4  -7  11  224.42   19.27   0
   4  -5  15  459.53   20.99   0
   5  -9   8  476.57   25.17   0
   6  -5  17  284.68   22.63   0
   2  -5  10 1102.39   27.12   0
   4  -8   9  275.51   23.03   0
   2  -7   3  794.70   24.93   0
   6  -8  14  217.82   22.21   0
   7  -8  15   79.82   20.37   0
   4  -9   4  523.44   24.31   0
   6  -7  16  345.97   21.86   0
   8  -6  17  117.30   19.04   0
   1  -2   9 2676.42   38.41   0
   2  -6   8 1382.64   28.14   0
   5  -7  15  123.97   21.36   0
   1  -4   8 4334.74   45.92   0
   2  -4  12 3550.38   40.53   0
   3  -8   5  301.50   20.85   0
   3  -5  14  723.78   23.99   0
   4  -2  15  340.90   19.33   0
   5  -8  13  276.74   23.32   0
   6  -9  12  265.10   22.61   0
   1  -6   1  576.50   23.52   0
   3  -7  10  683.46   25.40   0
   7  -5  18  311.21   24.10   0
   1  -5   6 2249.96   34.28   0
   5  -3  17  655.62   23.90   0
   0  -4   1 2811.58   42.75   0
   3  -1  13  998.50   26.88   0
   4  -7  14  551.90   25.04   0
   5  -4  18  483.25   22.93   0
   1  -3  10 3066.12   39.38   0
   4  -6  16  542.24   25.00   0
   2  -7   6  685.65   24.62   0
   4  -9   7  104.08   19.22   0
   5  -9  11  103.00   19.01   0
   3  -4  16 1547.52   29.23   0
   7  -6  19   42.36   18.88   0
   2  -3  14 2705.85   37.16   0
   1  -6   4 1527.23   32.39   0
   3  -8   8  651.63   25.83   0
   5  -5  19  250.23   22.19   0
   6  -4  19  104.78   19.06   0
   2  -5  13 1133.66   27.80   0
   4  -5  18  453.18   23.24   0
   6  -8  17  126.20   22.20   0
   3  -6  15  278.74   22.34   0
   5  -8  16  245.23   23.23   0
   6  -7  19   57.36   20.28   0
   6  -5  20  236.91   21.76   0
   1  -5   9 1361.22   28.94   0
   5  -7  18  328.96   22.47   0
   0  -4   4 3252.42   43.16   0
   1  -4  11  664.49   21.29   0
   2  -4  15  387.44   18.99   0
   3  -5  17  679.19   23.42   0
   4  -9  10  143.76   21.01   0
   7  -7  20  169.80   21.71   0
   2  -7   9  263.90   18.94   0
   4  -7  17  204.86   19.82   0
   1  -6   7  736.37   24.11   0
   1  -2  12 3897.86   43.37   0
   3  -8  11  159.44   20.31   0
   4  -3  19  243.49   19.25   0
   6  -6  21  129.70   20.42   0
   3  -3  18 1387.42   29.76   0
   4  -6  19  135.64   22.03   0
   3  -2  17 1054.83   26.99   0
   4  -4  20  637.00   25.02   0
   1  -1  11 1012.57   25.15   0
   4  -2  18  611.10   23.06   0
   0  -2   8 6693.45   58.84   0
   2  -6  14  700.96   23.55   0
   5  -4  21  243.49   20.47   0
   5  -3  20  602.00   23.70   0
   2  -5  16 1209.26   27.39   0
   3  -4  19  253.70   18.64   0
   7  -6  22  124.74   22.02   0
   0  -4   7  608.94   20.64   0
   3  -7  16  419.03   23.85   0
   3  -6  18  498.00   24.65   0
   4  -9  13  185.89   20.30   0
   2  -7  12  690.54   25.52   0
   5  -8  19   37.42   18.85   0
   0  -3   9 1092.45   25.04   0
   1  -4  14 1347.88   28.94   0
   2  -8   7  135.72   19.06   0
   5  -7  21  179.17   21.18   0
   5  -5  22  206.86   20.63   0
   1  -6  10  895.84   26.38   0
   0  -5   5 1316.11   30.46   0
   3  -9   9  224.72   22.85   0
   3  -8  14  210.16   22.05   0
   2  -4  18  616.29   22.12   0
   3  -5  20  623.20   23.55   0
   4  -7  20  179.76   21.95   0
   2  -1  15 1110.97   26.94   0
   4  -8  18  151.54   22.11   0
   6  -5  23   54.73   19.38   0
   5  -6  23   51.69   21.23   0
   1  -2  15 1136.42   25.53   0
   2  -8  10  272.93   23.51   0
   2  -6  17  228.81   20.99   0
   1  -3  16 2215.59   33.42   0
   6  -6  24  120.66   19.26   0
   0  -5   8 1285.27   28.73   0
   0  -2  11 3885.26   43.32   0
   1  -7   8  962.22   26.92   0
   1  -5  15  321.73   20.91   0
   2  -7  15  225.14   21.98   0
   1  -6  13  364.51   21.37   0
   2  -5  19  147.39   18.15   0
   3  -9  12  183.96   21.96   0
   3  -7  19  149.98   19.22   0
   3  -3  21  452.07   22.50   0
   4  -3  22  383.53   22.01   0
   0  -3  12 3157.52   38.46   0
   3  -6  21  205.34   22.41   0
   4  -4  23  156.50   18.20   0
   1  -4  17  897.79   26.23   0
   3  -8  17  181.24   21.08   0
   3  -2  20  776.24   24.88   0
   0  -1  10 3444.90   42.88   0
   2  -2  19  402.19   20.43   0
   4  -5  24  243.47   22.92   0
   5  -4  24  212.91   21.28   0
   2  -8  13  276.25   22.50   0
   1  -7  11  229.40   20.33   0
   2  -4  21  596.00   24.22   0
   4  -7  23   71.73   20.30   0
   5  -5  25   75.25   20.34   0
   0  -5  11  382.72   21.09   0
   0  -4  13 1299.27   27.11   0
   3  -5  23   55.60   18.67   0
   0  -6   6  570.65   22.57   0
   2  -6  20  324.61   21.64   0
   0  -2  14 2270.21   34.45   0
   1  -5  18  742.99   23.60   0
   0  -3  15 1030.61   25.77   0
   1  -3  19  520.04   20.94   0
   1  -2  18 1667.72   29.59   0
   2  -1  18 1584.06   31.38   0
   3  -7  22  126.13   21.86   0
   4  -6  25  100.61   21.62   0
   3  -2   2 7175.97   61.11   0
   7  -5  -9  275.45   20.69   0
   8  -5 -11  221.72   21.20   0
   8  -3  -1  391.10   23.82   0
   9  -1  -2  173.66   20.72   0
   5  -2   4 4460.48   45.14   0
   6  -4  -2 1743.01   31.81   0
   4   0   7  581.55   22.00   0
   6   0   6  564.86   22.86   0
   8   0   2  262.55   20.77   0
   5  -5 -11  421.16   20.59   0
   8  -4  -3  301.73   22.48   0
   9  -3  -3  244.99   21.37   0
   5  -3   2 1457.25   29.25   0
   9  -5 -13  169.35   20.51   0
   9  -2  -1   85.53   20.15   0
   6  -5  -7  728.91   24.85   0
   9  -4  -5  199.01   22.23   0
   4  -4  -4 3364.97   41.36   0
   7  -4  -1  376.15   20.16   0
   7  -1   5  365.09   21.75   0
   8  -1   3  129.65   19.38   0
   9  -5 -10  158.79   22.35   0
   6  -3   3  850.50   23.71   0
   5  -5  -8 1391.70   28.79   0
   9  -1   1  116.13   20.57   0
   5   0   8 1256.96   29.07   0
   8  -5  -5  302.75   19.98   0
   8  -3   2  431.64   21.70   0
   9  -5  -7   96.37   20.81   0
   6  -1   7  651.49   23.79   0
   9  -4  -2  177.22   23.20   0
   9  -3   0  420.15   23.11   0
   6  -4   1 1186.52   27.54   0
   8  -2   4  675.57   25.71   0
   3  -3   0 6130.97   57.12   0
   5  -4   0 2910.21   37.37   0
   6  -5  -4 1515.37   29.08   0
   7  -3   4  990.57   27.29   0
   8  -6 -13  263.20   22.14   0
   9  -2   2  249.56   22.90   0
   7  -2   6  689.11   24.39   0
   7  -4   2 1161.02   27.05   0
   9  -5  -4  543.82   25.57   0
   5  -5  -5 1471.02   30.04   0
   7  -6 -11  242.28   20.86   0
   8  -6 -10  268.12   21.93   0
   8  -5  -2  409.59   23.22   0
   4  -2   6 1682.33   30.92   0
   9  -6 -12  196.34   21.44   0
   3  -4  -5 2339.21   38.18   0
   5  -3   5 1495.45   29.10   0
   8  -1   6  262.13   21.59   0
   9  -6  -9  205.75   22.77   0
   9  -4   1  256.60   22.63   0
   4  -5  -9 1319.52   31.07   0
   7  -6  -8 1048.14   28.48   0
   8  -6  -7  164.54   20.31   0
   6  -3   6 1454.29   29.58   0
   7  -1   8  967.30   27.48   0
   8  -4   3  283.47   22.79   0
   9  -1   4  157.25   18.68   0
   6  -5  -1  573.97   21.65   0
   7  -5   0 1090.68   26.58   0
   5  -1   9 1321.20   28.86   0
   6  -2   8 1300.28   27.23   0
   3  -2   5 4653.33   48.65   0
   6  -6  -9  469.84   21.43   0
   9  -6  -6  244.36   22.42   0
  10  -5  -3   91.30   20.21   0
   6  -4   4 1626.21   29.74   0
   7  -6  -5  370.46   22.45   0
   8  -5   1  337.91   22.71   0
   8  -2   7  143.32   20.12   0
   9  -2   5  231.16   20.43   0
   5  -5  -2 2386.30   35.60   0
   5  -4   3 1814.45   30.20   0
   8  -6  -4  698.67   25.66   0
   7  -4   5  668.49   24.02   0
   4  -5  -6 2283.74   37.45   0
   4   0  10 2385.45   38.43   0
   6  -6  -6  616.96   23.07   0
   3   0   9 1046.27   26.99   0
   9  -4   4  535.31   23.59   0
   7  -2   9  245.49   18.41   0
   9  -5   2  174.30   22.69   0
  10  -5   0  272.77   22.92   0
   7  -5   3  273.47   20.50   0
   9  -3   6  227.92   20.61   0
   3  -3   3 1181.95   26.06   0
   4  -4   2 3359.10   39.64   0
   6  -5   2 1399.51   27.82   0
   7  -6  -2  441.65   22.33   0
   8  -6  -1  310.64   22.54   0
   8  -4   6  404.53   23.00   0
   3  -4  -2 2798.47   39.64   0
   5   0  11  365.33   19.41   0
   8  -5   4  772.29   26.54   0
   8  -3   8  625.71   22.47   0
   9  -7 -11   44.29   18.24   0
  10  -6  -2  143.39   20.26   0
   5  -3   8 3576.02   40.44   0
   6  -6  -3  678.00   22.07   0
   8  -7  -9  273.11   21.68   0
   9  -7  -8  219.04   20.08   0
   9  -6   0  458.47   23.92   0
   4  -5  -3  747.39   23.33   0
   5  -2  10 1087.27   26.52   0
   6  -4   7  506.53   20.10   0
   9  -2   8  175.82   19.05   0
   5  -6  -7  715.76   23.90   0
   7  -1  11  191.28   20.45   0
   8  -7  -6  308.16   21.83   0
  10  -5   3   70.63   19.99   0
   4  -3   7 1508.43   29.25   0
   5  -4   6 1914.30   30.82   0
   7  -4   8  756.27   23.49   0
   8  -2  10  255.89   20.66   0
   9  -7  -5  245.59   20.37   0
   9  -5   5  173.92   22.18   0
   7  -3  10  691.52   24.41   0
   8  -6   2  389.99   20.49   0
  10  -6   1  107.26   20.12   0
   7  -7  -7  198.40   19.31   0
   7  -5   6  870.20   24.73   0
   4  -1  11  668.51   22.46   0
   6  -6   0 1667.68   31.66   0
   6  -5   5  833.53   23.31   0
   9  -6   3  229.79   23.17   0
   9  -3   9  249.92   21.65   0
   5  -6  -4 1575.77   31.13   0
   8  -7  -3  141.86   19.45   0
   9  -7  -2  237.98   22.31   0
   8  -5   7  193.34   19.05   0
   3  -2   8 4513.44   47.03   0
   4  -4   5  847.22   24.16   0
   4  -5   0 3015.66   39.45   0
   7  -7  -4 1075.76   28.58   0
   5  -5   4 1969.28   31.41   0
   8  -3  11  160.37   20.89   0
   3  -1  10 2968.40   40.67   0
   7  -6   4 1164.44   29.46   0
   8  -6   5  256.11   23.59   0
   6  -1  13  312.00   20.04   0
   8  -7   0  594.70   25.33   0
   3  -3   6 5901.12   52.84   0
   9  -5   8  420.96   23.27   0
   6  -4  10 1146.65   26.82   0
   2  -1  15 1147.34   27.54   0
   4  -6  10 1131.36   27.90   0
   4  -3  19  271.99   20.76   0
   7  -6  19   70.47   19.94   0
   4  -5  15  486.22   21.15   0
   7  -5  21  202.80   22.30   0
   6  -8   8  567.74   23.03   0
   6  -6  18  229.94   23.75   0
   3  -6   0 2127.43   35.78   0
   7  -7  17  178.33   21.70   0
   2  -4   9 2233.89   34.03   0
   3  -5  11  502.65   20.18   0
   4  -7   2 1191.72   28.55   0
   6  -4  22  306.17   21.34   0
   7  -9   4  243.58   20.21   0
   1  -2   9 2701.53   37.86   0
   1  -3   4 7173.70   61.70   0
   3  -6   3  847.06   24.54   0
   3  -1  19  479.50   21.01   0
   5  -7  12  463.58   24.90   0
   5  -4  21  260.60   21.08   0
   7  -4  23   40.85   17.47   0
   4  -2  21  536.29   22.89   0
   4  -7   5  698.99   24.34   0
   4  -6  13  716.69   25.15   0
   5  -6  17  320.25   22.02   0
   6  -8  11  134.15   21.39   0
   7  -9   7  134.18   20.83   0
   2  -3  14 2667.39   36.51   0
   3  -4  16 1596.22   29.34   0
   2  -5   1 1657.43   31.43   0
   2  -2  16 1279.56   27.75   0
   3  -6   6 1371.28   28.93   0
   5  -8   4  721.70   25.17   0
   7  -8  15   98.38   20.27   0
   2  -5  -2 1283.28   30.72   0
   5  -3  23   68.40   17.29   0
   1  -3   7 3491.84   41.36   0
   2  -5   4 4581.68   46.66   0
   4  -7   8  743.61   25.16   0
   4  -5  18  461.64   21.24   0
   7  -6  22  130.47   19.55   0
   2  -4  12 3597.89   40.29   0
   3  -5  14  739.49   22.59   0
   3  -2  20  729.80   24.14   0
   5  -8   7  198.02   20.15   0
   7  -9  10  184.05   19.82   0
   5  -7  15  125.19   20.35   0
   6  -6  21  156.38   22.18   0
   6  -5  23   67.21   19.57   0
   7  -7  20  159.09   18.95   0
   4  -3  22  370.81   21.64   0
   6  -8  14  242.66   21.70   0
   1  -2  12 3954.59   44.14   0
   2  -1  18 1547.18   31.13   0
   4  -6  16  535.36   21.78   0
   6  -7  19   71.68   20.92   0
   5  -8  10  359.70   22.80   0
   6  -9   6  185.14   20.14   0
   5  -6  20  302.56   19.86   0
   1  -3  10 3085.49   39.03   0
   3  -4  19  268.68   20.17   0
   6  -4  25  138.27   19.89   0
   2  -3  17 1028.64   26.46   0
   5  -4  24  227.51   20.06   0
   2  -5  10 1125.62   26.95   0
   3  -6  12 1042.15   25.33   0
   6  -9   9  123.76   20.76   0
   2  -4  15  374.30   18.69   0
   3  -5  17  691.46   22.84   0
   5  -7  18  340.33   23.84   0
   4  -5  21  255.38   19.25   0
   6  -8  17  107.83   20.82   0
   1  -4   2 2746.08   39.58   0
   2  -2  19  384.91   18.29   0
   4  -7  14  578.85   24.07   0
   4  -4  23  176.42   20.43   0
   5  -8  13  260.87   19.66   0
   4  -6  19  134.44   18.41   0
   6  -6  24  126.84   19.94   0
   6  -9  12  300.35   22.76   0
   6  -7  22  114.96   20.15   0
   1  -3  13 1065.22   24.48   0
   2  -5  13 1155.75   27.85   0
   3  -7   4  959.77   26.14   0
   3  -6  15  290.64   21.33   0
   1  -4   8 4258.38   44.30   0
   3  -7   1  370.49   19.98   0
   3  -2  23  154.49   18.41   0
   4  -8   6  381.59   22.31   0
   3  -7   7  641.79   23.74   0
   4  -3  25  226.55   20.88   0
   5  -6  23   62.55   18.89   0
   5  -5  25   97.61   20.00   0
   5  -8  16  265.47   22.47   0
   1   0  16 3271.14   45.67   0
   3  -5  20  684.44   25.39   0
   4  -8   9  283.09   21.17   0
   4  -7  17  229.68   22.52   0
   5  -7  21  159.11   20.48   0
  -1   2  21  585.39   23.82   0
   0   0  18 1160.00   31.22   0
  -5   6  25   90.92   19.59   0
  -2   2  26  280.13   21.12   0
  -3   6  12 1088.67   27.21   0
  -3   6   6 1408.99   28.68   0
  -2   5   8 3538.13   40.94   0
  -5   7  21  120.38   21.52   0
  -4   7   7  650.92   23.48   0
  -4   7  10  705.82   22.54   0
  -3   4  26  254.81   20.55   0
  -3   5  22  317.93   19.61   0
  -2   5  11  509.65   19.57   0
  -3   6  15  264.67   20.30   0
  -2   3  25  236.02   20.18   0
   0   1  17 1671.67   31.06   0
  -4   5  27   45.43   18.76   0
  -4   6  23  127.18   20.72   0
  -2   5  14  739.83   22.13   0
  -7   9  11   31.28   16.45   0
   0   2  10 7448.56   58.53   0
  -3   6   3  804.67   21.76   0
;
_shelx_hkl_checksum              67685
loop_
_space_group_symop_operation_xyz
'x, y, z'
'-y, x-y, z'
'-x+y, -x, z'
'y, x, -z'
'x-y, -y, -z'
'-x, -x+y, -z'
'x+2/3, y+1/3, z+1/3'
'-y+2/3, x-y+1/3, z+1/3'
'-x+y+2/3, -x+1/3, z+1/3'
'y+2/3, x+1/3, -z+1/3'
'x-y+2/3, -y+1/3, -z+1/3'
'-x+2/3, -x+y+1/3, -z+1/3'
'x+1/3, y+2/3, z+2/3'
'-y+1/3, x-y+2/3, z+2/3'
'-x+y+1/3, -x+2/3, z+2/3'
'y+1/3, x+2/3, -z+2/3'
'x-y+1/3, -y+2/3, -z+2/3'
'-x+1/3, -x+y+2/3, -z+2/3'
'-x, -y, -z'
'y, -x+y, -z'
'x-y, x, -z'
'-y, -x, z'
'-x+y, y, z'
'x, x-y, z'
'-x+2/3, -y+1/3, -z+1/3'
'y+2/3, -x+y+1/3, -z+1/3'
'x-y+2/3, x+1/3, -z+1/3'
'-y+2/3, -x+1/3, z+1/3'
'-x+y+2/3, y+1/3, z+1/3'
'x+2/3, x-y+1/3, z+1/3'
'-x+1/3, -y+2/3, -z+2/3'
'y+1/3, -x+y+2/3, -z+2/3'
'x-y+1/3, x+2/3, -z+2/3'
'-y+1/3, -x+2/3, z+2/3'
'-x+y+1/3, y+2/3, z+2/3'
'x+1/3, x-y+2/3, z+2/3'
loop_
_atom_site_label
_atom_site_type_symbol
_atom_site_fract_x
_atom_site_fract_y
_atom_site_fract_z
_atom_site_U_iso_or_equiv
_atom_site_adp_type
_atom_site_occupancy
_atom_site_site_symmetry_order
_atom_site_calc_flag
_atom_site_refinement_flags_posn
_atom_site_refinement_flags_adp
_atom_site_refinement_flags_occupancy
Ba1 Ba 0.0000 0.0000 0.5000 0.01625(5) Uani 1 12 d S T P
Mg2 Mg 0.0000 0.0000 0.0000 0.01278(15) Uani 1 12 d S T P
O3 O 0.85365(13) 0.7073(3) 0.25768(8) 0.0306(2) Uani 1 2 d S T P
C4 C 0.0000 0.0000 0.26074(10) 0.0130(2) Uani 1 6 d S T P
loop_
_atom_site_aniso_label
_atom_site_aniso_U_11
_atom_site_aniso_U_22
_atom_site_aniso_U_33
_atom_site_aniso_U_23
_atom_site_aniso_U_13
_atom_site_aniso_U_12
Ba1 0.01419(5) 0.01419(5) 0.02038(7) 0.000 0.000 0.00709(3)
Mg2 0.0108(2) 0.0108(2) 0.0167(3) 0.000 0.000 0.00542(11)
O3 0.0382(5) 0.0119(3) 0.0329(5) 0.0052(3) 0.00260(17) 0.00596(17)
C4 0.0121(3) 0.0121(3) 0.0148(5) 0.000 0.000 0.00607(17)
loop_
_atom_type_symbol
_atom_type_description
_atom_type_scat_dispersion_real
_atom_type_scat_dispersion_imag
_atom_type_scat_source
C C 0.0033 0.0016 'International Tables Vol C Tables 4.2.6.8 and 6.1.1.4'
O O 0.0106 0.0060 'International Tables Vol C Tables 4.2.6.8 and 6.1.1.4'
Mg Mg 0.0486 0.0363 'International Tables Vol C Tables 4.2.6.8 and 6.1.1.4'
Ba Ba -0.3244 2.2819 'International Tables Vol C Tables 4.2.6.8 and 6.1.1.4'
loop_
_geom_angle_atom_site_label_1
_geom_angle_atom_site_label_2
_geom_angle_atom_site_label_3
_geom_angle
_geom_angle_site_symmetry_1
_geom_angle_site_symmetry_3
O3 Ba1 O3 180.0 31 7_445
O3 Ba1 O3 57.18(4) 31 32_455
O3 Ba1 O3 122.82(4) 7_445 32_455
O3 Ba1 O3 122.82(4) 31 8_545
O3 Ba1 O3 57.18(4) 7_445 8_545
O3 Ba1 O3 180.0 32_455 8_545
O3 Ba1 O3 43.99(5) 31 33_435
O3 Ba1 O3 136.01(5) 7_445 33_435
O3 Ba1 O3 95.57(3) 32_455 33_435
O3 Ba1 O3 84.43(3) 8_545 33_435
O3 Ba1 O3 136.01(5) 31 9_565
O3 Ba1 O3 43.99(5) 7_445 9_565
O3 Ba1 O3 84.43(3) 32_455 9_565
O3 Ba1 O3 95.57(3) 8_545 9_565
O3 Ba1 O3 180.0 33_435 9_565
O3 Ba1 O3 95.57(3) 31 33_545
O3 Ba1 O3 84.43(3) 7_445 33_545
O3 Ba1 O3 43.99(5) 32_455 33_545
O3 Ba1 O3 136.01(5) 8_545 33_545
O3 Ba1 O3 117.10(5) 33_435 33_545
O3 Ba1 O3 62.90(5) 9_565 33_545
O3 Ba1 O3 84.43(3) 31 9_455
O3 Ba1 O3 95.57(3) 7_445 9_455
O3 Ba1 O3 136.01(5) 32_455 9_455
O3 Ba1 O3 43.99(5) 8_545 9_455
O3 Ba1 O3 62.90(5) 33_435 9_455
O3 Ba1 O3 117.10(5) 9_565 9_455
O3 Ba1 O3 180.00(2) 33_545 9_455
O3 Ba1 O3 95.57(3) 31 32_445
O3 Ba1 O3 84.43(3) 7_445 32_445
O3 Ba1 O3 117.10(5) 32_455 32_445
O3 Ba1 O3 62.90(5) 8_545 32_445
O3 Ba1 O3 57.18(4) 33_435 32_445
O3 Ba1 O3 122.82(4) 9_565 32_445
O3 Ba1 O3 95.57(3) 33_545 32_445
O3 Ba1 O3 84.43(3) 9_455 32_445
O3 Ba1 O3 84.43(3) 31 8
O3 Ba1 O3 95.57(3) 7_445 8
O3 Ba1 O3 62.90(5) 32_455 8
O3 Ba1 O3 117.10(5) 8_545 8
O3 Ba1 O3 122.82(4) 33_435 8
O3 Ba1 O3 57.18(4) 9_565 8
O3 Ba1 O3 84.43(3) 33_545 8
O3 Ba1 O3 95.57(3) 9_455 8
O3 Ba1 O3 180.0 32_445 8
O3 Ba1 O3 62.90(5) 31 7_345
O3 Ba1 O3 117.10(5) 7_445 7_345
O3 Ba1 O3 84.43(3) 32_455 7_345
O3 Ba1 O3 95.57(3) 8_545 7_345
O3 Ba1 O3 84.43(3) 33_435 7_345
O3 Ba1 O3 95.57(3) 9_565 7_345
O3 Ba1 O3 122.82(4) 33_545 7_345
O3 Ba1 O3 57.18(4) 9_455 7_345
O3 Ba1 O3 136.01(5) 32_445 7_345
O3 Ba1 O3 43.99(5) 8 7_345
O3 Ba1 O3 117.10(5) 31 31_655
O3 Ba1 O3 62.90(5) 7_445 31_655
O3 Ba1 O3 95.57(3) 32_455 31_655
O3 Ba1 O3 84.43(3) 8_545 31_655
O3 Ba1 O3 95.57(3) 33_435 31_655
O3 Ba1 O3 84.43(3) 9_565 31_655
O3 Ba1 O3 57.18(4) 33_545 31_655
O3 Ba1 O3 122.82(4) 9_455 31_655
O3 Ba1 O3 43.99(5) 32_445 31_655
O3 Ba1 O3 136.01(5) 8 31_655
O3 Ba1 O3 180.0 7_345 31_655
O3 Mg2 O3 180.00(6) 26_455 14_544
O3 Mg2 O3 86.15(6) 26_455 25
O3 Mg2 O3 93.85(6) 14_544 25
O3 Mg2 O3 93.85(6) 26_455 13_444
O3 Mg2 O3 86.15(6) 14_544 13_444
O3 Mg2 O3 180.00(6) 25 13_444
O3 Mg2 O3 86.15(6) 26_455 27_445
O3 Mg2 O3 93.85(6) 14_544 27_445
O3 Mg2 O3 86.15(6) 25 27_445
O3 Mg2 O3 93.85(6) 13_444 27_445
O3 Mg2 O3 93.85(6) 26_455 15_554
O3 Mg2 O3 86.15(6) 14_544 15_554
O3 Mg2 O3 93.85(6) 25 15_554
O3 Mg2 O3 86.15(6) 13_444 15_554
O3 Mg2 O3 180.00(6) 27_445 15_554
O3 Mg2 Ba1 44.716(18) 26_455 13_554
O3 Mg2 Ba1 135.284(18) 14_544 13_554
O3 Mg2 Ba1 98.12(4) 25 13_554
O3 Mg2 Ba1 81.88(4) 13_444 13_554
O3 Mg2 Ba1 44.717(18) 27_445 13_554
O3 Mg2 Ba1 135.283(18) 15_554 13_554
O3 Mg2 Ba1 135.284(18) 26_455 7_444
O3 Mg2 Ba1 44.716(18) 14_544 7_444
O3 Mg2 Ba1 81.88(4) 25 7_444
O3 Mg2 Ba1 98.12(4) 13_444 7_444
O3 Mg2 Ba1 135.283(18) 27_445 7_444
O3 Mg2 Ba1 44.717(18) 15_554 7_444
Ba1 Mg2 Ba1 180.0 13_554 7_444
O3 Mg2 Ba1 98.12(4) 26_455 13_444
O3 Mg2 Ba1 81.88(4) 14_544 13_444
O3 Mg2 Ba1 44.716(18) 25 13_444
O3 Mg2 Ba1 135.284(18) 13_444 13_444
O3 Mg2 Ba1 44.718(18) 27_445 13_444
O3 Mg2 Ba1 135.282(18) 15_554 13_444
Ba1 Mg2 Ba1 77.167(12) 13_554 13_444
Ba1 Mg2 Ba1 102.833(12) 7_444 13_444
O3 Mg2 Ba1 81.88(4) 26_455 7_554
O3 Mg2 Ba1 98.12(4) 14_544 7_554
O3 Mg2 Ba1 135.284(18) 25 7_554
O3 Mg2 Ba1 44.716(18) 13_444 7_554
O3 Mg2 Ba1 135.282(18) 27_445 7_554
O3 Mg2 Ba1 44.718(18) 15_554 7_554
Ba1 Mg2 Ba1 102.833(12) 13_554 7_554
Ba1 Mg2 Ba1 77.167(12) 7_444 7_554
Ba1 Mg2 Ba1 180.0 13_444 7_554
O3 Mg2 Ba1 44.718(18) 26_455 13_544
O3 Mg2 Ba1 135.282(18) 14_544 13_544
O3 Mg2 Ba1 44.718(18) 25 13_544
O3 Mg2 Ba1 135.282(18) 13_444 13_544
O3 Mg2 Ba1 98.12(4) 27_445 13_544
O3 Mg2 Ba1 81.88(4) 15_554 13_544
Ba1 Mg2 Ba1 77.167(12) 13_554 13_544
Ba1 Mg2 Ba1 102.833(12) 7_444 13_544
Ba1 Mg2 Ba1 77.167(12) 13_444 13_544
Ba1 Mg2 Ba1 102.833(12) 7_554 13_544
O3 Mg2 Ba1 135.282(18) 26_455 7_454
O3 Mg2 Ba1 44.718(18) 14_544 7_454
O3 Mg2 Ba1 135.282(18) 25 7_454
O3 Mg2 Ba1 44.718(18) 13_444 7_454
O3 Mg2 Ba1 81.88(4) 27_445 7_454
O3 Mg2 Ba1 98.12(4) 15_554 7_454
Ba1 Mg2 Ba1 102.833(12) 13_554 7_454
Ba1 Mg2 Ba1 77.167(12) 7_444 7_454
Ba1 Mg2 Ba1 102.833(12) 13_444 7_454
Ba1 Mg2 Ba1 77.167(12) 7_554 7_454
Ba1 Mg2 Ba1 180.0 13_544 7_454
C4 O3 Mg2 139.74(12) 1_665 7
C4 O3 Ba1 94.64(5) 1_665 13_554
Mg2 O3 Ba1 105.74(3) 7 13_554
C4 O3 Ba1 94.64(5) 1_665 13_654
Mg2 O3 Ba1 105.74(3) 7 13_654
Ba1 O3 Ba1 117.10(5) 13_554 13_654
O3 C4 O3 119.838(14) 1_445 2_655
O3 C4 O3 119.838(14) 1_445 3_565
O3 C4 O3 119.838(14) 2_655 3_565
O3 C4 Ba1 62.73(5) 1_445 13_444
O3 C4 Ba1 149.15(12) 2_655 13_444
O3 C4 Ba1 62.73(5) 3_565 13_444
O3 C4 Ba1 149.15(12) 1_445 13_554
O3 C4 Ba1 62.73(5) 2_655 13_554
O3 C4 Ba1 62.73(5) 3_565 13_554
Ba1 C4 Ba1 99.07(4) 13_444 13_554
O3 C4 Ba1 62.73(5) 1_445 13_544
O3 C4 Ba1 62.73(5) 2_655 13_544
O3 C4 Ba1 149.15(12) 3_565 13_544
Ba1 C4 Ba1 99.07(4) 13_444 13_544
Ba1 C4 Ba1 99.07(3) 13_554 13_544
loop_
_geom_bond_atom_site_label_1
_geom_bond_atom_site_label_2
_geom_bond_distance
_geom_bond_site_symmetry_2
Ba1 O3 2.9463(8) 31
Ba1 O3 2.9463(8) 7_445
Ba1 O3 2.9463(8) 32_455
Ba1 O3 2.9463(8) 8_545
Ba1 O3 2.9463(8) 33_435
Ba1 O3 2.9463(8) 9_565
Ba1 O3 2.9463(8) 33_545
Ba1 O3 2.9463(8) 9_455
Ba1 O3 2.9463(8) 32_445
Ba1 O3 2.9463(8) 8
Ba1 O3 2.9463(8) 7_345
Ba1 O3 2.9463(8) 31_655
Mg2 O3 2.0645(12) 26_455
Mg2 O3 2.0645(12) 14_544
Mg2 O3 2.0645(12) 25
Mg2 O3 2.0645(12) 13_444
Mg2 O3 2.0645(12) 27_445
Mg2 O3 2.0645(12) 15_554
Mg2 Ba1 4.0303(5) 13_554
Mg2 Ba1 4.0303(5) 7_444
Mg2 Ba1 4.0303(5) 13_444
Mg2 Ba1 4.0303(5) 7_554
Mg2 Ba1 4.0303(5) 13_544
Mg2 Ba1 4.0303(5) 7_454
O3 C4 1.2753(12) 1_665
O3 Mg2 2.0645(12) 7
O3 Ba1 2.9463(8) 13_554
O3 Ba1 2.9463(8) 13_654
C4 O3 1.2753(12) 1_445
C4 O3 1.2753(12) 2_655
C4 O3 1.2753(12) 3_565
C4 Ba1 3.3038(10) 13_444
C4 Ba1 3.3038(10) 13_554
C4 Ba1 3.3038(10) 13_544
