#------------------------------------------------------------------------------
#$Date: 2019-12-26 22:11:56 +0200 (Thu, 26 Dec 2019) $
#$Revision: 246154 $
#$URL: file:///home/coder/svn-repositories/cod/cif/2/31/18/2311886.cif $
#------------------------------------------------------------------------------
#
# This file is available in the Crystallography Open Database (COD),
# http://www.crystallography.net/. The original data for this entry
# were provided by IUCr Journals, http://journals.iucr.org/.
#
# The file may be used within the scientific community so long as
# proper attribution is given to the journal article from which the
# data were obtained.
#
data_2311886
loop_
_publ_author_name
'Schwendtner, Karolina'
'Kolitsch, Uwe'
_publ_section_title
;
 M<sup>3+</sup>(H<sub>2</sub>AsO<sub>4</sub>)(H<sub>2</sub>As<sub>2</sub>O<sub>7</sub>)
 (M<sup>3+</sup> = Al, Ga) and
 In<sub>2</sub>(H<sub>2</sub>AsO<sub>4</sub>)<sub>2</sub>(H<sub>2</sub>As<sub>2</sub>O<sub>7</sub>)<sub>2</sub>:
 a new layer structure type and a new framework structure type containing
 the rare H<sub>2</sub>As<sub>2</sub>O<sub>7</sub><sup>2-</sup> group.
;
_journal_coeditor_code           LY3048
_journal_issue                   'Pt 8'
_journal_name_full
'Acta crystallographica. Section C, Structural chemistry'
_journal_page_first              600
_journal_page_last               608
_journal_paper_doi               10.1107/S2053229617009676
_journal_volume                  73
_journal_year                    2017
_chemical_formula_iupac          'Al (H2 As O4) (H2 As2 O7)'
_chemical_formula_structural     'Al1 (H2 As1 O4) (H2 As2 O7)'
_chemical_formula_sum            'Al As3 H4 O11'
_chemical_formula_weight         431.77
_chemical_name_common
'aluminium dihydrogen arsenate dihydrogen diarsenate'
_chemical_name_systematic
'Aluminium [dihydrogen arsenate(V)] dihydrogen diarsenate(V)'
_space_group_crystal_system      orthorhombic
_space_group_IT_number           62
_space_group_name_Hall           '-P 2ac 2n'
_space_group_name_H-M_alt        'P n m a'
_atom_sites_solution_hydrogens   mixed
_atom_sites_solution_primary     direct
_atom_sites_solution_secondary   difmap
_audit_creation_method           SHELXL-2016/6
_cell_angle_alpha                90
_cell_angle_beta                 90
_cell_angle_gamma                90
_cell_formula_units_Z            4
_cell_length_a                   4.8690(10)
_cell_length_b                   11.071(2)
_cell_length_c                   15.807(3)
_cell_measurement_reflns_used    1830
_cell_measurement_temperature    293(2)
_cell_measurement_theta_max      32.577
_cell_measurement_theta_min      2.037
_cell_volume                     852.1(3)
_computing_cell_refinement
;
SCALEPACK (Otwinowski <i>et al.</i>,  2003)
;
_computing_data_collection
;
COLLECT (Nonius, 2003)
;
_computing_data_reduction
;
DENZO and SCALEPACK (Otwinowski <i>et al.</i>,  2003)
;
_computing_molecular_graphics
;
DIAMOND (Brandenburg, 2005)
;
_computing_structure_refinement
;
SHELXL2016 (Sheldrick, 2015)
;
_computing_structure_solution
;
SHELXS97 (Sheldrick, 2008)
;
_diffrn_ambient_temperature      293(2)
_diffrn_measured_fraction_theta_full 0.995
_diffrn_measured_fraction_theta_max 0.998
_diffrn_measurement_device_type  'Nonius KappaCCD single-crystal four-circle'
_diffrn_measurement_method       '\f and \w scans'
_diffrn_radiation_type           MoK\a
_diffrn_radiation_wavelength     0.71073
_diffrn_reflns_av_R_equivalents  0.0217
_diffrn_reflns_limit_h_max       7
_diffrn_reflns_limit_h_min       -7
_diffrn_reflns_limit_k_max       16
_diffrn_reflns_limit_k_min       -16
_diffrn_reflns_limit_l_max       23
_diffrn_reflns_limit_l_min       -23
_diffrn_reflns_number            2892
_diffrn_reflns_theta_full        25.242
_diffrn_reflns_theta_max         32.507
_diffrn_reflns_theta_min         2.577
_exptl_absorpt_coefficient_mu    11.853
_exptl_absorpt_correction_T_max  0.7975
_exptl_absorpt_correction_T_min  0.0442
_exptl_absorpt_correction_type   multi-scan
_exptl_absorpt_process_details
;
(SCALEPACK; Otwinowski <i>et al.</i>,  2003)
;
_exptl_crystal_colour            colourless
_exptl_crystal_density_diffrn    3.366
_exptl_crystal_density_method    'not measured'
_exptl_crystal_description       acicular
_exptl_crystal_F_000             816
_exptl_crystal_size_max          0.700
_exptl_crystal_size_mid          0.020
_exptl_crystal_size_min          0.020
_refine_diff_density_max         2.014
_refine_diff_density_min         -1.040
_refine_ls_extinction_coef       0.0013(2)
_refine_ls_extinction_expression Fc^*^=kFc[1+0.001xFc^2^\l^3^/sin(2\q)]^-1/4^
_refine_ls_extinction_method
;
SHELXL2016 (Sheldrick, 2015)
;
_refine_ls_goodness_of_fit_ref   1.097
_refine_ls_hydrogen_treatment    mixed
_refine_ls_matrix_type           full
_refine_ls_number_parameters     85
_refine_ls_number_reflns         1611
_refine_ls_number_restraints     2
_refine_ls_restrained_S_all      1.097
_refine_ls_R_factor_all          0.0410
_refine_ls_R_factor_gt           0.0276
_refine_ls_shift/su_max          0.001
_refine_ls_shift/su_mean         0.000
_refine_ls_structure_factor_coef Fsqd
_refine_ls_weighting_details
'w=1/[\s^2^(Fo^2^)+(0.0290P)^2^+0.9297P] where P=(Fo^2^+2Fc^2^)/3'
_refine_ls_weighting_scheme      calc
_refine_ls_wR_factor_gt          0.0587
_refine_ls_wR_factor_ref         0.0623
_reflns_number_gt                1319
_reflns_number_total             1611
_reflns_threshold_expression     'I > 2\s(I)'
_cod_data_source_file            ly3048sup1.cif
_cod_data_source_block           AlH2AsO4H2As2O7
_cod_database_code               2311886
_shelx_space_group_comment
;
The symmetry employed for this shelxl refinement is uniquely defined
by the following loop, which should always be used as a source of
symmetry information in preference to the above space-group names.
They are only intended as comments.
;
_shelx_estimated_absorpt_t_min   0.044
_shelx_estimated_absorpt_t_max   0.797
_shelx_hkl_file
;
   0   0   2  585.40    9.50   1
   0   0   3    0.30    0.20   1
   0   0   4 1906.80   24.80   1
   0   0   5    0.30    0.30   1
   0   0   6 1080.40   13.40   1
   0   0   7   -0.80    0.30   1
   0   0   8  707.50   10.70   1
   0   0   9   -0.60    0.40   1
   0   0  10 1522.10   19.10   1
   0   0  11    2.10    0.50   1
   0   0  12  320.00    4.50   1
   0   0  13    0.10    0.60   1
   0   0  14  592.40    8.30   1
   0   0  15    2.10    0.60   1
   0   0  16    1.10    0.60   1
   0   0  17   -1.70    1.10   1
   0   0  18  508.50   11.40   1
   0   0  19   -0.20    1.40   1
   0   0  20  160.20    8.40   1
   0   0  21    0.50    2.90   1
   0   0  22   69.00   10.30   1
   0   0  23    0.10    4.50   1
   0   1   1   -0.10    0.10   1
   0   1   2    0.20    0.10   1
   0   1   3    1.10    0.10   1
   0   1   4    0.00    0.20   1
   0   1   5  104.50    1.20   1
   0   1   6    0.20    0.20   1
   0   1   7    8.60    0.30   1
   0   1   8   -0.30    0.20   1
   0   1   9  181.40    1.90   1
   0   1  10   -0.30    0.30   1
   0   1  11   66.70    1.00   1
   0   1  12    0.50    0.30   1
   0   1  13   46.00    0.90   1
   0   1  14   -0.20    0.40   1
   0   1  15   81.90    1.40   1
   0   1  16    0.60    0.50   1
   0   1  17    8.40    1.00   1
   0   1  18   -0.40    0.90   1
   0   1  19   79.00    2.70   1
   0   1  20    1.80    2.20   1
   0   1  21   -2.10    2.50   1
   0   1  22   -2.30    2.30   1
   0   1  23   73.40    4.70   1
   0   2   0    0.40    0.20   1
   0   2   1    0.30    0.10   1
   0   2   2   17.70    0.40   1
   0   2   3    0.30    0.20   1
   0   2   4  230.80    2.40   1
   0   2   5    0.50    0.20   1
   0   2   6   95.30    1.00   1
   0   2   7    0.00    0.20   1
   0   2   8   22.20    0.80   1
   0   2   9   -0.30    0.20   1
   0   2  10    2.70    0.30   1
   0   2  11    0.00    0.30   1
   0   2  12    0.70    0.30   1
   0   2  13    0.40    0.40   1
   0   2  14   37.40    0.90   1
   0   2  15    0.60    0.50   1
   0   2  16   59.30    1.30   1
   0   2  17   -1.50    1.00   1
   0   2  18   10.10    1.10   1
   0   2  19   -3.90    1.70   1
   0   2  20    5.80    2.20   1
   0   2  21    3.40    2.60   1
   0   2  22    0.20    2.10   1
   0   2  23   -3.20    2.90   1
   0   3   0    0.60    0.20   1
   0   3   1 1984.30   17.70   1
   0   3   2    1.80    0.30   1
   0   3   3 1432.80   13.70   1
   0   3   4    0.40    0.20   1
   0   3   5   33.90    0.50   1
   0   3   6    0.10    0.20   1
   0   3   7 1453.90   12.40   1
   0   3   8    1.10    0.20   1
   0   3   9  110.00    1.40   1
   0   3  10    0.40    0.40   1
   0   3  11 1385.20   13.50   1
   0   3  12    0.10    0.40   1
   0   3  13  185.30    2.40   1
   0   3  14   -0.10    0.40   1
   0   3  15  199.90    2.80   1
   0   3  16   -0.40    0.70   1
   0   3  17  347.30    6.00   1
   0   3  18   -0.60    1.40   1
   0   3  19   11.90    1.60   1
   0   3  20    0.60    1.60   1
   0   3  21  165.50    6.60   1
   0   3  22    5.70    2.80   1
   0   3  23    3.80    3.40   1
   0   4   0   23.10    0.60   1
   0   4   1    0.30    0.20   1
   0   4   2   33.00    0.60   1
   0   4   3    0.00    0.30   1
   0   4   4   26.70    0.60   1
   0   4   5   -0.20    0.30   1
   0   4   6    9.70    0.30   1
   0   4   7    0.20    0.30   1
   0   4   8    1.60    0.30   1
   0   4   9   -0.20    0.30   1
   0   4  10  169.90    2.10   1
   0   4  11    0.20    0.40   1
   0   4  12  399.80    4.80   1
   0   4  13    0.50    0.50   1
   0   4  14   96.00    1.70   1
   0   4  15    0.00    0.60   1
   0   4  16   92.00    2.40   1
   0   4  17    1.60    1.50   1
   0   4  18   68.90    2.90   1
   0   4  19   -0.40    1.40   1
   0   4  20   58.30    2.90   1
   0   4  21    1.20    2.40   1
   0   4  22  106.70    5.30   1
   0   4  23   -1.50    3.80   1
   0   5   0    0.40    0.30   1
   0   5   1   38.60    0.60   1
   0   5   2    0.20    0.30   1
   0   5   3  208.50    2.20   1
   0   5   4   -0.20    0.30   1
   0   5   5   13.60    0.50   1
   0   5   6   -0.40    0.30   1
   0   5   7  239.30    2.40   1
   0   5   8    0.70    0.30   1
   0   5   9   25.80    0.60   1
   0   5  10    1.10    0.30   1
   0   5  11  110.70    1.80   1
   0   5  12   -0.30    0.50   1
   0   5  13  138.80    2.40   1
   0   5  14   -0.40    0.50   1
   0   5  15   10.50    0.90   1
   0   5  16   -1.30    0.80   1
   0   5  17   62.50    2.70   1
   0   5  18    0.00    1.60   1
   0   5  19    1.80    1.60   1
   0   5  20   -2.10    1.60   1
   0   5  21   18.80    2.80   1
   0   5  22    2.30    2.60   1
   0   6   0 1430.40   16.80   1
   0   6   1    0.60    0.20   1
   0   6   2    5.80    0.40   1
   0   6   3    0.70    0.40   1
   0   6   4  929.30    9.30   1
   0   6   5    1.40    0.40   1
   0   6   6  402.90    3.80   1
   0   6   7    0.70    0.40   1
   0   6   8  143.30    1.80   1
   0   6   9    1.00    0.40   1
   0   6  10  298.50    4.00   1
   0   6  11    0.20    0.50   1
   0   6  12  205.50    3.00   1
   0   6  13    0.00    0.60   1
   0   6  14  317.00    4.80   1
   0   6  15    0.90    0.70   1
   0   6  16   18.20    1.70   1
   0   6  17   -0.10    1.60   1
   0   6  18   77.30    3.30   1
   0   6  19   -0.30    1.60   1
   0   6  20   13.50    2.50   1
   0   6  21    1.30    2.40   1
   0   6  22   59.90    4.50   1
   0   7   0   -0.30    0.40   1
   0   7   1   24.00    0.50   1
   0   7   2    0.40    0.30   1
   0   7   3   74.20    1.20   1
   0   7   4    0.10    0.50   1
   0   7   5   90.60    1.30   1
   0   7   6   -0.10    0.40   1
   0   7   7   48.30    0.90   1
   0   7   8    0.70    0.50   1
   0   7   9  177.90    2.40   1
   0   7  10    0.50    0.40   1
   0   7  11  125.20    1.80   1
   0   7  12    0.20    0.60   1
   0   7  13   23.40    0.90   1
   0   7  14    1.20    0.80   1
   0   7  15  193.90    3.80   1
   0   7  16   -1.40    1.60   1
   0   7  17   -1.90    1.70   1
   0   7  18   -0.30    1.60   1
   0   7  19  126.10    4.80   1
   0   7  20   -3.00    2.40   1
   0   7  21    1.10    2.20   1
   0   8   0 1527.10   21.40   1
   0   8   1    3.60    0.40   1
   0   8   2  282.60    3.00   1
   0   8   3    0.70    0.50   1
   0   8   4  412.90    4.90   1
   0   8   5    2.70    0.60   1
   0   8   6  169.20    2.10   1
   0   8   7    0.30    0.50   1
   0   8   8  218.30    3.30   1
   0   8   9    0.90    0.60   1
   0   8  10  257.30    3.70   1
   0   8  11    1.40    0.60   1
   0   8  12    8.80    0.50   1
   0   8  13    0.00    0.80   1
   0   8  14  184.70    3.70   1
   0   8  15   -0.70    1.50   1
   0   8  16   -1.10    1.50   1
   0   8  17    0.20    1.80   1
   0   8  18  132.80    4.70   1
   0   8  19    1.70    2.40   1
   0   8  20   70.70    4.60   1
   0   9   0    0.20    0.50   1
   0   9   1  134.80    1.80   1
   0   9   2    0.80    0.40   1
   0   9   3  172.20    2.20   1
   0   9   4    0.00    0.60   1
   0   9   5    0.10    0.60   1
   0   9   6    1.10    0.60   1
   0   9   7  123.00    2.20   1
   0   9   8    0.60    0.50   1
   0   9   9   24.90    0.80   1
   0   9  10    0.60    0.70   1
   0   9  11  100.80    2.30   1
   0   9  12    0.50    1.00   1
   0   9  13   17.00    1.20   1
   0   9  14    0.70    1.20   1
   0   9  15   15.30    1.90   1
   0   9  16    1.70    1.70   1
   0   9  17   50.50    3.10   1
   0   9  18    0.90    2.80   1
   0   9  19    2.20    3.20   1
   0   9  20    0.00    3.40   1
   0  10   0   96.80    2.10   1
   0  10   1    0.20    0.50   1
   0  10   2   37.80    1.00   1
   0  10   3   -0.30    0.40   1
   0  10   4   23.00    0.80   1
   0  10   5    0.40    0.40   1
   0  10   6    5.30    0.70   1
   0  10   7   -0.10    0.70   1
   0  10   8  133.10    2.80   1
   0  10   9    1.70    0.90   1
   0  10  10    8.70    0.90   1
   0  10  11    0.20    0.80   1
   0  10  12   34.10    1.80   1
   0  10  13    0.10    1.10   1
   0  10  14   20.80    2.40   1
   0  10  15   -1.50    2.70   1
   0  10  16   70.80    5.60   1
   0  10  17    2.50    2.80   1
   0  10  18   74.60    4.70   1
   0  10  19    1.50    3.40   1
   0  11   0   -1.40    0.60   1
   0  11   1  221.70    3.90   1
   0  11   2    4.90    0.80   1
   0  11   3  525.70    8.20   1
   0  11   4    1.70    0.70   1
   0  11   5   17.90    1.10   1
   0  11   6    1.80    1.00   1
   0  11   7  438.90    7.70   1
   0  11   8    2.10    1.00   1
   0  11   9   10.80    1.20   1
   0  11  10   -0.30    1.00   1
   0  11  11  280.70    6.70   1
   0  11  12    3.20    1.50   1
   0  11  13  118.20    5.40   1
   0  11  14   -2.50    2.40   1
   0  11  15   84.50    5.40   1
   0  11  16    3.20    2.80   1
   0  11  17  110.70    6.10   1
   0  11  18    7.30    4.00   1
   0  12   0   59.30    3.70   1
   0  12   1    1.80    1.20   1
   0  12   2    2.50    1.20   1
   0  12   3   -0.40    1.40   1
   0  12   4   10.60    1.70   1
   0  12   5    1.10    1.10   1
   0  12   6    5.00    1.00   1
   0  12   7   -0.50    0.90   1
   0  12   8   37.10    1.70   1
   0  12   9   -0.10    1.00   1
   0  12  10  101.90    3.20   1
   0  12  11   -0.80    1.40   1
   0  12  12   20.30    2.60   1
   0  12  13    4.90    3.00   1
   0  12  14    3.40    3.30   1
   0  12  15   -0.40    2.70   1
   0  12  16    7.60    3.70   1
   0  13   0    1.00    2.60   1
   0  13   1    9.30    2.00   1
   0  13   2   -1.10    1.80   1
   0  13   3   31.00    2.30   1
   0  13   4   -0.50    1.30   1
   0  13   5    7.50    1.50   1
   0  13   6    1.50    1.40   1
   0  13   7   10.40    1.60   1
   0  13   8   -0.30    1.30   1
   0  13   9   22.30    1.90   1
   0  13  10   -1.90    1.80   1
   0  13  11   12.70    2.70   1
   0  13  12   -0.50    2.50   1
   0  13  13    9.40    3.00   1
   0  13  14    3.10    3.60   1
   0  13  15   51.80    5.20   1
   0  14   0  370.70   14.10   1
   0  14   1    1.60    2.10   1
   0  14   2   10.80    1.90   1
   0  14   3    6.00    1.90   1
   0  14   4  371.30    8.10   1
   0  14   5    7.20    1.60   1
   0  14   6  132.60    3.90   1
   0  14   7    0.70    1.60   1
   0  14   8   80.40    3.70   1
   0  14   9    1.20    1.80   1
   0  14  10   91.70    5.50   1
   0  14  11    3.90    3.30   1
   0  14  12   41.30    4.60   1
   0  14  13    1.50    3.20   1
   0  15   0   -2.10    3.40   1
   0  15   1    0.30    2.00   1
   0  15   2    0.50    2.50   1
   0  15   3    2.60    1.70   1
   0  15   4    0.20    1.80   1
   0  15   5    2.80    1.90   1
   0  15   6    0.60    1.90   1
   0  15   7    1.50    1.90   1
   0  15   8    1.80    2.20   1
   0  15   9   23.50    4.60   1
   0  15  10   -9.00    5.00   1
   0  16   0   16.00    3.40   1
   0  16   1    0.50    2.40   1
   0  16   2    7.50    2.40   1
   0  16   3   -2.90    2.30   1
   0  16   4    5.10    2.70   1
   0  16   5   -1.80    2.20   1
   0  16   6   -0.80    2.80   1
   1   0   0    0.30    0.20   1
   1   0   1   53.90    0.60   1
   1   0   2   14.60    0.20   1
   1   0   3  639.10    5.20   1
   1   0   4   10.60    0.30   1
   1   0   5  328.60    2.90   1
   1   0   6  697.40    6.10   1
   1   0   7   57.10    0.70   1
   1   0   8   11.30    0.30   1
   1   0   9  224.60    2.30   1
   1   0  10    0.70    0.30   1
   1   0  11  153.40    1.70   1
   1   0  12   10.60    0.40   1
   1   0  13  429.90    4.40   1
   1   0  14   10.10    0.50   1
   1   0  15    0.80    0.40   1
   1   0  16    0.20    0.40   1
   1   0  17  144.00    2.80   1
   1   0  18   29.60    1.90   1
   1   0  19   -0.90    1.10   1
   1   0  20    1.60    1.40   1
   1   0  21  237.10    8.20   1
   1   0  22   -1.30    2.60   1
   1   0  23   52.00    4.50   1
   1   1   0    0.40    0.10   1
   1   1   1   43.20    0.50   1
  -1  -1  -1   43.80    0.50   1
   1   1   2 1898.50   14.30   1
  -1  -1  -2 1904.70   14.80   1
   1   1   3   27.30    0.40   1
  -1  -1  -3   27.20    0.40   1
   1   1   4  173.30    1.70   1
  -1  -1  -4  171.50    1.50   1
   1   1   5   49.80    0.70   1
  -1  -1  -5   51.50    0.60   1
   1   1   6  436.50    4.10   1
  -1  -1  -6  438.00    4.10   1
   1   1   7    7.10    0.30   1
  -1  -1  -7    7.10    0.40   1
   1   1   8  508.60    4.80   1
  -1  -1  -8  509.40    4.60   1
   1   1   9   12.20    0.40   1
  -1  -1  -9   12.40    0.40   1
   1   1  10  172.20    2.00   1
  -1  -1 -10  174.70    2.20   1
   1   1  11    9.60    0.30   1
  -1  -1 -11    9.10    0.50   1
   1   1  12  383.30    4.00   1
  -1  -1 -12  382.10    4.70   1
   1   1  13    0.40    0.20   1
  -1  -1 -13    0.10    0.40   1
   1   1  14    4.90    0.40   1
  -1  -1 -14    5.50    0.50   1
   1   1  15    1.10    0.40   1
  -1  -1 -15    1.40    0.40   1
   1   1  16  187.70    3.00   1
  -1  -1 -16  184.20    2.50   1
   1   1  17   -0.90    1.00   1
  -1  -1 -17    0.30    0.70   1
   1   1  18   29.60    2.00   1
  -1  -1 -18   33.70    2.00   1
   1   1  19    4.40    1.30   1
  -1  -1 -19    4.80    1.40   1
   1   1  20   68.10    3.30   1
  -1  -1 -20   67.40    3.30   1
   1   1  21    1.50    2.10   1
  -1  -1 -21    4.50    2.40   1
   1   1  22   25.40    3.20   1
  -1  -1 -22   24.30    3.00   1
   1   1  23    5.90    3.30   1
  -1  -1 -23   -3.20    2.90   1
   1   2   0   -0.10    0.20   1
   1   2   1  132.80    1.30   1
  -1  -2  -1  135.60    1.20   1
   1   2   2   40.80    0.50   1
  -1  -2  -2   39.90    0.50   1
   1   2   3  281.80    2.50   1
  -1  -2  -3  278.30    2.60   1
   1   2   4   43.50    0.60   1
  -1  -2  -4   44.00    0.60   1
   1   2   5  360.90    3.50   1
  -1  -2  -5  358.20    3.70   1
   1   2   6   14.10    0.40   1
  -1  -2  -6   12.80    0.40   1
   1   2   7  158.10    1.80   1
  -1  -2  -7  155.10    1.80   1
   1   2   8   70.30    1.10   1
  -1  -2  -8   69.50    1.10   1
   1   2   9  145.40    1.90   1
  -1  -2  -9  140.10    1.80   1
   1   2  10    9.60    0.50   1
  -1  -2 -10    8.50    0.50   1
   1   2  11   20.90    0.70   1
  -1  -2 -11   20.40    0.70   1
   1   2  12   33.60    1.00   1
  -1  -2 -12   33.50    0.90   1
   1   2  13  131.80    2.10   1
  -1  -2 -13  130.90    2.00   1
   1   2  14   21.60    0.90   1
  -1  -2 -14   19.00    0.80   1
   1   2  15  136.40    2.50   1
  -1  -2 -15  136.30    2.30   1
   1   2  16    4.00    0.90   1
  -1  -2 -16    5.00    0.70   1
   1   2  17    6.90    1.20   1
  -1  -2 -17    5.80    0.90   1
   1   2  18   16.20    1.50   1
  -1  -2 -18   14.60    1.10   1
   1   2  19   36.50    2.30   1
  -1  -2 -19   36.50    2.80   1
   1   2  20    0.40    1.70   1
  -1  -2 -20    0.30    1.80   1
   1   2  21    0.70    1.90   1
  -1  -2 -21   -0.10    2.00   1
   1   2  22   14.30    3.00   1
  -1  -2 -22   11.10    3.20   1
   1   2  23   23.40    3.60   1
  -1  -2 -23   19.80    3.00   1
   1   3   0    3.30    0.30   1
   1   3   1   22.70    0.40   1
  -1  -3  -1   21.60    0.30   1
   1   3   2  255.80    2.60   1
  -1  -3  -2  258.90    2.30   1
   1   3   3   20.00    0.40   1
  -1  -3  -3   19.60    0.40   1
   1   3   4    0.80    0.30   1
  -1  -3  -4    0.80    0.20   1
   1   3   5   65.60    0.80   1
  -1  -3  -5   67.30    0.80   1
   1   3   6  109.30    1.20   1
  -1  -3  -6  106.30    1.10   1
   1   3   7   18.60    0.50   1
  -1  -3  -7   18.90    0.50   1
   1   3   8   12.80    0.50   1
  -1  -3  -8   11.30    0.50   1
   1   3   9   10.10    0.50   1
  -1  -3  -9   10.10    0.50   1
   1   3  10  229.50    2.90   1
  -1  -3 -10  226.00    2.90   1
   1   3  11    1.00    0.50   1
  -1  -3 -11    1.10    0.50   1
   1   3  12   31.20    0.90   1
  -1  -3 -12   29.70    0.90   1
   1   3  13    3.90    0.60   1
  -1  -3 -13    4.20    0.60   1
   1   3  14  173.60    3.40   1
  -1  -3 -14  177.00    2.80   1
   1   3  15    0.40    0.70   1
  -1  -3 -15    1.20    0.60   1
   1   3  16   86.80    2.60   1
  -1  -3 -16   92.20    2.20   1
   1   3  17   19.60    1.50   1
  -1  -3 -17   23.10    1.40   1
   1   3  18   59.60    2.40   1
  -1  -3 -18   56.60    2.20   1
   1   3  19    1.30    1.90   1
  -1  -3 -19    1.30    1.60   1
   1   3  20  141.30    5.40   1
  -1  -3 -20  137.20    4.60   1
   1   3  21   -0.50    2.00   1
  -1  -3 -21    0.60    2.30   1
   1   3  22    3.30    3.20   1
  -1  -3 -22   11.70    3.10   1
   1   3  23    1.20    3.40   1
  -1  -3 -23    1.40    2.60   1
   1   4   0    1.00    0.20   1
   1   4   1 1239.60   10.60   1
  -1  -4  -1 1227.50    9.50   1
   1   4   2  106.10    1.40   1
  -1  -4  -2  102.90    1.10   1
   1   4   3  198.70    2.20   1
  -1  -4  -3  200.80    2.00   1
   1   4   4  162.30    1.90   1
  -1  -4  -4  162.00    1.70   1
   1   4   5  819.10    7.50   1
  -1  -4  -5  823.90    7.10   1
   1   4   6   29.00    0.60   1
  -1  -4  -6   28.60    0.50   1
   1   4   7   23.40    0.60   1
  -1  -4  -7   24.10    0.50   1
   1   4   8   43.30    0.70   1
  -1  -4  -8   43.50    0.90   1
   1   4   9 1364.40   14.00   1
  -1  -4  -9 1335.50   13.40   1
   1   4  10    2.70    0.50   1
  -1  -4 -10    2.10    0.50   1
   1   4  11  219.80    2.80   1
  -1  -4 -11  217.80    3.00   1
   1   4  12   14.90    0.70   1
  -1  -4 -12   14.50    0.80   1
   1   4  13  268.90    4.10   1
  -1  -4 -13  270.10    3.90   1
   1   4  14   14.70    0.90   1
  -1  -4 -14   13.00    1.00   1
   1   4  15  126.10    2.70   1
  -1  -4 -15  125.60    2.50   1
   1   4  16    5.20    1.10   1
  -1  -4 -16    3.60    1.20   1
   1   4  17   98.30    3.00   1
  -1  -4 -17   97.70    2.70   1
   1   4  18   -0.60    1.30   1
  -1  -4 -18    1.90    1.10   1
   1   4  19  201.10    5.90   1
  -1  -4 -19  212.50    5.00   1
   1   4  20    0.10    2.30   1
  -1  -4 -20   -0.50    1.90   1
   1   4  21    2.10    2.70   1
  -1  -4 -21    1.10    2.40   1
   1   4  22    2.30    2.50   1
  -1  -4 -22   -0.20    2.60   1
   1   5   0    0.00    0.20   1
   1   5   1   21.30    0.60   1
  -1  -5  -1   21.10    0.40   1
   1   5   2   97.70    1.40   1
  -1  -5  -2   97.60    1.10   1
   1   5   3    7.60    0.40   1
  -1  -5  -3    7.10    0.30   1
   1   5   4    0.70    0.30   1
  -1  -5  -4    1.00    0.30   1
   1   5   5   47.90    0.80   1
  -1  -5  -5   50.60    0.70   1
   1   5   6    1.80    0.40   1
  -1  -5  -6    2.40    0.30   1
   1   5   7    1.00    0.40   1
  -1  -5  -7    1.50    0.30   1
   1   5   8  103.20    1.50   1
  -1  -5  -8  100.20    1.20   1
   1   5   9   21.40    0.60   1
  -1  -5  -9   20.40    0.70   1
   1   5  10    1.00    0.30   1
  -1  -5 -10    0.00    0.40   1
   1   5  11   17.40    0.80   1
  -1  -5 -11   18.00    0.90   1
   1   5  12   31.30    1.00   1
  -1  -5 -12   31.80    1.10   1
   1   5  13    0.60    0.60   1
  -1  -5 -13    1.70    0.80   1
   1   5  14   21.30    1.10   1
  -1  -5 -14   22.90    1.30   1
   1   5  15   18.50    1.40   1
  -1  -5 -15   16.30    1.30   1
   1   5  16    0.60    1.10   1
  -1  -5 -16    1.50    1.00   1
   1   5  17    4.80    1.30   1
  -1  -5 -17    2.00    1.00   1
   1   5  18   44.80    2.60   1
  -1  -5 -18   42.80    2.30   1
   1   5  19   -1.70    1.90   1
  -1  -5 -19    1.50    1.60   1
   1   5  20   -3.20    1.80   1
  -1  -5 -20    0.50    2.10   1
   1   5  21    3.30    2.50   1
  -1  -5 -21    4.40    2.20   1
   1   5  22   15.40    3.80   1
  -1  -5 -22    5.60    2.60   1
   1   6   0    0.10    0.30   1
   1   6   1  123.60    1.60   1
  -1  -6  -1  122.30    1.30   1
   1   6   2   37.10    0.80   1
  -1  -6  -2   37.00    0.60   1
   1   6   3    9.60    0.50   1
  -1  -6  -3    9.20    0.30   1
   1   6   4    3.20    0.50   1
  -1  -6  -4    2.50    0.30   1
   1   6   5    0.20    0.40   1
  -1  -6  -5    0.90    0.30   1
   1   6   6   21.70    0.60   1
  -1  -6  -6   22.40    0.60   1
   1   6   7  120.90    1.80   1
  -1  -6  -7  120.30    1.60   1
   1   6   8   37.30    0.90   1
  -1  -6  -8   35.90    0.80   1
   1   6   9  124.60    1.80   1
  -1  -6  -9  126.50    1.70   1
   1   6  10    0.70    0.40   1
  -1  -6 -10   -0.30    0.50   1
   1   6  11   14.40    0.50   1
  -1  -6 -11   16.40    0.70   1
   1   6  12   12.10    0.80   1
  -1  -6 -12   11.50    0.90   1
   1   6  13   40.50    1.30   1
  -1  -6 -13   37.80    1.50   1
   1   6  14    6.00    0.70   1
  -1  -6 -14    4.20    1.00   1
   1   6  15   34.50    1.80   1
  -1  -6 -15   36.10    1.90   1
   1   6  16    1.00    1.20   1
  -1  -6 -16    0.30    1.10   1
   1   6  17  127.90    3.60   1
  -1  -6 -17  123.50    3.30   1
   1   6  18   24.80    2.40   1
  -1  -6 -18   29.30    2.10   1
   1   6  19    5.10    2.00   1
  -1  -6 -19    3.20    1.80   1
   1   6  20   -0.70    2.70   1
  -1  -6 -20   -1.40    2.30   1
   1   6  21   41.60    3.50   1
  -1  -6 -21   45.60    3.50   1
   1   6  22    2.80    2.80   1
  -1  -6 -22    0.30    2.80   1
   1   7   0    1.00    0.30   1
   1   7   1    2.60    0.50   1
  -1  -7  -1    2.50    0.40   1
   1   7   2 1445.20   14.40   1
  -1  -7  -2 1450.90   11.90   1
   1   7   3   22.50    0.80   1
  -1  -7  -3   21.70    0.50   1
   1   7   4  208.70    2.70   1
  -1  -7  -4  209.70    2.10   1
   1   7   5    1.30    0.50   1
  -1  -7  -5    2.00    0.30   1
   1   7   6  681.50    7.60   1
  -1  -7  -6  676.00    6.30   1
   1   7   7    4.40    0.50   1
  -1  -7  -7    3.40    0.30   1
   1   7   8  440.00    6.00   1
  -1  -7  -8  447.90    5.30   1
   1   7   9    7.90    0.60   1
  -1  -7  -9    7.80    0.50   1
   1   7  10  202.20    2.90   1
  -1  -7 -10  204.10    2.60   1
   1   7  11    3.20    0.50   1
  -1  -7 -11    2.20    0.50   1
   1   7  12  453.40    5.50   1
  -1  -7 -12  449.60    6.40   1
   1   7  13   -0.50    0.70   1
  -1  -7 -13   -0.20    1.00   1
   1   7  14   14.20    1.00   1
  -1  -7 -14   12.10    1.20   1
   1   7  15    3.70    1.10   1
  -1  -7 -15    1.70    1.10   1
   1   7  16  280.60    6.00   1
  -1  -7 -16  284.20    6.30   1
   1   7  17   -0.90    1.90   1
  -1  -7 -17    0.30    2.00   1
   1   7  18    9.10    1.90   1
  -1  -7 -18    9.70    1.90   1
   1   7  19    4.90    1.70   1
  -1  -7 -19    0.00    1.90   1
   1   7  20  106.90    4.60   1
  -1  -7 -20  103.00    4.20   1
   1   7  21   -3.70    2.50   1
  -1  -7 -21    4.20    3.10   1
   1   8   0    0.10    0.40   1
   1   8   1   13.40    0.70   1
  -1  -8  -1   13.90    0.60   1
   1   8   2    3.70    0.60   1
  -1  -8  -2    3.70    0.50   1
   1   8   3   41.60    1.10   1
  -1  -8  -3   43.80    0.80   1
   1   8   4   45.60    1.10   1
  -1  -8  -4   43.90    0.80   1
   1   8   5   53.80    1.30   1
  -1  -8  -5   54.60    1.10   1
   1   8   6   21.70    1.10   1
  -1  -8  -6   23.00    0.80   1
   1   8   7   29.30    1.10   1
  -1  -8  -7   27.70    0.80   1
   1   8   8    3.50    0.60   1
  -1  -8  -8    3.70    0.50   1
   1   8   9    0.30    0.60   1
  -1  -8  -9    0.30    0.40   1
   1   8  10    2.60    0.60   1
  -1  -8 -10    2.70    0.50   1
   1   8  11   61.70    1.40   1
  -1  -8 -11   59.70    1.30   1
   1   8  12    0.10    0.60   1
  -1  -8 -12    1.30    0.80   1
   1   8  13   58.20    1.80   1
  -1  -8 -13   63.60    2.20   1
   1   8  14    0.20    1.10   1
  -1  -8 -14   -0.30    1.10   1
   1   8  15    2.50    1.10   1
  -1  -8 -15    0.60    1.20   1
   1   8  16    2.50    2.20   1
  -1  -8 -16    5.80    1.80   1
   1   8  17   31.10    2.40   1
  -1  -8 -17   33.10    2.60   1
   1   8  18    4.30    2.00   1
  -1  -8 -18    7.00    2.30   1
   1   8  19    9.60    2.90   1
  -1  -8 -19    9.80    2.30   1
   1   8  20   -0.70    2.40   1
  -1  -8 -20    4.20    2.70   1
   1   9   0   -0.10    0.70   1
   1   9   1   47.80    1.40   1
  -1  -9  -1   48.90    1.10   1
   1   9   2    9.60    0.90   1
  -1  -9  -2    9.40    0.60   1
   1   9   3    4.20    0.80   1
  -1  -9  -3    5.00    0.60   1
   1   9   4   13.80    0.90   1
  -1  -9  -4   13.40    0.70   1
   1   9   5   14.00    1.00   1
  -1  -9  -5   14.70    0.60   1
   1   9   6    1.30    0.80   1
  -1  -9  -6    0.50    0.50   1
   1   9   7   13.10    1.00   1
  -1  -9  -7   13.80    0.90   1
   1   9   8   11.40    1.00   1
  -1  -9  -8   10.30    0.80   1
   1   9   9    7.40    0.70   1
  -1  -9  -9    8.80    0.70   1
   1   9  10    9.60    0.90   1
  -1  -9 -10   11.40    0.70   1
   1   9  11    2.50    0.70   1
  -1  -9 -11    2.60    0.60   1
   1   9  12    3.80    0.70   1
  -1  -9 -12    4.80    0.90   1
   1   9  13    2.10    1.00   1
  -1  -9 -13    2.80    1.10   1
   1   9  14   17.10    1.50   1
  -1  -9 -14   18.50    1.60   1
   1   9  15    1.80    1.70   1
  -1  -9 -15    2.80    1.50   1
   1   9  16   -1.00    2.20   1
  -1  -9 -16    0.50    2.30   1
   1   9  17    1.90    2.20   1
  -1  -9 -17   -1.00    2.00   1
   1   9  18   19.80    3.20   1
  -1  -9 -18   19.50    2.90   1
   1   9  19    8.70    3.20   1
  -1  -9 -19    8.30    2.50   1
   1  10   0    3.70    0.80   1
   1  10   1  288.90    4.20   1
  -1 -10  -1  285.10    3.90   1
   1  10   2    7.10    0.50   1
  -1 -10  -2    6.80    0.60   1
   1  10   3  192.00    3.40   1
  -1 -10  -3  190.30    3.30   1
   1  10   4    4.50    0.90   1
  -1 -10  -4    3.80    0.70   1
   1  10   5  671.40    9.10   1
  -1 -10  -5  671.00    8.40   1
   1  10   6    3.10    1.00   1
  -1 -10  -6    3.00    0.80   1
   1  10   7    4.90    0.90   1
  -1 -10  -7    3.10    0.50   1
   1  10   8   24.20    1.40   1
  -1 -10  -8   26.40    1.20   1
   1  10   9  296.20    5.60   1
  -1 -10  -9  298.10    4.90   1
   1  10  10    2.00    0.90   1
  -1 -10 -10    1.40    0.80   1
   1  10  11   13.90    1.10   1
  -1 -10 -11   14.00    1.40   1
   1  10  12    9.40    1.30   1
  -1 -10 -12    7.00    1.30   1
   1  10  13  250.60    6.30   1
  -1 -10 -13  254.90    5.80   1
   1  10  14    4.10    1.50   1
  -1 -10 -14    2.80    1.40   1
   1  10  15  121.20    5.00   1
  -1 -10 -15  131.30    4.50   1
   1  10  16   -2.40    2.30   1
  -1 -10 -16   -2.70    2.00   1
   1  10  17   21.90    3.40   1
  -1 -10 -17   26.20    2.80   1
   1  10  18    8.90    3.00   1
  -1 -10 -18    3.20    2.70   1
   1  11   0    0.00    0.70   1
   1  11   1    0.30    0.80   1
  -1 -11  -1    0.60    0.60   1
   1  11   2   30.10    1.30   1
  -1 -11  -2   29.00    1.20   1
   1  11   3    1.40    0.50   1
  -1 -11  -3    0.10    0.80   1
   1  11   4    1.80    1.00   1
  -1 -11  -4    3.20    1.00   1
   1  11   5    0.40    1.10   1
  -1 -11  -5   -0.40    0.80   1
   1  11   6   53.70    2.00   1
  -1 -11  -6   51.00    1.80   1
   1  11   7    1.30    1.10   1
  -1 -11  -7   -0.70    0.80   1
   1  11   8    1.60    1.10   1
  -1 -11  -8    1.30    1.00   1
   1  11   9   -0.50    1.00   1
  -1 -11  -9    1.40    0.90   1
   1  11  10   47.10    1.60   1
  -1 -11 -10   44.40    1.90   1
   1  11  11   -1.10    1.20   1
  -1 -11 -11   -0.90    1.40   1
   1  11  12    7.30    2.00   1
  -1 -11 -12    6.20    1.60   1
   1  11  13    2.50    2.00   1
  -1 -11 -13   -0.60    1.60   1
   1  11  14   50.00    3.70   1
  -1 -11 -14   47.50    2.80   1
   1  11  15    2.30    2.50   1
  -1 -11 -15    1.70    2.00   1
   1  11  16   34.20    4.10   1
  -1 -11 -16   33.20    3.20   1
   1  11  17    0.00    3.20   1
  -1 -11 -17    3.10    2.40   1
   1  12   0    0.00    1.10   1
   1  12   1   58.80    2.30   1
  -1 -12  -1   57.70    2.80   1
   1  12   2   -1.20    1.20   1
  -1 -12  -2   -0.20    1.10   1
   1  12   3   -0.70    1.40   1
  -1 -12  -3    0.10    1.60   1
   1  12   4    0.60    1.20   1
  -1 -12  -4    4.30    1.50   1
   1  12   5   19.60    1.70   1
  -1 -12  -5   21.90    1.80   1
   1  12   6    4.30    1.30   1
  -1 -12  -6    4.50    1.10   1
   1  12   7   -2.10    1.20   1
  -1 -12  -7   -0.30    0.90   1
   1  12   8   13.20    1.40   1
  -1 -12  -8   14.40    1.30   1
   1  12   9   66.10    2.50   1
  -1 -12  -9   63.40    2.70   1
   1  12  10    2.90    1.10   1
  -1 -12 -10   -1.20    1.50   1
   1  12  11   44.10    3.10   1
  -1 -12 -11   48.60    2.70   1
   1  12  12    9.00    2.00   1
  -1 -12 -12    7.80    2.00   1
   1  12  13    3.80    3.10   1
  -1 -12 -13   -2.00    2.20   1
   1  12  14    4.30    2.90   1
  -1 -12 -14    6.90    2.40   1
   1  12  15    9.80    3.30   1
  -1 -12 -15   11.70    2.70   1
   1  12  16   -1.10    3.30   1
  -1 -12 -16   -2.90    2.40   1
   1  13   0   -1.70    1.10   1
   1  13   1    3.90    1.20   1
  -1 -13  -1    5.40    1.40   1
   1  13   2  233.80    5.60   1
  -1 -13  -2  241.40    7.00   1
   1  13   3   10.10    1.50   1
  -1 -13  -3   11.40    1.60   1
   1  13   4   33.40    2.20   1
  -1 -13  -4   28.30    2.20   1
   1  13   5    8.00    1.50   1
  -1 -13  -5    9.20    1.70   1
   1  13   6  150.80    4.20   1
  -1 -13  -6  151.40    4.50   1
   1  13   7    4.90    1.50   1
  -1 -13  -7    1.60    1.50   1
   1  13   8   89.40    3.20   1
  -1 -13  -8   90.20    3.00   1
   1  13   9   22.70    1.80   1
  -1 -13  -9   20.40    2.00   1
   1  13  10   44.30    3.30   1
  -1 -13 -10   39.00    3.00   1
   1  13  11   11.00    2.30   1
  -1 -13 -11    6.90    2.30   1
   1  13  12  102.90    6.30   1
  -1 -13 -12  103.30    5.90   1
   1  13  13   -6.50    3.60   1
  -1 -13 -13    6.50    4.80   1
   1  13  14    2.90    3.50   1
  -1 -13 -14    3.00    4.50   1
   1  14   0   -0.70    1.50   1
   1  14   1   40.90    2.30   1
  -1 -14  -1   37.50    2.50   1
   1  14   2   -0.90    1.50   1
  -1 -14  -2   -1.20    1.80   1
   1  14   3    5.40    1.60   1
  -1 -14  -3    4.50    2.00   1
   1  14   4    1.10    1.90   1
  -1 -14  -4    2.10    2.10   1
   1  14   5   16.80    1.90   1
  -1 -14  -5   14.00    2.30   1
   1  14   6    4.60    2.00   1
  -1 -14  -6    0.60    2.20   1
   1  14   7   44.70    2.60   1
  -1 -14  -7   36.10    2.30   1
   1  14   8    0.50    1.80   1
  -1 -14  -8    0.10    2.30   1
   1  14   9   46.00    3.50   1
  -1 -14  -9   49.30    4.10   1
   1  14  10   -0.60    2.20   1
  -1 -14 -10    1.10    2.80   1
   1  14  11    0.10    3.70   1
  -1 -14 -11   -1.00    4.70   1
   1  14  12   -3.50    3.70   1
  -1 -14 -12   -0.30    4.90   1
   1  15   0    1.30    2.10   1
   1  15   1    1.80    2.00   1
  -1 -15  -1   -0.50    1.90   1
   1  15   2  110.90    4.10   1
  -1 -15  -2  109.70    4.60   1
   1  15   3    2.60    1.90   1
  -1 -15  -3    3.60    2.20   1
   1  15   4   19.20    2.40   1
  -1 -15  -4   11.40    2.50   1
   1  15   5    3.70    2.10   1
  -1 -15  -5   -3.30    1.90   1
   1  15   6   43.40    2.80   1
  -1 -15  -6   32.70    3.10   1
   1  15   7   -0.50    2.00   1
  -1 -15  -7   -2.00    2.30   1
   1  15   8   46.30    3.80   1
  -1 -15  -8   40.90    4.10   1
   1  15   9    0.70    2.80   1
  -1 -15  -9    0.70    3.10   1
   1  15  10   17.70    7.00   1
   1  16   0    3.50    2.20   1
   1  16   1   49.00    3.50   1
  -1 -16  -1   53.20    3.70   1
   1  16   2    4.10    2.80   1
  -1 -16  -2   11.20    2.80   1
   1  16   3   -2.20    2.10   1
  -1 -16  -3    2.10    2.40   1
   1  16   4    3.10    2.20   1
  -1 -16  -4    5.80    2.60   1
   1  16   5   27.10    2.80   1
  -1 -16  -5   24.90    3.10   1
   1  16   6    1.40    3.20   1
  -1 -16  -6    0.40    2.20   1
   2   0   0  707.50    8.60   1
   2   0   1   75.90    0.90   1
   2   0   2    7.80    0.30   1
   2   0   3  415.40    3.50   1
   2   0   4  840.90    6.70   1
   2   0   5    1.40    0.30   1
   2   0   6   85.20    0.90   1
   2   0   7  120.70    1.30   1
   2   0   8  995.60    8.40   1
   2   0   9    2.60    0.30   1
   2   0  10  808.60    6.90   1
   2   0  11   18.90    0.50   1
   2   0  12    6.10    0.40   1
   2   0  13   22.10    0.50   1
   2   0  14  209.30    3.60   1
   2   0  15   19.40    1.10   1
   2   0  16   17.30    1.10   1
   2   0  17   19.80    1.60   1
   2   0  18  235.00    6.30   1
   2   0  19    0.70    1.30   1
   2   0  20    8.30    1.70   1
   2   0  21    9.80    1.90   1
   2   0  22   60.90    3.90   1
   2   0  23    3.80    2.60   1
   2   1   0  335.80    3.10   1
   2   1   1   63.40    0.80   1
  -2  -1  -1   64.40    0.70   1
   2   1   2    5.30    0.30   1
  -2  -1  -2    4.60    0.30   1
   2   1   3   39.00    0.60   1
  -2  -1  -3   39.90    0.60   1
   2   1   4    4.00    0.30   1
  -2  -1  -4    4.00    0.30   1
   2   1   5   74.10    0.90   1
  -2  -1  -5   73.10    0.90   1
   2   1   6   84.40    1.00   1
  -2  -1  -6   83.40    1.00   1
   2   1   7   85.60    1.00   1
  -2  -1  -7   86.70    1.00   1
   2   1   8   15.20    0.40   1
  -2  -1  -8   15.50    0.40   1
   2   1   9   26.00    0.70   1
  -2  -1  -9   24.80    0.60   1
   2   1  10   79.00    1.20   1
  -2  -1 -10   78.30    1.30   1
   2   1  11   69.10    1.10   1
  -2  -1 -11   67.70    1.20   1
   2   1  12    0.60    0.40   1
  -2  -1 -12   -0.50    0.40   1
   2   1  13   20.60    0.70   1
  -2  -1 -13   20.70    0.80   1
   2   1  14   11.00    0.60   1
  -2  -1 -14   10.90    0.70   1
   2   1  15   97.30    2.40   1
  -2  -1 -15   91.80    2.00   1
   2   1  16   27.90    1.30   1
  -2  -1 -16   29.50    1.30   1
   2   1  17    2.30    1.30   1
  -2  -1 -17    2.70    1.20   1
   2   1  18    3.80    1.30   1
  -2  -1 -18    3.00    1.30   1
   2   1  19   89.40    3.30   1
  -2  -1 -19   92.50    3.20   1
   2   1  20   30.10    2.20   1
  -2  -1 -20   30.10    2.30   1
   2   1  21   10.50    2.40   1
  -2  -1 -21   12.10    2.30   1
   2   1  22    1.50    2.40   1
  -2  -1 -22   -0.80    2.50   1
   2   2   0    1.20    0.30   1
   2   2   1  316.90    2.80   1
  -2  -2  -1  322.60    2.90   1
   2   2   2    0.60    0.30   1
  -2  -2  -2    0.50    0.30   1
   2   2   3  107.10    1.10   1
  -2  -2  -3  107.10    1.10   1
   2   2   4   71.70    0.80   1
  -2  -2  -4   70.70    0.80   1
   2   2   5    0.80    0.30   1
  -2  -2  -5    0.50    0.30   1
   2   2   6  145.70    1.60   1
  -2  -2  -6  147.40    1.50   1
   2   2   7   98.80    1.20   1
  -2  -2  -7   97.40    1.20   1
   2   2   8   54.70    0.90   1
  -2  -2  -8   52.10    0.90   1
   2   2   9   51.70    0.90   1
  -2  -2  -9   53.00    1.00   1
   2   2  10    4.10    0.50   1
  -2  -2 -10    4.20    0.50   1
   2   2  11   83.80    1.40   1
  -2  -2 -11   84.30    1.50   1
   2   2  12    9.00    0.80   1
  -2  -2 -12    8.60    0.60   1
   2   2  13   10.80    0.80   1
  -2  -2 -13   12.10    0.80   1
   2   2  14   26.10    1.20   1
  -2  -2 -14   26.60    1.00   1
   2   2  15    0.80    0.80   1
  -2  -2 -15    0.20    0.70   1
   2   2  16   97.50    2.60   1
  -2  -2 -16  103.50    2.50   1
   2   2  17   28.30    1.90   1
  -2  -2 -17   25.20    1.60   1
   2   2  18   15.60    1.90   1
  -2  -2 -18   14.50    1.50   1
   2   2  19    9.30    1.70   1
  -2  -2 -19    8.00    1.50   1
   2   2  20   17.00    2.10   1
  -2  -2 -20   13.00    1.80   1
   2   2  21   13.20    2.40   1
  -2  -2 -21   10.40    2.10   1
   2   2  22    4.90    3.10   1
  -2  -2 -22    5.60    2.70   1
   2   3   0   15.40    0.40   1
   2   3   1  408.40    3.60   1
  -2  -3  -1  406.50    3.50   1
   2   3   2   10.90    0.40   1
  -2  -3  -2   10.80    0.30   1
   2   3   3  782.90    6.90   1
  -2  -3  -3  796.20    6.40   1
   2   3   4  110.70    1.20   1
  -2  -3  -4  111.90    1.10   1
   2   3   5  125.30    1.30   1
  -2  -3  -5  126.30    1.40   1
   2   3   6   56.40    0.80   1
  -2  -3  -6   57.40    0.80   1
   2   3   7  975.10    9.00   1
  -2  -3  -7  975.90    8.30   1
   2   3   8   37.50    0.80   1
  -2  -3  -8   37.00    0.70   1
   2   3   9   11.00    0.60   1
  -2  -3  -9   10.20    0.60   1
   2   3  10  101.80    1.60   1
  -2  -3 -10   98.70    1.60   1
   2   3  11  409.40    5.10   1
  -2  -3 -11  398.10    4.60   1
   2   3  12   14.30    0.80   1
  -2  -3 -12   12.90    0.70   1
   2   3  13   81.00    2.00   1
  -2  -3 -13   78.90    1.70   1
   2   3  14   59.30    1.60   1
  -2  -3 -14   60.60    1.50   1
   2   3  15  173.40    3.60   1
  -2  -3 -15  176.60    3.20   1
   2   3  16   12.20    1.20   1
  -2  -3 -16   11.90    1.00   1
   2   3  17   87.00    2.60   1
  -2  -3 -17   89.30    2.30   1
   2   3  18    3.50    1.50   1
  -2  -3 -18    5.50    1.40   1
   2   3  19   51.30    2.70   1
  -2  -3 -19   53.40    2.50   1
   2   3  20   10.10    1.90   1
  -2  -3 -20   12.00    1.80   1
   2   3  21   89.80    4.70   1
  -2  -3 -21   83.90    4.30   1
   2   3  22   -1.00    2.70   1
  -2  -3 -22    2.70    2.40   1
   2   4   0   75.00    1.00   1
   2   4   1   56.00    0.90   1
  -2  -4  -1   54.90    0.80   1
   2   4   2   98.50    1.30   1
  -2  -4  -2   96.00    1.10   1
   2   4   3   12.00    0.50   1
  -2  -4  -3   11.30    0.40   1
   2   4   4  754.10    7.10   1
  -2  -4  -4  755.20    6.20   1
   2   4   5   13.40    0.50   1
  -2  -4  -5   13.10    0.40   1
   2   4   6   86.30    1.20   1
  -2  -4  -6   87.50    1.10   1
   2   4   7   52.70    0.90   1
  -2  -4  -7   53.00    0.80   1
   2   4   8  245.60    3.00   1
  -2  -4  -8  251.50    2.70   1
   2   4   9   14.00    0.80   1
  -2  -4  -9   13.50    0.50   1
   2   4  10   94.00    1.60   1
  -2  -4 -10   97.90    1.50   1
   2   4  11   31.80    1.00   1
  -2  -4 -11   31.40    0.90   1
   2   4  12  146.80    2.70   1
  -2  -4 -12  144.70    2.10   1
   2   4  13   16.80    1.10   1
  -2  -4 -13   20.40    1.00   1
   2   4  14  128.80    2.80   1
  -2  -4 -14  119.80    2.30   1
   2   4  15    5.10    1.00   1
  -2  -4 -15    5.40    0.90   1
   2   4  16   23.80    1.60   1
  -2  -4 -16   23.00    1.30   1
   2   4  17    7.20    1.40   1
  -2  -4 -17    7.20    1.10   1
   2   4  18   48.50    2.60   1
  -2  -4 -18   45.10    2.00   1
   2   4  19   10.60    1.90   1
  -2  -4 -19   10.10    1.70   1
   2   4  20   30.50    2.90   1
  -2  -4 -20   34.70    2.60   1
   2   4  21   -0.10    2.60   1
  -2  -4 -21    0.10    2.20   1
   2   4  22  129.00    6.10   1
  -2  -4 -22  129.60    5.10   1
   2   5   0  154.30    1.80   1
   2   5   1   82.40    1.20   1
  -2  -5  -1   82.20    1.10   1
   2   5   2   13.60    0.50   1
  -2  -5  -2   12.70    0.40   1
   2   5   3  217.00    2.60   1
  -2  -5  -3  214.70    2.00   1
   2   5   4   31.60    0.70   1
  -2  -5  -4   31.40    0.60   1
   2   5   5    0.80    0.50   1
  -2  -5  -5    1.60    0.30   1
   2   5   6   51.30    1.00   1
  -2  -5  -6   51.80    0.80   1
   2   5   7  147.70    1.90   1
  -2  -5  -7  152.60    1.60   1
   2   5   8    2.30    0.30   1
  -2  -5  -8    3.40    0.50   1
   2   5   9   33.00    1.00   1
  -2  -5  -9   31.80    0.80   1
   2   5  10  169.60    2.60   1
  -2  -5 -10  170.70    2.40   1
   2   5  11   43.30    1.30   1
  -2  -5 -11   42.40    1.10   1
   2   5  12   -0.70    0.80   1
  -2  -5 -12    0.70    0.70   1
   2   5  13   40.30    1.50   1
  -2  -5 -13   42.70    1.30   1
   2   5  14   14.80    1.30   1
  -2  -5 -14   15.00    1.10   1
   2   5  15    5.30    1.00   1
  -2  -5 -15    5.00    0.90   1
   2   5  16   31.70    1.90   1
  -2  -5 -16   30.90    1.60   1
   2   5  17   35.10    2.00   1
  -2  -5 -17   30.50    1.70   1
   2   5  18    3.40    1.60   1
  -2  -5 -18    2.10    1.10   1
   2   5  19    2.10    2.40   1
  -2  -5 -19   -0.40    1.60   1
   2   5  20   24.40    3.00   1
  -2  -5 -20   22.50    2.60   1
   2   5  21   12.40    3.40   1
  -2  -5 -21   13.20    2.40   1
   2   6   0  398.80    4.10   1
   2   6   1   54.80    1.00   1
  -2  -6  -1   53.90    0.90   1
   2   6   2    1.50    0.40   1
  -2  -6  -2    3.00    0.20   1
   2   6   3  163.80    2.10   1
  -2  -6  -3  162.10    1.60   1
   2   6   4  764.20    8.00   1
  -2  -6  -4  768.60    6.40   1
   2   6   5   10.90    0.60   1
  -2  -6  -5   10.60    0.50   1
   2   6   6  333.10    4.10   1
  -2  -6  -6  335.90    3.40   1
   2   6   7  121.60    1.90   1
  -2  -6  -7  117.60    1.50   1
   2   6   8  112.40    1.90   1
  -2  -6  -8  114.10    1.50   1
   2   6   9    9.90    0.50   1
  -2  -6  -9    8.80    0.50   1
   2   6  10  175.00    3.40   1
  -2  -6 -10  176.70    2.70   1
   2   6  11   28.20    1.30   1
  -2  -6 -11   28.80    1.20   1
   2   6  12   28.80    1.40   1
  -2  -6 -12   29.70    1.40   1
   2   6  13   36.40    1.60   1
  -2  -6 -13   31.30    1.50   1
   2   6  14  244.80    5.00   1
  -2  -6 -14  242.40    5.00   1
   2   6  15    4.20    1.00   1
  -2  -6 -15    3.00    1.00   1
   2   6  16   12.40    1.50   1
  -2  -6 -16   11.90    1.20   1
   2   6  17   15.80    1.70   1
  -2  -6 -17   15.70    1.40   1
   2   6  18   43.40    2.90   1
  -2  -6 -18   41.80    2.00   1
   2   6  19    4.00    2.10   1
  -2  -6 -19    1.00    1.90   1
   2   6  20    6.40    2.90   1
  -2  -6 -20    4.20    2.20   1
   2   6  21   13.30    3.00   1
  -2  -6 -21    5.80    2.80   1
   2   7   0   37.30    0.70   1
   2   7   1  150.00    2.10   1
  -2  -7  -1  147.70    1.70   1
   2   7   2    8.60    0.70   1
  -2  -7  -2    9.60    0.40   1
   2   7   3  179.10    2.60   1
  -2  -7  -3  183.60    2.00   1
   2   7   4    1.20    0.70   1
  -2  -7  -4    1.80    0.40   1
   2   7   5   99.20    1.90   1
  -2  -7  -5   99.90    1.30   1
   2   7   6   23.30    1.00   1
  -2  -7  -6   24.50    0.70   1
   2   7   7  277.80    4.30   1
  -2  -7  -7  286.30    3.50   1
   2   7   8    3.40    0.60   1
  -2  -7  -8    3.40    0.50   1
   2   7   9    6.10    0.60   1
  -2  -7  -9    5.50    0.50   1
   2   7  10   13.00    1.00   1
  -2  -7 -10   13.10    0.80   1
   2   7  11  190.00    4.10   1
  -2  -7 -11  184.40    4.00   1
   2   7  12    2.00    1.00   1
  -2  -7 -12    3.10    1.00   1
   2   7  13    0.40    1.00   1
  -2  -7 -13    0.90    1.00   1
   2   7  14    5.50    1.20   1
  -2  -7 -14    4.60    1.10   1
   2   7  15  134.60    4.10   1
  -2  -7 -15  137.10    3.30   1
   2   7  16   12.30    1.50   1
  -2  -7 -16   11.70    1.40   1
   2   7  17    4.80    1.50   1
  -2  -7 -17    5.70    1.40   1
   2   7  18    2.40    2.00   1
  -2  -7 -18    0.60    1.70   1
   2   7  19  119.10    5.40   1
  -2  -7 -19  113.80    4.30   1
   2   7  20   17.00    3.00   1
  -2  -7 -20   16.10    2.80   1
   2   8   0  249.60    3.10   1
   2   8   1  105.30    2.10   1
  -2  -8  -1  102.70    1.40   1
   2   8   2   15.30    1.00   1
  -2  -8  -2   14.30    0.50   1
   2   8   3   63.30    1.60   1
  -2  -8  -3   64.20    1.10   1
   2   8   4  151.20    2.60   1
  -2  -8  -4  159.10    1.90   1
   2   8   5    1.00    0.70   1
  -2  -8  -5    0.90    0.40   1
   2   8   6   23.00    1.20   1
  -2  -8  -6   20.90    0.70   1
   2   8   7   37.60    1.30   1
  -2  -8  -7   35.60    0.90   1
   2   8   8  216.20    3.70   1
  -2  -8  -8  214.90    2.90   1
   2   8   9   18.60    1.00   1
  -2  -8  -9   17.90    0.70   1
   2   8  10  262.40    4.40   1
  -2  -8 -10  264.30    4.50   1
   2   8  11   32.30    1.50   1
  -2  -8 -11   33.00    1.60   1
   2   8  12    2.50    1.00   1
  -2  -8 -12    1.00    1.00   1
   2   8  13    1.50    1.00   1
  -2  -8 -13    0.80    1.10   1
   2   8  14   35.30    1.70   1
  -2  -8 -14   33.80    1.70   1
   2   8  15    1.10    1.70   1
  -2  -8 -15    0.50    1.20   1
   2   8  16   -0.10    1.50   1
  -2  -8 -16   -0.80    1.30   1
   2   8  17   15.00    2.00   1
  -2  -8 -17   17.90    1.80   1
   2   8  18   46.50    3.60   1
  -2  -8 -18   48.60    2.70   1
   2   8  19    6.30    3.30   1
  -2  -8 -19    3.70    2.30   1
   2   9   0   71.50    1.50   1
   2   9   1   62.80    1.40   1
  -2  -9  -1   65.50    1.30   1
   2   9   2   16.40    1.10   1
  -2  -9  -2   15.10    0.80   1
   2   9   3  142.60    2.90   1
  -2  -9  -3  143.60    1.90   1
   2   9   4   28.40    1.50   1
  -2  -9  -4   29.20    0.70   1
   2   9   5   10.40    1.10   1
  -2  -9  -5    9.80    0.50   1
   2   9   6   41.10    1.50   1
  -2  -9  -6   45.00    0.90   1
   2   9   7  161.70    3.30   1
  -2  -9  -7  166.40    2.20   1
   2   9   8   -0.40    1.00   1
  -2  -9  -8    0.50    0.50   1
   2   9   9   11.70    1.10   1
  -2  -9  -9   11.10    0.80   1
   2   9  10   26.30    1.40   1
  -2  -9 -10   30.80    1.10   1
   2   9  11   65.00    2.60   1
  -2  -9 -11   64.10    2.30   1
   2   9  12    2.40    1.00   1
  -2  -9 -12    3.70    1.20   1
   2   9  13   47.70    2.00   1
  -2  -9 -13   45.40    2.00   1
   2   9  14   24.20    2.20   1
  -2  -9 -14   20.70    1.60   1
   2   9  15    7.50    1.80   1
  -2  -9 -15    5.20    1.40   1
   2   9  16    7.80    2.00   1
  -2  -9 -16    9.00    1.60   1
   2   9  17   23.20    3.00   1
  -2  -9 -17   26.40    2.20   1
   2   9  18   -3.30    3.00   1
  -2  -9 -18    2.80    2.10   1
   2   9  19   -1.20    3.80   1
  -2  -9 -19   -1.40    2.60   1
   2  10   0  160.90    2.70   1
   2  10   1   13.10    0.80   1
  -2 -10  -1   12.30    0.90   1
   2  10   2    4.10    0.90   1
  -2 -10  -2    5.70    0.80   1
   2  10   3   28.60    1.50   1
  -2 -10  -3   30.00    0.90   1
   2  10   4   71.60    2.20   1
  -2 -10  -4   70.90    1.30   1
   2  10   5    0.90    1.10   1
  -2 -10  -5    0.50    0.50   1
   2  10   6   -0.10    1.00   1
  -2 -10  -6    1.00    0.80   1
   2  10   7   16.50    1.30   1
  -2 -10  -7   15.70    1.00   1
   2  10   8  176.10    4.00   1
  -2 -10  -8  171.30    3.40   1
   2  10   9    3.60    1.10   1
  -2 -10  -9    4.10    0.90   1
   2  10  10   55.30    2.50   1
  -2 -10 -10   59.10    2.10   1
   2  10  11    4.90    1.60   1
  -2 -10 -11    4.60    1.40   1
   2  10  12   36.80    2.10   1
  -2 -10 -12   35.40    2.00   1
   2  10  13    7.50    2.00   1
  -2 -10 -13    7.40    1.30   1
   2  10  14   14.80    2.10   1
  -2 -10 -14   10.50    1.50   1
   2  10  15   -1.10    2.10   1
  -2 -10 -15   -2.30    1.50   1
   2  10  16   61.60    4.10   1
  -2 -10 -16   61.60    2.90   1
   2  10  17    4.00    3.10   1
  -2 -10 -17    5.00    2.20   1
   2  10  18   59.60    5.40   1
  -2 -10 -18   74.90    4.30   1
   2  11   0   33.00    1.80   1
   2  11   1  103.60    3.00   1
  -2 -11  -1  106.60    3.00   1
   2  11   2    2.40    1.30   1
  -2 -11  -2    2.00    1.20   1
   2  11   3  185.10    4.70   1
  -2 -11  -3  184.20    4.00   1
   2  11   4   12.30    1.30   1
  -2 -11  -4   11.00    1.20   1
   2  11   5   32.40    1.80   1
  -2 -11  -5   30.30    1.60   1
   2  11   6   14.80    1.50   1
  -2 -11  -6   14.10    1.10   1
   2  11   7  255.10    5.50   1
  -2 -11  -7  245.20    4.90   1
   2  11   8    2.60    1.10   1
  -2 -11  -8    4.50    1.00   1
   2  11   9    4.00    1.20   1
  -2 -11  -9    4.30    1.00   1
   2  11  10   45.00    2.50   1
  -2 -11 -10   48.10    2.00   1
   2  11  11  124.70    4.00   1
  -2 -11 -11  123.20    3.70   1
   2  11  12    1.60    2.00   1
  -2 -11 -12    1.30    1.40   1
   2  11  13   20.10    2.40   1
  -2 -11 -13   17.60    1.90   1
   2  11  14    9.80    2.40   1
  -2 -11 -14    4.30    1.90   1
   2  11  15   42.90    4.10   1
  -2 -11 -15   46.80    3.20   1
   2  11  16    6.90    3.10   1
  -2 -11 -16    5.70    2.60   1
   2  12   0   54.90    2.30   1
   2  12   1   11.60    1.40   1
  -2 -12  -1   10.60    1.70   1
   2  12   2   30.20    1.90   1
  -2 -12  -2   26.30    2.40   1
   2  12   3   15.10    1.60   1
  -2 -12  -3   13.70    1.70   1
   2  12   4    0.70    1.30   1
  -2 -12  -4    2.30    1.60   1
   2  12   5    2.20    1.30   1
  -2 -12  -5    3.40    1.40   1
   2  12   6    3.40    1.40   1
  -2 -12  -6    1.90    1.60   1
   2  12   7   28.80    1.90   1
  -2 -12  -7   25.30    2.10   1
   2  12   8    2.00    1.40   1
  -2 -12  -8    1.20    1.20   1
   2  12   9    5.20    1.70   1
  -2 -12  -9    2.00    1.50   1
   2  12  10    8.20    1.70   1
  -2 -12 -10    5.00    2.00   1
   2  12  11   11.10    2.50   1
  -2 -12 -11    8.00    1.90   1
   2  12  12    5.10    2.30   1
  -2 -12 -12    2.00    1.80   1
   2  12  13   10.70    2.90   1
  -2 -12 -13   11.10    2.50   1
   2  12  14   -0.40    3.50   1
  -2 -12 -14   -2.20    2.50   1
   2  12  15    0.20    3.70   1
  -2 -12 -15    2.30    3.00   1
   2  13   0    4.20    1.70   1
   2  13   1    4.90    1.50   1
  -2 -13  -1    6.30    1.60   1
   2  13   2    1.40    1.60   1
  -2 -13  -2    0.40    1.80   1
   2  13   3    1.50    1.30   1
  -2 -13  -3    2.00    1.40   1
   2  13   4    5.90    1.80   1
  -2 -13  -4    7.20    1.80   1
   2  13   5   21.10    2.00   1
  -2 -13  -5   16.70    1.90   1
   2  13   6    9.30    1.80   1
  -2 -13  -6    5.60    1.80   1
   2  13   7   16.40    1.90   1
  -2 -13  -7   17.00    2.20   1
   2  13   8   -1.90    1.60   1
  -2 -13  -8    3.20    1.80   1
   2  13   9    8.30    2.00   1
  -2 -13  -9    8.50    2.70   1
   2  13  10   22.30    2.80   1
  -2 -13 -10   14.10    2.70   1
   2  13  11   24.20    3.10   1
  -2 -13 -11   23.00    3.10   1
   2  13  12    4.30    2.70   1
  -2 -13 -12    6.50    2.60   1
   2  13  13    1.30    3.70   1
  -2 -13 -13   -0.30    3.70   1
   2  14   0  129.90    4.60   1
   2  14   1   20.80    2.20   1
  -2 -14  -1   18.40    2.30   1
   2  14   2    2.80    1.90   1
  -2 -14  -2    0.70    2.00   1
   2  14   3   16.70    2.20   1
  -2 -14  -3   17.60    2.50   1
   2  14   4  236.90    6.70   1
  -2 -14  -4  218.20    7.10   1
   2  14   5    5.00    1.90   1
  -2 -14  -5    7.20    1.90   1
   2  14   6   66.20    3.10   1
  -2 -14  -6   70.00    3.60   1
   2  14   7   17.30    2.40   1
  -2 -14  -7   19.60    2.70   1
   2  14   8   60.20    3.60   1
  -2 -14  -8   52.20    3.80   1
   2  14   9    2.80    2.60   1
  -2 -14  -9    9.40    2.50   1
   2  14  10   61.40    4.50   1
  -2 -14 -10   63.60    4.40   1
   2  14  11   10.20    3.20   1
  -2 -14 -11    9.60    3.30   1
   2  15   0    5.90    2.30   1
   2  15   1    0.10    2.10   1
  -2 -15  -1    1.90    2.10   1
   2  15   2    1.10    1.90   1
  -2 -15  -2   -1.80    2.10   1
   2  15   3   -0.70    2.10   1
  -2 -15  -3    3.70    2.30   1
   2  15   4    2.60    2.50   1
  -2 -15  -4    1.20    2.20   1
   2  15   5    3.60    2.20   1
  -2 -15  -5    4.80    2.50   1
   2  15   6    7.80    2.50   1
  -2 -15  -6   -2.40    2.90   1
   2  15   7    3.20    2.40   1
  -2 -15  -7    7.50    3.10   1
   2  15   8   -0.30    3.10   1
  -2 -15  -8   -0.90    2.80   1
   2  16   0    2.90    2.40   1
   2  16   1    2.90    2.60   1
  -2 -16  -1    3.60    2.40   1
   2  16   2    1.60    3.10   1
  -2 -16  -2   -3.10    3.00   1
   3   0   0   -0.10    0.50   1
   3   0   1  193.50    2.00   1
   3   0   2  108.90    1.30   1
   3   0   3  173.40    1.70   1
   3   0   4    0.50    0.40   1
   3   0   5  623.80    5.10   1
   3   0   6   52.80    0.80   1
   3   0   7    0.30    0.30   1
   3   0   8  276.80    3.00   1
   3   0   9  103.60    1.50   1
   3   0  10    3.30    0.40   1
   3   0  11   19.50    0.70   1
   3   0  12   82.90    1.30   1
   3   0  13  309.00    5.20   1
   3   0  14   51.10    1.90   1
   3   0  15   28.80    1.50   1
   3   0  16    0.20    1.50   1
   3   0  17  119.40    4.10   1
   3   0  18   42.80    2.70   1
   3   0  19   19.20    2.50   1
   3   0  20    0.70    1.80   1
   3   0  21   55.80    3.20   1
   3   1   0   -0.10    0.30   1
   3   1   1  246.80    2.40   1
  -3  -1  -1  251.10    2.30   1
   3   1   2  318.00    3.00   1
  -3  -1  -2  316.70    3.00   1
   3   1   3   29.60    0.60   1
  -3  -1  -3   29.90    0.60   1
   3   1   4   67.50    0.90   1
  -3  -1  -4   67.30    0.90   1
   3   1   5  217.40    2.10   1
  -3  -1  -5  214.70    2.20   1
   3   1   6  471.80    4.20   1
  -3  -1  -6  469.60    4.10   1
   3   1   7    1.60    0.40   1
  -3  -1  -7    1.80    0.40   1
   3   1   8  166.40    2.10   1
  -3  -1  -8  161.50    2.00   1
   3   1   9  104.20    1.60   1
  -3  -1  -9  105.40    1.50   1
   3   1  10   64.70    1.10   1
  -3  -1 -10   63.70    1.10   1
   3   1  11   28.80    1.00   1
  -3  -1 -11   29.40    1.00   1
   3   1  12  212.50    3.30   1
  -3  -1 -12  202.40    3.90   1
   3   1  13   37.10    1.20   1
  -3  -1 -13   37.30    1.20   1
   3   1  14    0.50    0.60   1
  -3  -1 -14    0.40    0.60   1
   3   1  15   66.90    2.80   1
  -3  -1 -15   68.00    2.20   1
   3   1  16  128.40    4.00   1
  -3  -1 -16  117.90    3.30   1
   3   1  17    0.60    1.40   1
  -3  -1 -17    0.30    1.60   1
   3   1  18    1.70    1.80   1
  -3  -1 -18    1.80    1.50   1
   3   1  19   23.60    2.40   1
  -3  -1 -19   25.30    2.20   1
   3   1  20   33.40    2.90   1
  -3  -1 -20   34.80    2.70   1
   3   1  21    7.10    2.50   1
  -3  -1 -21    8.30    2.00   1
   3   2   0   -0.30    0.30   1
   3   2   1   61.30    0.90   1
  -3  -2  -1   61.20    0.80   1
   3   2   2   90.50    1.10   1
  -3  -2  -2   90.20    1.10   1
   3   2   3   88.40    1.10   1
  -3  -2  -3   88.70    1.10   1
   3   2   4   47.70    0.80   1
  -3  -2  -4   49.70    0.80   1
   3   2   5  535.30    4.70   1
  -3  -2  -5  530.30    4.60   1
   3   2   6   36.50    0.80   1
  -3  -2  -6   37.20    0.70   1
   3   2   7    0.90    0.40   1
  -3  -2  -7    1.00    0.40   1
   3   2   8   60.80    1.10   1
  -3  -2  -8   61.30    1.00   1
   3   2   9   38.60    0.90   1
  -3  -2  -9   39.30    0.90   1
   3   2  10    0.20    0.50   1
  -3  -2 -10    1.30    0.60   1
   3   2  11    1.10    0.60   1
  -3  -2 -11    1.70    0.70   1
   3   2  12   63.90    1.60   1
  -3  -2 -12   63.60    1.60   1
   3   2  13   71.40    1.80   1
  -3  -2 -13   71.40    1.90   1
   3   2  14    7.40    0.80   1
  -3  -2 -14    6.60    0.90   1
   3   2  15   82.90    2.90   1
  -3  -2 -15   78.10    2.10   1
   3   2  16   24.30    2.20   1
  -3  -2 -16   25.60    1.60   1
   3   2  17    3.30    1.60   1
  -3  -2 -17    2.30    1.50   1
   3   2  18   17.20    2.40   1
  -3  -2 -18   16.30    1.90   1
   3   2  19    0.90    2.00   1
  -3  -2 -19    1.80    1.70   1
   3   2  20   -1.40    2.10   1
  -3  -2 -20   -0.90    2.10   1
   3   2  21   -1.20    2.60   1
  -3  -2 -21   -2.60    2.20   1
   3   3   0    1.40    0.30   1
   3   3   1   65.00    0.90   1
  -3  -3  -1   64.50    0.90   1
   3   3   2  273.10    2.60   1
  -3  -3  -2  269.40    2.60   1
   3   3   3   63.30    1.00   1
  -3  -3  -3   64.80    0.90   1
   3   3   4    3.60    0.40   1
  -3  -3  -4    3.60    0.40   1
   3   3   5   77.30    1.10   1
  -3  -3  -5   76.30    1.00   1
   3   3   6  423.30    4.90   1
  -3  -3  -6  428.60    4.50   1
   3   3   7   26.20    0.80   1
  -3  -3  -7   23.50    0.70   1
   3   3   8   51.20    1.00   1
  -3  -3  -8   50.90    1.00   1
   3   3   9   81.80    1.50   1
  -3  -3  -9   85.70    1.70   1
   3   3  10  156.70    2.60   1
  -3  -3 -10  161.10    2.70   1
   3   3  11   55.40    1.30   1
  -3  -3 -11   56.30    1.50   1
   3   3  12  101.10    2.00   1
  -3  -3 -12  105.70    2.10   1
   3   3  13    0.80    0.80   1
  -3  -3 -13   -0.30    0.80   1
   3   3  14   47.50    1.80   1
  -3  -3 -14   48.20    1.50   1
   3   3  15   15.80    1.30   1
  -3  -3 -15   16.00    1.20   1
   3   3  16   84.20    3.10   1
  -3  -3 -16   84.10    2.60   1
   3   3  17    8.10    1.70   1
  -3  -3 -17    9.00    1.60   1
   3   3  18   23.80    2.20   1
  -3  -3 -18   19.10    2.00   1
   3   3  19   17.90    2.30   1
  -3  -3 -19   21.50    2.40   1
   3   3  20   58.50    4.10   1
  -3  -3 -20   65.70    3.60   1
   3   3  21    7.10    2.60   1
  -3  -3 -21   11.00    2.80   1
   3   4   0    2.40    0.40   1
   3   4   1  780.70    7.00   1
  -3  -4  -1  781.50    6.80   1
   3   4   2  383.10    3.80   1
  -3  -4  -2  379.30    3.40   1
   3   4   3   50.50    0.90   1
  -3  -4  -3   50.00    0.70   1
   3   4   4  168.30    2.00   1
  -3  -4  -4  166.70    1.70   1
   3   4   5  482.80    5.50   1
  -3  -4  -5  480.30    4.90   1
   3   4   6   35.60    0.90   1
  -3  -4  -6   34.80    0.80   1
   3   4   7   56.90    1.20   1
  -3  -4  -7   57.30    1.00   1
   3   4   8  126.60    1.90   1
  -3  -4  -8  127.00    1.80   1
   3   4   9  448.80    6.00   1
  -3  -4  -9  454.30    5.70   1
   3   4  10    6.20    0.70   1
  -3  -4 -10    7.90    0.70   1
   3   4  11   18.40    1.10   1
  -3  -4 -11   18.30    1.00   1
   3   4  12  124.50    3.00   1
  -3  -4 -12  123.40    2.40   1
   3   4  13  156.30    3.40   1
  -3  -4 -13  161.70    3.10   1
   3   4  14    5.30    1.20   1
  -3  -4 -14    6.70    1.20   1
   3   4  15   17.10    1.40   1
  -3  -4 -15   15.90    1.30   1
   3   4  16   67.50    2.60   1
  -3  -4 -16   62.70    2.60   1
   3   4  17  183.20    5.30   1
  -3  -4 -17  171.70    5.40   1
   3   4  18   52.10    3.10   1
  -3  -4 -18   50.20    2.70   1
   3   4  19   90.80    4.20   1
  -3  -4 -19   89.60    3.70   1
   3   4  20    6.70    2.50   1
  -3  -4 -20    0.20    2.20   1
   3   4  21    9.40    3.40   1
  -3  -4 -21    5.50    2.70   1
   3   5   0    0.20    0.40   1
   3   5   1   57.80    1.20   1
  -3  -5  -1   54.90    1.10   1
   3   5   2    4.40    0.60   1
  -3  -5  -2    4.70    0.60   1
   3   5   3   12.80    0.70   1
  -3  -5  -3   12.20    0.70   1
   3   5   4   63.00    1.30   1
  -3  -5  -4   63.70    1.00   1
   3   5   5  106.10    1.80   1
  -3  -5  -5  107.30    1.50   1
   3   5   6    0.30    0.60   1
  -3  -5  -6    0.90    0.50   1
   3   5   7    1.90    0.50   1
  -3  -5  -7    0.30    0.50   1
   3   5   8    1.40    0.60   1
  -3  -5  -8    0.60    0.40   1
   3   5   9   35.20    1.30   1
  -3  -5  -9   37.40    1.10   1
   3   5  10   11.40    1.00   1
  -3  -5 -10   12.30    0.80   1
   3   5  11   28.40    1.40   1
  -3  -5 -11   26.50    1.00   1
   3   5  12    1.10    1.00   1
  -3  -5 -12    3.10    1.00   1
   3   5  13    5.00    1.20   1
  -3  -5 -13    2.50    1.00   1
   3   5  14   10.70    1.30   1
  -3  -5 -14   11.00    1.30   1
   3   5  15   21.30    1.70   1
  -3  -5 -15   22.40    1.50   1
   3   5  16    5.60    1.50   1
  -3  -5 -16    6.00    1.40   1
   3   5  17    2.10    1.80   1
  -3  -5 -17   -0.70    1.40   1
   3   5  18    4.80    1.90   1
  -3  -5 -18    5.70    1.70   1
   3   5  19    9.10    2.20   1
  -3  -5 -19    8.00    1.80   1
   3   5  20   -1.20    3.40   1
  -3  -5 -20    0.10    2.60   1
   3   6   0    0.70    0.60   1
   3   6   1   64.00    1.40   1
  -3  -6  -1   68.00    1.30   1
   3   6   2   36.20    1.10   1
  -3  -6  -2   37.30    1.00   1
   3   6   3    0.50    0.50   1
  -3  -6  -3    2.20    0.60   1
   3   6   4    3.80    0.60   1
  -3  -6  -4    4.00    0.60   1
   3   6   5    9.00    0.70   1
  -3  -6  -5    8.90    0.50   1
   3   6   6    5.30    0.70   1
  -3  -6  -6    5.20    0.50   1
   3   6   7   55.80    1.50   1
  -3  -6  -7   57.40    1.10   1
   3   6   8   66.90    1.50   1
  -3  -6  -8   65.70    1.40   1
   3   6   9   93.80    2.30   1
  -3  -6  -9   95.00    1.70   1
   3   6  10    1.10    0.80   1
  -3  -6 -10    0.10    0.70   1
   3   6  11    1.50    1.00   1
  -3  -6 -11    2.30    0.90   1
   3   6  12   25.10    1.60   1
  -3  -6 -12   25.70    1.30   1
   3   6  13   21.80    1.70   1
  -3  -6 -13   24.00    1.30   1
   3   6  14   12.80    1.40   1
  -3  -6 -14   11.70    1.40   1
   3   6  15    5.30    1.30   1
  -3  -6 -15    3.80    1.20   1
   3   6  16    0.70    1.50   1
  -3  -6 -16    3.50    1.40   1
   3   6  17   80.50    3.50   1
  -3  -6 -17   79.40    3.00   1
   3   6  18   15.40    2.20   1
  -3  -6 -18   17.40    2.00   1
   3   6  19    7.90    2.40   1
  -3  -6 -19    7.70    2.10   1
   3   6  20    2.90    2.70   1
  -3  -6 -20    0.50    2.60   1
   3   7   0    1.40    0.60   1
   3   7   1  206.80    3.10   1
  -3  -7  -1  207.00    3.30   1
   3   7   2  421.50    5.40   1
  -3  -7  -2  422.30    5.40   1
   3   7   3   23.80    1.00   1
  -3  -7  -3   23.50    0.90   1
   3   7   4   37.80    1.20   1
  -3  -7  -4   38.10    1.00   1
   3   7   5  160.90    2.70   1
  -3  -7  -5  155.60    2.30   1
   3   7   6  406.20    5.60   1
  -3  -7  -6  408.50    4.30   1
   3   7   7    7.80    0.80   1
  -3  -7  -7    6.40    0.50   1
   3   7   8  179.90    3.00   1
  -3  -7  -8  180.30    2.60   1
   3   7   9   99.10    2.30   1
  -3  -7  -9   97.50    1.90   1
   3   7  10  120.30    3.10   1
  -3  -7 -10  115.20    2.40   1
   3   7  11   23.50    1.70   1
  -3  -7 -11   22.80    1.30   1
   3   7  12  214.90    4.90   1
  -3  -7 -12  210.10    3.80   1
   3   7  13   39.20    2.00   1
  -3  -7 -13   38.80    1.50   1
   3   7  14   10.50    1.50   1
  -3  -7 -14   10.50    1.40   1
   3   7  15   53.10    2.40   1
  -3  -7 -15   54.70    2.20   1
   3   7  16  143.80    4.90   1
  -3  -7 -16  145.20    3.80   1
   3   7  17    0.00    2.00   1
  -3  -7 -17    1.00    1.70   1
   3   7  18    0.10    1.90   1
  -3  -7 -18    1.70    1.90   1
   3   7  19   28.80    3.90   1
  -3  -7 -19   33.00    3.60   1
   3   8   0    0.30    0.60   1
   3   8   1    9.60    0.50   1
  -3  -8  -1    8.10    0.90   1
   3   8   2   30.10    0.90   1
  -3  -8  -2   28.60    1.00   1
   3   8   3   48.50    1.50   1
  -3  -8  -3   49.10    1.20   1
   3   8   4   11.20    1.00   1
  -3  -8  -4   10.40    0.80   1
   3   8   5   34.80    1.50   1
  -3  -8  -5   35.00    1.20   1
   3   8   6   43.20    1.50   1
  -3  -8  -6   47.30    0.90   1
   3   8   7   14.40    1.20   1
  -3  -8  -7   13.60    0.70   1
   3   8   8   67.20    2.00   1
  -3  -8  -8   68.10    1.50   1
   3   8   9    4.50    0.90   1
  -3  -8  -9    3.50    0.60   1
   3   8  10    3.60    1.30   1
  -3  -8 -10    2.40    0.90   1
   3   8  11   18.60    1.70   1
  -3  -8 -11   18.60    1.20   1
   3   8  12   47.70    2.60   1
  -3  -8 -12   40.50    1.70   1
   3   8  13   62.10    2.70   1
  -3  -8 -13   55.30    2.10   1
   3   8  14   23.10    1.70   1
  -3  -8 -14   22.10    1.50   1
   3   8  15   -0.90    1.50   1
  -3  -8 -15   -0.10    1.40   1
   3   8  16    5.70    2.10   1
  -3  -8 -16    0.80    1.40   1
   3   8  17    6.40    2.40   1
  -3  -8 -17    9.70    2.50   1
   3   8  18    3.10    4.00   1
  -3  -8 -18    4.80    2.60   1
   3   9   0    2.80    0.80   1
   3   9   1   25.50    1.20   1
  -3  -9  -1   24.30    0.90   1
   3   9   2    3.80    1.00   1
  -3  -9  -2    4.10    0.70   1
   3   9   3    9.00    1.10   1
  -3  -9  -3    8.90    0.80   1
   3   9   4   -0.10    1.00   1
  -3  -9  -4   -0.60    0.80   1
   3   9   5   25.80    1.40   1
  -3  -9  -5   25.10    1.20   1
   3   9   6    1.60    1.00   1
  -3  -9  -6    0.40    0.70   1
   3   9   7    1.80    1.00   1
  -3  -9  -7    2.70    0.70   1
   3   9   8    4.20    1.00   1
  -3  -9  -8    4.50    0.80   1
   3   9   9   26.60    2.00   1
  -3  -9  -9   23.00    1.10   1
   3   9  10    6.50    1.70   1
  -3  -9 -10    6.70    1.30   1
   3   9  11    9.80    1.60   1
  -3  -9 -11    8.90    1.30   1
   3   9  12    6.70    1.80   1
  -3  -9 -12    2.20    1.60   1
   3   9  13    0.00    1.60   1
  -3  -9 -13    2.10    1.60   1
   3   9  14   15.60    2.30   1
  -3  -9 -14   20.80    1.90   1
   3   9  15   13.20    2.70   1
  -3  -9 -15    4.80    1.80   1
   3   9  16    0.70    2.10   1
  -3  -9 -16   -0.20    2.20   1
   3   9  17    3.40    2.80   1
  -3  -9 -17    2.90    2.30   1
   3  10   0    0.30    1.00   1
   3  10   1  132.20    3.50   1
  -3 -10  -1  133.10    3.00   1
   3  10   2   84.50    2.50   1
  -3 -10  -2   87.40    2.60   1
   3  10   3  154.30    3.60   1
  -3 -10  -3  155.90    3.30   1
   3  10   4   27.00    1.60   1
  -3 -10  -4   29.70    1.30   1
   3  10   5  373.00    7.00   1
  -3 -10  -5  381.80    6.10   1
   3  10   6   10.90    1.40   1
  -3 -10  -6   13.90    1.10   1
   3  10   7    0.80    1.10   1
  -3 -10  -7    2.80    1.10   1
   3  10   8   39.40    1.90   1
  -3 -10  -8   36.30    2.20   1
   3  10   9  174.20    5.00   1
  -3 -10  -9  183.10    5.10   1
   3  10  10    4.70    1.60   1
  -3 -10 -10    5.50    1.80   1
   3  10  11    0.90    1.70   1
  -3 -10 -11    0.40    1.50   1
   3  10  12   37.00    2.70   1
  -3 -10 -12   38.20    2.40   1
   3  10  13  166.90    7.30   1
  -3 -10 -13  142.40    4.60   1
   3  10  14   -2.40    2.30   1
  -3 -10 -14    3.00    1.80   1
   3  10  15   32.10    3.40   1
  -3 -10 -15   38.30    2.80   1
   3  10  16   18.70    2.70   1
  -3 -10 -16   18.10    2.60   1
   3  11   0    1.90    1.20   1
   3  11   1   16.10    1.50   1
  -3 -11  -1   15.70    1.30   1
   3  11   2   92.20    2.70   1
  -3 -11  -2   94.40    2.60   1
   3  11   3    6.30    1.50   1
  -3 -11  -3    6.60    1.00   1
   3  11   4    0.50    1.40   1
  -3 -11  -4   -1.40    1.40   1
   3  11   5   41.80    2.10   1
  -3 -11  -5   44.20    2.30   1
   3  11   6   80.80    3.30   1
  -3 -11  -6   74.80    3.60   1
   3  11   7    2.60    1.20   1
  -3 -11  -7    1.60    1.20   1
   3  11   8   28.80    2.30   1
  -3 -11  -8   27.10    2.60   1
   3  11   9   15.10    2.00   1
  -3 -11  -9   16.70    2.50   1
   3  11  10   57.00    3.10   1
  -3 -11 -10   58.60    3.40   1
   3  11  11   29.80    2.60   1
  -3 -11 -11   31.00    2.60   1
   3  11  12   29.90    3.00   1
  -3 -11 -12   31.40    2.70   1
   3  11  13   -1.50    2.20   1
  -3 -11 -13    0.70    2.00   1
   3  11  14   20.70    3.40   1
  -3 -11 -14   15.50    2.70   1
   3  11  15    9.10    2.80   1
  -3 -11 -15   22.10    3.90   1
   3  12   0   -0.30    1.50   1
   3  12   1   47.10    2.20   1
  -3 -12  -1   49.60    2.40   1
   3  12   2   41.30    2.30   1
  -3 -12  -2   37.00    2.30   1
   3  12   3    0.00    1.40   1
  -3 -12  -3    1.10    1.80   1
   3  12   4   17.60    1.70   1
  -3 -12  -4   17.40    1.90   1
   3  12   5    6.50    1.70   1
  -3 -12  -5    7.60    1.90   1
   3  12   6    1.40    1.60   1
  -3 -12  -6    0.20    1.60   1
   3  12   7   -0.50    1.60   1
  -3 -12  -7    3.00    2.20   1
   3  12   8   19.40    2.40   1
  -3 -12  -8   16.60    2.50   1
   3  12   9   14.70    2.30   1
  -3 -12  -9   14.50    2.50   1
   3  12  10   -1.80    2.10   1
  -3 -12 -10   -0.60    2.30   1
   3  12  11    4.10    2.30   1
  -3 -12 -11    7.10    2.70   1
   3  12  12   16.00    3.10   1
  -3 -12 -12   11.30    2.30   1
   3  12  13    2.10    2.40   1
  -3 -12 -13    0.20    2.50   1
   3  13   0    1.80    1.90   1
   3  13   1   23.20    2.10   1
  -3 -13  -1   22.70    2.20   1
   3  13   2  122.30    4.10   1
  -3 -13  -2  131.60    4.60   1
   3  13   3    3.40    1.60   1
  -3 -13  -3    2.00    2.10   1
   3  13   4   23.90    2.10   1
  -3 -13  -4   25.60    3.20   1
   3  13   5   22.50    2.20   1
  -3 -13  -5   16.80    2.20   1
   3  13   6   54.00    3.30   1
  -3 -13  -6   56.00    4.30   1
   3  13   7    1.70    1.80   1
  -3 -13  -7    2.00    2.00   1
   3  13   8   36.20    3.00   1
  -3 -13  -8   41.00    3.70   1
   3  13   9   14.80    2.50   1
  -3 -13  -9   12.10    2.80   1
   3  13  10   18.20    3.40   1
  -3 -13 -10   12.40    3.20   1
   3  13  11    4.60    2.50   1
  -3 -13 -11    1.20    2.50   1
   3  14   0   -1.10    1.80   1
   3  14   1   46.80    3.00   1
  -3 -14  -1   47.60    3.40   1
   3  14   2    3.00    2.30   1
  -3 -14  -2   -0.40    2.20   1
   3  14   3   10.20    2.40   1
  -3 -14  -3    8.40    2.60   1
   3  14   4    0.20    2.10   1
  -3 -14  -4    4.00    2.30   1
   3  14   5   19.20    2.90   1
  -3 -14  -5   19.40    3.60   1
   3  14   6    4.50    2.30   1
  -3 -14  -6    2.70    2.70   1
   3  14   7   10.10    2.20   1
  -3 -14  -7    7.90    2.50   1
   3  14   8   13.90    2.70   1
  -3 -14  -8    4.90    3.20   1
   3  15   0   -1.50    2.60   1
   3  15   1   26.20    3.10   1
  -3 -15  -1   23.40    3.00   1
   3  15   2   21.20    2.60   1
  -3 -15  -2   14.30    3.00   1
   3  15   3    0.60    2.70   1
  -3 -15  -3   -1.90    3.20   1
   3  15   4    2.80    3.00   1
  -3 -15  -4   -2.40    3.20   1
   4   0   0  743.20   10.30   1
   4   0   1   83.30    1.40   1
   4   0   2  206.00    2.50   1
   4   0   3  162.10    2.20   1
   4   0   4  348.90    4.10   1
   4   0   5    9.20    0.70   1
   4   0   6   66.40    1.30   1
   4   0   7  226.10    3.30   1
   4   0   8  391.70    5.20   1
   4   0   9   33.20    1.00   1
   4   0  10  172.30    2.60   1
   4   0  11   96.50    2.00   1
   4   0  12   22.90    1.00   1
   4   0  13  113.20    2.90   1
   4   0  14  238.60    5.00   1
   4   0  15    1.70    1.60   1
   4   0  16   20.50    2.20   1
   4   0  17   57.50    3.20   1
   4   0  18  165.70    5.90   1
   4   0  19   10.70    2.60   1
   4   0  20    8.40    2.60   1
   4   1   0   11.80    0.70   1
   4   1   1   63.50    1.20   1
  -4  -1  -1   63.10    1.30   1
   4   1   2    0.70    0.50   1
  -4  -1  -2    1.60    0.50   1
   4   1   3  121.60    1.80   1
  -4  -1  -3  123.10    1.80   1
   4   1   4   38.80    0.90   1
  -4  -1  -4   39.10    1.00   1
   4   1   5    4.90    0.60   1
  -4  -1  -5    5.20    0.60   1
   4   1   6   28.70    1.00   1
  -4  -1  -6   31.20    0.90   1
   4   1   7   68.00    1.40   1
  -4  -1  -7   70.80    1.50   1
   4   1   8    9.00    0.70   1
  -4  -1  -8    7.10    0.70   1
   4   1   9    1.80    0.60   1
  -4  -1  -9    1.10    0.60   1
   4   1  10   51.30    1.30   1
  -4  -1 -10   55.00    1.40   1
   4   1  11   83.50    1.80   1
  -4  -1 -11   84.00    1.80   1
   4   1  12   24.80    1.30   1
  -4  -1 -12   20.00    1.20   1
   4   1  13    0.60    0.90   1
  -4  -1 -13    2.40    1.00   1
   4   1  14   13.00    1.70   1
  -4  -1 -14   12.40    1.50   1
   4   1  15   59.60    2.70   1
  -4  -1 -15   57.30    2.80   1
   4   1  16   29.00    2.50   1
  -4  -1 -16   26.10    2.00   1
   4   1  17   15.60    2.20   1
  -4  -1 -17   18.30    2.10   1
   4   1  18   -1.90    1.80   1
  -4  -1 -18   -1.20    2.00   1
   4   1  19   11.80    2.50   1
  -4  -1 -19    9.60    2.20   1
   4   1  20    6.30    3.10   1
  -4  -1 -20    4.90    2.70   1
   4   2   0  123.30    1.80   1
   4   2   1    8.30    0.60   1
  -4  -2  -1    8.10    0.70   1
   4   2   2   32.50    0.90   1
  -4  -2  -2   31.90    0.90   1
   4   2   3   39.70    1.00   1
  -4  -2  -3   38.70    1.00   1
   4   2   4    7.70    0.60   1
  -4  -2  -4    7.80    0.60   1
   4   2   5    0.50    0.50   1
  -4  -2  -5   -0.10    0.50   1
   4   2   6   -0.10    0.60   1
  -4  -2  -6    0.90    0.50   1
   4   2   7   30.80    1.10   1
  -4  -2  -7   33.90    1.00   1
   4   2   8   56.70    1.30   1
  -4  -2  -8   56.00    1.30   1
   4   2   9   12.60    0.70   1
  -4  -2  -9   12.80    0.90   1
   4   2  10   27.70    1.00   1
  -4  -2 -10   29.30    1.00   1
   4   2  11    1.10    0.80   1
  -4  -2 -11    1.20    0.80   1
   4   2  12    1.80    0.90   1
  -4  -2 -12    0.20    0.90   1
   4   2  13   31.80    1.40   1
  -4  -2 -13   29.70    1.50   1
   4   2  14    2.00    1.50   1
  -4  -2 -14    0.60    1.20   1
   4   2  15    1.20    1.50   1
  -4  -2 -15    1.40    1.20   1
   4   2  16    5.00    1.60   1
  -4  -2 -16    4.20    1.60   1
   4   2  17   13.50    2.50   1
  -4  -2 -17   14.00    1.90   1
   4   2  18    9.10    2.50   1
  -4  -2 -18   12.30    2.20   1
   4   2  19    6.20    2.50   1
  -4  -2 -19    3.50    2.20   1
   4   3   0  304.20    3.70   1
   4   3   1  139.10    2.10   1
  -4  -3  -1  136.50    2.10   1
   4   3   2   37.00    1.00   1
  -4  -3  -2   37.80    1.10   1
   4   3   3  534.30    6.30   1
  -4  -3  -3  530.50    6.30   1
   4   3   4  118.30    2.20   1
  -4  -3  -4  122.80    2.00   1
   4   3   5   45.00    1.20   1
  -4  -3  -5   44.70    1.20   1
   4   3   6  109.50    1.90   1
  -4  -3  -6  112.00    2.00   1
   4   3   7  312.80    4.40   1
  -4  -3  -7  318.50    3.90   1
   4   3   8   14.40    0.80   1
  -4  -3  -8   13.90    0.80   1
   4   3   9   24.60    1.00   1
  -4  -3  -9   21.80    1.00   1
   4   3  10   84.20    2.20   1
  -4  -3 -10   85.50    2.00   1
   4   3  11  180.10    3.50   1
  -4  -3 -11  184.70    4.00   1
   4   3  12    0.90    0.90   1
  -4  -3 -12    0.40    1.10   1
   4   3  13   20.40    1.50   1
  -4  -3 -13   18.30    1.50   1
   4   3  14   59.20    2.40   1
  -4  -3 -14   61.80    2.30   1
   4   3  15  187.30    5.00   1
  -4  -3 -15  178.30    4.50   1
   4   3  16   14.40    2.00   1
  -4  -3 -16   16.70    1.80   1
   4   3  17   32.90    2.60   1
  -4  -3 -17   32.90    2.90   1
   4   3  18   12.90    2.50   1
  -4  -3 -18   16.00    2.40   1
   4   3  19   38.80    3.40   1
  -4  -3 -19   36.40    3.00   1
   4   4   0  250.60    3.80   1
   4   4   1   13.90    0.90   1
  -4  -4  -1   13.60    0.90   1
   4   4   2    0.70    0.70   1
  -4  -4  -2    0.60    0.50   1
   4   4   3   74.40    1.60   1
  -4  -4  -3   75.90    1.50   1
   4   4   4  303.80    4.20   1
  -4  -4  -4  305.20    4.10   1
   4   4   5   12.00    0.80   1
  -4  -4  -5   11.10    0.70   1
   4   4   6   66.00    1.50   1
  -4  -4  -6   68.60    1.40   1
   4   4   7   23.00    1.00   1
  -4  -4  -7   22.30    1.00   1
   4   4   8   66.30    1.60   1
  -4  -4  -8   65.40    1.60   1
   4   4   9   32.20    1.20   1
  -4  -4  -9   33.50    1.30   1
   4   4  10   16.40    1.20   1
  -4  -4 -10   16.60    1.10   1
   4   4  11    0.80    1.00   1
  -4  -4 -11    1.00    0.90   1
   4   4  12  166.00    3.80   1
  -4  -4 -12  172.80    3.60   1
   4   4  13   24.50    1.60   1
  -4  -4 -13   23.90    1.40   1
   4   4  14  131.00    3.50   1
  -4  -4 -14  129.00    3.00   1
   4   4  15    1.80    1.60   1
  -4  -4 -15    3.20    1.40   1
   4   4  16    3.00    1.70   1
  -4  -4 -16    4.60    1.50   1
   4   4  17   19.80    2.20   1
  -4  -4 -17   23.30    2.30   1
   4   4  18   41.20    3.10   1
  -4  -4 -18   37.80    2.70   1
   4   4  19   15.20    3.00   1
  -4  -4 -19   10.10    2.40   1
   4   5   0   96.70    2.00   1
   4   5   1   17.80    1.00   1
  -4  -5  -1   16.40    1.10   1
   4   5   2   23.10    1.00   1
  -4  -5  -2   24.00    1.10   1
   4   5   3   14.30    1.00   1
  -4  -5  -3   13.80    1.00   1
   4   5   4   43.40    1.30   1
  -4  -5  -4   44.20    1.40   1
   4   5   5    1.30    0.60   1
  -4  -5  -5    1.10    0.40   1
   4   5   6   48.00    1.30   1
  -4  -5  -6   49.10    1.20   1
   4   5   7    5.20    0.80   1
  -4  -5  -7    6.20    0.60   1
   4   5   8    3.70    0.90   1
  -4  -5  -8    1.30    0.70   1
   4   5   9    2.40    0.80   1
  -4  -5  -9    0.10    0.70   1
   4   5  10   20.80    1.60   1
  -4  -5 -10   22.40    1.40   1
   4   5  11   14.30    1.50   1
  -4  -5 -11   11.40    1.10   1
   4   5  12    1.60    1.20   1
  -4  -5 -12    0.60    0.90   1
   4   5  13    1.80    1.30   1
  -4  -5 -13    0.60    1.30   1
   4   5  14   27.00    1.90   1
  -4  -5 -14   25.10    1.60   1
   4   5  15    3.40    1.60   1
  -4  -5 -15    3.10    1.40   1
   4   5  16    7.10    1.90   1
  -4  -5 -16   11.80    1.80   1
   4   5  17   -2.00    2.30   1
  -4  -5 -17    1.00    2.10   1
   4   5  18    6.10    2.20   1
  -4  -5 -18    7.40    3.30   1
   4   6   0   43.30    1.60   1
   4   6   1   31.50    1.40   1
  -4  -6  -1   30.80    1.40   1
   4   6   2    1.60    0.80   1
  -4  -6  -2    2.10    0.80   1
   4   6   3   79.20    1.80   1
  -4  -6  -3   77.90    1.90   1
   4   6   4  204.40    3.30   1
  -4  -6  -4  201.60    3.50   1
   4   6   5    0.70    0.80   1
  -4  -6  -5    1.10    0.90   1
   4   6   6   59.40    1.70   1
  -4  -6  -6   57.70    1.60   1
   4   6   7   54.50    1.80   1
  -4  -6  -7   54.90    1.40   1
   4   6   8   35.30    1.50   1
  -4  -6  -8   37.40    1.20   1
   4   6   9    8.50    1.30   1
  -4  -6  -9   11.10    1.10   1
   4   6  10    3.30    1.30   1
  -4  -6 -10    6.30    1.00   1
   4   6  11   26.90    1.90   1
  -4  -6 -11   21.10    1.30   1
   4   6  12   36.60    2.00   1
  -4  -6 -12   39.10    1.60   1
   4   6  13   30.10    2.10   1
  -4  -6 -13   28.50    1.70   1
   4   6  14  123.80    4.20   1
  -4  -6 -14  114.70    3.50   1
   4   6  15    2.00    2.40   1
  -4  -6 -15   -0.30    1.70   1
   4   6  16    2.80    1.90   1
  -4  -6 -16   -0.30    2.00   1
   4   6  17   25.90    3.30   1
  -4  -6 -17   36.90    4.20   1
   4   6  18   28.80    3.10   1
  -4  -6 -18   19.20    3.60   1
   4   7   0   13.50    1.20   1
   4   7   1  115.60    2.60   1
  -4  -7  -1  117.40    2.70   1
   4   7   2    2.40    1.10   1
  -4  -7  -2    2.50    1.00   1
   4   7   3  161.40    3.20   1
  -4  -7  -3  152.50    3.20   1
   4   7   4   19.30    1.30   1
  -4  -7  -4   18.50    1.20   1
   4   7   5   10.70    1.30   1
  -4  -7  -5   10.40    1.10   1
   4   7   6   21.60    1.40   1
  -4  -7  -6   25.10    1.50   1
   4   7   7  114.60    3.20   1
  -4  -7  -7  114.60    2.70   1
   4   7   8    2.60    0.90   1
  -4  -7  -8    3.00    1.10   1
   4   7   9    2.50    1.30   1
  -4  -7  -9    1.50    1.20   1
   4   7  10   45.40    2.20   1
  -4  -7 -10   40.90    2.10   1
   4   7  11  162.90    4.50   1
  -4  -7 -11  159.20    4.40   1
   4   7  12   18.00    1.90   1
  -4  -7 -12   18.10    1.70   1
   4   7  13    5.00    1.60   1
  -4  -7 -13    3.10    1.70   1
   4   7  14    5.20    1.80   1
  -4  -7 -14    3.50    1.60   1
   4   7  15  100.90    4.70   1
  -4  -7 -15   97.00    4.30   1
   4   7  16   21.90    3.10   1
  -4  -7 -16   22.40    2.50   1
   4   7  17   14.00    3.40   1
  -4  -7 -17   28.30    2.90   1
   4   8   0  209.20    4.60   1
   4   8   1   17.90    1.30   1
  -4  -8  -1   19.20    1.30   1
   4   8   2   25.30    1.50   1
  -4  -8  -2   21.30    1.50   1
   4   8   3   57.90    2.00   1
  -4  -8  -3   56.10    1.90   1
   4   8   4   23.10    1.70   1
  -4  -8  -4   20.50    1.30   1
   4   8   5    4.90    1.20   1
  -4  -8  -5    3.50    0.90   1
   4   8   6    7.00    1.30   1
  -4  -8  -6    5.90    1.10   1
   4   8   7   80.90    2.80   1
  -4  -8  -7   82.20    2.30   1
   4   8   8   56.80    2.50   1
  -4  -8  -8   52.70    2.20   1
   4   8   9   10.60    1.50   1
  -4  -8  -9    9.60    1.30   1
   4   8  10   58.60    2.40   1
  -4  -8 -10   60.90    2.50   1
   4   8  11   21.70    1.80   1
  -4  -8 -11   21.80    1.90   1
   4   8  12    6.40    1.70   1
  -4  -8 -12    6.60    1.70   1
   4   8  13   49.80    2.70   1
  -4  -8 -13   54.30    2.80   1
   4   8  14   20.30    2.20   1
  -4  -8 -14   17.70    2.30   1
   4   8  15    0.10    2.70   1
  -4  -8 -15   -0.90    2.20   1
   4   8  16    0.90    2.80   1
  -4  -8 -16   -2.30    2.50   1
   4   9   0   22.50    1.50   1
   4   9   1    4.70    1.30   1
  -4  -9  -1    5.30    1.20   1
   4   9   2    2.10    1.20   1
  -4  -9  -2   -0.20    1.10   1
   4   9   3   20.20    1.50   1
  -4  -9  -3   20.50    1.30   1
   4   9   4   28.90    1.60   1
  -4  -9  -4   25.20    1.50   1
   4   9   5    7.30    1.30   1
  -4  -9  -5    8.50    1.10   1
   4   9   6   15.90    1.50   1
  -4  -9  -6   15.40    1.20   1
   4   9   7   17.10    1.60   1
  -4  -9  -7   19.90    1.50   1
   4   9   8    8.20    1.40   1
  -4  -9  -8    8.90    1.20   1
   4   9   9    4.70    1.50   1
  -4  -9  -9    4.90    1.20   1
   4   9  10   31.50    2.20   1
  -4  -9 -10   27.30    2.30   1
   4   9  11    6.40    1.70   1
  -4  -9 -11    5.40    1.60   1
   4   9  12    2.50    1.90   1
  -4  -9 -12    0.50    1.70   1
   4   9  13    3.50    2.00   1
  -4  -9 -13    1.50    1.90   1
   4   9  14   11.00    2.30   1
  -4  -9 -14   13.40    2.20   1
   4   9  15    2.10    2.60   1
  -4  -9 -15    9.60    2.10   1
   4  10   0  310.40    6.40   1
   4  10   1    5.00    1.40   1
  -4 -10  -1    3.40    1.30   1
   4  10   2   16.60    1.70   1
  -4 -10  -2   13.90    1.60   1
   4  10   3    3.40    1.40   1
  -4 -10  -3    6.20    1.30   1
   4  10   4   82.10    2.80   1
  -4 -10  -4   79.90    2.50   1
   4  10   5    2.00    1.40   1
  -4 -10  -5    0.30    1.20   1
   4  10   6    9.50    1.60   1
  -4 -10  -6    8.00    1.60   1
   4  10   7    8.20    1.40   1
  -4 -10  -7    8.30    1.80   1
   4  10   8  101.10    3.30   1
  -4 -10  -8   95.50    4.30   1
   4  10   9   12.00    1.90   1
  -4 -10  -9    9.60    2.50   1
   4  10  10   69.40    3.80   1
  -4 -10 -10   68.60    4.00   1
   4  10  11    0.30    1.90   1
  -4 -10 -11    2.00    2.20   1
   4  10  12   31.40    2.90   1
  -4 -10 -12   27.00    3.30   1
   4  10  13    9.50    2.90   1
  -4 -10 -13    9.80    3.00   1
   4  10  14   27.60    3.90   1
  -4 -10 -14   25.80    3.40   1
   4  11   0  102.70    3.20   1
   4  11   1   82.00    3.10   1
  -4 -11  -1   74.10    2.90   1
   4  11   2   12.90    1.70   1
  -4 -11  -2   13.10    1.80   1
   4  11   3  124.10    3.60   1
  -4 -11  -3  113.90    4.10   1
   4  11   4   49.00    2.40   1
  -4 -11  -4   41.00    2.70   1
   4  11   5    9.90    1.60   1
  -4 -11  -5    6.80    1.90   1
   4  11   6   41.70    2.50   1
  -4 -11  -6   34.60    3.00   1
   4  11   7   93.10    3.40   1
  -4 -11  -7   82.90    4.20   1
   4  11   8    5.80    1.70   1
  -4 -11  -8    2.10    2.20   1
   4  11   9   -1.80    2.10   1
  -4 -11  -9   -0.10    2.70   1
   4  11  10   26.20    2.80   1
  -4 -11 -10   28.30    3.30   1
   4  11  11   75.50    4.00   1
  -4 -11 -11   63.50    4.30   1
   4  11  12   -3.00    2.60   1
  -4 -11 -12    1.50    2.90   1
   4  12   0   -0.10    1.60   1
   4  12   1    6.50    2.10   1
  -4 -12  -1    6.40    2.20   1
   4  12   2    0.60    1.50   1
  -4 -12  -2    2.60    1.90   1
   4  12   3   24.70    2.10   1
  -4 -12  -3   24.30    2.30   1
   4  12   4    5.80    1.70   1
  -4 -12  -4    4.60    2.00   1
   4  12   5    1.70    1.90   1
  -4 -12  -5    1.20    2.10   1
   4  12   6    1.40    2.10   1
  -4 -12  -6    3.20    2.70   1
   4  12   7    3.60    1.90   1
  -4 -12  -7   11.70    2.80   1
   4  12   8    3.70    1.80   1
  -4 -12  -8    3.70    2.80   1
   4  12   9    4.80    2.40   1
  -4 -12  -9    5.00    2.80   1
   4  12  10    1.20    2.50   1
  -4 -12 -10   -5.30    2.80   1
   4  13   0    7.60    2.60   1
   4  13   1   24.30    2.50   1
  -4 -13  -1   22.80    2.90   1
   4  13   2    2.90    2.10   1
  -4 -13  -2    4.30    2.20   1
   4  13   3   27.50    2.80   1
  -4 -13  -3   25.20    3.40   1
   4  13   4    3.30    2.30   1
  -4 -13  -4   -1.80    2.50   1
   4  13   5    2.10    2.10   1
  -4 -13  -5    1.10    2.60   1
   4  13   6    7.60    2.50   1
  -4 -13  -6    3.40    3.10   1
   4  13   7   29.50    3.00   1
  -4 -13  -7   27.60    3.70   1
   4  14   0   71.50    5.50   1
   4  14   1   15.30    3.70   1
  -4 -14  -1   14.50    3.70   1
   5   0   0   -1.30    1.10   1
   5   0   1  112.70    2.10   1
   5   0   2    2.40    0.80   1
   5   0   3  164.20    3.00   1
   5   0   4   31.90    1.30   1
   5   0   5  415.20    6.20   1
   5   0   6    6.70    0.90   1
   5   0   7    7.00    1.00   1
   5   0   8   -0.80    0.90   1
   5   0   9  220.10    4.20   1
   5   0  10    3.40    0.90   1
   5   0  11    0.80    1.20   1
   5   0  12    3.30    1.30   1
   5   0  13  236.40    6.30   1
   5   0  14   18.10    2.20   1
   5   0  15   64.20    3.90   1
   5   0  16    1.20    2.20   1
   5   0  17   40.70    3.40   1
   5   1   0    0.00    0.80   1
   5   1   1   36.50    1.30   1
  -5  -1  -1   36.80    1.30   1
   5   1   2   47.50    1.50   1
  -5  -1  -2   46.30    1.40   1
   5   1   3   20.20    1.10   1
  -5  -1  -3   18.50    1.10   1
   5   1   4   13.40    1.10   1
  -5  -1  -4   10.40    0.90   1
   5   1   5  103.60    2.30   1
  -5  -1  -5  105.50    2.30   1
   5   1   6   23.70    1.30   1
  -5  -1  -6   24.20    1.20   1
   5   1   7    1.70    0.90   1
  -5  -1  -7    1.20    0.90   1
   5   1   8    2.10    1.00   1
  -5  -1  -8   -0.10    0.80   1
   5   1   9   79.00    2.30   1
  -5  -1  -9   79.40    2.10   1
   5   1  10   23.20    1.70   1
  -5  -1 -10   26.80    1.50   1
   5   1  11   46.10    2.40   1
  -5  -1 -11   49.80    2.30   1
   5   1  12    8.30    1.90   1
  -5  -1 -12    7.00    1.60   1
   5   1  13    3.30    1.90   1
  -5  -1 -13    3.00    1.50   1
   5   1  14   23.50    2.50   1
  -5  -1 -14   23.10    3.10   1
   5   1  15   37.70    2.90   1
  -5  -1 -15   37.00    2.90   1
   5   1  16   29.90    3.50   1
  -5  -1 -16   28.00    2.80   1
   5   1  17   -0.50    2.70   1
  -5  -1 -17   -0.50    2.40   1
   5   2   0   -0.70    0.80   1
   5   2   1   18.90    1.00   1
  -5  -2  -1   17.60    1.10   1
   5   2   2  111.10    2.30   1
  -5  -2  -2  110.30    2.50   1
   5   2   3    6.00    0.90   1
  -5  -2  -3    9.90    0.90   1
   5   2   4   25.20    1.20   1
  -5  -2  -4   24.10    1.20   1
   5   2   5    3.00    0.90   1
  -5  -2  -5    4.30    0.90   1
   5   2   6   39.40    1.60   1
  -5  -2  -6   39.70    1.50   1
   5   2   7    0.50    1.00   1
  -5  -2  -7    1.00    0.90   1
   5   2   8   71.70    2.10   1
  -5  -2  -8   71.60    2.00   1
   5   2   9   11.90    1.20   1
  -5  -2  -9   11.70    1.10   1
   5   2  10    2.50    1.30   1
  -5  -2 -10    2.00    1.10   1
   5   2  11   21.50    1.60   1
  -5  -2 -11   27.00    1.60   1
   5   2  12   42.60    2.30   1
  -5  -2 -12   46.10    2.50   1
   5   2  13    8.20    1.90   1
  -5  -2 -13   10.40    1.90   1
   5   2  14    9.50    2.10   1
  -5  -2 -14    8.30    1.90   1
   5   2  15    0.40    1.80   1
  -5  -2 -15    2.80    2.10   1
   5   2  16    7.00    2.60   1
  -5  -2 -16    9.00    2.30   1
   5   2  17    0.70    2.50   1
  -5  -2 -17    1.40    2.10   1
   5   3   0   -0.30    0.90   1
   5   3   1   15.10    1.10   1
  -5  -3  -1   16.40    1.20   1
   5   3   2  383.60    5.90   1
  -5  -3  -2  386.40    5.90   1
   5   3   3   16.50    1.20   1
  -5  -3  -3   13.60    1.10   1
   5   3   4   65.60    1.90   1
  -5  -3  -4   67.00    1.80   1
   5   3   5   23.60    1.30   1
  -5  -3  -5   24.40    1.10   1
   5   3   6  209.00    4.10   1
  -5  -3  -6  207.00    3.70   1
   5   3   7    3.00    1.10   1
  -5  -3  -7    3.50    0.90   1
   5   3   8   69.60    2.20   1
  -5  -3  -8   67.70    1.90   1
   5   3   9    1.80    1.40   1
  -5  -3  -9    4.40    1.10   1
   5   3  10   91.50    2.70   1
  -5  -3 -10   91.80    2.70   1
   5   3  11   12.00    1.60   1
  -5  -3 -11   11.20    1.60   1
   5   3  12  112.40    4.00   1
  -5  -3 -12  113.80    3.80   1
   5   3  13    1.90    1.80   1
  -5  -3 -13    2.20    2.00   1
   5   3  14   21.30    2.50   1
  -5  -3 -14   24.40    2.30   1
   5   3  15   27.60    2.70   1
  -5  -3 -15   27.40    2.70   1
   5   3  16  123.00    5.20   1
  -5  -3 -16  110.20    5.00   1
   5   3  17    3.60    2.40   1
  -5  -3 -17    4.80    2.30   1
   5   4   0    0.00    1.00   1
   5   4   1  126.10    2.70   1
  -5  -4  -1  126.60    2.90   1
   5   4   2   97.10    2.30   1
  -5  -4  -2  101.20    2.30   1
   5   4   3   19.50    1.20   1
  -5  -4  -3   17.30    1.20   1
   5   4   4   23.00    1.30   1
  -5  -4  -4   23.60    1.30   1
   5   4   5   64.90    2.00   1
  -5  -4  -5   64.30    2.10   1
   5   4   6   81.50    2.40   1
  -5  -4  -6   79.80    2.40   1
   5   4   7   55.80    2.00   1
  -5  -4  -7   56.90    2.00   1
   5   4   8   60.00    2.40   1
  -5  -4  -8   65.30    2.60   1
   5   4   9  191.90    4.30   1
  -5  -4  -9  186.80    5.30   1
   5   4  10    2.10    1.30   1
  -5  -4 -10    3.10    1.40   1
   5   4  11    9.30    1.70   1
  -5  -4 -11    3.60    1.60   1
   5   4  12   38.40    2.50   1
  -5  -4 -12   40.60    2.80   1
   5   4  13   50.20    3.20   1
  -5  -4 -13   47.90    3.30   1
   5   4  14   -1.60    2.20   1
  -5  -4 -14    4.00    2.30   1
   5   4  15    3.10    2.00   1
  -5  -4 -15    4.00    2.50   1
   5   4  16   18.60    3.00   1
  -5  -4 -16   15.80    2.80   1
   5   5   0    1.20    1.10   1
   5   5   1   39.20    1.60   1
  -5  -5  -1   39.90    1.70   1
   5   5   2   74.20    2.10   1
  -5  -5  -2   77.70    2.10   1
   5   5   3    1.50    1.10   1
  -5  -5  -3    0.90    1.00   1
   5   5   4   12.10    1.20   1
  -5  -5  -4   12.60    1.20   1
   5   5   5   27.90    1.50   1
  -5  -5  -5   31.60    1.70   1
   5   5   6   10.30    1.20   1
  -5  -5  -6    9.70    1.30   1
   5   5   7   15.60    1.60   1
  -5  -5  -7   13.90    1.40   1
   5   5   8   22.80    1.80   1
  -5  -5  -8   17.90    1.60   1
   5   5   9   11.10    1.50   1
  -5  -5  -9    7.60    1.50   1
   5   5  10    5.80    1.60   1
  -5  -5 -10    6.40    1.60   1
   5   5  11   17.40    2.10   1
  -5  -5 -11   14.30    2.00   1
   5   5  12   14.90    1.90   1
  -5  -5 -12   17.80    2.00   1
   5   5  13   -1.60    2.00   1
  -5  -5 -13    4.60    2.00   1
   5   5  14   -0.50    2.10   1
  -5  -5 -14    3.50    1.90   1
   5   5  15   25.70    3.00   1
  -5  -5 -15   22.70    2.90   1
   5   5  16   11.30    2.90   1
  -5  -5 -16    6.80    3.30   1
   5   6   0    3.00    1.10   1
   5   6   1  199.00    4.20   1
  -5  -6  -1  192.10    4.50   1
   5   6   2   22.70    1.60   1
  -5  -6  -2   21.70    1.50   1
   5   6   3    9.10    1.30   1
  -5  -6  -3   13.40    1.30   1
   5   6   4   28.20    1.60   1
  -5  -6  -4   33.00    1.70   1
   5   6   5  114.20    3.30   1
  -5  -6  -5  110.90    3.20   1
   5   6   6   12.00    1.40   1
  -5  -6  -6    9.40    1.30   1
   5   6   7   11.20    1.60   1
  -5  -6  -7   10.60    1.50   1
   5   6   8    9.70    1.70   1
  -5  -6  -8    8.40    1.70   1
   5   6   9  176.20    4.70   1
  -5  -6  -9  176.90    5.20   1
   5   6  10    1.00    1.40   1
  -5  -6 -10    0.90    1.60   1
   5   6  11   20.90    2.10   1
  -5  -6 -11   19.30    2.00   1
   5   6  12   11.20    1.90   1
  -5  -6 -12   10.70    1.90   1
   5   6  13   48.70    3.60   1
  -5  -6 -13   45.90    3.10   1
   5   6  14    9.40    2.40   1
  -5  -6 -14   18.20    2.60   1
   5   6  15   15.10    2.80   1
  -5  -6 -15   13.10    3.00   1
   5   7   0    0.80    1.20   1
   5   7   1   21.30    1.70   1
  -5  -7  -1   23.30    1.80   1
   5   7   2  156.00    3.80   1
  -5  -7  -2  160.40    3.70   1
   5   7   3    9.90    1.70   1
  -5  -7  -3   14.60    1.40   1
   5   7   4   22.20    1.70   1
  -5  -7  -4   22.50    1.60   1
   5   7   5   80.60    2.60   1
  -5  -7  -5   85.40    2.60   1
   5   7   6   78.50    2.70   1
  -5  -7  -6   74.60    2.90   1
   5   7   7    0.70    1.40   1
  -5  -7  -7    1.40    1.40   1
   5   7   8   25.00    2.10   1
  -5  -7  -8   27.80    2.00   1
   5   7   9   55.90    2.70   1
  -5  -7  -9   56.90    2.40   1
   5   7  10   56.90    2.80   1
  -5  -7 -10   60.50    2.60   1
   5   7  11   37.00    2.50   1
  -5  -7 -11   36.40    2.50   1
   5   7  12   41.30    3.00   1
  -5  -7 -12   47.80    3.20   1
   5   7  13    4.50    2.50   1
  -5  -7 -13    5.30    2.40   1
   5   7  14   20.30    2.90   1
  -5  -7 -14   19.90    3.20   1
   5   8   0   -1.30    1.30   1
   5   8   1   13.30    1.60   1
  -5  -8  -1   17.20    1.80   1
   5   8   2   13.10    1.70   1
  -5  -8  -2   16.50    1.60   1
   5   8   3   53.80    2.30   1
  -5  -8  -3   51.50    2.20   1
   5   8   4    5.70    1.40   1
  -5  -8  -4    5.40    1.30   1
   5   8   5   91.10    3.00   1
  -5  -8  -5   90.80    3.10   1
   5   8   6    0.50    1.60   1
  -5  -8  -6    0.40    1.50   1
   5   8   7    1.60    1.90   1
  -5  -8  -7    1.70    1.40   1
   5   8   8    8.80    2.00   1
  -5  -8  -8    9.00    1.60   1
   5   8   9   59.10    2.90   1
  -5  -8  -9   51.80    2.50   1
   5   8  10   -0.40    1.80   1
  -5  -8 -10    3.80    1.60   1
   5   8  11    4.00    2.10   1
  -5  -8 -11    2.60    2.20   1
   5   8  12   10.50    2.40   1
  -5  -8 -12   10.50    2.60   1
   5   8  13   64.20    4.90   1
  -5  -8 -13   44.30    4.40   1
   5   9   0    1.50    1.40   1
   5   9   1    5.00    1.60   1
  -5  -9  -1    5.20    1.70   1
   5   9   2   45.80    2.30   1
  -5  -9  -2   48.20    2.20   1
   5   9   3    0.20    1.50   1
  -5  -9  -3    2.40    1.40   1
   5   9   4    4.20    1.60   1
  -5  -9  -4    5.10    1.50   1
   5   9   5   28.60    2.30   1
  -5  -9  -5   26.50    2.10   1
   5   9   6   41.20    2.60   1
  -5  -9  -6   42.40    2.30   1
   5   9   7   -1.40    1.70   1
  -5  -9  -7    0.20    1.50   1
   5   9   8   21.90    2.20   1
  -5  -9  -8   18.30    2.50   1
   5   9   9   11.80    2.20   1
  -5  -9  -9   10.70    2.70   1
   5   9  10    4.70    2.30   1
  -5  -9 -10    9.10    3.00   1
   5   9  11   20.30    2.70   1
  -5  -9 -11   21.80    3.20   1
   5  10   0    1.80    1.40   1
   5  10   1   16.70    1.90   1
  -5 -10  -1   22.50    2.00   1
   5  10   2   53.90    2.60   1
  -5 -10  -2   55.70    2.80   1
   5  10   3   39.50    2.40   1
  -5 -10  -3   42.60    2.50   1
   5  10   4   12.50    2.10   1
  -5 -10  -4   10.40    1.90   1
   5  10   5   67.70    3.40   1
  -5 -10  -5   72.10    4.30   1
   5  10   6   53.60    3.00   1
  -5 -10  -6   46.40    3.60   1
   5  10   7    1.40    2.30   1
  -5 -10  -7   -0.80    2.70   1
   5  10   8   41.90    3.00   1
  -5 -10  -8   38.70    3.80   1
   5  10   9   29.80    3.00   1
  -5 -10  -9   31.90    3.70   1
   5  10  10    3.40    2.40   1
  -5 -10 -10    0.30    2.50   1
   5  11   0    3.60    1.80   1
   5  11   1   10.70    2.10   1
  -5 -11  -1    4.10    2.70   1
   5  11   2  104.90    3.90   1
  -5 -11  -2  111.00    5.50   1
   5  11   3    2.70    2.20   1
  -5 -11  -3   -0.60    2.80   1
   5  11   4   12.50    2.20   1
  -5 -11  -4   11.20    2.80   1
   5  11   5    0.50    2.30   1
  -5 -11  -5    2.10    2.70   1
   5  11   6   40.70    3.10   1
  -5 -11  -6   36.20    3.80   1
   5  11   7   11.50    2.70   1
  -5 -11  -7    2.50    2.80   1
   5  12   0   -2.60    2.20   1
   5  12   1    1.80    2.30   1
  -5 -12  -1    5.90    2.70   1
   5  12   2   14.90    2.80   1
  -5 -12  -2   20.40    3.60   1
   5  12   3    5.40    2.90   1
  -5 -12  -3   -2.40    2.70   1
   6   0   0  170.20    5.10   1
   6   0   1   41.70    1.90   1
   6   0   2    5.50    1.30   1
   6   0   3   55.80    1.90   1
   6   0   4   47.30    1.90   1
   6   0   5    0.20    1.20   1
   6   0   6    1.20    1.00   1
   6   0   7   53.40    2.00   1
   6   0   8  101.00    3.50   1
   6   0   9    7.50    1.80   1
   6   0  10   42.50    2.60   1
   6   0  11   24.50    2.70   1
   6   0  12   34.20    3.10   1
   6   0  13    4.00    2.80   1
   6   1   0   19.60    1.40   1
   6   1   1   63.30    2.10   1
  -6  -1  -1   64.40    2.10   1
   6   1   2   11.60    1.50   1
  -6  -1  -2   10.20    1.40   1
   6   1   3  107.40    2.80   1
  -6  -1  -3  105.70    2.80   1
   6   1   4   11.30    1.30   1
  -6  -1  -4   13.30    1.40   1
   6   1   5   25.80    1.60   1
  -6  -1  -5   27.60    1.80   1
   6   1   6    9.80    1.30   1
  -6  -1  -6   11.70    1.40   1
   6   1   7  171.80    4.30   1
  -6  -1  -7  190.60    4.30   1
   6   1   8    2.90    1.40   1
  -6  -1  -8    1.10    1.40   1
   6   1   9    1.40    1.40   1
  -6  -1  -9    2.30    1.90   1
   6   1  10    3.40    1.70   1
  -6  -1 -10    1.00    2.20   1
   6   1  11   78.90    3.70   1
  -6  -1 -11   85.40    3.90   1
   6   1  12    2.70    2.50   1
  -6  -1 -12    2.00    2.50   1
   6   1  13   23.00    2.80   1
  -6  -1 -13   27.10    3.00   1
   6   2   0   88.40    2.50   1
   6   2   1    4.80    1.20   1
  -6  -2  -1    3.10    1.10   1
   6   2   2   12.20    1.30   1
  -6  -2  -2   14.00    1.40   1
   6   2   3   50.70    2.00   1
  -6  -2  -3   43.70    1.80   1
   6   2   4   14.20    1.30   1
  -6  -2  -4   15.30    1.30   1
   6   2   5    0.40    1.00   1
  -6  -2  -5    2.00    1.20   1
   6   2   6    5.50    1.20   1
  -6  -2  -6    5.20    1.40   1
   6   2   7   30.70    1.90   1
  -6  -2  -7   32.60    2.10   1
   6   2   8   30.90    1.90   1
  -6  -2  -8   28.40    2.20   1
   6   2   9    8.90    1.90   1
  -6  -2  -9    7.80    2.00   1
   6   2  10   49.90    2.80   1
  -6  -2 -10   44.90    2.90   1
   6   2  11    3.30    1.90   1
  -6  -2 -11    6.00    2.10   1
   6   2  12   -0.30    1.90   1
  -6  -2 -12    0.90    2.40   1
   6   2  13   35.00    3.30   1
  -6  -2 -13   39.10    4.50   1
   6   3   0   89.30    2.60   1
   6   3   1   26.00    1.70   1
  -6  -3  -1   25.50    1.60   1
   6   3   2    1.00    1.10   1
  -6  -3  -2   -0.80    1.10   1
   6   3   3   13.30    1.40   1
  -6  -3  -3   10.80    1.40   1
   6   3   4   73.30    2.40   1
  -6  -3  -4   71.80    2.40   1
   6   3   5   38.20    1.80   1
  -6  -3  -5   39.90    2.00   1
   6   3   6   28.10    1.60   1
  -6  -3  -6   24.30    1.80   1
   6   3   7   57.30    2.50   1
  -6  -3  -7   64.20    2.70   1
   6   3   8   27.70    2.00   1
  -6  -3  -8   29.30    2.20   1
   6   3   9    4.40    1.60   1
  -6  -3  -9    2.60    1.70   1
   6   3  10   60.80    3.50   1
  -6  -3 -10   63.10    3.90   1
   6   3  11   66.50    3.90   1
  -6  -3 -11   59.30    3.90   1
   6   3  12    6.50    2.60   1
  -6  -3 -12    0.80    2.70   1
   6   3  13    4.90    2.50   1
  -6  -3 -13    3.60    4.50   1
   6   4   0  188.50    4.20   1
   6   4   1   -0.60    1.30   1
  -6  -4  -1    0.80    1.20   1
   6   4   2    0.90    1.20   1
  -6  -4  -2    1.60    1.30   1
   6   4   3    0.50    1.30   1
  -6  -4  -3    0.60    1.40   1
   6   4   4  300.00    5.80   1
  -6  -4  -4  305.00    5.70   1
   6   4   5   -1.30    1.30   1
  -6  -4  -5    2.20    1.40   1
   6   4   6  119.90    3.50   1
  -6  -4  -6  121.40    3.50   1
   6   4   7    1.60    1.50   1
  -6  -4  -7    0.50    1.60   1
   6   4   8   54.80    2.50   1
  -6  -4  -8   53.90    2.90   1
   6   4   9    3.90    1.90   1
  -6  -4  -9    3.90    2.00   1
   6   4  10   71.90    3.80   1
  -6  -4 -10   70.30    4.10   1
   6   4  11    0.40    2.40   1
  -6  -4 -11    1.60    2.10   1
   6   4  12   17.20    2.50   1
  -6  -4 -12   19.20    3.10   1
   6   5   0   29.90    1.80   1
   6   5   1    1.60    1.30   1
  -6  -5  -1    5.50    1.40   1
   6   5   2    4.90    1.40   1
  -6  -5  -2    4.70    1.40   1
   6   5   3    9.10    1.40   1
  -6  -5  -3   11.10    1.50   1
   6   5   4   55.00    2.30   1
  -6  -5  -4   56.00    2.50   1
   6   5   5    2.00    1.40   1
  -6  -5  -5    3.20    1.50   1
   6   5   6   21.50    2.00   1
  -6  -5  -6   25.90    2.10   1
   6   5   7    2.90    1.60   1
  -6  -5  -7    0.50    1.70   1
   6   5   8   23.10    2.50   1
  -6  -5  -8   21.00    2.10   1
   6   5   9    4.60    1.90   1
  -6  -5  -9    3.10    2.00   1
   6   5  10   21.60    2.70   1
  -6  -5 -10   21.30    2.70   1
   6   5  11    1.60    2.30   1
  -6  -5 -11   -0.90    2.40   1
   6   6   0    6.30    1.50   1
   6   6   1   27.80    2.00   1
  -6  -6  -1   23.50    2.00   1
   6   6   2    5.40    1.50   1
  -6  -6  -2    7.30    1.60   1
   6   6   3   50.00    2.40   1
  -6  -6  -3   45.60    2.30   1
   6   6   4   46.10    2.70   1
  -6  -6  -4   43.30    2.30   1
   6   6   5    0.60    1.80   1
  -6  -6  -5   -0.70    1.40   1
   6   6   6    6.20    1.90   1
  -6  -6  -6    5.80    1.60   1
   6   6   7   56.70    3.10   1
  -6  -6  -7   55.80    2.90   1
   6   6   8    9.30    2.00   1
  -6  -6  -8    9.00    2.00   1
   6   6   9   13.60    2.50   1
  -6  -6  -9   15.10    2.50   1
   6   6  10   -1.00    2.30   1
  -6  -6 -10    0.10    2.10   1
   6   7   0    1.70    1.70   1
   6   7   1   74.90    3.00   1
  -6  -7  -1   81.40    3.10   1
   6   7   2    5.00    1.80   1
  -6  -7  -2    1.90    1.60   1
   6   7   3  148.10    4.60   1
  -6  -7  -3  148.50    4.40   1
   6   7   4    1.30    2.10   1
  -6  -7  -4   -2.50    1.70   1
   6   7   5   36.50    2.90   1
  -6  -7  -5   32.20    2.50   1
   6   7   6   -1.00    1.90   1
  -6  -7  -6    1.70    1.60   1
   6   7   7  248.90    7.20   1
  -6  -7  -7  259.40    7.30   1
   6   7   8    3.10    2.10   1
  -6  -7  -8    3.20    1.90   1
   6   7   9   -0.70    2.20   1
  -6  -7  -9    1.40    2.00   1
   6   8   0   14.10    1.80   1
   6   8   1    7.90    2.00   1
  -6  -8  -1    4.40    1.60   1
   6   8   2    1.90    1.90   1
  -6  -8  -2    1.70    1.70   1
   6   8   3   42.80    2.90   1
  -6  -8  -3   43.40    2.80   1
   6   8   4   -2.50    2.00   1
  -6  -8  -4    0.00    1.60   1
   6   8   5    1.00    2.00   1
  -6  -8  -5   -0.50    1.70   1
   6   8   6    0.80    2.10   1
  -6  -8  -6    1.00    1.80   1
   6   8   7   20.70    2.50   1
  -6  -8  -7   24.30    2.40   1
   6   9   0   49.80    3.10   1
   6   9   1    1.60    2.00   1
  -6  -9  -1    4.00    2.10   1
   6   9   2    0.60    1.70   1
  -6  -9  -2    2.80    2.10   1
   6   9   3   -6.30    2.20   1
  -6  -9  -3   -0.40    2.10   1
   6   9   4   21.60    2.70   1
  -6  -9  -4   21.80    2.50   1
   6   9   5    2.80    2.50   1
  -6  -9  -5   -0.60    2.20   1
   7   0   0    0.00    2.50   1
   7   0   1  129.60    4.00   1
   7   0   2    0.20    1.40   1
   7   0   3  106.30    3.50   1
   7   0   4   -1.90    1.60   1
   7   0   5  300.70    8.10   1
   7   0   6    0.10    1.90   1
   7   0   7   -1.60    2.10   1
   7   1   0    2.90    1.50   1
   7   1   1   26.90    2.10   1
  -7  -1  -1   26.30    2.10   1
   7   1   2   12.70    1.90   1
  -7  -1  -2   17.40    1.90   1
   7   1   3    1.30    1.60   1
  -7  -1  -3   -0.90    1.60   1
   7   1   4    2.90    1.70   1
  -7  -1  -4    0.80    1.70   1
   7   1   5   19.30    2.40   1
  -7  -1  -5   21.50    2.30   1
   7   1   6   12.00    2.70   1
  -7  -1  -6    8.20    2.00   1
   7   1   7   -2.60    2.30   1
  -7  -1  -7    4.10    2.60   1
   7   2   0   -1.20    1.70   1
   7   2   1    6.00    1.70   1
  -7  -2  -1    2.50    1.70   1
   7   2   2   13.00    1.80   1
  -7  -2  -2    8.70    1.70   1
   7   2   3    8.20    1.80   1
  -7  -2  -3   11.50    1.80   1
   7   2   4   -1.00    1.80   1
  -7  -2  -4   -1.00    1.60   1
   7   2   5   -0.70    2.00   1
  -7  -2  -5   -2.50    1.90   1
   7   2   6    2.60    2.30   1
  -7  -2  -6    3.70    2.20   1
   7   3   0    0.10    1.60   1
   7   3   1    7.20    1.70   1
  -7  -3  -1    7.80    1.80   1
   7   3   2  183.30    5.00   1
  -7  -3  -2  183.50    5.10   1
   7   3   3    1.70    1.80   1
  -7  -3  -3    0.00    1.60   1
   7   3   4   14.10    2.30   1
  -7  -3  -4   14.40    2.20   1
   7   3   5   -2.00    1.90   1
  -7  -3  -5    1.10    1.80   1
   7   3   6  108.40    5.40   1
  -7  -3  -6  109.50    4.90   1
   7   4   0   -1.40    1.60   1
   7   4   1   15.60    2.00   1
  -7  -4  -1   12.50    1.90   1
   7   4   2   28.40    2.20   1
  -7  -4  -2   31.50    2.30   1
   7   4   3    2.90    2.30   1
  -7  -4  -3    2.70    1.80   1
   7   4   4    1.50    1.90   1
  -7  -4  -4    2.60    1.90   1
   7   5   0   -0.90    1.70   1
   7   5   1    1.10    1.90   1
  -7  -5  -1   -2.60    2.00   1
   7   5   2   10.00    2.10   1
  -7  -5  -2    9.50    2.30   1
   0   0   0
;
_shelx_hkl_checksum              77974
_shelx_res_file
;
TITL Al(H2AsO4)(H2As2O7) in Pnma (from tlalnadk.res from Karo)
    shelx.res
    created by SHELXL-2016/6 at 12:35:49 on 19-May-2017
REM = new Al(H2As2O7)(H2AsO4) from Tl-Al-As mix (no H2O)
REM colourless acicular xls
CELL 0.71073   4.8690  11.0710  15.8070  90.000  90.000  90.000
ZERR    4.00   0.0010   0.0022   0.0032   0.000   0.000   0.000
LATT  1
SYMM 0.5-X, -Y, 0.5+Z
SYMM -X, 0.5+Y, -Z
SYMM 0.5+X, 0.5-Y, 0.5-Z
SFAC O H AL AS
UNIT 44 16 4 12
temp 20
eqiv $1 x-1, y, z
eqiv $2 x-1, -y+1/2, z
eqiv $3 x+1/2, y, -z+3/2
eqiv $4 x-1/2, y, -z+1/2
HTAB O2 O4_$1
HTAB O2 O1_$1
HTAB O3 O3_$3
HTAB O6 O6_$4
size 0.7 0.02 0.02
omit 0 1 1
omit 0 2 8
omit 0 4 2
omit 1 10 4
dfix 0.9 0.02 O3 H3
dfix 0.9 0.02 O6 H6
acta
bond $H
htab
L.S. 10
BOND
FMAP 2
PLAN 20
WGHT    0.029000    0.929700
EXTI    0.001256
FVAR       0.16137
MOLE   1
rem belongs to H2AsO4 group
AS1   4    0.060520    0.250000    0.600415    10.50000    0.00932    0.01492 =
         0.01188    0.00000    0.00002    0.00000
rem belongs to H2As2O7 group (As2-As2')
AS2   4    0.491890    0.105410    0.387363    11.00000    0.00772    0.01349 =
         0.01212    0.00040   -0.00065   -0.00032
AL1    3    0.000000    0.000000    0.500000    10.50000    0.00728    0.01313 =
         0.01278    0.00065   -0.00056   -0.00089
O1    1    0.184100    0.126648    0.554503    11.00000    0.01039    0.01519 =
         0.02099   -0.00385   -0.00125    0.00013
O2    1   -0.287799    0.250000    0.611171    10.50000    0.00936    0.03384 =
         0.01594    0.00000   -0.00001    0.00000
AFIX 147
H2    2   -0.356100    0.206796    0.574663    10.50000   -1.50000
AFIX   0
O3    1    0.140594    0.250000    0.705862    10.50000    0.01912    0.04013 =
         0.01333    0.00000   -0.00386    0.00000
H3    2    0.324176    0.250000    0.711936    10.50000    0.04984
rem
O4    1    0.738484    0.112240    0.457680    11.00000    0.01224    0.01733 =
         0.01773   -0.00058   -0.00519    0.00195
O5    1    0.217078    0.021702    0.400873    11.00000    0.01065    0.01965 =
         0.01662   -0.00164    0.00167   -0.00442
O6    1    0.633761    0.066438    0.291523    11.00000    0.01375    0.03794 =
         0.01449   -0.00370    0.00227   -0.00103
H6    2    0.502946    0.062747    0.253313    11.00000    0.03561
O7    1    0.365155    0.250000    0.370518    10.50000    0.01843    0.01381 =
         0.03432    0.00000   -0.01450    0.00000
HKLF 4
REM  Al(H2AsO4)(H2As2O7) in Pnma (from tlalnadk.res from Karo)
REM R1 =  0.0276 for    1319 Fo > 4sig(Fo)  and  0.0410 for all    1611 data
REM     85 parameters refined using      2 restraints
END
WGHT      0.0289      0.9296
REM Instructions for potential hydrogen bonds
HTAB O2 O1_$1
HTAB O2 O4_$1
EQIV $7 -x, -y, -z+1
HTAB O2 O5_$7
EQIV $6 x+1, y, z
HTAB O3 O2_$6
HTAB O3 O3_$3
HTAB O6 O6_$4
REM Highest difference peak  2.014,  deepest hole -1.040,  1-sigma level  0.173
Q1    1  -0.0718  0.2500  0.6035  10.50000  0.05    2.01
Q2    1   0.4289  0.2500  0.3310  10.50000  0.05    0.94
Q3    1  -0.4899  0.1851  0.6114  11.00000  0.05    0.84
Q4    1   0.0013  0.1036  0.6572  11.00000  0.05    0.82
Q5    1   0.3360  0.2500  0.4267  10.50000  0.05    0.80
Q6    1  -0.0568  0.0357  0.4001  11.00000  0.05    0.80
Q7    1   0.6579  0.1059  0.3917  11.00000  0.05    0.75
Q8    1   0.4909  0.1025  0.3397  11.00000  0.05    0.74
Q9    1   0.3605  0.1057  0.3856  11.00000  0.05    0.70
Q10   1   0.0634  0.2500  0.6466  10.50000  0.05    0.67
Q11   1   0.1463  0.1034  0.7004  11.00000  0.05    0.59
Q12   1   0.5613  0.2500  0.3204  10.50000  0.05    0.59
Q13   1   0.4388 -0.0363  0.3258  11.00000  0.05    0.56
Q14   1   0.0776  0.0328  0.3960  11.00000  0.05    0.56
Q15   1   0.1099  0.1643  0.5312  11.00000  0.05    0.55
Q16   1   0.5273  0.0100  0.2296  11.00000  0.05    0.54
Q17   1   0.1130  0.2500  0.5455  10.50000  0.05    0.54
Q18   1  -0.1542  0.2500  0.5278  10.50000  0.05    0.52
Q19   1   0.2298 -0.0233  0.4057  11.00000  0.05    0.51
Q20   1   0.2378  0.1929  0.5588  11.00000  0.05    0.49
;
_shelx_res_checksum              77400
loop_
_space_group_symop_operation_xyz
'x, y, z'
'-x+1/2, -y, z+1/2'
'-x, y+1/2, -z'
'x+1/2, -y+1/2, -z+1/2'
'-x, -y, -z'
'x-1/2, y, -z-1/2'
'x, -y-1/2, z'
'-x-1/2, y-1/2, z-1/2'
loop_
_atom_site_type_symbol
_atom_site_label
_atom_site_fract_x
_atom_site_fract_y
_atom_site_fract_z
_atom_site_U_iso_or_equiv
_atom_site_adp_type
_atom_site_calc_flag
_atom_site_occupancy
As As1 0.06052(8) 0.250000 0.60042(2) 0.01204(10) Uani d 1
As As2 0.49189(5) 0.10541(2) 0.38736(2) 0.01111(9) Uani d 1
Al Al1 0.000000 0.000000 0.500000 0.0111(2) Uani d 1
O O1 0.1841(4) 0.12665(17) 0.55450(12) 0.0155(4) Uani d 1
O O2 -0.2878(6) 0.250000 0.61117(17) 0.0197(6) Uani d 1
H H2 -0.356100 0.206796 0.574663 0.030 Uiso calc 0.5
O O3 0.1406(6) 0.250000 0.70586(18) 0.0242(7) Uani d 1
H H3 0.324(4) 0.250000 0.712(4) 0.050(18) Uiso d 1
O O4 0.7385(4) 0.11224(16) 0.45768(12) 0.0158(4) Uani d 1
O O5 0.2171(4) 0.02170(17) 0.40087(12) 0.0156(4) Uani d 1
O O6 0.6338(4) 0.0664(2) 0.29152(12) 0.0221(4) Uani d 1
H H6 0.503(6) 0.063(3) 0.253(2) 0.036(11) Uiso d 1
O O7 0.3652(6) 0.250000 0.37052(19) 0.0222(6) Uani d 1
loop_
_atom_site_aniso_label
_atom_site_aniso_U_11
_atom_site_aniso_U_22
_atom_site_aniso_U_33
_atom_site_aniso_U_12
_atom_site_aniso_U_13
_atom_site_aniso_U_23
As1 0.00932(16) 0.01492(18) 0.01188(17) 0.000 0.00002(13) 0.000
As2 0.00772(12) 0.01349(14) 0.01212(13) -0.00032(8) -0.00065(8) 0.00040(9)
Al1 0.0073(4) 0.0131(5) 0.0128(5) -0.0009(4) -0.0006(4) 0.0006(4)
O1 0.0104(8) 0.0152(9) 0.0210(9) 0.0001(7) -0.0012(7) -0.0038(8)
O2 0.0094(12) 0.0338(17) 0.0159(14) 0.000 0.0000(10) 0.000
O3 0.0191(15) 0.0401(18) 0.0133(14) 0.000 -0.0039(11) 0.000
O4 0.0122(8) 0.0173(10) 0.0177(9) 0.0019(7) -0.0052(7) -0.0006(7)
O5 0.0106(8) 0.0197(10) 0.0166(8) -0.0044(7) 0.0017(7) -0.0016(8)
O6 0.0138(9) 0.0379(13) 0.0145(9) -0.0010(9) 0.0023(7) -0.0037(9)
O7 0.0184(14) 0.0138(13) 0.0343(17) 0.000 -0.0145(13) 0.000
loop_
_atom_type_symbol
_atom_type_description
_atom_type_scat_dispersion_real
_atom_type_scat_dispersion_imag
_atom_type_scat_source
O O 0.0106 0.0060 'International Tables Vol C Tables 4.2.6.8 and 6.1.1.4'
H H 0.0000 0.0000 'International Tables Vol C Tables 4.2.6.8 and 6.1.1.4'
Al Al 0.0645 0.0514 'International Tables Vol C Tables 4.2.6.8 and 6.1.1.4'
As As 0.0499 2.0058 'International Tables Vol C Tables 4.2.6.8 and 6.1.1.4'
loop_
_geom_angle_atom_site_label_1
_geom_angle_atom_site_label_2
_geom_angle_atom_site_label_3
_geom_angle_site_symmetry_1
_geom_angle_site_symmetry_3
_geom_angle
O1 As1 O1 7_565 . 110.76(13)
O1 As1 O2 7_565 . 113.85(8)
O1 As1 O2 . . 113.85(8)
O1 As1 O3 7_565 . 110.07(9)
O1 As1 O3 . . 110.08(8)
O2 As1 O3 . . 97.44(14)
O4 As2 O5 . . 122.36(9)
O4 As2 O6 . . 108.35(9)
O5 As2 O6 . . 107.48(10)
O4 As2 O7 . . 108.79(10)
O5 As2 O7 . . 104.52(12)
O6 As2 O7 . . 103.83(13)
O1 Al1 O1 . 5_556 180.0
O1 Al1 O4 . 1_455 89.60(8)
O1 Al1 O4 5_556 1_455 90.40(8)
O1 Al1 O4 . 5_656 90.40(8)
O1 Al1 O4 5_556 5_656 89.60(8)
O4 Al1 O4 1_455 5_656 180.00(10)
O1 Al1 O5 . . 91.05(8)
O1 Al1 O5 5_556 . 88.95(8)
O4 Al1 O5 1_455 . 89.99(8)
O4 Al1 O5 5_656 . 90.01(8)
O1 Al1 O5 . 5_556 88.95(8)
O1 Al1 O5 5_556 5_556 91.06(8)
O4 Al1 O5 1_455 5_556 90.01(8)
O4 Al1 O5 5_656 5_556 89.99(8)
O5 Al1 O5 . 5_556 180.0
As1 O1 Al1 . . 130.04(11)
As1 O2 H2 . . 109.5
As1 O2 H2 . 7_565 109.5(14)
H2 O2 H2 . 7_565 71.4
As1 O3 H3 . . 109(4)
As2 O4 Al1 . 1_655 134.40(11)
As2 O5 Al1 . . 129.08(11)
As2 O6 H6 . . 109(3)
As2 O7 As2 . 7_565 134.45(17)
loop_
_geom_bond_atom_site_label_1
_geom_bond_atom_site_label_2
_geom_bond_site_symmetry_2
_geom_bond_distance
_geom_bond_publ_flag
As1 O1 7_565 1.6594(19) y
As1 O1 . 1.6594(19) y
As1 O2 . 1.704(3) y
As1 O3 . 1.712(3) y
As2 O4 . 1.6379(18) y
As2 O5 . 1.6416(19) y
As2 O6 . 1.720(2) y
As2 O7 . 1.7361(11) y
Al1 O1 . 1.8739(18) y
Al1 O1 5_556 1.8740(18) y
Al1 O4 1_455 1.9008(18) y
Al1 O4 5_656 1.9008(18) y
Al1 O5 . 1.9053(19) y
Al1 O5 5_556 1.9053(19) y
O2 H2 . 0.8200 ?
O2 H2 7_565 0.82(6) ?
O3 H3 . 0.90(2) ?
O6 H6 . 0.879(18) ?
loop_
_geom_hbond_atom_site_label_D
_geom_hbond_atom_site_label_H
_geom_hbond_atom_site_label_A
_geom_hbond_site_symmetry_A
_geom_hbond_distance_DH
_geom_hbond_distance_HA
_geom_hbond_distance_DA
_geom_hbond_angle_DHA
O2 H2 O4 1_455 0.82 2.17 2.869(3) 142.5
O2 H2 O1 1_455 0.82 2.43 3.046(3) 132.8
O3 H3 O3 6_657 0.90(2) 2.02(3) 2.806(3) 146(5)
O6 H6 O6 6_556 0.879(18) 1.93(2) 2.7659(19) 158(4)
