#------------------------------------------------------------------------------
#$Date: 2019-12-26 22:15:22 +0200 (Thu, 26 Dec 2019) $
#$Revision: 246162 $
#$URL: file:///home/coder/svn-repositories/cod/cif/2/31/19/2311905.cif $
#------------------------------------------------------------------------------
#
# This file is available in the Crystallography Open Database (COD),
# http://www.crystallography.net/. The original data for this entry
# were provided by IUCr Journals, http://journals.iucr.org/.
#
# The file may be used within the scientific community so long as
# proper attribution is given to the journal article from which the
# data were obtained.
#
data_2311905
loop_
_publ_author_name
'Szczesio, Ma\/lgorzata'
'Olczak, Andrzej'
'Gobis, Katarzyna'
'G\/l\'owka, Marek L'
_publ_section_title
;
 Planarity of benzoylthiocarbazate tuberculostatics. IV. Polymorphs of
 N'-(1,3-dithiolan-2-ylidene)-4-nitrobenzohydrazide.
;
_journal_coeditor_code           FN3245
_journal_issue                   'Pt 10'
_journal_name_full
'Acta crystallographica. Section C, Structural chemistry'
_journal_page_first              797
_journal_page_last               802
_journal_paper_doi               10.1107/S2053229617012566
_journal_volume                  73
_journal_year                    2017
_chemical_formula_moiety         'C10 H9 N3 O3 S2'
_chemical_formula_sum            'C10 H9 N3 O3 S2'
_chemical_formula_weight         283.32
_space_group_crystal_system      triclinic
_space_group_IT_number           2
_space_group_name_Hall           '-P 1'
_space_group_name_H-M_alt        'P -1'
_atom_sites_solution_hydrogens   mixed
_audit_creation_method           SHELXL-2014/7
_cell_angle_alpha                96.8770(10)
_cell_angle_beta                 95.134(2)
_cell_angle_gamma                96.3060(10)
_cell_formula_units_Z            2
_cell_length_a                   5.0506(2)
_cell_length_b                   8.0441(3)
_cell_length_c                   14.1954(5)
_cell_measurement_reflns_used    6181
_cell_measurement_temperature    100(2)
_cell_measurement_theta_max      70.5715
_cell_measurement_theta_min      5.581
_cell_volume                     566.02(4)
_computing_cell_refinement
;
SAINT-Plus (Bruker, 2003)
;
_computing_data_collection
;
APEX2 (Bruker, 2002)
;
_computing_data_reduction
;
SAINT-Plus (Bruker, 2003)
;
_computing_molecular_graphics
;
PLATON (Spek, 2009) and Mercury (Macrae <i>et al.</i>,  2006)
;
_computing_publication_material
;
PLATON (Spek, 2009)
;
_computing_structure_refinement
;
SHELXL97 (Sheldrick, 2008)
;
_computing_structure_solution
;
SHELXS97 (Sheldrick, 2008)
;
_diffrn_ambient_temperature      100(2)
_diffrn_measured_fraction_theta_full 0.961
_diffrn_measured_fraction_theta_max 0.947
_diffrn_measurement_device_type  'Bruker SMART APEXII CCD'
_diffrn_measurement_method       '\w scan'
_diffrn_radiation_type           CuK\a
_diffrn_radiation_wavelength     1.54178
_diffrn_reflns_av_R_equivalents  0.0259
_diffrn_reflns_limit_h_max       6
_diffrn_reflns_limit_h_min       -6
_diffrn_reflns_limit_k_max       9
_diffrn_reflns_limit_k_min       -9
_diffrn_reflns_limit_l_max       16
_diffrn_reflns_limit_l_min       -17
_diffrn_reflns_number            6795
_diffrn_reflns_theta_full        67.679
_diffrn_reflns_theta_max         70.561
_diffrn_reflns_theta_min         3.153
_exptl_absorpt_coefficient_mu    4.338
_exptl_absorpt_correction_T_max  0.7534
_exptl_absorpt_correction_T_min  0.5699
_exptl_absorpt_correction_type   multi-scan
_exptl_absorpt_process_details
;
(SADABS; Sheldrick, 2003)
;
_exptl_crystal_colour            colourless
_exptl_crystal_density_diffrn    1.662
_exptl_crystal_description       plate
_exptl_crystal_F_000             292
_exptl_crystal_size_max          0.928
_exptl_crystal_size_mid          0.075
_exptl_crystal_size_min          0.030
_refine_diff_density_max         0.351
_refine_diff_density_min         -0.336
_refine_ls_extinction_coef       0.0109(9)
_refine_ls_extinction_expression Fc^*^=kFc[1+0.001xFc^2^\l^3^/sin(2\q)]^-1/4^
_refine_ls_extinction_method
;
SHELXL-2016/6 (Sheldrick, 2015)
;
_refine_ls_goodness_of_fit_ref   1.088
_refine_ls_hydrogen_treatment    mixed
_refine_ls_matrix_type           full
_refine_ls_number_parameters     167
_refine_ls_number_reflns         2044
_refine_ls_number_restraints     0
_refine_ls_restrained_S_all      1.088
_refine_ls_R_factor_all          0.0265
_refine_ls_R_factor_gt           0.0263
_refine_ls_shift/su_max          0.001
_refine_ls_shift/su_mean         0.000
_refine_ls_structure_factor_coef Fsqd
_refine_ls_weighting_details
'w=1/[\s^2^(Fo^2^)+(0.0378P)^2^+0.3785P] where P=(Fo^2^+2Fc^2^)/3'
_refine_ls_weighting_scheme      calc
_refine_ls_wR_factor_gt          0.0717
_refine_ls_wR_factor_ref         0.0720
_reflns_number_gt                2013
_reflns_number_total             2044
_reflns_threshold_expression     'I > 2\s(I)'
_cod_data_source_file            fn3245sup1.cif
_cod_data_source_block           I2
_cod_database_code               2311905
_shelx_space_group_comment
;
The symmetry employed for this shelxl refinement is uniquely defined
by the following loop, which should always be used as a source of
symmetry information in preference to the above space-group names.
They are only intended as comments.
;
_shelx_estimated_absorpt_t_min   0.108
_shelx_estimated_absorpt_t_max   0.881
_shelx_hkl_file
;
  -1   0   0 3057.96  103.28
   1   0   0 2963.84  102.74
  -2   0   0  202.64    7.36
   2   0   0  215.68    9.50
   2   0   0  199.67    7.19
  -3   0   0  400.29   14.01
   3   0   0  409.52   14.52
   3   0   0  400.16   14.50
   3   0   0  421.92   14.17
  -4   0   0   80.52    2.98
   4   0   0   78.66    3.65
   4   0   0   86.13    3.22
   4   0   0   82.50    3.66
   5   0   0   23.25    1.38
   5   0   0   22.07    1.04
   5   0   0   21.16    1.48
   5   0   0   22.46    1.07
  -6   0   0    1.09    0.40
   6   0   0    1.17    0.17
   6  -1   0   25.93    1.02
  -6   1   0   26.17    1.31
   5  -1   0  593.75   21.36
   5  -1   0  652.83   21.29
   5  -1   0  586.36   22.43
   5  -1   0  636.15   21.29
   5  -1   0  626.57   21.60
   5  -1   0  593.42   21.73
  -5   1   0  636.59   21.83
   4  -1   0  141.32    5.69
   4  -1   0  143.93    5.26
  -4   1   0  142.09    5.66
   3  -1   0   15.66    1.15
   3  -1   0   15.36    0.84
   3  -1   0   14.92    1.11
   3  -1   0   14.50    0.90
  -3   1   0   17.29    2.62
   2  -1   0  150.54    5.45
  -2   1   0  156.14    7.35
   1  -1   0   14.98    0.67
  -1   1   0   15.07    1.49
   0  -1   0  235.61    8.46
   0  -1   0  239.02    8.57
  -1  -1   0  520.81   17.96
   1   1   0  530.89   17.70
   1   1   0  504.26   19.16
  -2  -1   0 2302.24   77.13
   2   1   0 2167.76   78.87
  -3  -1   0  107.87    3.85
   3   1   0  106.83    6.94
   3   1   0  108.60    4.39
   3   1   0  106.96    4.35
   3   1   0  108.89    3.98
  -4  -1   0  106.05    3.75
   4   1   0  104.66    3.93
   4   1   0  106.09    4.41
   4   1   0   96.22    4.42
   5   1   0  212.83    8.43
   5   1   0  235.34    8.28
   5   1   0  228.22    7.92
   6  -2   0  198.75    6.72
   6  -2   0  188.71    6.79
  -6   2   0  195.79    6.96
   5  -2   0    4.70    0.44
   5  -2   0    4.16    0.49
   5  -2   0    3.92    0.61
   5  -2   0    5.65    0.88
   5  -2   0    3.60    0.60
  -5   2   0    6.03    1.28
   4  -2   0  177.72    6.29
   4  -2   0  170.31    6.73
  -4   2   0  171.65    6.71
   3  -2   0 1594.82   61.52
   3  -2   0 1864.91   61.26
   3  -2   0 1882.01   61.38
  -3   2   0 1830.39   61.58
  -3   2   0 1798.24   64.69
   2  -2   0   14.74    0.81
   2  -2   0   14.11    0.70
  -2   2   0   15.15    2.09
  -2   2   0   14.46    0.90
   1  -2   0 1642.16   55.84
  -1   2   0 1610.93   56.93
   0  -2   0 7018.00  247.62
   0  -2   0 7253.85  244.36
  -1  -2   0 3132.88   94.67
   1   2   0 2331.94   95.72
  -2  -2   0  139.05    4.95
  -2  -2   0  139.54    5.49
   2   2   0  137.27    5.29
   2   2   0  144.82    5.35
   2   2   0  147.59    7.85
  -3  -2   0  268.50    9.11
  -3  -2   0  256.63    9.85
   3   2   0  262.54    9.74
   3   2   0  263.19    9.66
   3   2   0  257.74   13.20
  -4  -2   0  335.88   11.25
   4   2   0  317.19   11.30
   4   2   0  325.05   11.26
   4   2   0  292.75   12.00
   4   2   0  326.80   11.92
   4   2   0  337.90   11.76
   4   2   0  328.79   11.97
  -5  -2   0   53.28    2.00
   5   2   0   52.88    2.04
   5   2   0   49.11    2.52
   5   2   0   58.65    2.39
   6  -3   0   76.46    2.69
   5  -3   0    0.40    0.51
   5  -3   0    0.05    0.21
   5  -3   0    0.54    0.36
  -5   3   0    0.43    0.51
   4  -3   0 1785.02   58.97
   4  -3   0 1492.36   59.33
   4  -3   0 1782.05   58.95
   4  -3   0 1632.97   59.38
   4  -3   0 1845.41   59.04
   4  -3   0 1740.83   58.90
  -4   3   0 1803.07   59.54
   3  -3   0  152.32    6.01
   3  -3   0  166.15    5.90
   3  -3   0  167.02    6.22
   3  -3   0  164.25    5.90
  -3   3   0  168.09    9.02
  -3   3   0  169.59    6.26
   2  -3   0  116.03    4.23
   2  -3   0  114.92    4.36
   2  -3   0  115.43    4.26
   2  -3   0  116.35    4.44
  -2   3   0  132.13    6.72
  -2   3   0  119.27    4.48
   1  -3   0  459.68   14.41
  -1   3   0  372.13   16.65
   0  -3   0   55.69    2.47
   0  -3   0   59.66    2.19
   0   3   0   68.11    3.94
  -1  -3   0  375.88   13.10
  -1  -3   0  344.73   12.57
   1   3   0  369.18   15.37
   1   3   0  370.94   12.81
  -2  -3   0  157.58    6.35
  -2  -3   0  157.49    5.66
  -2  -3   0  158.18    5.66
   2   3   0  165.96    6.15
   2   3   0  170.29    9.19
  -3  -3   0  972.68   32.73
   3   3   0  939.68   33.49
  -4  -3   0   10.67    0.63
   4   3   0    8.02    1.23
   4   3   0   10.34    1.04
   4   3   0   11.16    1.27
   4   3   0   10.53    0.70
  -5  -3   0   37.54    1.45
   5   3   0   35.10    1.92
   5   3   0   39.53    1.70
   5  -4   0  124.85    4.41
   5  -4   0  120.70    4.44
   5  -4   0  127.59    4.50
   4  -4   0   -0.19    0.56
   4  -4   0    0.17    0.24
   4  -4   0    0.57    0.58
   4  -4   0   -0.04    0.25
   4  -4   0    0.33    0.22
   4  -4   0    0.91    0.47
  -4   4   0    0.23    0.71
   3  -4   0   34.85    1.49
   3  -4   0   33.48    1.54
   3  -4   0   35.44    1.85
  -3   4   0   36.11    2.09
   2  -4   0 4370.89  140.08
   2  -4   0 4605.25  140.67
   2  -4   0 4297.80  139.69
   2  -4   0 3856.43  140.24
  -2   4   0 3383.12  143.42
   1  -4   0  339.72   11.75
   1  -4   0  338.20   11.76
   0  -4   0  667.56   23.62
   0  -4   0  679.14   23.64
   0  -4   0  682.71   24.04
   0   4   0  679.79   26.12
   0   4   0  739.61   23.85
  -1  -4   0 1293.49   43.96
  -1  -4   0 1291.14   44.64
   1   4   0 1302.40   44.30
   1   4   0 1265.85   47.83
  -2  -4   0  446.38   16.83
  -2  -4   0  452.98   15.94
  -2  -4   0  464.38   15.98
   2   4   0  472.38   20.78
   2   4   0  482.64   16.63
  -3  -4   0   41.75    1.67
   3   4   0   44.96    2.48
   3   4   0   41.88    2.48
   3   4   0   39.34    1.80
  -4  -4   0    6.74    0.52
   4   4   0    8.22    1.19
  -5  -4   0  721.79   23.97
   5   4   0  681.12   24.35
   5  -5   0   13.91    0.68
   5  -5   0   14.55    0.81
   5  -5   0   13.76    0.64
   4  -5   0  216.82    7.56
   4  -5   0  210.96    7.65
   4  -5   0  205.15    7.63
   4  -5   0  233.99    7.71
   3  -5   0  254.62    9.12
   3  -5   0  267.46    9.30
   1  -5   0  426.85   15.44
  -1   5   0  449.50   19.18
  -1   5   0  461.92   15.76
   0  -5   0  220.09    7.82
   0   5   0  237.97    8.15
   0   5   0  212.48   10.89
  -1  -5   0   -0.05    0.56
   1   5   0    0.29    1.18
  -2  -5   0   15.10    0.83
   2   5   0   15.75    1.40
  -3  -5   0  407.84   14.62
   3   5   0  404.25   15.59
   3   5   0  453.55   15.54
   3   5   0  430.11   14.69
  -4  -5   0  260.84    8.45
   4   5   0  222.94    9.05
   5  -6   0   63.50    2.36
  -5   6   0   67.39    2.52
   4  -6   0    3.31    0.39
   4  -6   0    3.76    0.55
   3  -6   0  563.61   19.33
   3  -6   0  576.22   19.19
   3  -6   0  544.71   19.39
   3  -6   0  538.30   19.17
   2  -6   0 1283.36   43.11
  -2   6   0 1228.87   43.46
   1  -6   0  387.60   13.81
  -1   6   0  404.44   14.11
   0  -6   0  167.79    6.14
   0   6   0  176.83    6.59
  -1  -6   0    3.62    0.46
   1   6   0    4.36    0.89
  -2  -6   0  541.39   19.13
  -2  -6   0  556.15   19.02
   2   6   0  544.47   19.92
   2   6   0  572.11   19.82
  -3  -6   0   80.04    2.92
   3   6   0   80.91    3.67
  -4  -6   0    2.98    0.28
   4   6   0    2.38    0.52
   4  -7   0    1.54    0.26
  -4   7   0    2.24    0.50
   3  -7   0   83.60    3.19
   3  -7   0   87.46    3.24
   3  -7   0   91.17    4.03
  -3   7   0   90.11    3.42
   2  -7   0  101.57    3.92
   2  -7   0  103.77    3.72
   2  -7   0  103.90    4.05
  -2   7   0  101.10    3.86
  -2   7   0   99.98    4.20
   0  -7   0    5.68    0.45
   0  -7   0    4.53    0.41
   0  -7   0    5.16    0.51
   0   7   0    5.98    0.89
   0   7   0    6.14    0.95
  -1  -7   0  386.89   13.42
  -1  -7   0  384.21   13.56
   1   7   0  393.89   14.26
   1   7   0  389.00   14.09
  -2  -7   0  180.21    6.34
   2   7   0  180.39    7.06
  -3  -7   0   35.62    1.35
   3   7   0   35.09    1.88
  -4   8   0   83.77    3.02
   3  -8   0  115.48    4.10
  -3   8   0  116.29    4.23
   2  -8   0    3.04    0.35
  -2   8   0    2.55    0.47
   1  -8   0  394.56   13.46
  -1   8   0  384.09   13.91
   0  -8   0  499.67   17.19
   0  -8   0  486.33   17.18
   0   8   0  514.49   17.79
  -1  -8   0   17.31    0.83
   1   8   0   17.27    1.34
  -2  -8   0   33.75    1.30
   2   8   0   32.38    1.76
   2  -9   0  348.83   12.00
   1  -9   0   43.18    1.62
  -1   9   0   41.89    1.96
   0   9   0    5.14    0.72
  -1  -9   0   86.35    3.10
   1   9   0   88.36    3.49
   1   9  -1   68.89    2.82
  -1  -9   1   68.64    2.47
   0   9  -1  157.08    5.87
   1  -9   1   93.90    3.36
  -2   9  -1  283.17   10.02
   2  -9   1  293.48    9.95
   2   8  -1   34.13    1.77
  -2  -8   1   32.69    1.31
   1   8  -1  215.43    8.02
  -1  -8   1  212.53    7.47
   0   8  -1    1.76    0.57
   0  -8   1   -0.08    0.19
   0  -8   1   -0.12    0.19
  -1   8  -1   47.13    2.02
  -1   8  -1   46.01    2.33
   1  -8   1   48.10    1.85
  -2   8  -1  266.21    9.57
   2  -8   1  276.93    9.45
  -3   8  -1   36.21    1.61
   3  -8   1   37.69    1.43
  -4   8  -1  105.45    3.77
   3   7  -1  331.49   11.77
  -3  -7   1  320.15   11.21
   2   7  -1   55.72    2.73
  -2  -7   1   55.68    2.12
   1   7  -1   66.36    3.20
   1   7  -1   66.95    3.09
  -1  -7   1   68.66    2.53
  -1  -7   1   66.28    2.63
   0   7  -1  112.17    4.18
   0   7  -1  110.46    4.47
   0   7  -1  111.09    4.55
   0  -7   1  114.12    4.12
   0  -7   1  109.74    3.99
   0  -7   1  108.75    3.98
  -1   7  -1  774.49   26.94
  -1   7  -1  745.11   26.58
   1  -7   1  784.88   26.45
   1  -7   1  781.28   26.61
  -2   7  -1  122.27    4.91
  -2   7  -1  128.43    4.66
   2  -7   1  124.86    4.70
   2  -7   1  125.03    4.49
  -3   7  -1   54.55    2.25
   3  -7   1   49.65    1.97
   3  -7   1   52.10    2.03
  -4   7  -1  392.23   13.48
   4  -7   1  384.59   13.39
   4   6  -1  662.44   23.56
  -4  -6   1  690.05   23.13
   3   6  -1    6.39    0.58
   3   6  -1    7.98    1.05
  -3  -6   1    6.75    0.47
   2   6  -1  292.95   10.87
   2   6  -1  287.53   10.72
  -2  -6   1  291.84   10.04
  -2  -6   1  283.67   10.14
   1   6  -1 1139.37   39.76
  -1  -6   1 1150.46   39.22
   0   6  -1   44.40    2.23
   0  -6   1   47.24    1.86
  -1   6  -1   48.11    2.25
   1  -6   1   46.63    1.99
  -2   6  -1  102.40    4.65
  -2   6  -1   84.42    3.82
   2  -6   1   87.96    3.51
   3  -6   1  433.55   14.81
   3  -6   1  411.07   14.63
   4  -6   1   38.36    1.59
  -5   6  -1   97.52    3.55
   5  -6   1   97.44    3.46
   4   5  -1   57.05    2.77
   3   5  -1  243.18    8.51
   3   5  -1  241.07    9.17
   3   5  -1  254.23    9.40
  -3  -5   1  227.60    8.44
   2   5  -1 1220.40   41.25
  -2  -5   1 1130.33   40.53
  -2  -5   1 1206.76   40.58
   1   5  -1  148.86    5.60
  -1  -5   1  139.80    5.93
  -1  -5   1  147.04    5.19
   0   5  -1  784.03   27.54
   0   5  -1  801.28   30.85
   0  -5   1  804.48   27.28
  -1   5  -1  380.57   13.43
  -1   5  -1  367.89   13.53
  -1   5  -1  407.50   16.93
   1  -5   1  366.52   13.21
   4  -5   1    7.88    0.81
   4  -5   1    7.57    0.60
   4  -5   1    8.39    0.62
   5  -5   1   91.68    3.27
   5  -5   1   86.18    3.21
   5  -5   1   93.84    3.30
   5   4  -1  132.56    5.42
  -5  -4   1  155.09    5.04
   4   4  -1  159.78    5.69
   4   4  -1  157.41    6.53
   4   4  -1  170.61    6.45
  -4  -4   1  149.43    5.64
   3   4  -1  567.46   20.51
  -3  -4   1  576.64   19.70
   2   4  -1  190.05   11.39
   2   4  -1  198.14    7.34
  -2  -4   1  194.03    6.80
  -2  -4   1  194.12    7.67
  -2  -4   1  190.63    6.77
   1   4  -1  447.15   15.07
   1   4  -1  419.02   15.04
   1   4  -1  411.92   14.71
  -1  -4   1  435.25   15.44
  -1  -4   1  431.49   14.77
   0   4  -1  684.43   23.52
   0   4  -1  704.43   23.57
   0   4  -1  727.94   25.98
   0  -4   1  658.68   23.34
   0  -4   1  634.69   23.75
   2  -4   1  152.08    5.50
   2  -4   1  158.22    5.60
   2  -4   1  150.64    5.60
   2  -4   1  151.17    5.41
  -3   4  -1   74.89    3.43
   3  -4   1   73.45    3.05
   3  -4   1   71.22    2.84
   3  -4   1   72.37    2.78
  -4   4  -1  277.49   10.67
   4  -4   1  268.96    9.82
   4  -4   1  285.00    9.96
   4  -4   1  279.93    9.91
   4  -4   1  300.27    9.91
   5  -4   1  417.10   14.78
   5  -4   1  437.03   14.80
   5  -4   1  432.14   14.75
   5   3  -1  427.06   15.41
   5   3  -1  434.38   15.12
  -5  -3   1  434.84   14.85
   4   3  -1    2.81    0.65
   4   3  -1    3.28    0.87
   4   3  -1    2.78    0.78
   4   3  -1    2.07    0.37
   3   3  -1    8.88    1.05
   3   3  -1    7.47    0.93
  -3  -3   1    7.86    0.58
   2   3  -1   13.04    0.99
   2   3  -1   11.43    0.95
   2   3  -1   12.34    2.68
  -2  -3   1   12.95    1.14
  -2  -3   1   12.53    0.62
   1   3  -1 1735.23   61.32
  -1  -3   1 1807.40   60.94
  -1  -3   1 1821.30   61.40
   0   3  -1  625.09   21.51
   0  -3   1  552.87   19.94
   0  -3   1  543.61   19.59
  -2   3  -1   95.26    5.50
  -2   3  -1   83.48    3.37
   2  -3   1   81.68    3.25
   2  -3   1   81.05    3.11
   2  -3   1   85.59    3.29
   2  -3   1   82.68    3.15
  -3   3  -1    2.55    1.51
  -3   3  -1    2.93    0.65
   3  -3   1    2.43    0.47
   3  -3   1    2.25    0.36
   3  -3   1    2.25    0.60
   3  -3   1    2.24    0.36
  -4   3  -1  144.03    5.61
   4  -3   1  131.23    5.26
   4  -3   1  142.67    5.05
   4  -3   1  142.99    5.05
   4  -3   1  134.46    4.98
   4  -3   1  137.98    5.11
  -5   3  -1    0.65    0.54
   5  -3   1    0.82    0.25
   5  -3   1    0.67    0.35
   5   2  -1   66.02    2.78
   5   2  -1   65.80    2.99
  -5  -2   1   63.13    2.43
   4   2  -1   55.77    2.25
   4   2  -1   57.89    2.85
   4   2  -1   60.44    3.00
   4   2  -1   59.14    2.74
   4   2  -1   57.01    2.34
   4   2  -1   60.71    2.87
  -4  -2   1   55.88    2.22
   3   2  -1  410.04   19.01
   3   2  -1  411.08   14.71
   3   2  -1  417.56   14.72
  -3  -2   1  416.95   14.12
  -3  -2   1  390.19   14.84
   2   2  -1  502.41   20.99
   2   2  -1  528.02   17.89
   2   2  -1  495.97   17.88
   2   2  -1  523.00   17.52
  -2  -2   1  506.83   18.06
   1   2  -1  864.00   31.71
   0   2  -1  927.09   30.28
   0  -2   1  830.71   29.22
   0  -2   1  793.57   29.06
  -1   2  -1 6814.37  265.16
   1  -2   1 7749.41  258.12
   1  -2   1 8156.49  258.48
  -2   2  -1   34.96    1.59
  -2   2  -1   36.77    2.91
   2  -2   1   34.62    1.41
   2  -2   1   35.06    1.51
  -3   2  -1   89.79    5.75
  -3   2  -1   91.17    3.70
   3  -2   1   93.09    3.55
   3  -2   1   88.02    3.41
   3  -2   1   94.45    3.73
  -4   2  -1  500.30   17.63
   4  -2   1  478.35   17.58
   4  -2   1  504.63   17.22
   5  -2   1  312.61   10.98
   5  -2   1  317.90   10.98
  -6   2  -1    2.08    0.46
   6  -2   1    1.45    0.18
   5   1  -1   49.81    2.47
   5   1  -1   47.89    1.97
   5   1  -1   47.50    1.91
   5   1  -1   51.35    2.31
   4   1  -1  742.35   26.49
   4   1  -1  766.55   26.48
  -4  -1   1  742.21   25.72
   3   1  -1   44.30    2.19
   3   1  -1   43.72    4.41
   3   1  -1   44.29    2.19
   3   1  -1   43.09    1.78
  -3  -1   1   46.07    1.71
   2   1  -1  176.26    8.60
  -2  -1   1  157.76    6.19
   1   1  -1   36.61    2.84
   1   1  -1   36.79    1.35
  -1  -1   1   39.19    1.69
   0   1  -1  532.60   18.50
   0  -1   1  488.46   17.39
  -1   1  -1 2515.85   92.04
  -1   1  -1 2399.37   89.58
   1  -1   1 2949.31   89.67
  -2   1  -1  936.76   34.24
   2  -1   1  949.84   32.34
  -3   1  -1  878.56   30.95
  -3   1  -1  905.96   34.26
   3  -1   1  921.19   31.15
   3  -1   1  882.24   31.43
   3  -1   1  948.88   31.25
  -4   1  -1  181.28    6.93
   4  -1   1  178.93    6.55
   4  -1   1  180.10    6.93
   5  -1   1  426.48   14.68
   5  -1   1  429.79   14.99
   5  -1   1  415.03   14.65
  -6   1  -1  361.53   12.83
   6  -1   1  374.40   12.63
   6   0  -1  141.10    5.00
   6   0  -1  147.65    5.31
   5   0  -1  544.99   18.33
   5   0  -1  528.18   18.88
   5   0  -1  546.00   18.71
   5   0  -1  473.40   19.10
   5   0  -1  548.23   18.37
  -5   0   1  546.79   19.08
   4   0  -1   36.68    1.61
   4   0  -1   35.08    2.05
   4   0  -1   34.20    2.03
   3   0  -1  492.12   20.38
   3   0  -1  464.77   16.69
   3   0  -1  461.31   16.72
   3   0  -1  465.54   16.32
  -3   0   1  478.03   16.20
   2   0  -1 1441.20   47.70
   2   0  -1 1382.76   50.38
  -2   0   1 1368.89   47.87
   1   0  -1  647.40   23.50
   1   0  -1  646.40   22.12
  -1   0   1  652.34   22.24
   0   0  -1   -0.16    0.19
   0   0   1   -0.23    0.10
  -1   0  -1 1248.05   43.14
   1   0   1 1211.00   44.12
   1   0   1 1283.75   42.52
  -2   0  -1 4012.83  136.33
   2   0   1 4247.12  135.47
   2   0   1 3602.67  139.52
  -3   0  -1   14.60    2.37
  -3   0  -1   14.92    0.69
   3   0   1   15.85    0.86
   3   0   1   15.50    1.13
   3   0   1   15.62    1.09
  -4   0  -1   19.55    0.88
  -4   0  -1   17.76    1.43
   4   0   1   21.35    1.48
   4   0   1   20.22    1.10
   5   0   1  174.49    6.63
   5   0   1  174.33    6.21
   5   0   1  174.34    6.52
  -6   0  -1   15.13    0.92
   6   0   1   15.17    0.65
   6  -1  -1    0.53    0.14
   6  -1  -1    0.52    0.23
   6  -1  -1    0.69    0.37
  -6   1   1    1.09    0.42
   5  -1  -1    4.91    0.89
   5  -1  -1    5.81    0.79
   5  -1  -1    5.51    0.85
   5  -1  -1    5.55    0.54
   5  -1  -1    6.75    0.53
   5  -1  -1    5.76    0.61
  -5   1   1    6.00    0.90
   4  -1  -1    2.93    0.44
   4  -1  -1    2.56    0.71
   3  -1  -1 1261.34   42.94
   3  -1  -1 1217.35   42.89
   3  -1  -1 1240.90   42.53
   3  -1  -1 1241.59   42.59
  -3   1   1 1256.63   46.32
   2  -1  -1    9.71    0.58
  -2   1   1    8.54    1.90
   1  -1  -1 1127.60   37.84
  -1   1   1 1088.17   38.92
   0  -1  -1   42.07    1.63
   0  -1  -1   43.25    1.51
  -1  -1  -1  501.42   17.26
   1   1   1  489.48   17.01
   1   1   1  502.72   18.31
  -2  -1  -1 1282.85   44.01
  -2  -1  -1 1277.28   43.57
   2   1   1 1287.06   43.66
   2   1   1 1267.06   46.14
  -3  -1  -1  232.45    8.04
   3   1   1  234.68    8.21
   3   1   1  231.37   11.38
   3   1   1  235.73    8.55
   3   1   1  223.82    8.58
  -4  -1  -1   57.73    2.09
   4   1   1   51.44    2.69
   4   1   1   56.02    2.75
   4   1   1   54.47    2.66
   4   1   1   51.10    2.15
   4   1   1   53.40    2.26
   4   1   1   54.81    2.55
   5   1   1    1.70    0.57
   5   1   1    2.14    0.33
   5   1   1    1.89    0.51
   6  -2  -1   51.47    2.24
   6  -2  -1   51.03    1.91
   6  -2  -1   52.27    1.87
  -6   2   1   51.98    2.13
   5  -2  -1  159.52    6.13
   5  -2  -1  170.66    5.84
   5  -2  -1  159.78    6.37
   5  -2  -1  178.42    5.93
   5  -2  -1  156.58    6.04
  -5   2   1  160.41    6.43
   4  -2  -1  504.92   17.56
   4  -2  -1  496.02   18.07
  -4   2   1  516.40   18.06
   3  -2  -1  134.08    5.15
   3  -2  -1  128.15    4.85
   3  -2  -1  130.03    4.77
  -3   2   1  131.74    5.12
  -3   2   1  136.97    7.76
   2  -2  -1 1525.03   57.35
   2  -2  -1 1735.56   57.16
   2  -2  -1 1739.93   57.26
  -2   2   1 1707.85   59.61
  -1   2   1 9999.00  349.46
   0  -2  -1 5244.88  186.55
   0  -2  -1 5275.55  180.48
  -1  -2  -1  482.34   16.73
   1   2   1  450.66   16.31
   1   2   1  499.32   18.23
  -2  -2  -1 1817.37   60.65
  -2  -2  -1 1841.01   61.26
   2   2   1 1746.63   63.67
   2   2   1 1808.89   60.74
   2   2   1 1691.02   61.04
  -3  -2  -1  429.59   14.61
  -3  -2  -1  420.80   15.34
   3   2   1  439.34   14.77
   3   2   1  406.63   15.24
  -4  -2  -1    6.91    0.52
   4   2   1    7.64    1.08
   4   2   1    6.62    1.05
   4   2   1    6.61    0.92
   4   2   1    5.81    0.55
  -5  -2  -1   26.36    1.11
   5   2   1   27.55    1.57
   5   2   1   25.36    1.15
   5   2   1   28.28    1.43
   6  -3  -1  171.99    6.07
   6  -3  -1  176.14    6.01
   5  -3  -1   15.11    1.24
   5  -3  -1   16.16    0.80
   5  -3  -1   17.45    0.99
   4  -3  -1   46.09    1.90
   4  -3  -1   47.03    2.43
   4  -3  -1   47.26    2.43
   4  -3  -1   46.53    1.86
   4  -3  -1   49.16    1.99
  -4   3   1   47.52    2.45
   3  -3  -1  460.76   17.85
   3  -3  -1  507.95   18.12
   3  -3  -1  533.58   17.78
   3  -3  -1  518.41   17.77
  -3   3   1  530.93   18.15
  -3   3   1  535.04   21.62
   2  -3  -1  154.61    5.97
   2  -3  -1  165.39    5.92
   2  -3  -1  165.61    6.11
   2  -3  -1  166.51    5.88
  -2   3   1  182.44    8.52
  -2   3   1  170.95    6.13
   1  -3  -1   98.44    3.54
  -1   3   1   92.55    5.79
   0  -3  -1 1311.34   42.95
   0  -3  -1 1301.21   42.81
   0   3   1 1139.94   44.33
  -1  -3  -1  637.17   22.19
  -1  -3  -1  633.42   22.71
   1   3   1  683.35   24.88
   1   3   1  637.90   22.47
  -2  -3  -1  117.14    4.27
  -2  -3  -1  119.49    4.26
  -2  -3  -1  119.97    4.97
   2   3   1  124.04    4.80
   2   3   1  122.39    7.19
  -3  -3  -1  623.64   19.47
   3   3   1  508.11   20.17
  -4  -3  -1  407.03   13.65
  -4  -3  -1  414.15   13.67
   4   3   1  344.91   14.33
   4   3   1  411.63   14.56
  -5  -3  -1   10.40    0.56
   5   3   1   10.36    0.91
   5  -4  -1  285.26    9.64
   5  -4  -1  269.68    9.87
   5  -4  -1  277.05    9.57
   5  -4  -1  269.92    9.53
   4  -4  -1 1257.24   39.70
   4  -4  -1 1055.70   40.00
   4  -4  -1 1162.15   39.67
   4  -4  -1 1162.87   39.63
   4  -4  -1 1117.45   40.04
   4  -4  -1 1177.82   39.57
  -4   4   1 1171.96   40.35
   3  -4  -1    5.18    0.85
   3  -4  -1    3.63    0.40
   3  -4  -1    3.67    0.45
  -3   4   1    3.51    0.80
   2  -4  -1 2495.51   77.44
   2  -4  -1 2386.57   77.50
   2  -4  -1 2215.72   77.56
   2  -4  -1 2495.55   77.33
  -2   4   1 1935.32   77.68
  -2   4   1 2090.80   81.72
   1  -4  -1 4634.95  156.66
   1  -4  -1 4312.71  156.24
   1  -4  -1 4822.47  156.26
   1  -4  -1 4551.74  156.16
   0  -4  -1   41.42    1.61
   0  -4  -1   39.51    1.62
   0  -4  -1   41.35    2.00
   0   4   1   44.63    1.89
   0   4   1   44.38    3.54
  -1  -4  -1  195.96    7.01
  -1  -4  -1  199.73    7.66
   1   4   1  209.29   10.15
   1   4   1  197.27    7.39
  -2  -4  -1  194.96    7.63
  -2  -4  -1  192.47    6.71
  -2  -4  -1  193.14    6.75
   2   4   1  187.06    7.41
  -3  -4  -1  721.35   23.64
   3   4   1  720.75   23.69
   3   4   1  624.06   24.40
  -4  -4  -1  123.18    4.12
   4   4   1  102.51    4.77
  -5  -4  -1  156.88    5.63
   5   4   1  167.97    5.95
   5  -5  -1  344.38   11.81
   5  -5  -1  350.95   11.86
   5  -5  -1  342.63   11.89
   5  -5  -1  336.93   12.04
   4  -5  -1  197.96    7.58
   4  -5  -1  209.10    7.29
   4  -5  -1  217.05    7.35
   4  -5  -1  205.98    7.19
   4  -5  -1  199.99    7.28
   1  -5  -1   30.25    1.35
   1  -5  -1   30.49    1.33
  -1   5   1   32.70    1.88
  -1   5   1   28.36    3.88
   0  -5  -1 1344.26   46.16
   0   5   1 1362.14   46.51
   0   5   1 1349.33   49.70
  -1  -5  -1  114.37    5.02
  -1  -5  -1  124.54    4.34
   1   5   1  117.23    7.94
   1   5   1  121.63    4.83
  -2  -5  -1    8.73    0.62
   2   5   1    9.09    1.27
  -3  -5  -1   19.15    0.85
   3   5   1   15.82    1.60
   3   5   1   15.45    1.48
  -4  -5  -1    7.02    0.54
   4   5   1    7.08    0.96
   5  -6  -1  138.94    4.76
  -5   6   1  133.17    4.88
   4  -6  -1   34.93    1.55
   4  -6  -1   34.41    1.74
   4  -6  -1   34.37    1.44
   3  -6  -1 1005.55   35.36
   3  -6  -1 1063.89   35.27
   3  -6  -1 1036.62   35.10
   3  -6  -1  993.50   35.10
   2  -6  -1   36.33    1.66
  -2   6   1   36.31    2.37
   1  -6  -1  220.82    8.04
  -1   6   1  231.06    8.42
   0  -6  -1  966.52   33.02
   0   6   1  960.33   33.51
  -1  -6  -1   15.45    0.87
   1   6   1   14.80    1.38
  -2  -6  -1   74.47    2.71
  -2  -6  -1   75.80    2.83
   2   6   1   65.29    3.49
   2   6   1   76.21    3.51
  -3  -6  -1    1.38    0.29
  -3  -6  -1    1.05    0.24
   3   6   1    0.55    0.62
  -4  -6  -1  681.38   23.03
   4   6   1  667.29   23.43
   4  -7  -1    0.21    0.19
   4  -7  -1    1.10    0.40
  -4   7   1    1.35    0.45
   3  -7  -1  147.94    5.27
   3  -7  -1  150.98    5.31
   3  -7  -1  148.99    5.60
  -3   7   1  148.21    5.43
   2  -7  -1  364.02   12.77
   2  -7  -1  362.66   12.57
   2  -7  -1  368.52   12.94
  -2   7   1  356.51   12.66
   1  -7  -1  243.48    8.43
   1  -7  -1  239.79    8.85
   1  -7  -1  235.24    8.57
  -1   7   1  245.30    9.03
   0  -7  -1  159.94    5.78
   0  -7  -1  167.30    5.80
   0  -7  -1  162.78    5.91
   0   7   1  167.63    6.39
   0   7   1  163.13    6.47
  -1  -7  -1  121.28    4.43
  -1  -7  -1  121.64    4.30
   1   7   1  115.23    5.09
   1   7   1  120.17    4.98
  -2  -7  -1  241.80    8.07
   2   7   1  219.86    8.77
  -3  -7  -1    0.86    0.18
   3   7   1    1.44    0.52
   3  -8  -1  719.38   24.07
   3  -8  -1  700.04   24.13
   3  -8  -1  709.75   24.34
  -3   8   1  685.78   24.14
   2  -8  -1    1.09    0.28
   1  -8  -1   51.57    1.99
  -1   8   1   50.98    2.46
   0  -8  -1    0.81    0.26
   0  -8  -1    0.94    0.24
   0   8   1    1.11    0.59
  -1  -8  -1  534.16   17.95
   1   8   1  510.61   18.56
  -2  -8  -1    7.45    0.46
   2   8   1    7.83    0.86
   2  -9  -1  124.36    4.22
  -2   9   1  115.07    4.47
   1  -9  -1   15.15    0.70
  -1   9   1   14.38    1.02
   0   9   1  165.25    6.20
  -1  -9  -1    5.09    0.34
   1   9   1    4.67    0.65
  -1  -9   2    5.38    0.36
  -1   9  -2   13.51    0.81
   1  -9   2   14.49    0.69
  -2   9  -2   83.01    3.12
   2  -9   2   85.23    3.02
  -3   9  -2  192.77    6.89
   2   8  -2   54.46    2.46
  -2  -8   2   56.80    2.06
   1   8  -2  252.10    9.44
  -1  -8   2  263.47    8.96
   0   8  -2  365.60   12.57
   0  -8   2  360.93   12.38
   0  -8   2  348.63   12.36
  -1   8  -2   25.52    1.35
   1  -8   2   26.27    1.14
  -2   8  -2  143.01    5.25
   2  -8   2  143.90    5.10
  -3   8  -2    0.63    0.42
   3  -8   2    0.96    0.21
  -4   8  -2  230.21    8.00
   3   7  -2    0.72    0.44
  -3  -7   2    0.40    0.17
   2   7  -2   68.20    3.15
  -2  -7   2   70.87    2.92
  -2  -7   2   71.18    2.60
   1   7  -2  216.03    8.28
   1   7  -2  222.25    7.94
   1   7  -2  218.48    8.41
  -1  -7   2  225.25    7.74
  -1  -7   2  223.70    7.87
   0   7  -2   88.83    3.86
   0   7  -2   94.44    3.57
   0  -7   2   93.86    3.48
   0  -7   2   93.83    3.37
   0  -7   2   91.09    3.35
  -1   7  -2  533.66   18.14
  -1   7  -2  509.78   18.41
   1  -7   2  538.03   17.99
   1  -7   2  506.84   18.12
  -2   7  -2  377.55   12.78
   2  -7   2  357.73   12.63
   2  -7   2  359.19   12.85
  -3   7  -2   77.24    2.93
   3  -7   2   70.03    2.68
   3  -7   2   72.15    2.74
  -4   7  -2  292.75    9.98
   4  -7   2  278.85    9.90
   4   6  -2   55.89    2.41
  -4  -6   2   53.45    2.02
   3   6  -2   79.56    2.95
   3   6  -2   79.14    3.49
  -3  -6   2   77.16    2.85
   2   6  -2  146.69    5.45
   2   6  -2  146.88    5.86
   2   6  -2  150.61    6.00
  -2  -6   2  146.10    5.24
  -2  -6   2  148.16    5.35
   1   6  -2  559.14   20.09
  -1  -6   2  575.27   19.60
   0   6  -2    2.10    0.60
   0  -6   2    1.68    0.31
  -1   6  -2  117.71    4.60
  -1   6  -2  109.38    4.42
   1  -6   2  115.02    4.26
  -2   6  -2   19.80    1.78
   2  -6   2   19.61    1.11
   3  -6   2  331.36   11.55
   3  -6   2  321.23   11.38
  -4   6  -2  591.71   21.87
   4  -6   2  673.08   21.76
  -5   6  -2    2.09    0.38
   5  -6   2    2.05    0.23
   4   5  -2  470.37   16.42
   4   5  -2  482.58   16.99
   3   5  -2   38.86    2.26
   3   5  -2   35.84    2.09
   3   5  -2   41.62    1.76
   3   5  -2   37.02    1.64
  -3  -5   2   35.69    1.56
   2   5  -2  301.15   10.73
  -2  -5   2  288.59   10.11
  -2  -5   2  278.16   10.05
   1   5  -2   70.79    6.09
   1   5  -2   65.88    2.93
   1   5  -2   66.90    2.97
  -1  -5   2   65.99    3.28
  -1  -5   2   72.62    2.60
   0   5  -2 1051.04   38.88
   0   5  -2 1031.58   35.55
   0   5  -2 1009.51   35.64
   0  -5   2 1039.17   35.31
  -1   5  -2 1218.72   40.09
  -1   5  -2 1136.91   43.05
  -1   5  -2 1126.37   39.82
   1  -5   2 1156.33   39.70
  -2   5  -2   -0.19    2.06
  -2   5  -2    0.26    0.84
   2  -5   2    1.39    0.38
   2  -5   2    0.89    0.33
   4  -5   2   21.69    1.09
   4  -5   2   23.13    1.16
   5  -5   2  412.65   14.21
   5   4  -2  475.20   15.72
   5   4  -2  409.46   15.58
  -5  -4   2  452.69   15.28
   4   4  -2   23.65    1.23
   4   4  -2   26.13    1.71
   4   4  -2   25.67    1.53
   4   4  -2   26.06    1.20
   4   4  -2   27.16    1.84
   3   4  -2  368.14   13.29
   3   4  -2  334.65   13.14
  -3  -4   2  381.42   12.56
   2   4  -2 1288.54   46.05
   2   4  -2 1347.70   46.05
  -2  -4   2 1359.36   45.55
  -2  -4   2 1340.07   46.50
   1   4  -2   88.70    3.60
   1   4  -2   89.28    3.30
   1   4  -2   88.45    3.68
   1   4  -2  104.62    6.72
  -1  -4   2   90.10    3.34
  -1  -4   2   88.39    3.94
   0   4  -2  372.78   13.91
   0   4  -2  390.17   13.82
   0   4  -2  441.74   16.25
   0  -4   2  388.81   13.70
   0  -4   2  394.55   13.67
   0  -4   2  398.16   14.18
  -1   4  -2   -0.09    0.47
  -1   4  -2   -0.12    0.60
  -1   4  -2   -0.04    1.54
   1  -4   2    0.62    0.30
   1  -4   2    0.50    0.26
  -2   4  -2   14.95    1.36
  -3   4  -2   28.00    2.02
   3  -4   2   25.27    1.20
   3  -4   2   26.49    1.28
  -4   4  -2    6.86    1.29
  -4   4  -2    6.75    1.04
   4  -4   2    8.48    0.55
   4  -4   2    7.57    0.63
   4  -4   2    7.89    0.77
   4  -4   2    7.12    0.63
  -5   4  -2  477.36   19.52
   5  -4   2  605.62   19.25
   5  -4   2  575.62   19.28
   5  -4   2  585.49   19.26
   5   3  -2  172.60    6.04
   5   3  -2  152.32    5.76
   5   3  -2  150.38    5.60
  -5  -3   2  148.48    5.45
   4   3  -2  307.63   12.10
   4   3  -2  352.45   12.34
   4   3  -2  325.31   11.48
   4   3  -2  339.51   12.12
   4   3  -2  316.38   11.57
   4   3  -2  330.41   11.96
  -4  -3   2  334.63   11.46
   3   3  -2  537.22   19.20
   3   3  -2  513.12   19.17
  -3  -3   2  566.46   18.57
   2   3  -2   16.57    0.78
   2   3  -2   15.75    1.10
   2   3  -2   16.10    1.15
   2   3  -2   14.49    3.04
  -2  -3   2   16.71    1.32
  -2  -3   2   15.26    0.73
   1   3  -2 1491.22   49.34
   1   3  -2 1390.59   51.80
  -1  -3   2 1450.86   49.43
  -1  -3   2 1401.27   48.85
   0   3  -2 1908.50   66.98
   0  -3   2 1829.25   61.90
   0  -3   2 1681.76   61.62
   1  -3   2  881.31   30.19
  -2   3  -2  488.06   17.55
  -2   3  -2  554.30   20.28
   2  -3   2  507.15   17.32
   2  -3   2  476.21   17.26
   2  -3   2  486.36   17.37
  -3   3  -2   18.30    2.86
  -3   3  -2   20.77    1.36
   3  -3   2   18.24    0.94
   3  -3   2   16.56    1.07
   3  -3   2   16.80    0.95
  -4   3  -2   25.11    1.57
  -4   3  -2   26.42    1.83
   4  -3   2   24.81    1.14
   4  -3   2   25.84    1.27
   4  -3   2   23.95    1.22
   4  -3   2   24.15    1.17
  -5   3  -2   55.08    2.52
   5  -3   2   53.21    2.11
   5  -3   2   55.54    2.10
   5   2  -2  254.41    8.94
   5   2  -2  264.25    9.44
   5   2  -2  245.14    9.22
   4   2  -2  325.48   11.98
   4   2  -2  343.79   12.51
   4   2  -2  353.94   12.78
   4   2  -2  351.79   12.61
   4   2  -2  344.69   12.12
   4   2  -2  345.03   12.74
  -4  -2   2  350.39   11.98
   3   2  -2  905.26   30.64
   3   2  -2  835.98   35.52
   3   2  -2  868.85   30.67
  -3  -2   2  866.27   30.84
  -3  -2   2  913.31   30.06
   2   2  -2  602.61   25.90
   2   2  -2  675.29   22.82
   2   2  -2  635.42   22.72
   2   2  -2  681.86   22.39
  -2  -2   2  674.45   23.01
   1   2  -2  295.19   12.26
  -1  -2   2  293.75   10.55
   0   2  -2   71.52    3.56
   0  -2   2   70.17    2.75
   0  -2   2   66.30    2.47
  -1   2  -2  902.81   31.23
  -1   2  -2  870.28   29.76
   1  -2   2  832.73   29.70
  -2   2  -2  170.68    7.62
  -2   2  -2  162.37    6.02
   2  -2   2  158.56    5.84
   2  -2   2  170.32    5.97
   2  -2   2  167.20    5.90
  -3   2  -2   70.18    4.82
  -3   2  -2   70.89    2.97
   3  -2   2   69.76    2.82
   3  -2   2   67.56    2.70
  -4   2  -2  682.06   23.06
   4  -2   2  634.13   22.64
   4  -2   2  667.69   22.66
   4  -2   2  631.41   22.87
  -5   2  -2  998.21   34.88
   5  -2   2 1019.41   34.55
  -6   2  -2   24.76    1.35
   6  -2   2   29.47    1.05
   5   1  -2   27.39    1.57
   5   1  -2   28.06    1.71
   5   1  -2   27.68    1.29
   5   1  -2   26.17    1.17
   4   1  -2  703.54   24.76
   4   1  -2  698.37   24.81
  -4  -1   2  698.57   24.02
   3   1  -2   32.30    1.83
   3   1  -2   31.74    1.75
   3   1  -2   33.79    4.05
  -3  -1   2   33.32    1.32
   2   1  -2  256.82   11.83
   2   1  -2  253.47    9.15
   2   1  -2  252.95    9.22
  -2  -1   2  256.29    9.24
   1   1  -2  549.03   20.38
   1   1  -2  523.25   18.56
  -1  -1   2  564.37   18.93
   0   1  -2   47.79    2.27
   0   1  -2   49.70    1.92
   0  -1   2   47.74    1.73
  -1   1  -2  425.91   14.49
  -1   1  -2  408.64   15.16
   1  -1   2  414.15   14.41
  -2   1  -2   69.67    4.10
   2  -1   2   71.00    2.70
   2  -1   2   67.63    2.65
  -3   1  -2 1244.58   46.52
  -3   1  -2 1274.64   43.51
  -3   1  -2 1284.57   43.96
   3  -1   2 1265.25   43.71
   3  -1   2 1317.35   43.82
   3  -1   2 1274.20   43.96
  -4   1  -2   46.98    2.34
   4  -1   2   44.01    1.98
   5  -1   2   35.78    1.81
   5  -1   2   36.16    1.54
  -6   1  -2  186.32    6.69
   6  -1   2  188.58    6.49
   6   0  -2    5.92    0.61
   6   0  -2    4.12    0.30
   6   0  -2    4.37    0.66
   6   0  -2    4.91    0.41
   5   0  -2   20.09    1.41
   5   0  -2   17.74    0.88
   5   0  -2   17.67    0.99
   5   0  -2   17.74    1.43
   5   0  -2   17.42    1.24
  -5   0   2   17.26    1.33
   4   0  -2  621.88   22.04
   4   0  -2  613.92   21.40
   4   0  -2  622.56   22.00
   3   0  -2  727.81   25.14
   3   0  -2  711.96   24.74
   3   0  -2  748.57   29.28
   3   0  -2  700.88   25.20
  -3   0   2  714.71   24.64
   2   0  -2    2.36    1.34
   2   0  -2    2.32    0.27
   1   0  -2 1576.04   56.31
   1   0  -2 1530.86   53.06
   0   0  -2  817.02   28.32
   0   0   2  809.98   27.85
  -1   0  -2   44.09    1.80
   1   0   2   44.20    2.39
   1   0   2   43.93    1.67
  -2   0  -2  353.27   12.75
   2   0   2  364.05   12.60
   2   0   2  371.94   14.46
  -3   0  -2  834.85   28.53
   3   0   2  869.71   29.02
   3   0   2  824.61   28.71
   3   0   2  810.98   28.98
  -4   0  -2  464.45   15.66
  -4   0  -2  457.75   16.23
   4   0   2  485.79   16.52
   4   0   2  404.06   15.92
   4   0   2  461.04   15.91
   5   0   2   92.77    3.70
   5   0   2   90.43    3.42
   6  -1  -2   12.09    0.88
   6  -1  -2   13.40    0.59
   6  -1  -2   14.79    0.70
  -6   1   2   15.67    0.94
   5  -1  -2  141.73    5.01
   5  -1  -2  130.35    5.25
   5  -1  -2  132.64    5.00
   5  -1  -2  133.89    5.54
   5  -1  -2  143.48    5.47
   5  -1  -2  137.94    4.91
  -5   1   2  139.01    5.52
   4  -1  -2   98.32    3.77
   4  -1  -2  102.21    4.38
   4  -1  -2  101.29    4.29
   3  -1  -2 1189.05   40.50
   3  -1  -2 1207.03   40.97
   3  -1  -2 1117.91   40.52
   3  -1  -2 1183.83   40.89
  -3   1   2 1224.39   44.60
   2  -1  -2   33.14    1.35
  -2   1   2   33.56    3.10
   1  -1  -2  695.88   23.58
   1  -1  -2  701.25   23.80
  -1   1   2  674.66   24.83
   0  -1  -2  664.97   23.36
   0  -1  -2  699.12   23.46
   1   1   2  102.66    4.76
   1   1   2  105.99    3.78
  -2  -1  -2  419.66   14.68
  -2  -1  -2  408.31   14.23
   2   1   2  399.72   14.34
   2   1   2  423.70   14.36
   2   1   2  425.07   16.52
  -3  -1  -2    9.14    0.51
   3   1   2    7.97    0.62
   3   1   2    7.52    0.79
   3   1   2    8.26    0.90
  -4  -1  -2 1648.01   55.08
  -4  -1  -2 1593.16   55.08
   4   1   2 1565.66   55.68
   4   1   2 1641.67   55.52
   4   1   2 1586.26   55.19
   4   1   2 1602.59   55.30
   4   1   2 1665.22   57.11
   5   1   2  370.07   12.95
   5   1   2  360.73   12.70
   6  -2  -2   81.71    2.82
   6  -2  -2   74.28    3.04
   6  -2  -2   83.81    2.88
   5  -2  -2    5.97    0.51
   5  -2  -2    6.87    0.72
   5  -2  -2    5.76    0.92
   5  -2  -2    5.50    0.80
  -5   2   2    6.55    1.17
   4  -2  -2    3.70    0.84
   4  -2  -2    3.41    0.43
  -4   2   2    3.58    0.77
   3  -2  -2 1138.85   39.92
   3  -2  -2 1198.50   39.85
   3  -2  -2 1166.03   40.23
  -3   2   2 1155.01   43.70
   2  -2  -2   16.61    1.01
   2  -2  -2   15.63    0.74
   2  -2  -2   15.60    0.82
  -2   2   2   16.75    2.28
   1  -2  -2 2199.97   84.14
   1  -2  -2 2627.45   84.01
  -1   2   2 2550.91   88.84
   0  -2  -2  178.68    6.51
   0  -2  -2  189.83    6.30
   0   2   2  174.81    7.52
  -1  -2  -2  837.32   29.61
   1   2   2  864.94   30.87
   1   2   2  862.45   29.25
  -2  -2  -2   13.19    0.62
  -2  -2  -2   12.76    1.04
   2   2   2   12.43    0.97
   2   2   2   13.29    0.71
  -3  -2  -2  444.71   16.21
  -3  -2  -2  452.80   15.44
   3   2   2  435.35   15.60
   3   2   2  461.33   16.11
  -4  -2  -2  224.30    7.88
  -4  -2  -2  229.99    7.87
   4   2   2  227.38    8.54
   4   2   2  221.80    8.25
   4   2   2  228.02    8.59
   4   2   2  215.73    7.96
  -5  -2  -2    9.24    0.54
   5   2   2    9.52    0.61
   5   2   2   10.28    0.87
   5   2   2    9.97    0.81
   6  -3  -2  244.48    8.52
   6  -3  -2  248.99    8.47
   5  -3  -2   12.51    0.90
   5  -3  -2   11.52    0.64
   5  -3  -2   11.07    1.13
   4  -3  -2   15.53    0.90
   4  -3  -2   17.80    1.45
   4  -3  -2   14.96    0.83
   4  -3  -2   17.11    1.06
   4  -3  -2   15.53    0.82
   4  -3  -2   17.14    1.42
  -4   3   2   15.94    1.33
   3  -3  -2    9.09    0.62
   3  -3  -2    9.83    1.05
   3  -3  -2    9.69    0.63
   3  -3  -2    8.21    0.67
  -3   3   2    8.81    2.26
  -3   3   2    8.37    0.94
   2  -3  -2  440.83   14.93
   2  -3  -2  415.49   14.86
   2  -3  -2  416.85   14.98
   2  -3  -2  433.04   15.12
  -2   3   2  464.87   17.83
  -2   3   2  423.40   15.11
   1  -3  -2  636.68   20.80
  -1   3   2  575.10   23.33
   0  -3  -2    6.99    0.41
   0  -3  -2    6.12    0.66
   0   3   2    8.61    1.68
  -1  -3  -2  660.21   22.68
  -1  -3  -2  639.68   22.11
   1   3   2  640.94   24.34
   1   3   2  643.58   22.20
  -2  -3  -2  301.01    9.96
  -2  -3  -2  294.69   10.68
  -2  -3  -2  294.18    9.93
   2   3   2  290.79   10.05
   2   3   2  256.92   10.43
  -3  -3  -2  145.52    5.43
   3   3   2  162.37    6.25
  -4  -3  -2  487.81   16.59
  -4  -3  -2  490.58   16.57
   4   3   2  472.04   17.30
   4   3   2  446.36   16.63
   4   3   2  507.61   17.35
  -5  -3  -2   68.51    2.52
   5   3   2   70.90    2.83
   5  -4  -2  142.46    4.96
   5  -4  -2  135.54    5.30
   5  -4  -2  140.51    4.94
   5  -4  -2  141.85    5.05
   4  -4  -2   41.79    1.73
   4  -4  -2   41.37    1.67
   4  -4  -2   42.18    1.76
   4  -4  -2   41.45    2.21
   4  -4  -2   44.57    1.89
   4  -4  -2   44.13    2.24
  -4   4   2   40.37    2.35
   3  -4  -2   43.70    1.74
   3  -4  -2   39.58    1.80
   3  -4  -2   45.75    2.18
  -3   4   2   41.81    2.23
   2  -4  -2 2778.22   92.22
   2  -4  -2 2848.67   92.10
   2  -4  -2 2707.26   92.09
   2  -4  -2 2860.63   92.06
  -2   4   2 2305.67   96.09
   1  -4  -2  194.74    6.83
   1  -4  -2  198.94    6.82
   1  -4  -2  193.80    6.71
   1  -4  -2  186.37    6.73
   0  -4  -2 1223.40   41.58
   0  -4  -2 1195.17   41.59
   0  -4  -2 1202.46   42.00
   0  -4  -2 1228.11   41.61
   0   4   2 1322.77   44.16
   0   4   2 1140.45   41.83
  -1  -4  -2  895.52   31.79
  -1  -4  -2  926.38   31.16
  -2  -4  -2   50.14    1.85
  -2  -4  -2   51.84    1.93
   2   4   2   44.62    2.50
  -3  -4  -2  160.12    5.70
   3   4   2  146.32    6.45
   3   4   2  178.35    6.68
  -4  -4  -2    9.14    0.66
   4   4   2   10.44    1.15
  -5  -4  -2  153.59    5.33
   5  -5  -2  360.87   13.15
   5  -5  -2  393.14   12.95
   5  -5  -2  385.64   12.91
   5  -5  -2  363.77   12.97
   4  -5  -2   86.51    3.11
   4  -5  -2   82.55    3.52
   4  -5  -2   86.44    3.19
   4  -5  -2   84.86    3.20
   4  -5  -2   88.11    3.28
   3  -5  -2    4.23    0.83
   3  -5  -2    3.14    0.65
   3  -5  -2    3.32    0.47
   3  -5  -2    3.36    0.38
   3  -5  -2    4.59    0.44
  -3   5   2    0.77    0.88
   2  -5  -2    9.02    0.66
   2  -5  -2    7.65    0.50
   1  -5  -2    7.70    0.69
   1  -5  -2    8.66    0.62
   1  -5  -2    8.65    0.53
  -1   5   2    6.76    2.37
  -1   5   2    9.65    1.31
   0  -5  -2  289.02   10.19
   0   5   2  295.92   13.20
   0   5   2  293.11   10.56
  -1  -5  -2    1.44    0.31
  -1  -5  -2    1.36    0.67
   1   5   2    1.42    0.68
  -2  -5  -2  713.91   24.41
   2   5   2  705.29   25.20
  -3  -5  -2  137.26    5.20
   3   5   2  149.10    6.04
   3   5   2  153.89    6.12
  -4  -5  -2   36.23    1.45
   4   5   2   36.91    1.91
   5  -6  -2  611.33   23.44
   5  -6  -2  696.21   23.60
   5  -6  -2  732.91   23.47
  -5   6   2  707.96   23.57
   4  -6  -2   43.39    1.72
   4  -6  -2   44.84    1.85
   4  -6  -2   45.58    1.78
   4  -6  -2   45.50    2.09
   3  -6  -2 1115.98   38.87
   3  -6  -2 1143.49   38.58
   3  -6  -2 1151.02   38.74
   3  -6  -2 1099.17   38.57
   2  -6  -2 1711.08   57.78
   2  -6  -2 1774.46   57.99
   2  -6  -2 1661.94   58.14
  -2   6   2 1628.62   58.45
   1  -6  -2   54.88    2.27
  -1   6   2   57.42    2.75
   0  -6  -2   85.29    3.19
   0   6   2   84.25    3.70
  -1  -6  -2   84.86    3.19
  -1  -6  -2   84.79    3.07
   1   6   2   85.93    3.82
   1   6   2   79.41    3.68
  -2  -6  -2  655.94   22.51
  -2  -6  -2  684.19   22.40
   2   6   2  600.78   23.15
   2   6   2  669.66   23.34
  -3  -6  -2    6.54    0.47
  -3  -6  -2    6.81    0.51
   3   6   2    7.15    1.02
  -4  -6  -2   43.89    1.65
   4   6   2   47.14    1.97
   4  -7  -2   56.71    2.11
   4  -7  -2   56.40    2.33
  -4   7   2   57.37    2.21
   3  -7  -2   12.80    0.67
   3  -7  -2   12.54    0.70
   3  -7  -2   12.03    1.06
  -3   7   2   12.59    0.92
   2  -7  -2   95.17    3.83
   2  -7  -2   92.52    3.45
   2  -7  -2   94.36    3.63
   1  -7  -2  344.87   12.49
   1  -7  -2  347.86   12.20
   1  -7  -2  350.51   12.05
  -1   7   2  346.92   12.65
   0  -7  -2  332.63   11.67
   0  -7  -2  330.54   11.53
   0  -7  -2  330.75   11.54
   0   7   2  336.91   12.25
   0   7   2  335.20   12.16
  -1  -7  -2   51.58    2.12
  -1  -7  -2   52.20    2.01
   1   7   2   53.08    2.79
   1   7   2   50.00    2.64
  -2  -7  -2  532.98   17.93
   2   7   2  509.87   18.64
  -3  -7  -2    0.23    0.15
   3   7   2    0.99    0.45
   3  -8  -2   29.05    1.43
   3  -8  -2   27.86    1.12
   3  -8  -2   27.51    1.13
   2  -8  -2  112.34    4.03
   1  -8  -2  286.92    9.86
  -1   8   2  280.44   10.37
   0  -8  -2    3.60    0.35
   0   8   2    4.82    0.85
  -1  -8  -2  126.27    4.46
   1   8   2  124.01    5.04
  -2  -8  -2   51.74    1.93
   2   8   2   53.00    2.37
   2  -9  -2   25.28    1.01
  -2   9   2   24.72    1.27
   1  -9  -2   51.28    1.87
  -1   9   2   49.17    2.23
   0   9   2    0.46    0.40
  -1  -9  -2   65.42    2.39
   1   9   2   68.61    2.75
  -1  -9   3    7.48    0.42
   0   9  -3    1.79    0.37
  -1   9  -3   38.63    1.65
   1  -9   3   39.33    1.50
  -2   9  -3   22.86    1.08
   2  -9   3   22.67    0.94
  -3   9  -3   18.06    1.02
   2   8  -3   30.08    1.56
  -2  -8   3   31.17    1.21
   1   8  -3   15.71    0.99
  -1  -8   3   15.85    0.77
   0   8  -3  667.79   23.29
   0  -8   3  670.22   23.08
   0  -8   3  683.48   23.09
  -1   8  -3   11.99    0.93
   1  -8   3   12.19    0.70
  -2   8  -3    4.16    0.60
   2  -8   3    3.59    0.37
  -3   8  -3    8.04    0.74
   3  -8   3    8.40    0.47
  -4   8  -3   69.46    2.55
   3   7  -3  587.87   20.41
   3   7  -3  603.74   20.84
  -3  -7   3  595.55   20.38
   2   7  -3    4.93    0.81
   2   7  -3    6.78    0.71
  -2  -7   3    5.47    0.45
   1   7  -3  198.97    7.49
   1   7  -3  204.05    7.90
  -1  -7   3  212.85    7.28
  -1  -7   3  214.77    7.42
   0   7  -3    2.60    0.51
   0  -7   3    1.88    0.29
   0  -7   3    2.49    0.33
   0  -7   3    2.71    0.39
  -1   7  -3   64.89    2.57
   1  -7   3   62.39    2.38
   1  -7   3   59.85    2.52
  -2   7  -3  417.54   15.58
  -2   7  -3  461.48   15.18
   2  -7   3  433.93   15.03
   2  -7   3  428.69   15.25
  -3   7  -3   10.22    0.95
   3  -7   3    9.66    0.62
   3  -7   3    9.57    0.57
  -4   7  -3   54.11    2.12
   4  -7   3   53.43    2.03
   4   6  -3    2.45    0.48
   3   6  -3  109.64    3.97
   3   6  -3  105.06    4.44
   3   6  -3  112.71    4.12
  -3  -6   3  106.27    3.86
   2   6  -3   93.04    4.08
   2   6  -3   91.05    3.95
   2   6  -3   93.62    3.66
  -2  -6   3   94.19    3.39
  -2  -6   3   93.39    3.50
   1   6  -3  308.75   11.46
  -1  -6   3  319.04   11.00
   0   6  -3   39.33    1.94
   0   6  -3   39.24    2.08
   0  -6   3   38.79    1.64
  -1   6  -3  874.03   30.20
   1  -6   3  860.47   29.85
  -2   6  -3    2.93    0.95
   2  -6   3    2.67    0.48
  -3   6  -3   25.08    1.56
   3  -6   3   25.17    1.33
   3  -6   3   26.02    1.20
  -4   6  -3    7.45    0.81
   4  -6   3    7.75    0.57
  -5   6  -3   57.40    2.22
   5  -6   3   63.75    2.21
   4   5  -3  294.99   10.65
   4   5  -3  289.64   10.25
   4   5  -3  292.39   10.17
   3   5  -3    4.09    0.90
   3   5  -3    3.13    0.55
   3   5  -3    2.13    0.40
   3   5  -3    2.16    0.67
  -3  -5   3    2.17    0.36
   2   5  -3   35.42    2.06
   2   5  -3   35.39    2.02
  -2  -5   3   37.89    1.54
   1   5  -3   15.72    1.26
   1   5  -3   15.57    3.08
   1   5  -3   14.15    1.11
  -1  -5   3   15.34    0.81
  -1  -5   3   14.81    1.36
   0   5  -3  557.67   21.90
   0   5  -3  532.85   18.62
   0   5  -3  506.26   18.75
   0  -5   3  541.60   18.39
  -1   5  -3   33.62    1.82
  -1   5  -3   27.11    3.40
   1  -5   3   28.18    1.35
   2  -5   3   57.28    2.29
   2  -5   3   53.78    2.34
   3  -5   3  776.73   26.59
   3  -5   3  784.55   26.51
   3  -5   3  756.11   26.68
   4  -5   3  133.66    4.96
   4  -5   3  139.50    4.92
  -5   5  -3   20.23    1.15
   5  -5   3   22.94    0.95
   5   4  -3  130.98    4.98
   5   4  -3  141.96    5.15
  -5  -4   3  137.21    4.79
   4   4  -3   14.94    1.35
   4   4  -3   16.32    0.99
   4   4  -3   14.96    1.20
   4   4  -3   16.14    0.88
   4   4  -3   15.10    1.27
  -4  -4   3   14.79    0.80
   3   4  -3    0.79    0.53
   3   4  -3    1.09    0.63
  -3  -4   3    0.94    0.30
   2   4  -3 1172.05   40.79
   2   4  -3 1154.30   46.33
   2   4  -3 1232.05   40.30
   2   4  -3 1162.29   40.90
  -2  -4   3 1210.99   40.30
  -2  -4   3 1142.25   41.26
   1   4  -3  161.49    6.07
   1   4  -3  154.03    5.58
   1   4  -3  150.58    5.90
   1   4  -3  175.40    9.14
  -1  -4   3  156.79    6.35
  -1  -4   3  157.94    5.63
   0   4  -3  355.57   12.65
   0   4  -3  376.78   14.94
   0   4  -3  379.85   12.82
   0  -4   3  349.03   12.51
   0  -4   3  361.23   13.05
   0  -4   3  355.44   12.53
  -1   4  -3   30.05    3.44
   1  -4   3   31.44    1.38
   1  -4   3   31.20    1.35
   3  -4   3  722.65   24.94
   3  -4   3  723.56   24.88
  -4   4  -3  449.02   17.02
   4  -4   3  507.98   16.64
   4  -4   3  481.89   16.70
   4  -4   3  486.88   16.73
  -5   4  -3  243.71    8.71
   5  -4   3  230.50    8.37
   5  -4   3  246.65    8.39
   5  -4   3  245.61    8.43
   5   3  -3  654.27   22.29
   5   3  -3  652.56   21.92
   5   3  -3  644.73   22.17
  -5  -3   3  597.06   21.80
   4   3  -3   10.15    1.10
   4   3  -3   12.23    1.24
   4   3  -3   10.97    0.73
   4   3  -3   10.30    1.08
   4   3  -3    9.99    1.14
   4   3  -3   11.18    0.88
  -4  -3   3   10.92    0.67
   3   3  -3 1198.48   41.90
   3   3  -3 1197.33   42.02
  -3  -3   3 1228.45   41.30
   2   3  -3  145.57    5.58
   2   3  -3  136.28    5.41
   2   3  -3  148.76    9.03
   2   3  -3  140.82    5.04
  -2  -3   3  141.39    5.03
  -2  -3   3  143.05    5.82
   1   3  -3   22.51    0.95
   1   3  -3   24.04    1.34
   1   3  -3   25.21    2.93
  -1  -3   3   22.14    0.97
  -1  -3   3   23.47    1.51
   0   3  -3 1354.30   48.12
   0  -3   3 1371.40   46.87
   1  -3   3  220.92    7.73
   1  -3   3  219.09    7.79
  -2   3  -3   61.72    4.77
  -2   3  -3   61.99    2.72
   2  -3   3   62.37    2.37
   2  -3   3   61.01    2.48
   2  -3   3   61.31    2.33
  -3   3  -3  115.92    4.50
  -3   3  -3  114.39    7.17
   3  -3   3  104.93    4.01
   3  -3   3  105.57    4.02
   3  -3   3  101.25    4.19
  -4   3  -3  619.83   21.47
  -4   3  -3  613.22   21.12
   4  -3   3  590.58   20.86
   4  -3   3  575.17   20.76
   4  -3   3  618.78   20.74
   4  -3   3  593.13   20.70
  -5   3  -3  104.14    4.20
   5  -3   3  105.25    3.79
   5   2  -3    0.85    0.44
   5   2  -3    1.18    0.54
   5   2  -3    1.42    0.37
   4   2  -3  339.62   12.66
   4   2  -3  345.80   12.43
   4   2  -3  350.48   12.02
   4   2  -3  319.87   11.82
   4   2  -3  355.64   12.58
   4   2  -3  333.00   12.36
  -4  -2   3  338.77   11.82
   3   2  -3  343.43   12.28
   3   2  -3  336.38   17.06
   3   2  -3  352.43   12.44
  -3  -2   3  321.69   12.47
   2   2  -3  195.12    7.63
   2   2  -3  213.18    7.81
   2   2  -3  217.61   10.89
   2   2  -3  210.91    7.34
  -2  -2   3  214.65    7.99
   1   2  -3 1098.33   40.06
  -1  -2   3 1118.09   38.26
   0   2  -3 1135.03   41.92
   0   2  -3 1248.01   40.52
   0  -2   3 1150.00   40.17
  -1   2  -3   44.71    1.84
   1  -2   3   41.04    1.69
  -2   2  -3  538.25   19.79
  -2   2  -3  523.22   18.09
   2  -2   3  518.76   18.02
   2  -2   3  497.77   17.90
   2  -2   3  523.49   17.89
  -3   2  -3   12.70    1.08
   3  -2   3   11.88    0.87
   3  -2   3   13.14    0.80
  -4   2  -3   47.23    2.39
   4  -2   3   42.88    2.10
   4  -2   3   44.87    1.84
   4  -2   3   43.38    1.96
  -5   2  -3  107.48    4.28
   5  -2   3  105.44    3.89
   6   1  -3  396.14   13.21
   6   1  -3  362.82   13.29
   5   1  -3   16.07    0.95
   5   1  -3   15.73    1.26
   5   1  -3   14.88    1.17
   4   1  -3  262.36   10.57
   4   1  -3  230.81    9.82
   4   1  -3  263.82    9.66
   4   1  -3  270.32    9.84
  -4  -1   3  254.10    8.94
   3   1  -3   16.46    3.09
   3   1  -3   17.51    1.20
   3   1  -3   17.93    1.33
   2   1  -3 2483.63   84.59
   2   1  -3 2223.71   81.18
   2   1  -3 2374.75   81.66
   2   1  -3 2361.89   80.90
  -2  -1   3 2443.04   82.29
   1   1  -3   20.04    2.26
  -1  -1   3   20.83    1.18
   0   1  -3   38.64    2.13
   0   1  -3   39.79    2.50
   0  -1   3   40.89    1.89
  -1   1  -3    3.73    0.95
   1  -1   3    4.37    0.45
  -2   1  -3  227.61    8.13
  -2   1  -3  227.15    9.43
  -2   1  -3  233.16    7.87
   2  -1   3  232.70    8.09
   2  -1   3  222.54    8.00
  -3   1  -3   64.58    2.33
  -3   1  -3   65.15    2.76
   3  -1   3   64.17    2.54
   3  -1   3   62.81    2.63
  -4   1  -3  724.94   25.18
   4  -1   3  728.00   24.90
   4  -1   3  709.09   24.75
   4  -1   3  712.86   25.02
  -5   1  -3  448.51   15.73
   5  -1   3  440.41   15.40
   6   0  -3   55.00    2.03
   6   0  -3   54.71    2.19
   6   0  -3   53.02    2.26
   5   0  -3    3.72    0.75
   5   0  -3    2.86    0.62
   5   0  -3    3.39    0.49
   5   0  -3    2.93    0.35
   5   0  -3    3.53    1.20
  -5   0   3    4.79    0.99
   4   0  -3  435.72   15.43
   4   0  -3  411.39   14.80
   4   0  -3  432.91   15.55
   3   0  -3  881.62   29.91
   3   0  -3  847.17   33.93
   3   0  -3  847.67   29.74
   3   0  -3  859.69   29.33
  -3   0   3  846.26   29.25
   2   0  -3   81.40    3.10
   2   0  -3   91.13    5.64
  -2   0   3   88.13    3.44
   1   0  -3    1.67    1.09
   1   0  -3    2.47    0.56
   1   0  -3    1.97    0.21
   0   0  -3 1882.41   64.13
   0   0  -3 1673.04   64.72
   0   0   3 2001.21   63.52
  -1   0  -3  604.55   22.89
  -1   0  -3  676.94   22.61
   1   0   3  684.75   22.45
  -2   0  -3  130.31    4.55
  -2   0  -3  133.42    4.94
   2   0   3  128.24    4.68
   2   0   3  129.51    4.72
  -3   0  -3 1127.19   39.95
  -3   0  -3 1192.63   39.58
   3   0   3 1195.15   39.79
   3   0   3 1125.29   39.83
  -4   0  -3 1028.17   35.07
   4   0   3 1011.58   35.47
   4   0   3 1046.26   35.23
   4   0   3 1019.49   35.35
   5   0   3  312.83   11.07
   5   0   3  306.77   10.84
   6  -1  -3    4.97    0.62
   6  -1  -3    4.18    0.27
   6  -1  -3    4.67    0.46
   5  -1  -3  612.56   20.75
   5  -1  -3  611.26   20.63
   5  -1  -3  583.13   21.00
   5  -1  -3  588.79   21.28
   5  -1  -3  609.83   21.17
  -5   1   3  594.86   21.33
   4  -1  -3  149.91    6.04
   4  -1  -3  142.94    5.35
   4  -1  -3  151.27    5.91
   3  -1  -3    1.15    0.49
   3  -1  -3    1.26    0.37
   3  -1  -3    1.23    0.27
   3  -1  -3    1.40    0.52
  -3   1   3    1.77    1.42
   2  -1  -3  752.53   27.58
   2  -1  -3  846.85   27.56
   2  -1  -3  822.88   27.41
  -2   1   3  781.12   29.88
   1  -1  -3  396.05   13.71
   1  -1  -3  405.79   13.87
  -1   1   3  382.75   14.98
  -1  -1  -3   18.40    1.10
   1   1   3   16.22    1.48
   1   1   3   18.01    0.85
  -2  -1  -3  396.16   13.70
  -2  -1  -3  397.23   14.20
   2   1   3  403.79   14.16
   2   1   3  402.30   13.84
   2   1   3  399.57   13.86
  -3  -1  -3   53.75    1.96
   3   1   3   50.24    2.15
  -4  -1  -3   38.48    1.55
  -4  -1  -3   37.43    1.56
   4   1   3   37.88    1.78
   4   1   3   38.30    1.91
   4   1   3   40.70    1.70
   5   1   3 1115.48   38.01
   5   1   3 1104.35   38.18
   6  -2  -3   93.62    3.46
   6  -2  -3   91.12    3.20
   6  -2  -3   89.57    3.27
   5  -2  -3   54.77    2.20
   5  -2  -3   52.09    2.03
   5  -2  -3   52.13    2.60
   4  -2  -3   57.38    2.75
   4  -2  -3   54.22    2.21
  -4   2   3   53.95    2.71
   3  -2  -3  102.44    4.07
   3  -2  -3   98.54    3.73
   3  -2  -3  102.79    4.14
   3  -2  -3   98.00    3.65
  -3   2   3   96.47    6.55
   2  -2  -3  112.13    4.11
   2  -2  -3  110.10    4.54
   2  -2  -3  111.47    4.04
   2  -2  -3  114.53    4.28
   2  -2  -3  112.25    4.03
  -2   2   3  121.12    6.31
   1  -2  -3    0.94    0.27
  -1   2   3    0.90    0.80
   0  -2  -3 2432.17   84.24
   0  -2  -3 2452.50   84.12
   0   2   3 2493.35   88.91
  -1  -2  -3  144.41    4.91
   1   2   3  108.55    4.51
  -2  -2  -3  256.33    8.98
  -2  -2  -3  258.57    9.60
   2   2   3  262.15    9.41
   2   2   3  263.14    9.13
  -3  -2  -3  360.38   12.39
   3   2   3  353.38   12.60
   3   2   3  362.48   12.99
  -4  -2  -3  334.81   11.57
  -4  -2  -3  335.85   11.59
   4   2   3  325.09   11.80
   4   2   3  339.79   11.73
  -5  -2  -3   39.74    1.60
   5   2   3   45.40    1.73
   6  -3  -3   16.79    0.67
   6  -3  -3   15.14    0.79
   5  -3  -3    6.54    0.97
   5  -3  -3    5.22    0.61
   5  -3  -3    5.70    0.46
   4  -3  -3  779.60   26.65
   4  -3  -3  773.77   27.14
   4  -3  -3  760.53   27.11
   4  -3  -3  779.74   26.69
   4  -3  -3  767.39   26.56
   4  -3  -3  778.01   26.59
  -4   3   3  785.79   27.20
   3  -3  -3   31.84    1.34
   3  -3  -3   34.25    1.79
   3  -3  -3   28.13    1.42
   3  -3  -3   30.21    1.34
  -3   3   3   31.73    3.66
  -3   3   3   30.47    1.69
   2  -3  -3  156.02    5.63
   2  -3  -3  163.28    5.84
   2  -3  -3  157.45    5.68
   2  -3  -3  154.41    5.56
  -2   3   3  159.84    8.11
   1  -3  -3   43.85    1.57
   1  -3  -3   46.53    1.67
  -1   3   3   34.95    3.45
   0  -3  -3   13.59    0.95
   0  -3  -3   12.61    0.64
   0  -3  -3   12.71    0.69
   0  -3  -3   12.51    0.65
   0   3   3   13.54    1.70
   0   3   3   13.51    0.91
  -1  -3  -3    0.80    0.55
  -1  -3  -3    0.42    0.19
   1   3   3    1.57    0.29
   1   3   3    0.57    0.39
  -2  -3  -3   83.39    3.03
  -2  -3  -3   80.15    3.71
  -2  -3  -3   84.19    3.07
   2   3   3   84.83    3.20
   2   3   3   88.27    3.58
  -3  -3  -3  573.50   19.76
   3   3   3  560.92   19.99
   3   3   3  591.24   20.49
  -4  -3  -3  423.94   14.95
  -4  -3  -3  431.48   14.98
   4   3   3  450.55   15.58
   4   3   3  429.70   15.09
  -5  -3  -3   49.68    1.86
   5   3   3   51.19    1.90
   5  -4  -3   12.27    1.05
   5  -4  -3   10.69    0.59
   5  -4  -3   10.93    0.81
   4  -4  -3  131.96    5.10
   4  -4  -3  126.41    4.61
   4  -4  -3  130.47    4.56
   4  -4  -3  120.86    4.68
   4  -4  -3  128.82    5.08
   4  -4  -3  127.18    4.65
   3  -4  -3   73.52    3.09
   3  -4  -3   66.42    2.73
   3  -4  -3   70.86    2.67
   2  -4  -3  421.27   14.85
   2  -4  -3  428.44   14.70
   2  -4  -3  446.93   14.60
   2  -4  -3  434.36   14.75
  -2   4   3  385.67   18.66
   1  -4  -3  579.11   19.56
   1  -4  -3  574.18   19.46
   1  -4  -3  560.39   19.48
   1  -4  -3  557.73   19.54
   0  -4  -3  621.22   20.97
   0  -4  -3  598.93   21.43
   0  -4  -3  610.15   21.00
   0  -4  -3  592.69   20.98
   0   4   3  628.82   21.25
  -1  -4  -3  595.29   20.13
  -1  -4  -3  556.30   20.74
   1   4   3  564.17   20.19
   1   4   3  626.75   20.56
  -2  -4  -3  352.88   12.92
  -2  -4  -3  369.69   13.01
   2   4   3  404.19   13.70
  -3  -4  -3   31.04    1.39
  -3  -4  -3   31.75    1.34
   3   4   3   31.37    1.45
   3   4   3   35.54    2.06
   3   4   3   35.29    2.04
  -4  -4  -3   24.60    1.11
   4   4   3   25.07    1.52
   5  -5  -3    0.46    0.32
   5  -5  -3    0.43    0.17
   5  -5  -3    0.59    0.19
   5  -5  -3    1.07    0.45
   4  -5  -3  337.79   12.25
   4  -5  -3  344.08   11.95
   4  -5  -3  345.37   11.97
   4  -5  -3  346.09   11.94
   4  -5  -3  344.16   11.86
   3  -5  -3  356.14   13.05
   3  -5  -3  372.03   12.97
   3  -5  -3  372.63   13.05
   3  -5  -3  376.82   13.36
   3  -5  -3  392.37   13.07
   3  -5  -3  388.15   13.20
   2  -5  -3  340.45   12.04
   2  -5  -3  355.76   12.21
   1  -5  -3  168.77    6.06
   1  -5  -3  162.85    6.05
   1  -5  -3  176.78    6.00
   1  -5  -3  159.27    5.98
  -1   5   3  179.04    6.50
   0  -5  -3  105.20    3.98
   0   5   3  113.79    4.37
  -1  -5  -3  194.24    6.97
   1   5   3  197.94    7.47
  -2  -5  -3  258.17    9.24
  -2  -5  -3  255.45    9.14
   2   5   3  271.88    9.97
   2   5   3  266.91    9.93
  -3  -5  -3 1240.00   43.15
   3   5   3 1323.40   43.93
   3   5   3 1227.59   43.88
  -4  -5  -3   12.58    0.62
   4   5   3    9.23    0.84
   5  -6  -3   15.97    0.85
   5  -6  -3   16.20    0.67
   5  -6  -3   15.75    0.68
  -5   6   3   14.94    0.85
   4  -6  -3   11.81    0.79
   4  -6  -3   11.79    0.67
   4  -6  -3   12.69    1.06
   4  -6  -3   11.90    0.67
   3  -6  -3  155.76    5.45
   3  -6  -3  158.63    5.62
   3  -6  -3  152.47    5.45
   3  -6  -3  152.15    5.51
   3  -6  -3  134.82    5.38
   3  -6  -3  159.30    5.78
   2  -6  -3   32.55    1.67
   2  -6  -3   26.67    1.23
   2  -6  -3   26.84    1.38
   2  -6  -3   27.76    1.23
  -2   6   3   29.74    2.13
   1  -6  -3   86.80    3.42
  -1   6   3   92.92    3.86
   0  -6  -3  781.00   27.52
   0   6   3  820.08   28.03
  -1  -6  -3  218.10    7.81
  -1  -6  -3  225.12    7.95
   1   6   3  228.33    8.57
   1   6   3  222.12    8.48
  -2  -6  -3   90.28    3.30
  -2  -6  -3   86.75    3.40
   2   6   3   92.97    4.03
   2   6   3   91.10    4.05
  -3  -6  -3    2.24    0.30
   3   6   3    1.78    0.59
   4  -7  -3    4.19    0.36
   4  -7  -3    3.79    0.54
  -4   7   3    4.25    0.44
   3  -7  -3  197.82    7.03
   3  -7  -3  196.34    7.05
   3  -7  -3  209.23    7.39
   2  -7  -3   20.27    0.93
   2  -7  -3   18.87    1.09
   2  -7  -3   19.23    1.35
  -2   7   3   18.72    1.52
   1  -7  -3   15.00    0.92
   1  -7  -3   15.49    0.81
   1  -7  -3   15.59    1.26
  -1   7   3   16.55    1.40
   0  -7  -3   18.00    0.86
   0  -7  -3   16.84    0.85
   0  -7  -3   18.08    0.97
   0   7   3   17.81    1.45
   0   7   3   18.24    1.37
  -1  -7  -3  138.29    4.88
  -1  -7  -3  132.57    4.99
   1   7   3  139.10    5.55
   1   7   3  136.20    5.62
  -2  -7  -3   31.40    1.31
   2   7   3   32.19    1.88
  -3  -7  -3   48.26    1.78
   3   7   3   49.73    2.14
   3  -8  -3  598.60   20.38
   3  -8  -3  592.10   20.39
   3  -8  -3  595.91   20.66
   2  -8  -3   26.71    1.14
   1  -8  -3  286.96   10.15
  -1   8   3  298.01   10.67
   0  -8  -3   10.69    0.59
   0   8   3   11.11    1.12
  -1  -8  -3  581.74   20.08
   1   8   3  589.46   20.63
  -2  -8  -3   41.16    1.54
   2   8   3   41.11    1.89
   2  -9  -3  182.16    6.27
  -2   9   3  179.34    6.53
   1  -9  -3  100.73    3.52
  -1   9   3   97.90    3.86
   0   9   3  247.80    8.93
   1   9  -4    0.42    0.26
  -1  -9   4    1.30    0.19
   0   9  -4  518.91   17.93
  -1   9  -4  116.18    4.18
   1  -9   4  112.09    4.04
  -2   9  -4  131.96    4.74
   2  -9   4  132.58    4.64
   2   8  -4  854.18   30.13
  -2  -8   4  901.29   29.98
   1   8  -4   10.75    0.84
  -1  -8   4   11.15    0.63
   0   8  -4    8.41    0.77
   0  -8   4    6.73    0.48
   0  -8   4    6.20    0.47
  -1   8  -4   12.76    0.95
   1  -8   4   12.10    0.70
  -2   8  -4  334.02   11.56
   2  -8   4  325.46   11.41
  -3   8  -4  116.10    4.14
   3  -8   4  110.88    4.01
   3   7  -4  316.40   10.78
   3   7  -4  305.00   10.99
   3   7  -4  302.53   10.63
  -3  -7   4  307.58   10.60
   2   7  -4   94.37    3.75
  -2  -7   4   99.30    3.51
   1   7  -4    7.29    0.75
  -1  -7   4    5.23    0.52
   0   7  -4  309.33   11.81
   0   7  -4  336.70   11.31
   0  -7   4  317.85   11.20
   0  -7   4  316.91   11.10
  -1   7  -4    0.59    0.44
  -1   7  -4    0.85    0.55
   1  -7   4    0.53    0.33
   1  -7   4    0.74    0.26
  -2   7  -4  151.16    5.39
  -2   7  -4  146.92    5.82
   2  -7   4  146.25    5.24
   2  -7   4  144.38    5.46
  -3   7  -4    0.17    0.43
   3  -7   4   -0.11    0.18
   3  -7   4    0.13    0.21
  -4   7  -4  293.89   10.39
   4  -7   4  305.30   10.37
   4   6  -4  182.55    6.38
   4   6  -4  185.89    6.33
   4   6  -4  174.77    6.59
   3   6  -4   26.52    1.65
   3   6  -4   29.36    1.31
   3   6  -4   29.95    1.49
  -3  -6   4   29.77    1.18
   2   6  -4    8.15    1.06
   2   6  -4    7.83    0.55
   2   6  -4    6.19    0.74
   2   6  -4    7.69    0.68
   2   6  -4    7.71    1.10
  -2  -6   4    7.18    0.59
   1   6  -4  848.85   30.04
   1   6  -4  849.03   29.80
  -1  -6   4  862.98   29.33
   0   6  -4  374.29   13.88
   0  -6   4  394.50   13.37
  -1   6  -4   11.33    1.18
   1  -6   4   11.22    0.78
  -2   6  -4  209.23    7.70
   2  -6   4  187.65    6.94
   2  -6   4  196.96    7.18
  -3   6  -4  102.05    3.83
   3  -6   4   99.63    3.70
   3  -6   4   96.08    3.81
  -4   6  -4    2.08    0.52
   4  -6   4    1.26    0.29
   5  -6   4   43.42    1.61
   4   5  -4  315.82   10.84
   4   5  -4  316.26   10.71
   4   5  -4  300.21   11.02
   4   5  -4  299.60   11.11
   3   5  -4   19.72    1.59
   3   5  -4   19.45    1.05
   3   5  -4   19.43    1.42
   3   5  -4   17.35    1.22
   3   5  -4   20.28    1.52
   3   5  -4   17.74    1.40
  -3  -5   4   19.64    0.97
   2   5  -4  356.99   13.25
   2   5  -4  367.15   12.66
   2   5  -4  374.44   13.51
  -2  -5   4  360.94   12.69
   1   5  -4   34.30    4.07
   1   5  -4   28.17    1.80
   1   5  -4   27.39    1.58
  -1  -5   4   25.12    1.87
  -1  -5   4   27.76    1.25
   0   5  -4  190.54    6.89
   0   5  -4  177.02    9.47
   0  -5   4  180.49    6.46
  -1   5  -4  718.28   29.46
  -1   5  -4  837.48   26.93
   1  -5   4  759.27   26.55
   2  -5   4   31.13    1.49
   3  -5   4    7.93    0.74
   3  -5   4    8.37    0.67
   3  -5   4    7.67    0.71
  -4   5  -4  333.92   11.76
   4  -5   4  328.80   11.59
   5  -5   4   30.77    1.24
   5   4  -4    1.08    0.36
   5   4  -4    1.62    0.28
   5   4  -4    1.04    0.34
  -5  -4   4    1.07    0.22
   4   4  -4  333.92   11.68
   4   4  -4  349.28   11.88
   4   4  -4  330.39   12.17
   4   4  -4  327.53   12.11
   4   4  -4  344.68   12.82
   4   4  -4  335.28   12.34
  -4  -4   4  325.69   11.64
   3   4  -4   65.24    3.03
   3   4  -4   50.82    2.60
   3   4  -4   64.24    2.48
   3   4  -4   63.41    3.00
   3   4  -4   58.72    3.00
   3   4  -4   66.67    3.21
  -3  -4   4   64.44    2.40
   2   4  -4  163.42    6.25
   2   4  -4  155.87    5.97
   2   4  -4  158.69   10.10
   2   4  -4  150.22    5.46
  -2  -4   4  152.61    5.47
  -2  -4   4  142.57    6.35
   1   4  -4   52.71    2.27
   1   4  -4   52.33    1.95
   1   4  -4   45.12    2.40
   1   4  -4   52.14    4.55
  -1  -4   4   54.47    1.98
  -1  -4   4   52.18    2.67
   0   4  -4  474.71   15.74
   0   4  -4  443.14   17.90
   0  -4   4  427.18   15.44
   0  -4   4  447.14   16.06
   0  -4   4  448.38   15.42
  -1   4  -4  734.61   27.72
   1  -4   4  754.10   25.15
   1  -4   4  705.93   25.16
  -4   4  -4  103.22    4.71
   4  -4   4  122.64    4.43
   4  -4   4  123.38    4.40
   4  -4   4  125.99    4.30
  -5   4  -4    1.43    0.49
   5  -4   4    1.27    0.25
   5   3  -4  250.07    8.51
   5   3  -4  233.05    8.75
   5   3  -4  239.80    8.73
   4   3  -4  375.23   13.67
   4   3  -4  379.28   13.83
   4   3  -4  376.48   13.70
   4   3  -4  382.02   13.36
   4   3  -4  366.44   13.15
   4   3  -4  399.15   14.11
  -4  -3   4  372.37   13.13
   3   3  -4    5.20    0.97
   3   3  -4    5.09    0.86
   3   3  -4    5.50    0.51
   2   3  -4  221.23    8.26
   2   3  -4  237.27    8.55
   2   3  -4  221.28    7.86
   2   3  -4  232.65   12.04
  -2  -3   4  222.21    7.85
  -2  -3   4  217.33    8.68
   1   3  -4  655.09   24.80
   1   3  -4  615.83   21.76
  -1  -3   4  629.12   21.79
  -1  -3   4  642.12   22.48
   0   3  -4  595.30   21.16
   0   3  -4  642.35   21.26
   0   3  -4  609.02   22.83
   0  -3   4  609.75   21.51
  -1   3  -4  147.06    7.25
  -2   3  -4  747.84   26.08
  -3   3  -4  468.38   16.86
   3  -3   4  456.94   16.32
   3  -3   4  486.51   16.37
  -4   3  -4    1.58    0.66
  -4   3  -4    1.35    0.97
   4  -3   4    1.69    0.33
   4  -3   4    1.92    0.39
   4  -3   4    1.06    0.32
  -5   3  -4  185.23    7.16
   5  -3   4  192.98    6.77
   5  -3   4  200.74    6.80
   5   2  -4   83.33    3.48
   5   2  -4   82.95    3.19
   5   2  -4   81.79    3.46
   4   2  -4    1.17    0.47
   4   2  -4    1.52    0.63
   4   2  -4    1.45    0.67
   4   2  -4    0.78    0.29
   4   2  -4    0.97    0.54
   4   2  -4    1.75    0.61
  -4  -2   4    0.77    0.25
   3   2  -4 1202.78   40.31
   3   2  -4 1125.69   40.00
   3   2  -4 1202.38   45.85
   3   2  -4 1172.62   39.48
  -3  -2   4 1073.01   40.36
   2   2  -4  112.83    4.00
   2   2  -4  106.13    4.30
   2   2  -4  120.33    4.58
   2   2  -4  115.49    7.18
  -2  -2   4  109.17    3.98
  -2  -2   4  110.50    4.65
   1   2  -4   17.58    2.34
  -1  -2   4   18.74    1.29
   0   2  -4  183.90    7.49
   0   2  -4  186.59    6.72
   0  -2   4  173.01    6.30
  -1   2  -4  158.50    5.71
   1  -2   4  148.09    5.46
  -2   2  -4 2047.15   73.96
  -2   2  -4 2268.00   74.35
   2  -2   4 2217.86   74.11
   2  -2   4 2149.24   74.08
   2  -2   4 2184.87   74.22
  -3   2  -4  753.99   25.50
   3  -2   4  730.36   25.20
   3  -2   4  706.95   25.35
  -4   2  -4 1193.02   39.77
  -4   2  -4 1162.69   39.97
   4  -2   4 1157.62   39.55
   4  -2   4 1071.33   39.38
   4  -2   4 1164.83   39.40
  -5   2  -4  121.35    4.65
   5  -2   4  112.24    4.23
   5   1  -4   31.00    1.74
   5   1  -4   30.99    1.48
   5   1  -4   30.71    1.74
   4   1  -4  294.86   10.89
   4   1  -4  298.45   10.99
   4   1  -4  291.24   10.84
   4   1  -4  289.79   10.53
   4   1  -4  313.83   11.30
  -4  -1   4  291.49   10.31
   3   1  -4  342.60   12.58
   3   1  -4  357.55   16.90
   3   1  -4  340.11   12.10
   3   1  -4  362.07   12.85
   2   1  -4    8.14    0.49
   2   1  -4    8.69    0.77
   2   1  -4    9.12    2.26
   2   1  -4    8.84    0.93
  -2  -1   4    8.13    0.89
   1   1  -4 2123.44   71.06
   1   1  -4 2005.50   74.81
  -1  -1   4 2096.62   70.80
   0   1  -4  109.74    4.06
   0   1  -4   99.06    4.43
   0  -1   4  107.11    3.74
  -1   1  -4  162.35    5.93
   1  -1   4  159.61    5.72
  -2   1  -4  772.85   27.14
  -2   1  -4  791.38   26.88
  -2   1  -4  809.07   27.88
   2  -1   4  807.02   27.14
   2  -1   4  756.13   26.96
   2  -1   4  793.35   27.04
  -3   1  -4   36.78    1.39
  -3   1  -4   36.51    1.80
   3  -1   4   34.94    1.68
   3  -1   4   35.32    1.62
  -4   1  -4  485.37   17.83
  -4   1  -4  546.06   19.32
   4  -1   4  527.34   18.15
   4  -1   4  514.13   18.00
   4  -1   4  524.88   18.24
  -5   1  -4   61.12    2.71
   5  -1   4   57.14    2.32
   6   0  -4   20.92    1.04
   6   0  -4   15.45    0.94
   6   0  -4   17.19    0.82
   5   0  -4  515.10   18.11
   5   0  -4  533.15   18.46
   5   0  -4  519.54   18.46
   5   0  -4  519.56   17.97
   4   0  -4    3.04    0.74
   4   0  -4    1.64    0.69
   3   0  -4  284.44   10.31
   3   0  -4  291.49   10.54
   3   0  -4  273.55    9.88
   3   0  -4  289.30   14.18
   2   0  -4  200.39    7.23
   2   0  -4  194.21    6.97
   2   0  -4  215.86    9.89
   2   0  -4  195.31    7.36
  -2   0   4  199.23    7.34
   1   0  -4 2937.36  100.90
   1   0  -4 2881.40  100.59
   1   0  -4 2905.98   99.20
   0   0  -4 1057.62   36.14
   0   0   4 1046.62   35.88
  -1   0  -4  753.13   26.52
   1   0   4  781.44   26.32
  -2   0  -4  451.38   15.44
  -2   0  -4  444.19   15.91
   2   0   4  458.12   15.60
   2   0   4  449.62   15.65
  -3   0  -4   62.00    2.23
   3   0   4   63.16    2.48
   3   0   4   55.54    2.46
  -4   0  -4   78.68    3.01
   4   0   4   84.64    3.21
   4   0   4   85.36    3.35
   4   0   4   83.17    3.41
  -5   0  -4  216.50    7.98
   5   0   4  219.75    7.73
   6  -1  -4  176.83    5.99
   6  -1  -4  154.01    5.79
   5  -1  -4    3.91    0.65
   5  -1  -4    4.83    0.45
   5  -1  -4    4.10    0.53
   5  -1  -4    4.53    0.78
   4  -1  -4   57.51    2.75
   4  -1  -4   52.75    2.18
   4  -1  -4   56.58    2.89
   3  -1  -4  126.35    4.50
   3  -1  -4  128.92    4.91
   3  -1  -4  124.47    5.04
  -3   1   4  121.04    7.65
   2  -1  -4   98.28    3.53
   2  -1  -4   97.80    3.73
   2  -1  -4   97.64    3.47
  -2   1   4   96.79    5.64
   1  -1  -4  631.71   20.63
   1  -1  -4  581.08   20.88
  -1   1   4  590.81   21.95
   0  -1  -4  724.53   25.13
   0   1   4  728.37   24.88
  -1  -1  -4   24.25    1.27
   1   1   4   20.28    1.00
  -2  -1  -4  313.33   11.62
  -2  -1  -4  314.55   11.05
   2   1   4  329.50   11.28
   2   1   4  329.21   11.24
  -3  -1  -4  958.50   32.97
   3   1   4  971.34   33.24
  -4  -1  -4   61.68    2.31
  -4  -1  -4   60.74    2.33
   4   1   4   62.51    2.50
   4   1   4   61.41    2.61
   4   1   4   60.54    2.65
  -5  -1  -4   27.45    1.52
   5   1   4   26.61    1.25
   6  -2  -4    7.93    0.65
   6  -2  -4    8.06    0.41
   6  -2  -4    7.85    0.52
   5  -2  -4  732.54   25.28
   5  -2  -4  692.89   24.86
   5  -2  -4  740.91   24.74
   4  -2  -4   61.86    2.82
   4  -2  -4   61.97    2.89
   4  -2  -4   58.68    2.27
   4  -2  -4   58.42    2.33
   4  -2  -4   59.15    2.42
  -4   2   4   59.51    2.88
   3  -2  -4   41.73    2.16
   3  -2  -4   40.15    1.77
   3  -2  -4   44.93    1.71
   3  -2  -4   45.21    2.14
  -3   2   4   40.63    4.06
   2  -2  -4   45.19    2.01
   2  -2  -4   45.99    1.85
   2  -2  -4   46.79    1.80
   2  -2  -4   45.72    1.75
  -2   2   4   50.72    3.70
   1  -2  -4   87.77    3.26
   1  -2  -4   89.33    3.46
  -1   2   4   90.44    4.53
   0  -2  -4 1369.37   46.92
   0   2   4 1364.20   46.76
  -1  -2  -4  278.39   10.06
  -1  -2  -4  276.83    9.60
  -1  -2  -4  267.30    9.57
   1   2   4  289.02    9.71
  -2  -2  -4 1774.23   62.13
  -2  -2  -4 1786.55   62.83
   2   2   4 1912.37   62.37
  -3  -2  -4  510.69   18.00
   3   2   4  537.77   18.30
  -4  -2  -4  180.27    6.44
  -4  -2  -4  181.16    6.41
   4   2   4  185.29    6.61
   4   2   4  182.69    6.71
  -5  -2  -4  470.11   16.06
   5   2   4  466.41   16.17
   5  -3  -4  286.95   10.10
   5  -3  -4  289.56   10.43
   5  -3  -4  288.53    9.98
   4  -3  -4   69.54    2.73
   4  -3  -4   72.75    2.66
   4  -3  -4   75.18    3.26
   4  -3  -4   71.27    3.20
  -4   3   4   68.14    3.19
   3  -3  -4  444.92   15.42
   3  -3  -4  434.74   15.01
   3  -3  -4  423.24   15.05
   2  -3  -4   83.64    3.25
   2  -3  -4   84.70    3.20
   2  -3  -4   89.31    3.41
  -2   3   4   86.77    5.43
   1  -3  -4   42.79    1.68
   1  -3  -4   40.28    1.61
   1  -3  -4   41.94    1.67
   1  -3  -4   43.59    1.60
   0  -3  -4  653.67   22.18
   0  -3  -4  641.55   21.76
   0  -3  -4  641.25   21.73
   0  -3  -4  594.93   21.73
   0   3   4  639.92   21.92
   0   3   4  637.85   21.79
  -1  -3  -4  339.96   12.07
  -1  -3  -4  345.56   11.49
   1   3   4  291.82   11.54
   1   3   4  350.26   11.76
  -2  -3  -4    4.78    1.00
  -2  -3  -4    4.36    0.36
  -2  -3  -4    4.49    0.41
   2   3   4    3.30    0.66
   2   3   4    2.97    0.47
  -3  -3  -4    4.66    0.40
  -3  -3  -4    4.32    0.44
   3   3   4    5.32    0.58
   3   3   4    5.42    0.64
  -4  -3  -4  760.67   26.45
   4   3   4  782.83   26.60
  -5  -3  -4  207.44    6.56
   5   3   4  170.39    6.58
   5  -4  -4  105.58    3.89
   5  -4  -4  108.76    4.15
   5  -4  -4  106.81    3.80
   4  -4  -4   29.60    1.25
   4  -4  -4   29.01    1.41
   4  -4  -4   30.83    1.75
   4  -4  -4   30.33    1.76
   4  -4  -4   29.34    1.31
   4  -4  -4   28.84    1.28
   3  -4  -4   11.53    1.20
   3  -4  -4   10.51    0.68
   3  -4  -4   11.07    0.75
   2  -4  -4  323.93   10.69
   2  -4  -4  310.68   10.80
   2  -4  -4  289.73   10.80
   1  -4  -4  901.23   31.11
   1  -4  -4  904.45   31.12
   1  -4  -4  911.20   31.04
   1  -4  -4  913.41   31.05
   0  -4  -4  834.18   28.47
   0  -4  -4  831.14   28.45
   0  -4  -4  859.52   28.44
   0  -4  -4  841.31   29.34
   0   4   4  846.21   28.69
   0   4   4  772.83   28.48
  -1  -4  -4   58.49    2.19
  -1  -4  -4   56.43    2.78
   1   4   4   50.53    2.24
   1   4   4   59.25    2.51
  -2  -4  -4  928.76   31.82
   2   4   4  928.54   32.35
   2   4   4  927.42   32.05
  -3  -4  -4   73.10    2.77
  -3  -4  -4   70.66    2.72
   3   4   4   77.53    3.38
   3   4   4   75.99    2.92
  -4  -4  -4    1.28    0.29
   4   4   4    1.54    0.32
   5  -5  -4   12.26    0.59
   5  -5  -4   11.99    0.86
   5  -5  -4   12.16    0.58
   5  -5  -4   10.82    0.67
   4  -5  -4   35.18    1.49
   4  -5  -4   33.78    1.44
   4  -5  -4   33.95    1.53
   4  -5  -4   35.08    1.41
   4  -5  -4   36.32    1.85
   3  -5  -4   75.60    2.83
   3  -5  -4   70.90    2.80
   3  -5  -4   77.83    2.97
   3  -5  -4   74.54    3.14
   2  -5  -4  364.38   12.82
   2  -5  -4  375.22   12.97
   1  -5  -4   16.60    0.87
   1  -5  -4   16.22    0.87
   1  -5  -4   16.90    0.92
   1  -5  -4   16.48    0.93
  -1   5   4   18.08    1.42
   0  -5  -4    5.09    0.49
   0   5   4    5.16    0.80
   0   5   4    5.54    0.54
  -1  -5  -4  468.41   16.00
   1   5   4  453.71   16.42
  -2  -5  -4   24.61    1.10
  -2  -5  -4   23.79    1.18
   2   5   4   27.46    1.69
   2   5   4   24.42    1.65
  -3  -5  -4   44.75    1.77
   3   5   4   45.43    2.30
  -4  -5  -4  155.85    5.44
   5  -6  -4   31.46    1.22
   5  -6  -4   30.07    1.32
   4  -6  -4   16.46    0.77
   4  -6  -4   13.00    0.77
   4  -6  -4   16.93    1.13
   3  -6  -4   71.34    2.74
   3  -6  -4   71.58    2.84
   3  -6  -4   73.29    2.66
   3  -6  -4   75.34    3.03
   3  -6  -4   71.67    2.68
   3  -6  -4   64.23    2.66
   2  -6  -4   47.30    1.87
   2  -6  -4   49.67    2.28
   2  -6  -4   46.73    1.87
   2  -6  -4   44.01    1.94
   2  -6  -4   48.49    2.06
   2  -6  -4   46.97    1.85
  -2   6   4   52.02    2.66
   1  -6  -4  108.42    4.10
   1  -6  -4  110.84    4.34
   1  -6  -4  107.16    3.96
  -1   6   4  112.34    4.49
   0  -6  -4  151.45    5.63
   0  -6  -4  160.99    5.77
   0  -6  -4  155.26    5.64
   0   6   4  167.32    6.18
   0   6   4  162.94    6.23
  -1  -6  -4  566.45   19.23
  -1  -6  -4  556.34   19.36
   1   6   4  555.37   19.85
   1   6   4  557.68   19.91
  -2  -6  -4   78.76    3.10
  -2  -6  -4   85.18    3.02
   2   6   4   77.19    3.60
   2   6   4   84.86    3.64
   3   6   4   34.62    1.78
   4  -7  -4    3.26    0.33
   4  -7  -4    3.86    0.32
   4  -7  -4    3.58    0.51
   3  -7  -4  324.56   11.58
   3  -7  -4  320.80   11.30
   3  -7  -4  341.03   11.35
   3  -7  -4  317.53   11.27
   2  -7  -4    0.76    0.33
   2  -7  -4    1.06    0.28
   2  -7  -4    1.29    0.28
   2  -7  -4    0.49    0.55
  -2   7   4    1.42    0.70
   1  -7  -4  248.10    9.08
   1  -7  -4  252.02    8.89
   1  -7  -4  259.07    9.32
  -1   7   4  259.16    9.47
   0  -7  -4   17.70    0.87
   0  -7  -4   18.60    0.87
   0  -7  -4   17.74    1.00
   0   7   4   18.35    1.39
   0   7   4   19.20    1.39
  -1  -7  -4   74.27    2.79
   1   7   4   75.78    3.37
  -2  -7  -4  883.08   30.39
   2   7   4  894.62   30.93
   3   7   4   63.88    2.74
   3  -8  -4   85.80    3.04
   3  -8  -4   83.61    3.05
   3  -8  -4   86.21    3.30
   2  -8  -4   21.30    0.95
   1  -8  -4  153.32    5.49
  -1   8   4  157.72    5.95
   0  -8  -4  181.72    6.67
   0   8   4  200.94    7.23
  -1  -8  -4   84.98    3.04
   1   8   4   82.89    3.46
  -2  -8  -4   13.90    0.62
   2   8   4   14.29    0.86
  -2   9   4   15.42    0.87
   1  -9  -4   75.41    2.65
  -1   9   4   72.79    2.94
   0   9   4   83.12    3.24
   1   9  -5    0.56    0.28
  -1  -9   5    0.45    0.15
   0   9  -5    7.15    0.61
  -1   9  -5  408.23   14.34
   1  -9   5  420.27   14.23
  -2   9  -5   65.22    2.49
   2  -9   5   67.53    2.40
   2   8  -5   30.39    1.41
  -2  -8   5   32.03    1.23
   1   8  -5  128.12    4.72
  -1  -8   5  126.25    4.51
   0   8  -5  957.60   32.07
   0  -8   5  893.53   31.85
   0  -8   5  946.08   31.87
  -1   8  -5   94.23    3.59
   1  -8   5   93.46    3.42
  -2   8  -5   29.21    1.39
   2  -8   5   28.39    1.21
  -3   8  -5  253.22    8.73
   3  -8   5  246.20    8.63
   3   7  -5   44.93    1.92
   3   7  -5   47.88    1.79
  -3  -7   5   47.13    1.73
   2   7  -5    5.41    0.67
  -2  -7   5    5.05    0.43
   1   7  -5  379.73   13.11
   1   7  -5  357.83   13.95
   1   7  -5  399.05   13.34
  -1  -7   5  379.66   13.22
   0   7  -5  346.31   13.13
   0   7  -5  355.94   12.37
   0   7  -5  367.42   12.57
   0  -7   5  362.40   12.49
   0  -7   5  356.63   12.37
  -1   7  -5    6.41    0.98
  -1   7  -5    5.25    0.63
   1  -7   5    4.31    0.63
   1  -7   5    4.07    0.42
  -2   7  -5  210.88    7.90
   2  -7   5  205.50    7.53
   2  -7   5  208.37    7.31
  -3   7  -5    8.36    0.81
   3  -7   5    8.78    0.57
   3  -7   5    9.12    0.55
  -4   7  -5  121.19    4.37
   4  -7   5  124.51    4.35
   4   6  -5   12.57    0.64
   4   6  -5   13.25    0.82
   4   6  -5   12.33    0.71
   3   6  -5 1055.75   41.06
   3   6  -5 1279.81   40.94
  -3  -6   5 1252.89   40.82
   2   6  -5  155.42    5.55
   2   6  -5  150.14    6.23
   2   6  -5  146.87    5.26
   2   6  -5  146.71    5.35
  -2  -6   5  140.57    5.34
   1   6  -5  449.17   15.08
   1   6  -5  398.20   15.69
  -1  -6   5  444.82   14.98
   0   6  -5  103.82    4.26
   0  -6   5   95.26    3.68
  -1   6  -5  488.75   17.01
   1  -6   5  466.00   16.63
  -2   6  -5  313.26   10.90
  -2   6  -5  329.70   11.48
   2  -6   5  296.66   10.77
   2  -6   5  302.87   11.01
  -3   6  -5   16.13    1.63
  -3   6  -5   15.73    1.11
   3  -6   5   16.11    1.02
   3  -6   5   17.24    0.93
  -4   6  -5  125.18    4.66
   4  -6   5  133.86    4.67
   4   5  -5  415.64   14.20
   4   5  -5  405.88   14.56
   4   5  -5  409.84   14.56
   3   5  -5  195.31    7.68
   3   5  -5  192.02    7.25
   3   5  -5  185.36    7.21
   3   5  -5  177.67    6.94
   3   5  -5  191.68    7.38
   3   5  -5  189.34    6.75
  -3  -5   5  189.77    6.70
   2   5  -5  146.12    5.81
   2   5  -5  153.42    6.20
   2   5  -5  139.03    5.21
  -2  -5   5  143.83    5.25
   1   5  -5  661.34   25.89
   1   5  -5  742.89   25.23
  -1  -5   5  786.12   25.32
  -1  -5   5  754.64   27.31
   0   5  -5  613.39   20.68
   0   5  -5  565.29   23.85
   0  -5   5  583.84   20.23
  -1   5  -5  303.62   14.15
  -1   5  -5  340.75   11.72
   1  -5   5  328.59   11.39
  -2   5  -5  202.35    8.98
   2  -5   5  274.09    8.56
  -3   5  -5  348.88   11.81
  -3   5  -5  294.13   11.65
   3  -5   5  335.84   11.72
   3  -5   5  348.18   11.65
  -4   5  -5    3.72    0.68
  -4   5  -5    4.64    0.65
   4  -5   5    4.41    0.49
  -5   5  -5    2.89    0.39
   5  -5   5    2.96    0.29
   5   4  -5    7.26    0.70
   5   4  -5    7.08    0.61
   5   4  -5    6.01    0.50
   4   4  -5    0.73    0.54
   4   4  -5    0.46    0.44
   4   4  -5    0.43    0.29
   4   4  -5    0.54    0.48
   3   4  -5  143.33    5.79
   3   4  -5  130.52    5.34
   3   4  -5  128.76    4.95
   3   4  -5  127.17    5.22
   3   4  -5  125.75    4.74
   3   4  -5  124.34    5.22
   2   4  -5  746.94   25.50
   2   4  -5  720.44   26.38
   2   4  -5  763.40   26.04
  -2  -4   5  742.72   25.52
   1   4  -5  148.10    8.49
   1   4  -5  149.92    5.83
   1   4  -5  147.66    5.23
  -1  -4   5  150.80    5.28
  -1  -4   5  144.10    6.07
   0   4  -5 1367.13   48.42
   0   4  -5 1368.09   45.72
   0   4  -5 1306.10   45.34
   0  -4   5 1316.79   46.09
   0  -4   5 1269.39   45.43
   0  -4   5 1354.63   45.41
  -1   4  -5 1048.61   38.34
  -1   4  -5 1031.30   36.14
   1  -4   5 1055.81   35.82
   2  -4   5   11.45    0.77
   2  -4   5   11.15    0.82
  -4   4  -5   12.13    1.28
   4  -4   5   13.69    0.82
  -5   4  -5  392.46   13.63
   5  -4   5  388.57   13.49
   5   3  -5   14.28    1.06
   5   3  -5   13.87    0.70
   5   3  -5   13.02    0.96
   4   3  -5    0.90    0.54
   4   3  -5    0.63    0.45
   4   3  -5    0.63    0.70
   4   3  -5    0.72    0.30
   4   3  -5    0.88    0.56
   4   3  -5    0.89    0.55
  -4  -3   5    0.99    0.27
   3   3  -5  120.61    4.45
   3   3  -5  119.93    5.00
   3   3  -5  128.48    5.42
   2   3  -5  248.42   12.41
   2   3  -5  238.21    8.19
   2   3  -5  231.96    8.58
   2   3  -5  219.98    8.89
  -2  -3   5  230.55    9.06
  -2  -3   5  239.92    8.20
   1   3  -5   16.26    0.75
   1   3  -5   17.21    2.53
   1   3  -5   16.74    1.24
   1   3  -5   15.97    0.79
  -1  -3   5   18.42    1.36
   0   3  -5  110.14    4.04
   0   3  -5  114.88    4.25
   0   3  -5  114.35    5.90
   0   3  -5  116.09    3.99
   0  -3   5  107.92    4.05
   0  -3   5  112.59    4.56
  -1   3  -5  123.61    4.21
  -1   3  -5  122.87    4.27
  -1   3  -5  101.76    5.28
  -1   3  -5  126.32    6.21
   1  -3   5  127.02    4.37
   1  -3   5  120.20    4.41
   2  -3   5   26.99    1.39
   2  -3   5   29.11    1.29
   3  -3   5 1245.39   42.33
   3  -3   5 1223.26   42.30
  -4   3  -5   17.89    1.54
   4  -3   5   18.65    1.01
   4  -3   5   18.51    1.07
  -5   3  -5  148.16    5.83
   5  -3   5  154.67    5.47
   5  -3   5  164.25    5.54
   5   2  -5  298.47   11.13
   5   2  -5  321.33   11.24
   4   2  -5   18.58    1.47
   4   2  -5   18.20    1.40
   4   2  -5   19.12    1.38
   4   2  -5   17.49    1.14
   4   2  -5   19.37    1.72
   4   2  -5   17.08    0.95
  -4  -2   5   17.62    0.89
   3   2  -5  262.33    9.49
   3   2  -5  236.79    9.04
   3   2  -5  235.36    8.54
   2   2  -5 1036.70   37.00
   2   2  -5 1141.15   40.94
   2   2  -5 1078.01   36.68
   2   2  -5 1003.63   37.26
   2   2  -5 1094.74   36.68
  -2  -2   5 1089.22   37.48
   1   2  -5  622.19   21.09
   1   2  -5  614.26   23.53
   1   2  -5  622.70   21.05
   1   2  -5  611.43   21.41
  -1  -2   5  606.91   21.64
   0   2  -5   80.20    3.28
   0   2  -5   70.65    3.94
   0  -2   5   77.86    2.79
  -1   2  -5  179.08    6.65
  -1   2  -5  198.85    7.12
   1  -2   5  189.04    6.79
   1  -2   5  195.81    6.72
  -2   2  -5  141.51    6.19
  -2   2  -5  171.81    5.77
   2  -2   5  168.72    5.94
   2  -2   5  170.52    5.92
   2  -2   5  173.33    6.09
  -3   2  -5   13.36    0.66
  -3   2  -5   13.35    1.38
   3  -2   5   15.05    0.90
  -4   2  -5    9.52    1.35
  -4   2  -5   13.05    1.33
   4  -2   5   12.58    0.80
   4  -2   5   11.95    0.90
   4  -2   5   13.18    0.80
  -5   2  -5  267.29    9.55
   5  -2   5  257.93    9.16
   5   1  -5  193.71    7.00
   5   1  -5  185.87    6.91
   5   1  -5  170.58    6.60
   4   1  -5  477.87   17.06
   4   1  -5  494.23   17.49
   4   1  -5  462.82   17.32
   4   1  -5  496.75   17.53
   4   1  -5  512.74   17.93
   3   1  -5  421.43   19.46
   3   1  -5  417.94   14.71
   3   1  -5  444.82   15.56
   3   1  -5  424.46   15.20
   2   1  -5  123.79    7.02
   2   1  -5  110.26    4.50
   2   1  -5  111.28    3.98
   2   1  -5  108.87    4.27
  -2  -1   5  109.43    4.54
   1   1  -5    2.18    0.85
   1   1  -5    0.97    1.09
  -1  -1   5    1.23    0.22
   0   1  -5 1342.57   48.20
   0   1  -5 1382.99   48.67
   0  -1   5 1481.25   47.97
  -1   1  -5 1709.48   58.37
   1  -1   5 1693.91   58.10
  -2   1  -5  166.11    6.13
  -2   1  -5  169.29    5.71
  -2   1  -5  165.55    6.24
   2  -1   5  164.89    5.99
   2  -1   5  160.82    5.88
   2  -1   5  158.83    5.81
  -3   1  -5    1.27    0.24
   3  -1   5    1.82    0.73
   3  -1   5    1.02    0.35
  -4   1  -5  526.50   19.16
  -4   1  -5  558.65   19.63
   4  -1   5  561.66   19.35
   4  -1   5  587.37   19.54
  -5   1  -5  167.96    6.10
   5  -1   5  153.90    5.74
   6   0  -5   21.88    1.08
   6   0  -5   21.49    0.94
   5   0  -5   80.96    3.11
   5   0  -5   80.71    3.41
   5   0  -5   77.59    3.40
   4   0  -5  491.90   17.51
   4   0  -5  498.63   17.95
   4   0  -5  487.99   17.18
   4   0  -5  508.36   17.66
   4   0  -5  480.80   17.57
   3   0  -5    2.14    1.55
   3   0  -5    1.46    0.61
   3   0  -5    1.56    0.52
   2   0  -5   65.19    4.57
   2   0  -5   60.93    2.50
   2   0  -5   58.53    2.28
   2   0  -5   59.46    2.20
   2   0  -5   60.26    2.66
  -2   0   5   62.03    2.66
   1   0  -5 2909.36   98.89
   1   0  -5 2785.65  102.11
   1   0  -5 2857.02   97.45
   0   0  -5  117.32    4.43
   0   0   5  111.80    4.09
  -1   0  -5 1149.03   39.42
   1   0   5 1134.28   39.12
  -2   0  -5 1307.20   47.39
  -2   0  -5 1342.56   46.81
   2   0   5 1427.45   47.12
   2   0   5 1418.76   47.03
  -3   0  -5  981.25   33.22
   3   0   5  920.24   33.61
   3   0   5 1015.50   33.54
  -4   0  -5  163.31    5.92
  -4   0  -5  158.46    5.97
   4   0   5  170.73    6.12
   4   0   5  180.68    6.31
  -5   0  -5    1.28    0.58
   5   0   5    1.07    0.32
   6  -1  -5   31.83    1.43
   6  -1  -5   33.97    1.31
   5  -1  -5  107.19    4.11
   5  -1  -5  112.40    3.96
   5  -1  -5  112.21    4.50
   4  -1  -5   20.00    1.48
   4  -1  -5   18.20    0.92
   4  -1  -5   20.05    1.10
   4  -1  -5   18.47    1.39
   4  -1  -5   17.66    0.88
   4  -1  -5   20.07    1.58
   3  -1  -5   99.04    3.81
   3  -1  -5   87.40    3.88
   3  -1  -5   90.28    3.33
  -3   1   5   90.14    6.38
   2  -1  -5  285.55    9.68
   2  -1  -5  284.20    9.94
   2  -1  -5  273.02    9.71
   2  -1  -5  267.37   10.58
   2  -1  -5  276.83    9.64
  -2   1   5  290.50   12.26
   1  -1  -5   85.84    3.46
   1  -1  -5   86.47    3.10
  -1   1   5   84.31    4.22
   0  -1  -5  420.97   14.67
   0   1   5  411.66   14.33
  -1  -1  -5 3572.12  124.73
  -1  -1  -5 3739.85  124.93
  -1  -1  -5 3608.16  126.55
   1   1   5 3789.22  125.47
   1   1   5 3612.37  125.42
  -2  -1  -5   11.71    0.58
  -2  -1  -5   11.70    1.06
   2   1   5   12.46    0.80
   2   1   5   12.28    0.84
  -3  -1  -5   74.75    2.74
   3   1   5   74.94    3.06
  -4  -1  -5  101.24    3.74
  -4  -1  -5  101.43    3.76
   4   1   5  108.16    4.13
   4   1   5  105.16    3.97
  -5  -1  -5  625.96   19.51
   5   1   5  511.83   19.60
   5  -2  -5   38.18    1.71
   5  -2  -5   39.55    2.05
   5  -2  -5   41.42    1.56
   4  -2  -5  607.29   20.81
   4  -2  -5  619.31   21.43
   4  -2  -5  598.70   20.96
   4  -2  -5  587.38   20.88
   4  -2  -5  636.49   21.46
  -4   2   5  590.33   21.46
   3  -2  -5  228.69    7.89
   3  -2  -5  232.41    8.33
   3  -2  -5  217.00    7.98
  -3   2   5  222.68   11.31
   2  -2  -5  160.57    6.23
   2  -2  -5  174.32    6.08
   2  -2  -5  172.12    6.04
   2  -2  -5  171.90    5.98
  -2   2   5  177.41    8.34
   1  -2  -5  444.05   15.12
   1  -2  -5  435.22   14.75
   1  -2  -5  419.39   14.78
   1  -2  -5  421.99   14.82
   0  -2  -5 1067.45   39.04
   0  -2  -5 1182.31   39.08
   0  -2  -5 1146.53   39.03
   0  -2  -5 1160.23   39.49
   0   2   5 1161.31   39.11
  -1  -2  -5 1171.80   41.84
  -1  -2  -5 1213.60   42.46
  -1  -2  -5 1181.87   41.92
   1   2   5 1302.87   42.04
   1   2   5 1272.99   42.05
  -2  -2  -5  656.87   23.29
  -2  -2  -5  664.11   22.49
   2   2   5  651.03   22.78
  -3  -2  -5  527.31   18.66
   3   2   5  560.17   19.05
  -4  -2  -5  134.01    4.81
  -4  -2  -5  138.73    4.85
   4   2   5  128.20    5.03
   4   2   5  141.61    5.19
  -5  -2  -5   60.40    2.08
   5   2   5   53.26    2.16
   5  -3  -5  269.79    9.71
   5  -3  -5  262.91    9.39
   5  -3  -5  272.57    9.29
   4  -3  -5   14.42    1.26
   4  -3  -5   13.76    0.72
   4  -3  -5   11.52    0.87
   4  -3  -5   13.78    1.25
   3  -3  -5    5.73    0.52
   3  -3  -5    5.71    0.87
   3  -3  -5    5.85    0.53
   2  -3  -5   75.52    2.82
   2  -3  -5   71.83    2.84
   2  -3  -5   74.97    2.73
   2  -3  -5   73.22    2.98
  -2   3   5   76.47    5.04
   1  -3  -5  385.31   13.36
   1  -3  -5  383.45   13.41
   1  -3  -5  397.46   13.35
   1  -3  -5  382.59   13.39
   0  -3  -5   15.32    0.76
   0  -3  -5   15.84    1.18
   0  -3  -5   15.18    0.75
   0  -3  -5   13.86    0.72
   0   3   5   14.73    0.79
   0   3   5   13.97    0.87
  -1  -3  -5  183.76    7.40
  -1  -3  -5  191.35    6.83
   1   3   5  195.23    6.93
   1   3   5  206.73    6.95
  -2  -3  -5 2132.65   72.49
  -2  -3  -5 2119.46   72.40
  -3  -3  -5  226.84    7.89
  -3  -3  -5  232.27    7.86
   3   3   5  202.31    8.04
   3   3   5  238.20    8.25
  -4  -3  -5  328.69   10.21
   4   3   5  258.15   10.33
  -5  -3  -5  456.95   15.63
   5  -4  -5  131.89    4.88
   5  -4  -5  133.16    4.58
   5  -4  -5  125.32    4.63
   4  -4  -5   15.70    0.96
   4  -4  -5   17.15    0.82
   4  -4  -5   17.99    1.36
   4  -4  -5   15.73    1.27
   4  -4  -5   16.83    0.83
   4  -4  -5   15.59    0.85
   3  -4  -5  696.46   24.30
   3  -4  -5  694.00   24.05
   3  -4  -5  699.88   23.95
   2  -4  -5   64.38    2.59
   2  -4  -5   67.21    2.49
   1  -4  -5   21.74    1.01
   1  -4  -5   23.08    1.07
   1  -4  -5   21.88    1.04
   1  -4  -5   21.77    1.07
   0  -4  -5  228.02    7.78
   0  -4  -5  224.10    7.80
   0  -4  -5  226.39    7.81
   0   4   5  210.53    7.83
   0   4   5  220.44    8.00
  -1  -4  -5  813.11   29.70
  -1  -4  -5  875.17   28.98
   1   4   5  795.22   29.23
   1   4   5  893.40   29.09
  -2  -4  -5  207.81    6.81
   2   4   5  173.62    6.97
  -3  -4  -5    2.07    0.30
  -3  -4  -5    2.38    0.35
   3   4   5    2.08    0.44
  -4  -4  -5  885.34   27.34
   4   4   5  711.63   27.39
   5  -5  -5   54.46    2.08
   5  -5  -5   58.14    2.29
   5  -5  -5   53.58    2.08
   5  -5  -5   61.33    2.08
   4  -5  -5  167.53    6.18
   4  -5  -5  159.65    5.85
   4  -5  -5  169.02    5.84
   3  -5  -5    1.42    0.32
   3  -5  -5    0.84    0.25
   3  -5  -5    0.04    0.55
   3  -5  -5    0.31    0.27
   3  -5  -5    0.36    0.31
  -3   5   5   -0.47    0.85
   2  -5  -5    3.65    0.48
   2  -5  -5    4.34    0.49
  -2   5   5    1.17    0.88
   1  -5  -5  747.28   26.11
   1  -5  -5  757.87   26.17
   1  -5  -5  771.53   26.09
  -1   5   5  762.63   26.46
   0  -5  -5  134.30    4.83
   0   5   5  133.83    4.84
   0   5   5  129.43    5.12
  -1  -5  -5    4.09    0.49
   1   5   5    3.98    0.75
   1   5   5    4.02    0.74
  -2  -5  -5  282.29    9.42
  -2  -5  -5  274.34    9.52
   2   5   5  281.20   10.02
   2   5   5  243.45    9.54
  -3  -5  -5  389.36   12.78
   3   5   5  350.92   12.90
  -4  -5  -5   14.06    0.65
   4  -6  -5   24.47    1.06
   4  -6  -5   24.41    1.35
   4  -6  -5   24.88    1.06
   3  -6  -5    1.16    0.58
   3  -6  -5    1.28    0.36
   3  -6  -5    0.70    0.27
   3  -6  -5    1.23    0.35
   3  -6  -5    0.62    0.29
   3  -6  -5    0.78    0.27
  -3   6   5    0.84    0.92
   2  -6  -5  752.52   26.35
   2  -6  -5  755.03   26.38
   2  -6  -5  782.58   26.41
   2  -6  -5  761.43   26.57
   2  -6  -5  806.39   26.73
   2  -6  -5  741.00   26.45
  -2   6   5  787.95   26.96
   1  -6  -5  339.92   11.72
   1  -6  -5  350.39   12.11
   1  -6  -5  327.13   11.78
   1  -6  -5  345.64   11.74
   1  -6  -5  323.81   11.86
  -1   6   5  342.01   12.21
   0  -6  -5  424.03   14.45
   0  -6  -5  403.08   14.30
   0  -6  -5  403.00   14.30
   0  -6  -5  422.02   14.35
   0   6   5  418.28   14.85
   0   6   5  416.56   14.81
  -1  -6  -5  717.73   24.06
  -1  -6  -5  703.26   24.19
   1   6   5  687.06   24.66
   1   6   5  694.82   24.61
  -2  -6  -5   30.70    1.29
   2   6   5   29.81    1.74
   3   6   5   11.22    0.84
   4  -7  -5   14.93    0.68
   4  -7  -5   15.21    0.65
   4  -7  -5   14.70    0.86
   3  -7  -5  192.74    6.79
   3  -7  -5  190.98    6.74
   3  -7  -5  195.15    6.76
   3  -7  -5  194.65    7.05
   2  -7  -5    8.40    0.96
   2  -7  -5    8.19    0.56
   2  -7  -5    7.98    0.59
   2  -7  -5    8.54    0.60
   1  -7  -5  132.13    4.74
  -1   7   5  132.08    5.25
   0  -7  -5  661.56   22.78
   0  -7  -5  662.49   22.80
   0  -7  -5  659.79   22.93
   0   7   5  699.86   23.36
   0   7   5  638.34   23.35
  -1  -7  -5   10.21    0.66
   1   7   5   10.27    1.03
  -2  -7  -5   38.35    1.49
   2   7   5   37.78    1.85
   3  -8  -5    1.52    0.21
   3  -8  -5    1.46    0.21
   2  -8  -5  204.84    7.15
  -2   8   5  205.51    7.49
   1  -8  -5   45.87    1.78
  -1   8   5   46.57    2.16
   0  -8  -5   43.35    1.68
   0   8   5   44.86    2.11
  -1  -8  -5    1.61    0.25
   1   8   5    1.67    0.45
  -1   9   5   34.81    1.65
   1   9  -6    1.60    0.32
  -1  -9   6    1.96    0.21
   0   9  -6   46.35    1.86
  -1   9  -6    0.32    0.26
   1  -9   6    0.36    0.18
  -2   9  -6    3.38    0.36
   2  -9   6    3.66    0.29
   2   8  -6  227.83    8.13
  -2  -8   6  232.54    7.97
   1   8  -6    4.21    0.53
  -1  -8   6    3.65    0.34
   0   8  -6   14.76    0.95
   0  -8   6   14.18    0.69
   0  -8   6   14.23    0.71
  -1   8  -6  163.35    5.94
   1  -8   6  165.29    5.81
  -2   8  -6  448.88   15.53
   2  -8   6  447.26   15.42
  -3   8  -6   58.18    2.18
   3  -8   6   56.23    2.08
   3   7  -6  361.60   12.58
   3   7  -6  360.77   12.45
  -3  -7   6  361.18   12.40
   2   7  -6    2.02    0.47
  -2  -7   6    2.00    0.31
   1   7  -6  203.84    8.45
   1   7  -6  219.04    7.59
   1   7  -6  224.26    7.79
  -1  -7   6  218.17    7.70
   0   7  -6  481.44   17.32
   0   7  -6  467.48   16.52
   0   7  -6  490.42   16.70
   0  -7   6  480.58   16.52
   0  -7   6  478.64   16.63
  -1   7  -6  356.01   12.98
  -1   7  -6  354.49   12.47
   1  -7   6  357.09   12.34
  -2   7  -6  246.78    8.66
  -2   7  -6  247.76    9.11
   2  -7   6  235.27    8.74
   2  -7   6  247.23    8.54
  -3   7  -6  369.97   12.65
   3  -7   6  357.68   12.54
  -4   7  -6    7.77    0.50
   4  -7   6    7.32    0.44
   4   6  -6    0.05    0.23
   4   6  -6    0.17    0.19
   3   6  -6    2.98    0.63
   3   6  -6    2.27    0.39
   3   6  -6    2.71    0.52
  -3  -6   6    2.88    0.30
   2   6  -6    5.31    1.07
   2   6  -6    5.62    0.68
   2   6  -6    5.17    0.52
   2   6  -6    6.24    0.59
   2   6  -6    6.44    0.51
  -2  -6   6    5.33    0.51
   1   6  -6 1055.76   37.39
   1   6  -6 1056.48   36.62
   1   6  -6 1082.68   36.46
  -1  -6   6 1069.57   36.56
   0   6  -6   83.47    3.66
   0  -6   6   79.59    3.09
  -1   6  -6  106.91    4.37
  -1   6  -6  103.65    4.14
   1  -6   6  105.74    4.01
   1  -6   6  102.55    3.80
  -2   6  -6 1038.32   36.15
  -2   6  -6 1081.32   36.70
   2  -6   6 1061.81   36.33
   2  -6   6 1038.09   36.07
  -3   6  -6   24.77    1.26
  -3   6  -6   22.59    1.71
   3  -6   6   23.96    1.17
   3  -6   6   24.55    1.28
   4  -6   6   10.82    0.65
   4   5  -6  202.66    7.53
   4   5  -6  196.76    7.91
   4   5  -6  202.76    7.27
   4   5  -6  208.73    7.15
   3   5  -6  379.14   13.13
   3   5  -6  383.94   13.68
   3   5  -6  399.68   13.33
   3   5  -6  353.63   14.08
  -3  -5   6  364.85   13.06
   2   5  -6  244.31   10.15
   2   5  -6  250.82    8.77
   2   5  -6  238.76    8.53
   2   5  -6  241.33    8.59
   2   5  -6  250.88    8.70
  -2  -5   6  240.88    8.61
   1   5  -6   97.34    4.17
   1   5  -6   88.41    3.42
  -1  -5   6   95.01    3.50
   0   5  -6   -0.06    0.47
   0   5  -6    1.11    1.40
   0  -5   6    0.49    0.25
  -1   5  -6   22.08    1.53
   1  -5   6   23.34    1.18
  -2   5  -6    1.53    0.93
   2  -5   6    1.80    0.42
  -3   5  -6   86.37    3.50
   3  -5   6   88.66    3.35
   3  -5   6   86.89    3.44
  -4   5  -6  508.13   18.05
   4  -5   6  528.42   17.94
  -5   5  -6   49.56    1.93
   5  -5   6   45.02    1.76
   5   4  -6   13.99    0.93
   5   4  -6   13.08    0.79
   5   4  -6   13.47    0.71
   4   4  -6  695.25   23.83
   4   4  -6  678.02   24.06
   4   4  -6  674.56   23.64
   4   4  -6  702.19   24.21
   3   4  -6  461.29   16.36
   3   4  -6  463.77   15.72
   3   4  -6  447.89   15.75
   3   4  -6  453.20   16.34
   3   4  -6  407.51   16.73
   3   4  -6  486.83   15.95
   2   4  -6  415.53   14.30
  -2  -4   6  410.66   14.31
   1   4  -6 1443.31   55.53
   1   4  -6 1637.18   52.00
   1   4  -6 1434.46   51.31
  -1  -4   6 1463.50   52.32
  -1  -4   6 1542.94   51.37
   0   4  -6  916.72   33.55
   0   4  -6  878.64   30.09
   0   4  -6  894.28   30.48
   0  -4   6  848.44   30.19
   0  -4   6  865.22   30.92
  -1   4  -6   67.01    2.91
   1  -4   6   64.75    2.59
   2  -4   6    5.42    0.73
   2  -4   6    5.15    0.58
  -3   4  -6  278.45    9.91
   3  -4   6  266.41    9.70
   3  -4   6  273.22    9.65
  -4   4  -6    0.20    0.53
  -4   4  -6   -0.05    0.92
   4  -4   6    1.92    0.37
  -5   4  -6    5.13    0.62
   5  -4   6    4.10    0.39
   5   3  -6  340.34   12.10
   5   3  -6  334.26   12.26
   5   3  -6  367.64   12.44
   4   3  -6   54.67    2.35
   4   3  -6   54.37    2.68
   4   3  -6   54.85    2.60
   4   3  -6   53.50    2.17
   4   3  -6   50.62    3.05
   4   3  -6   58.82    2.80
  -4  -3   6   52.55    2.12
   3   3  -6  222.27    9.58
   3   3  -6  256.44    9.22
   3   3  -6  258.45    8.65
   2   3  -6 1485.17   55.67
   2   3  -6 1411.52   51.63
   2   3  -6 1523.67   50.86
  -2  -3   6 1517.39   51.91
  -2  -3   6 1512.54   50.86
   1   3  -6 1475.04   50.19
   1   3  -6 1530.46   50.69
   1   3  -6 1420.32   53.55
  -1  -3   6 1458.32   51.03
   0   3  -6  724.00   25.20
   0   3  -6  725.50   26.90
   0   3  -6  684.04   24.68
   0   3  -6  720.92   24.49
   0   3  -6  728.41   24.43
   0  -3   6  705.28   24.52
  -1   3  -6  299.04    9.70
  -1   3  -6  290.33    9.77
  -1   3  -6  245.77   10.11
  -1   3  -6  280.76   10.53
   1  -3   6  279.29    9.94
   1  -3   6  295.82    9.87
  -2   3  -6    4.25    0.33
   2  -3   6    3.70    0.58
   2  -3   6    4.54    0.50
  -4   3  -6   49.33    2.65
   4  -3   6   54.16    2.29
   4  -3   6   60.25    2.28
  -5   3  -6  666.54   21.84
   5  -3   6  593.01   21.62
   5   2  -6   34.55    1.84
   5   2  -6   32.12    1.68
   5   2  -6   32.83    1.50
   4   2  -6  127.39    4.70
   4   2  -6  112.57    5.43
   4   2  -6  124.52    5.10
   4   2  -6  123.39    4.96
   4   2  -6  132.55    5.21
  -4  -2   6  122.74    4.48
   3   2  -6   35.29    1.85
   3   2  -6   33.92    1.40
   3   2  -6   30.06    2.11
   2   2  -6   60.30    2.22
   2   2  -6   57.08    4.86
   2   2  -6   54.52    2.78
   2   2  -6   60.78    2.21
  -2  -2   6   60.82    2.95
   1   2  -6  889.69   30.43
   1   2  -6  838.65   32.61
   1   2  -6  894.41   30.05
   1   2  -6  897.27   30.10
   0   2  -6 8387.71  286.08
   0   2  -6 7714.80  287.72
   0  -2   6 8910.65  286.46
   0  -2   6 8553.57  286.39
  -1   2  -6   -0.24    0.48
  -1   2  -6   -0.05    0.20
  -1   2  -6   -0.12    0.53
  -1   2  -6    0.07    0.16
   1  -2   6   -0.41    0.29
   1  -2   6    0.00    0.24
  -2   2  -6   79.75    2.80
   2  -2   6   81.13    3.17
   2  -2   6   76.24    2.98
   2  -2   6   76.99    2.97
  -3   2  -6   25.76    1.07
   3  -2   6   26.36    1.34
  -4   2  -6   97.57    4.08
   4  -2   6   97.32    3.80
   4  -2   6   98.17    3.67
   4  -2   6   94.38    3.62
  -5   2  -6    1.46    0.60
   5  -2   6    0.63    0.22
   5   1  -6  385.38   14.37
   5   1  -6  420.90   14.04
   5   1  -6  400.62   14.30
   4   1  -6   74.19    3.27
   4   1  -6   76.38    3.40
   4   1  -6   77.52    3.01
   4   1  -6   68.29    3.64
   4   1  -6   75.86    3.47
   3   1  -6   27.97    1.56
   3   1  -6   26.36    1.14
   3   1  -6   26.95    3.84
   3   1  -6   25.23    1.79
   2   1  -6   13.14    0.64
   2   1  -6   11.90    1.10
  -2  -1   6   13.34    1.13
   1   1  -6  179.18    6.13
   1   1  -6  177.22    6.19
   1   1  -6  163.06    7.95
   1   1  -6  188.18    6.86
  -1  -1   6  175.57    6.16
   0   1  -6  333.48   11.85
   0  -1   6  321.93   11.37
  -1   1  -6    7.47    0.85
  -1   1  -6    7.69    0.41
   1  -1   6    7.96    0.66
   1  -1   6    7.49    0.55
  -2   1  -6 1751.43   61.68
  -2   1  -6 1731.98   61.03
   2  -1   6 1799.31   61.24
   2  -1   6 1826.27   61.18
   2  -1   6 1852.04   61.38
  -3   1  -6   42.74    1.68
   3  -1   6   44.21    1.96
  -4   1  -6    4.48    0.84
  -4   1  -6    3.26    0.35
   4  -1   6    3.34    0.55
   4  -1   6    3.99    0.51
  -5   1  -6   45.08    2.32
   5  -1   6   58.18    2.02
   5   0  -6   55.50    2.76
   5   0  -6   66.90    2.85
   5   0  -6   68.93    2.54
   4   0  -6  294.22   11.52
   4   0  -6  316.87   11.28
   4   0  -6  311.27   10.82
   4   0  -6  298.17   11.23
   4   0  -6  310.89   11.16
   3   0  -6  891.99   31.98
   3   0  -6  935.80   31.75
   2   0  -6   76.44    3.31
   2   0  -6   79.74    3.15
   2   0  -6   83.32    5.32
   2   0  -6   78.31    2.87
  -2   0   6   82.57    3.44
   1   0  -6  228.07    8.54
  -1   0   6  230.46    8.01
   0   0  -6 1057.48   36.48
   0   0   6 1054.07   36.08
  -1   0  -6 2358.81   81.42
  -1   0  -6 2384.52   81.48
  -1   0  -6 2420.01   81.52
  -1   0  -6 2385.28   82.01
   1   0   6 2375.75   81.56
   1   0   6 2430.55   81.66
  -2   0  -6    1.12    0.66
  -2   0  -6    0.93    0.22
   2   0   6    0.79    0.41
   2   0   6   -0.02    0.28
  -3   0  -6   57.64    2.16
   3   0   6   56.76    2.48
  -4   0  -6  163.22    5.59
  -4   0  -6  158.00    5.99
  -4   0  -6  158.82    5.60
   4   0   6  156.86    5.96
   4   0   6  151.62    5.76
  -5   0  -6    0.79    0.53
   5   0   6    0.86    0.26
   5  -1  -6  128.55    4.52
   5  -1  -6  128.24    4.65
   5  -1  -6  125.53    5.02
   4  -1  -6 1396.15   47.90
   4  -1  -6 1376.19   48.44
   4  -1  -6 1444.03   48.59
   4  -1  -6 1408.03   48.08
   4  -1  -6 1396.83   48.75
   3  -1  -6   28.70    1.74
   3  -1  -6   29.71    1.23
   3  -1  -6   29.50    1.67
  -3   1   6   29.81    3.50
   2  -1  -6  121.79    4.29
   2  -1  -6  121.33    4.28
   2  -1  -6  118.68    4.50
   2  -1  -6  115.95    4.20
  -2   1   6  119.83    6.51
   1  -1  -6   22.60    0.93
   1  -1  -6   23.84    1.41
   1  -1  -6   22.79    1.00
   1  -1  -6   22.96    1.00
   1  -1  -6   21.96    0.96
   0  -1  -6  182.59    6.61
   0  -1  -6  188.77    6.65
   0  -1  -6  194.26    7.09
   0  -1  -6  190.04    6.66
   0   1   6  193.69    6.69
  -1  -1  -6   20.21    0.95
  -1  -1  -6   20.58    0.86
  -1  -1  -6   21.09    1.42
  -1  -1  -6   20.27    0.95
   1   1   6   21.40    1.08
   1   1   6   22.28    1.03
  -2  -1  -6  298.95    9.62
  -2  -1  -6  293.47   10.44
   2   1   6  253.60    9.86
   2   1   6  267.13    9.99
  -3  -1  -6 1397.78   46.61
   3   1   6 1333.98   47.00
  -4  -1  -6   84.10    2.88
  -4  -1  -6   83.58    2.91
   4   1   6   73.29    3.06
   4   1   6   68.50    3.18
  -5  -1  -6  252.70    9.17
   5   1   6  280.91    9.30
   5  -2  -6   33.03    1.78
   5  -2  -6   33.31    1.46
   5  -2  -6   34.40    1.33
   4  -2  -6   11.76    0.65
   4  -2  -6   11.56    1.18
   4  -2  -6   11.59    0.81
   4  -2  -6   11.87    0.70
   4  -2  -6   12.90    1.29
   3  -2  -6   14.88    0.76
   3  -2  -6   14.97    1.20
   2  -2  -6 3335.18  112.33
   2  -2  -6 3409.98  112.37
   2  -2  -6 3298.79  112.56
   2  -2  -6 3151.79  112.49
   1  -2  -6   81.62    3.04
   1  -2  -6   84.25    3.07
   1  -2  -6   80.87    3.01
   1  -2  -6   85.90    3.49
   1  -2  -6   81.16    2.99
   0  -2  -6    1.69    0.30
   0  -2  -6    4.45    0.88
   0  -2  -6    2.40    0.30
   0  -2  -6    2.98    0.37
   0   2   6    2.29    0.35
  -1  -2  -6   56.18    2.72
  -1  -2  -6   57.09    2.07
  -1  -2  -6   55.16    2.14
  -1  -2  -6   56.20    2.18
   1   2   6   58.79    2.26
   1   2   6   58.41    2.29
  -2  -2  -6  933.60   30.75
  -2  -2  -6  903.04   31.68
   2   2   6  863.37   31.07
  -3  -2  -6    1.37    0.28
  -3  -2  -6    1.08    0.30
   3   2   6    0.82    0.44
   3   2   6    1.09    0.40
  -4  -2  -6   13.11    0.76
   4   2   6   11.91    0.89
  -5  -2  -6  159.07    5.74
   5   2   6  172.90    5.83
   5  -3  -6   20.94    1.29
   5  -3  -6   19.36    1.00
   5  -3  -6   21.43    0.89
   4  -3  -6  146.35    5.45
   4  -3  -6  133.68    4.96
   4  -3  -6  131.93    5.00
   4  -3  -6  137.16    5.40
   4  -3  -6  142.33    4.90
   3  -3  -6  344.11   12.43
   3  -3  -6  365.28   12.75
   3  -3  -6  359.48   12.36
   2  -3  -6    0.49    0.47
   2  -3  -6    0.16    0.26
   2  -3  -6    0.27    0.22
   2  -3  -6    0.32    0.25
   1  -3  -6   36.49    1.55
   1  -3  -6   38.00    1.56
   1  -3  -6   38.03    1.61
   1  -3  -6   37.95    1.59
   0  -3  -6  837.94   29.41
   0  -3  -6  867.08   29.45
   0  -3  -6  895.20   30.10
   0  -3  -6  870.60   29.47
   0   3   6  824.18   29.49
  -1  -3  -6    8.52    0.63
  -1  -3  -6    9.65    1.06
   1   3   6    9.32    0.68
   1   3   6   10.30    0.71
  -2  -3  -6    2.90    0.31
  -2  -3  -6    2.24    0.37
   2   3   6    2.28    0.51
  -3  -3  -6  143.14    5.10
  -3  -3  -6  151.21    5.07
   3   3   6  133.66    5.29
  -4  -3  -6  757.45   26.26
   4   3   6  776.32   26.42
   5  -4  -6  155.96    5.67
   5  -4  -6  145.80    5.45
   5  -4  -6  164.90    5.45
   4  -4  -6    0.34    0.57
   4  -4  -6    0.56    0.25
   4  -4  -6    0.28    0.22
   4  -4  -6    0.62    0.25
   4  -4  -6    0.05    0.53
   3  -4  -6    3.36    0.46
   3  -4  -6    1.77    0.30
   3  -4  -6    2.21    0.68
   3  -4  -6    2.05    0.31
   3  -4  -6    1.81    0.33
   2  -4  -6  251.69    8.62
   2  -4  -6  238.95    8.70
   1  -4  -6 1274.89   40.92
   1  -4  -6 1221.65   40.94
   1  -4  -6 1217.38   40.97
  -1   4   6 1070.50   41.17
   0  -4  -6  258.18    8.73
   0  -4  -6  249.49    8.74
   0   4   6  234.32    8.87
   0   4   6  262.22    8.74
   0   4   6  236.36    8.75
  -1  -4  -6 1283.09   44.84
   1   4   6 1337.99   44.95
  -2  -4  -6  687.15   23.47
  -2  -4  -6  676.91   23.35
  -2  -4  -6  642.05   23.33
   2   4   6  685.05   23.69
   2   4   6  712.69   23.56
  -3  -4  -6   96.78    3.58
   3   4   6  100.55    3.77
  -4  -4  -6    1.18    0.25
   4   4   6    1.00    0.27
   5  -5  -6   13.13    0.58
   5  -5  -6   12.67    0.60
   5  -5  -6   11.88    0.75
   4  -5  -6   20.72    1.03
   4  -5  -6   22.62    1.38
   4  -5  -6   22.19    1.00
   3  -5  -6   93.08    3.34
   3  -5  -6   90.49    3.58
   3  -5  -6   77.50    3.23
   3  -5  -6   90.94    3.40
   3  -5  -6   85.93    3.24
   2  -5  -6  203.70    7.37
   2  -5  -6  207.99    7.10
   2  -5  -6  201.94    7.10
   2  -5  -6  196.37    7.21
   2  -5  -6  196.14    7.11
   2  -5  -6  205.23    7.29
   1  -5  -6   29.99    1.37
   1  -5  -6   29.61    1.33
   1  -5  -6   28.72    1.37
  -1   5   6   29.19    1.71
   0  -5  -6   49.29    2.02
   0   5   6   47.62    2.27
   0   5   6   50.14    2.04
  -1  -5  -6 1078.25   36.39
  -1  -5  -6 1067.35   36.52
  -1  -5  -6 1063.15   36.46
   1   5   6 1046.18   36.60
  -2  -5  -6  252.76    8.55
  -2  -5  -6  238.80    8.65
   2   5   6  240.94    8.69
  -3  -5  -6  493.70   17.13
   3   5   6  503.87   17.26
   4  -6  -6  233.82    8.10
   4  -6  -6  233.26    8.33
   4  -6  -6  233.43    8.13
   3  -6  -6   67.65    2.49
   3  -6  -6   66.16    2.81
   3  -6  -6   65.15    2.51
   3  -6  -6   65.98    2.48
   2  -6  -6   64.40    2.77
   2  -6  -6   63.79    2.44
   2  -6  -6   61.60    2.52
   2  -6  -6   65.05    2.48
   2  -6  -6   65.91    2.64
   2  -6  -6   65.18    2.46
  -2   6   6   67.32    3.01
   1  -6  -6  154.73    5.85
   1  -6  -6  151.57    5.66
   1  -6  -6  159.29    5.52
   1  -6  -6  153.83    5.50
  -1   6   6  154.37    5.95
   0  -6  -6  500.04   16.70
   0  -6  -6  472.49   16.65
   0  -6  -6  492.11   16.67
   0  -6  -6  482.69   16.80
   0   6   6  483.44   17.12
   0   6   6  469.20   17.13
  -1  -6  -6   26.83    1.25
  -1  -6  -6   26.23    1.31
  -1  -6  -6   26.68    1.19
   1   6   6   25.92    1.57
  -2  -6  -6   23.55    1.03
   2   6   6   21.87    1.09
   2   6   6   22.25    1.37
   4  -7  -6    5.85    0.54
   4  -7  -6    6.05    0.37
   3  -7  -6   72.63    2.65
   3  -7  -6   73.86    2.94
   3  -7  -6   71.85    2.69
   3  -7  -6   73.47    2.66
   2  -7  -6  455.75   15.90
   2  -7  -6  466.03   16.25
   2  -7  -6  465.12   15.93
   2  -7  -6  462.41   15.94
   1  -7  -6   44.87    1.77
   1  -7  -6   44.47    1.78
  -1   7   6   44.96    2.17
   0  -7  -6   20.55    0.95
   0  -7  -6   19.62    0.93
   0   7   6   20.57    1.35
  -1  -7  -6  497.29   16.92
   1   7   6  486.21   17.35
  -2  -7  -6   38.37    1.43
   2   7   6   36.09    1.69
  -3   8   6  219.84    7.79
   2  -8  -6   88.25    3.13
  -2   8   6   85.89    3.41
   1  -8  -6  305.64   10.53
  -1   8   6  303.82   10.87
   0  -8  -6  843.86   29.34
   0   8   6  874.60   29.72
  -1  -8  -6    2.06    0.24
   1   8   6    2.53    0.44
   1   9  -7    6.63    0.50
  -1  -9   7    6.84    0.37
   0   9  -7  303.77   10.56
  -1   9  -7  246.43    8.72
   1  -9   7  253.73    8.63
  -2   9  -7   19.50    0.98
   2  -9   7   20.94    0.82
   2   8  -7   74.34    2.80
  -2  -8   7   74.04    2.66
   1   8  -7  399.93   13.88
  -1  -8   7  397.67   13.72
   0   8  -7    0.55    0.36
   0  -8   7    0.47    0.20
   0  -8   7    0.49    0.21
  -1   8  -7   11.23    0.81
   1  -8   7   11.81    0.66
  -2   8  -7   35.87    1.56
   2  -8   7   37.65    1.46
  -3   8  -7  152.69    5.31
   3  -8   7  149.74    5.25
   3   7  -7   40.45    1.60
   3   7  -7   42.99    1.71
  -3  -7   7   41.21    1.54
   2   7  -7   58.12    2.39
   1   7  -7  116.28    4.07
   1   7  -7  113.76    4.93
   1   7  -7  110.28    4.23
  -1  -7   7  108.76    4.15
   0   7  -7  440.71   15.48
   0   7  -7  458.67   16.28
   0   7  -7  457.33   15.66
   0  -7   7  441.55   15.59
   0  -7   7  448.05   15.49
  -1   7  -7   29.32    1.82
  -1   7  -7   27.26    1.41
   1  -7   7   29.36    1.26
  -2   7  -7   99.42    3.76
   2  -7   7  101.15    3.65
  -3   7  -7   52.97    2.08
   3  -7   7   52.66    2.19
   4   6  -7    6.18    0.44
   4   6  -7    6.73    0.48
   4   6  -7    6.21    0.90
   3   6  -7  169.48    6.54
   3   6  -7  171.19    6.12
   3   6  -7  175.74    6.24
  -3  -6   7  169.64    5.99
   2   6  -7  124.78    4.60
   2   6  -7  118.57    4.43
   2   6  -7  119.91    5.37
   2   6  -7  123.87    5.03
   2   6  -7  117.65    4.47
   2   6  -7  125.25    4.39
  -2  -6   7  121.92    4.47
   1   6  -7   37.07    1.55
   1   6  -7   35.26    1.69
   1   6  -7   38.98    2.34
   1   6  -7   36.84    2.15
  -1  -6   7   37.99    1.63
   0   6  -7  286.10   11.16
   0   6  -7  306.11   10.82
   0   6  -7  322.35   11.39
   0   6  -7  305.36   10.68
   0  -6   7  316.16   10.80
   0  -6   7  309.16   10.67
  -1   6  -7  200.31    7.41
  -1   6  -7  213.18    7.89
  -1   6  -7  207.25    7.71
   1  -6   7  207.14    7.30
   1  -6   7  210.67    7.52
  -2   6  -7    3.12    0.52
  -2   6  -7    2.86    0.78
  -2   6  -7    3.80    0.64
   2  -6   7    2.20    0.49
   2  -6   7    2.69    0.36
  -3   6  -7  132.37    5.00
   3  -6   7  131.32    4.81
  -4   6  -7  101.16    3.70
   4  -6   7   94.72    3.56
   4   5  -7   76.47    3.31
   4   5  -7   79.96    2.93
   4   5  -7   79.02    3.01
   3   5  -7   15.58    1.03
   3   5  -7   10.93    1.50
   3   5  -7   15.06    0.93
   3   5  -7   14.55    1.39
   2   5  -7  380.15   13.56
   2   5  -7  352.82   12.39
   2   5  -7  345.75   12.58
   2   5  -7  351.77   12.51
   2   5  -7  366.75   13.13
   2   5  -7  352.30   12.46
  -2  -5   7  355.72   12.49
   1   5  -7 1349.43   46.61
   1   5  -7 1383.89   47.37
  -1  -5   7 1358.35   46.66
   0   5  -7    3.08    0.72
   0  -5   7    2.73    0.39
  -1   5  -7  811.37   28.30
   1  -5   7  812.36   28.02
  -2   5  -7  440.10   15.39
  -2   5  -7  455.49   15.74
   2  -5   7  422.12   15.06
   2  -5   7  418.02   15.42
   2  -5   7  447.22   15.34
  -3   5  -7   59.13    2.54
  -3   5  -7   52.02    2.94
   3  -5   7   58.12    2.36
   3  -5   7   60.98    2.47
  -4   5  -7  149.93    5.50
   4  -5   7  147.74    5.38
   5   4  -7   22.82    1.25
   5   4  -7   27.74    1.07
   4   4  -7  129.08    5.31
   4   4  -7  130.84    4.78
   4   4  -7  134.48    4.89
   3   4  -7   83.27    3.15
   3   4  -7   81.43    3.20
   3   4  -7   84.43    3.31
   3   4  -7   73.57    4.08
   3   4  -7   91.74    3.92
   2   4  -7  581.04   20.11
   2   4  -7  542.44   19.11
  -2  -4   7  539.23   19.12
   1   4  -7  183.45   10.41
   1   4  -7  184.79    6.60
   1   4  -7  194.24    7.22
  -1  -4   7  192.00    6.65
  -1  -4   7  180.90    7.61
   0   4  -7   10.44    1.01
   0   4  -7   10.97    0.70
   0   4  -7   11.15    0.64
   0  -4   7   10.37    1.21
   0  -4   7   11.44    0.69
  -1   4  -7 2162.44   77.93
  -1   4  -7 2392.14   78.41
   1  -4   7 2311.36   78.14
  -2   4  -7    1.16    0.93
   2  -4   7    0.85    0.38
  -3   4  -7  129.87    4.86
   3  -4   7  122.49    4.65
   3  -4   7  121.64    4.71
  -4   4  -7  213.82    7.74
   4  -4   7  210.55    7.58
  -5   4  -7    3.16    0.42
   5  -4   7    3.73    0.34
   5   3  -7  159.31    5.48
   5   3  -7  147.44    5.60
   4   3  -7  823.59   27.19
   4   3  -7  807.42   26.58
   4   3  -7  796.58   26.46
   4   3  -7  652.85   27.33
  -4  -3   7  764.24   26.41
   3   3  -7    6.10    0.61
   3   3  -7    5.63    0.66
   3   3  -7    7.19    1.29
   3   3  -7    7.04    1.10
   3   3  -7    5.99    0.55
   2   3  -7  147.88    5.17
   2   3  -7  130.63    8.67
   2   3  -7  159.09    6.00
  -2  -3   7  140.13    5.15
  -2  -3   7  142.78    6.19
   1   3  -7  277.14    9.52
   1   3  -7  272.57    9.92
   1   3  -7  259.65   12.64
   1   3  -7  286.14    9.47
  -1  -3   7  265.05   10.36
   0   3  -7    1.00    0.44
   0   3  -7    0.78    0.25
   0   3  -7    1.01    0.81
   0  -3   7    0.95    0.27
  -1   3  -7  702.05   23.13
  -1   3  -7  702.60   23.57
  -1   3  -7  617.19   24.09
  -1   3  -7  680.05   23.21
   1  -3   7  695.83   23.33
   1  -3   7  659.34   23.40
  -2   3  -7  137.85    4.71
   2  -3   7  125.72    5.08
   2  -3   7  137.96    4.96
  -3   3  -7  169.90    6.83
   3  -3   7  185.76    6.59
   3  -3   7  186.62    6.55
  -4   3  -7   19.03    1.48
   4  -3   7   20.86    1.11
  -5   3  -7  201.87    6.63
   5  -3   7  167.07    6.46
   5   2  -7  704.74   25.06
   5   2  -7  740.53   24.85
   4   2  -7    0.76    0.62
   4   2  -7    2.18    0.68
   4   2  -7    0.82    0.72
   4   2  -7    0.79    0.39
   4   2  -7    0.88    0.53
  -4  -2   7    0.92    0.27
   3   2  -7  512.31   17.76
   3   2  -7  516.65   18.71
   2   2  -7 1211.98   41.09
   2   2  -7 1224.17   40.41
   2   2  -7 1132.35   44.48
   2   2  -7 1171.23   40.42
  -2  -2   7 1173.13   41.36
   1   2  -7    0.80    0.31
   1   2  -7    0.81    0.49
   1   2  -7    0.79    0.31
   1   2  -7    0.98    0.87
   0   2  -7    1.83    0.33
   0   2  -7    2.63    0.29
   0   2  -7    2.16    0.89
   0   2  -7    3.62    0.56
   0  -2   7    2.20    0.38
   0  -2   7    1.89    0.33
  -1   2  -7  456.68   15.99
  -1   2  -7  436.81   15.28
  -1   2  -7  451.56   15.19
  -1   2  -7  423.06   15.54
   1  -2   7  450.10   15.50
   1  -2   7  442.56   15.37
  -2   2  -7  952.65   32.99
   2  -2   7  962.88   33.44
   2  -2   7  985.70   33.23
  -3   2  -7  166.92    5.78
   3  -2   7  162.96    6.08
  -4   2  -7   25.16    1.78
   4  -2   7   27.90    1.43
   4  -2   7   29.70    1.37
  -5   2  -7  114.77    4.29
   5   1  -7    4.22    0.70
   5   1  -7    5.69    0.78
   5   1  -7    5.48    0.57
   4   1  -7   21.03    1.41
   4   1  -7   22.38    1.76
   4   1  -7   19.07    1.60
   4   1  -7   21.19    1.17
   4   1  -7   20.72    1.47
   3   1  -7 1477.89   50.56
   3   1  -7 1468.95   49.72
   3   1  -7 1421.20   50.15
   2   1  -7  264.22   12.72
   2   1  -7  285.24    9.55
   2   1  -7  270.24   10.08
   2   1  -7  274.37    9.57
  -2  -1   7  280.64   10.38
   1   1  -7 1249.41   46.51
   1   1  -7 1404.68   46.56
   1   1  -7 1389.72   47.37
   1   1  -7 1414.29   46.59
   0   1  -7  179.03    6.79
   0   1  -7  175.93    6.20
   0   1  -7  170.59    6.08
   0   1  -7  178.68    6.19
   0  -1   7  173.72    6.25
  -1   1  -7    8.36    0.56
  -1   1  -7    9.75    0.47
  -1   1  -7    9.29    0.96
   1  -1   7    9.33    0.63
   1  -1   7    7.79    0.72
   1  -1   7    8.38    0.60
  -2   1  -7 1195.00   39.13
  -2   1  -7 1086.69   40.69
   2  -1   7 1131.10   39.37
   2  -1   7 1157.56   39.56
   2  -1   7 1164.50   39.33
  -3   1  -7  117.49    4.04
   3  -1   7  107.83    4.34
  -4   1  -7  461.33   16.66
  -4   1  -7  470.28   16.17
   4  -1   7  501.55   16.35
   4  -1   7  449.03   16.51
  -5   1  -7   14.22    0.99
   5  -1   7   14.14    0.68
   5   0  -7  195.05    7.06
   5   0  -7  203.83    7.42
   4   0  -7   76.89    3.07
   4   0  -7   82.03    3.53
   4   0  -7   79.72    3.72
   4   0  -7   78.31    3.40
   3   0  -7  209.95    8.02
   3   0  -7  207.19    7.74
   1   0  -7 5266.11  187.23
   1   0  -7 5116.65  188.64
   1   0  -7 5754.46  187.53
  -1   0   7 5831.38  187.83
   0   0  -7  247.88    8.41
   0   0  -7  242.47    8.91
   0   0  -7  235.24    8.28
   0   0  -7  242.68    8.39
   0   0   7  243.06    8.46
   0   0   7  233.20    8.35
  -1   0  -7  171.66    6.08
  -1   0  -7  171.07    6.67
  -1   0  -7  173.70    6.12
  -1   0  -7  169.63    5.98
   1   0   7  172.41    6.15
   1   0   7  177.62    6.28
  -2   0  -7  885.18   30.34
  -2   0  -7  893.26   29.51
   2   0   7  867.59   29.77
   2   0   7  806.36   29.90
  -3   0  -7  258.85    8.59
   3   0   7  232.59    8.91
  -4   0  -7  228.90    8.09
  -4   0  -7  214.75    8.63
  -4   0  -7  239.11    8.12
   4   0   7  256.49    8.31
   4   0   7  222.57    8.46
   5   0   7    0.16    0.18
   5  -1  -7   98.00    3.92
   5  -1  -7   96.99    3.58
   4  -1  -7  159.84    6.00
   4  -1  -7  154.16    6.00
   4  -1  -7  146.69    5.55
   3  -1  -7  608.11   20.52
   3  -1  -7  585.80   20.94
   2  -1  -7    1.02    0.21
   2  -1  -7    1.67    0.31
   2  -1  -7    1.00    0.28
   1  -1  -7 1550.74   55.99
   1  -1  -7 1686.59   56.06
   1  -1  -7 1668.93   56.03
   1  -1  -7 1607.47   56.56
  -1   1   7 1700.87   56.10
   0  -1  -7  112.69    4.03
   0  -1  -7  105.94    3.89
   0  -1  -7  115.70    4.57
   0  -1  -7  114.15    4.03
   0   1   7  115.63    4.10
   0   1   7  108.48    3.99
  -1  -1  -7  366.54   12.82
  -1  -1  -7  373.04   12.72
  -1  -1  -7  365.79   13.49
  -1  -1  -7  360.14   12.82
   1   1   7  376.37   12.99
   1   1   7  380.89   12.90
  -2  -1  -7  166.00    5.85
  -2  -1  -7  163.15    6.74
   2   1   7  179.57    6.19
   2   1   7  159.47    6.27
  -3  -1  -7  106.34    3.74
  -3  -1  -7  102.30    3.77
   3   1   7   99.91    4.12
   3   1   7  104.49    3.93
  -4  -1  -7  472.65   16.89
   4   1   7  508.97   17.07
  -5  -1  -7   88.91    3.33
   5   1   7  101.54    3.41
   5  -2  -7  456.55   14.98
   5  -2  -7  429.74   15.34
   5  -2  -7  422.89   15.05
   4  -2  -7  516.73   18.19
   4  -2  -7  521.85   18.21
   4  -2  -7  518.16   17.66
   4  -2  -7  500.92   17.72
   3  -2  -7   12.11    1.10
   3  -2  -7   11.28    0.66
   2  -2  -7 1205.56   42.56
   2  -2  -7 1263.37   42.32
   2  -2  -7 1225.61   42.44
   2  -2  -7 1264.43   42.42
   1  -2  -7 1674.89   58.45
   1  -2  -7 1682.14   58.50
   1  -2  -7 1724.36   58.45
  -1   2   7 1772.50   58.57
   0  -2  -7  883.05   30.18
   0  -2  -7  864.34   30.17
   0  -2  -7  892.34   30.79
   0   2   7  882.64   30.23
  -1  -2  -7   15.05    0.80
  -1  -2  -7   17.17    0.87
  -1  -2  -7   15.13    1.33
  -1  -2  -7   16.17    0.73
   1   2   7   16.17    0.90
   1   2   7   17.40    0.95
  -2  -2  -7   19.19    0.88
   2   2   7   19.80    1.21
  -3  -2  -7  184.54    6.82
  -3  -2  -7  193.91    6.80
   3   2   7  196.25    7.23
   3   2   7  199.95    7.03
  -4  -2  -7   68.58    2.63
   4   2   7   72.46    2.78
   5  -3  -7  430.42   13.84
   5  -3  -7  400.92   14.10
   5  -3  -7  376.76   13.85
   4  -3  -7   57.46    2.68
   4  -3  -7   58.48    2.30
   4  -3  -7   61.79    2.25
   4  -3  -7   61.71    2.74
   3  -3  -7   13.60    0.75
   3  -3  -7   12.74    0.81
   3  -3  -7   12.38    1.14
   2  -3  -7   92.73    3.53
   2  -3  -7   95.38    3.46
   1  -3  -7  499.56   17.74
   1  -3  -7  516.97   17.71
   1  -3  -7  530.44   17.69
  -1   3   7  504.53   17.80
   0  -3  -7  626.01   21.78
   0  -3  -7  639.92   22.53
   0  -3  -7  641.82   21.80
   0   3   7  643.35   21.77
   0   3   7  611.28   21.83
  -1  -3  -7    2.76    0.42
   1   3   7    3.35    0.47
   1   3   7    3.89    0.52
  -2  -3  -7  442.43   15.98
  -2  -3  -7  450.07   16.13
   2   3   7  503.73   16.41
  -3  -3  -7   11.06    0.73
  -3  -3  -7   10.28    0.64
   3   3   7   10.46    0.93
   3   3   7   12.17    0.86
  -4  -3  -7  137.45    4.98
   4   3   7  145.21    5.11
   5  -4  -7  291.65    9.93
   5  -4  -7  273.48    9.75
   4  -4  -7   61.08    2.33
   4  -4  -7   62.84    2.32
   4  -4  -7   59.90    2.65
   3  -4  -7 1058.34   36.78
   3  -4  -7 1086.38   37.09
   3  -4  -7 1076.85   36.86
   3  -4  -7 1075.05   36.81
   3  -4  -7 1081.91   36.95
   2  -4  -7   13.52    0.87
   2  -4  -7   14.94    0.91
   1  -4  -7   48.28    1.93
   1  -4  -7   48.02    1.96
   1  -4  -7   45.73    1.98
   0  -4  -7  316.80   11.15
   0  -4  -7  315.56   11.14
   0   4   7  321.38   11.14
  -1  -4  -7  217.77    7.76
   1   4   7  216.97    7.82
  -2  -4  -7   54.62    2.12
  -2  -4  -7   52.54    2.21
  -2  -4  -7   52.67    2.11
   2   4   7   56.94    2.27
   2   4   7   56.51    2.41
  -3  -4  -7   59.83    2.35
   3   4   7   65.15    2.51
  -4  -4  -7   83.19    2.99
   4   4   7   85.27    3.06
   5  -5  -7  280.05   10.26
   5  -5  -7  311.12   10.14
   4  -5  -7   28.02    1.20
   4  -5  -7   28.18    1.22
   4  -5  -7   28.87    1.50
   3  -5  -7    0.93    0.37
   3  -5  -7    1.68    0.32
   3  -5  -7    1.56    0.61
   3  -5  -7    2.09    0.37
   3  -5  -7    1.44    0.38
  -3   5   7   -0.40    0.81
   2  -5  -7   83.71    3.10
   2  -5  -7   83.53    3.13
   2  -5  -7   86.00    3.29
   2  -5  -7   84.72    3.21
   2  -5  -7   82.75    3.38
   2  -5  -7   86.68    3.10
  -2   5   7   78.83    3.68
   1  -5  -7  405.62   13.62
   1  -5  -7  401.53   13.72
   1  -5  -7  402.90   13.66
   1  -5  -7  400.45   13.64
   1  -5  -7  406.63   13.77
   1  -5  -7  378.64   13.77
   1  -5  -7  377.69   13.87
  -1   5   7  378.18   13.96
   0  -5  -7  129.83    4.64
   0  -5  -7  129.88    4.77
   0  -5  -7  125.26    4.62
   0  -5  -7  124.01    4.60
   0   5   7  134.04    4.78
  -1  -5  -7  426.19   14.50
  -1  -5  -7  414.78   14.55
  -1  -5  -7  418.04   14.64
   1   5   7  416.17   14.70
  -2  -5  -7  219.25    7.81
   2   5   7  226.37    7.94
  -3  -5  -7  107.59    3.93
   3   5   7  114.72    4.05
   4  -6  -7  436.45   14.79
   4  -6  -7  428.16   14.98
   4  -6  -7  428.92   14.83
   3  -6  -7  215.54    7.66
   3  -6  -7  216.91    7.89
   3  -6  -7  219.33    7.62
   3  -6  -7  220.44    7.62
   2  -6  -7  109.06    4.03
   2  -6  -7  109.15    4.00
   2  -6  -7  113.99    4.31
   2  -6  -7  111.57    3.99
   2  -6  -7  110.83    4.18
   2  -6  -7  108.02    4.07
  -2   6   7  109.01    4.42
   1  -6  -7   57.50    2.58
   1  -6  -7   60.08    2.28
   1  -6  -7   60.39    2.29
   1  -6  -7   56.32    2.42
   1  -6  -7   60.55    2.29
  -1   6   7   58.43    2.38
  -1   6   7   60.74    2.69
   0  -6  -7  391.02   13.56
   0  -6  -7  387.01   13.41
   0  -6  -7  386.18   13.39
   0  -6  -7  396.93   13.44
   0   6   7  386.53   13.82
   0   6   7  375.97   13.55
  -1  -6  -7  662.92   22.78
  -2  -6  -7   68.03    2.49
   2   6   7   66.51    2.56
   3  -7  -7   37.61    1.42
   3  -7  -7   36.28    1.45
   3  -7  -7   36.70    1.67
   3  -7  -7   36.63    1.41
   2  -7  -7  171.46    6.11
   2  -7  -7  173.26    6.41
   2  -7  -7  175.56    6.14
   2  -7  -7  176.66    6.13
   1  -7  -7    0.46    0.23
   1  -7  -7    1.12    0.29
  -1   7   7    0.31    0.41
   0  -7  -7  445.01   15.45
   0  -7  -7  438.14   15.41
   0  -7  -7  450.31   15.40
   0   7   7  457.68   15.84
  -1  -7  -7    0.30    0.22
   1   7   7    0.26    0.35
  -2  -7  -7  340.69   11.69
   2  -8  -7  128.93    4.51
  -2   8   7  128.97    4.76
   1  -8  -7   16.06    0.72
  -1   8   7   16.21    0.98
   0  -8  -7   69.86    2.48
   0   8   7   69.24    2.77
   0   9  -8  250.11    8.70
  -1   9  -8  244.22    8.60
   1  -9   8  251.18    8.53
   2   8  -8   13.07    0.71
  -2  -8   8   12.44    0.58
   1   8  -8  197.47    7.08
  -1  -8   8  201.80    6.95
   0   8  -8   74.76    2.84
   0  -8   8   72.50    2.67
   0  -8   8   73.64    2.68
  -1   8  -8    1.04    0.34
   1  -8   8    0.73    0.24
  -2   8  -8   24.30    1.08
   2  -8   8   23.34    1.01
   3   7  -8   13.41    0.71
   3   7  -8   12.91    0.65
  -3  -7   8   12.09    0.56
   2   7  -8   48.19    1.83
   2   7  -8   48.02    2.00
   2   7  -8   46.66    1.89
   1   7  -8  319.68   11.46
   1   7  -8  332.67   11.32
   0   7  -8  538.62   18.46
   0   7  -8  531.96   19.21
   0   7  -8  541.71   18.61
   0  -7   8  533.86   18.57
   0  -7   8  536.92   18.45
  -1   7  -8  498.77   17.84
  -1   7  -8  488.26   17.26
   1  -7   8  506.77   17.17
  -2   7  -8  131.20    4.83
   2  -7   8  135.20    4.76
   4   6  -8  140.97    5.02
   4   6  -8  146.33    5.06
   3   6  -8   73.82    2.88
   3   6  -8   75.34    2.82
   3   6  -8   73.29    3.24
   2   6  -8  701.45   24.77
   2   6  -8  726.34   23.77
   2   6  -8  704.51   23.86
   2   6  -8  694.74   23.94
   2   6  -8  659.28   23.80
   2   6  -8  680.76   24.43
  -2  -6   8  678.27   23.85
   1   6  -8   36.20    1.49
   1   6  -8   33.81    1.62
   1   6  -8   33.13    2.09
   1   6  -8   35.77    2.22
  -1  -6   8   35.31    1.56
   0   6  -8  267.97    9.90
   0   6  -8  263.22    9.75
   0   6  -8  261.33    9.35
   0   6  -8  260.46    9.20
   0  -6   8  263.94    9.20
   0  -6   8  265.90    9.33
  -1   6  -8    2.79    0.48
  -1   6  -8    2.25    0.60
  -1   6  -8    2.52    0.72
   1  -6   8    3.02    0.50
   1  -6   8    2.58    0.37
  -2   6  -8   26.44    1.53
  -2   6  -8   27.04    1.72
   2  -6   8   27.30    1.18
   2  -6   8   24.88    1.41
  -3   6  -8  156.53    5.77
   3  -6   8  153.29    5.57
  -4   6  -8   18.09    0.97
   4  -6   8   16.89    0.80
   4   5  -8  141.33    5.00
   4   5  -8  134.20    5.33
   4   5  -8  140.87    4.96
   3   5  -8    8.22    1.14
   3   5  -8    8.35    0.76
   3   5  -8    7.59    0.76
   2   5  -8   11.16    0.73
   2   5  -8   12.57    0.82
   2   5  -8   15.31    1.55
   2   5  -8   12.25    0.91
   2   5  -8   11.19    1.40
  -2  -5   8   11.87    0.78
   1   5  -8 1124.49   38.80
   1   5  -8 1092.33   38.05
  -1  -5   8 1117.21   38.12
   0   5  -8  447.53   15.99
   0   5  -8  465.02   16.55
   0  -5   8  476.29   16.08
  -1   5  -8  351.12   12.76
   1  -5   8  355.38   12.48
  -2   5  -8  779.17   27.01
  -2   5  -8  770.52   27.24
   2  -5   8  781.93   27.29
   2  -5   8  782.28   26.97
  -3   5  -8   12.38    1.08
  -3   5  -8   11.47    1.24
   3  -5   8   10.93    0.83
   3  -5   8   11.73    0.89
  -4   5  -8    5.74    0.74
   4  -5   8    5.82    0.54
   4   4  -8  246.58    8.52
   4   4  -8  214.54    8.93
   4   4  -8  259.61    8.48
   3   4  -8  943.47   32.14
   3   4  -8  987.73   33.23
   3   4  -8  919.50   32.18
   3   4  -8  944.80   32.10
   3   4  -8  878.69   32.81
   2   4  -8  293.25   10.09
   2   4  -8  291.35   10.95
  -2  -4   8  277.40   10.08
   1   4  -8   45.59    1.83
   1   4  -8   43.66    2.32
   0   4  -8   30.14    1.69
   0   4  -8   29.28    1.26
   0   4  -8   30.28    1.36
   0  -4   8   28.71    1.35
   0  -4   8   28.14    2.05
  -1   4  -8  283.88    9.74
  -1   4  -8  282.46   10.21
   1  -4   8  275.29    9.95
  -2   4  -8  185.79    7.30
   2  -4   8  196.59    7.00
  -3   4  -8   47.27    2.16
  -3   4  -8   39.36    2.47
   3  -4   8   46.53    1.99
   3  -4   8   47.01    2.05
  -4   4  -8  306.00   10.41
   4  -4   8  277.51   10.25
   5   3  -8    0.05    0.21
   5   3  -8    0.33    0.38
   4   3  -8  129.79    4.62
   4   3  -8  121.27    4.64
   3   3  -8  686.91   23.56
   3   3  -8  669.54   22.52
   3   3  -8  614.55   22.58
   3   3  -8  641.58   22.55
   2   3  -8 1010.57   35.82
   2   3  -8 1037.50   35.10
   1   3  -8  250.60    8.69
   1   3  -8  251.09    8.74
   1   3  -8  244.54    9.14
  -1  -3   8  246.69    9.73
   0   3  -8  161.58    6.16
   0   3  -8  166.25    5.82
   0   3  -8  167.87    5.92
   0   3  -8  165.90    6.88
   0  -3   8  165.72    5.96
  -1   3  -8  769.58   25.70
  -1   3  -8  762.66   26.11
  -1   3  -8  738.37   25.80
   1  -3   8  774.55   25.94
   1  -3   8  711.50   26.02
  -2   3  -8    8.02    0.50
  -2   3  -8    6.78    1.10
   2  -3   8   10.65    0.78
  -3   3  -8  814.73   27.21
   3  -3   8  752.55   27.05
   3  -3   8  779.48   27.02
  -4   3  -8   28.61    1.54
   4  -3   8   23.00    1.26
  -5   3  -8   28.42    1.28
   5   2  -8   69.41    2.60
   5   2  -8   68.68    2.92
   4   2  -8  333.22   12.23
   4   2  -8  320.51   11.38
  -4  -2   8  316.51   11.64
   3   2  -8 1022.17   34.42
   3   2  -8  985.03   35.26
   2   2  -8    8.91    0.64
   2   2  -8    8.92    1.06
   2   2  -8   10.48    0.66
  -2  -2   8    8.12    1.15
   1   2  -8  128.96    5.02
   1   2  -8  122.07    4.62
   1   2  -8  131.60    5.64
   1   2  -8  137.81    4.72
   0   2  -8  402.22   14.11
   0   2  -8  412.06   14.00
   0   2  -8  416.35   15.02
   0  -2   8  396.55   14.14
   0  -2   8  409.51   14.41
  -1   2  -8    0.54    0.19
  -1   2  -8    0.38    0.67
  -1   2  -8    0.57    0.26
   1  -2   8    0.64    0.31
   1  -2   8    1.32    0.44
  -2   2  -8  253.90    8.54
   2  -2   8  238.89    8.79
  -3   2  -8  422.50   14.09
  -3   2  -8  392.18   14.56
   3  -2   8  411.76   14.35
   3  -2   8  410.93   14.40
  -4   2  -8   44.56    2.07
   4  -2   8   34.82    1.72
  -5   2  -8  336.61   11.70
   5   1  -8  260.72    9.23
   5   1  -8  268.80    9.54
   5   1  -8  263.60    9.51
   4   1  -8  258.48    9.59
   4   1  -8  252.26    8.84
   4   1  -8  235.94    9.33
   3   1  -8 1446.11   48.51
   3   1  -8 1392.83   49.25
   2   1  -8  392.88   14.50
   2   1  -8  423.12   14.00
   2   1  -8  397.62   14.02
  -2  -1   8  405.36   14.97
   1   1  -8   53.13    2.08
   1   1  -8   53.71    2.05
   1   1  -8   52.74    2.83
   1   1  -8   51.58    1.99
   0   1  -8 1276.41   43.35
   0   1  -8 1286.81   43.33
   0   1  -8 1217.18   43.20
   0   1  -8 1267.98   44.05
   0  -1   8 1292.42   43.42
  -1   1  -8    0.95    0.28
  -1   1  -8    1.11    0.22
  -1   1  -8    0.63    0.65
   1  -1   8    1.27    0.32
   1  -1   8    1.51    0.45
  -2   1  -8    5.68    0.43
   2  -1   8    5.85    0.62
   2  -1   8    5.89    0.60
  -3   1  -8  170.61    7.39
  -3   1  -8  221.21    7.03
   3  -1   8  219.13    7.36
   3  -1   8  188.45    7.21
  -4   1  -8  867.50   31.89
   4  -1   8  978.25   31.66
  -5   1  -8  304.16   10.46
   5  -1   8  297.88   10.35
   5   0  -8   28.12    1.52
   5   0  -8   28.98    1.24
   4   0  -8   18.71    1.01
   1   0  -8 1678.12   55.59
   1   0  -8 1622.27   55.58
   1   0  -8 1588.70   55.49
   1   0  -8 1611.82   56.33
  -1   0   8 1640.75   55.61
   0   0  -8   36.18    1.44
   0   0  -8   34.76    1.41
   0   0  -8   35.26    1.96
   0   0  -8   31.73    1.28
   0   0   8   33.63    1.37
   0   0   8   34.06    1.48
  -1   0  -8   90.78    3.22
  -1   0  -8   90.57    4.00
  -1   0  -8   92.03    3.39
  -1   0  -8   91.16    3.34
   1   0   8   90.86    3.41
   1   0   8   89.70    3.54
  -2   0  -8  362.77   12.82
   2   0   8  381.97   13.12
  -3   0  -8   36.07    1.45
  -3   0  -8   35.35    1.49
   3   0   8   37.79    1.81
   3   0   8   35.21    1.61
  -4   0  -8   99.41    3.61
   4   0   8  101.20    3.74
   5   0   8  105.51    3.71
   5  -1  -8   18.62    1.17
   5  -1  -8   18.97    0.90
   4  -1  -8   22.19    1.50
   4  -1  -8   21.66    1.46
   2  -1  -8  555.53   19.77
   2  -1  -8  594.25   19.87
  -2   1   8  579.22   19.91
   1  -1  -8  304.36   11.41
   1  -1  -8  307.66   10.81
   1  -1  -8  314.76   10.76
   1  -1  -8  316.62   10.84
  -1   1   8  311.24   10.88
   0  -1  -8  242.37    8.34
   0  -1  -8  241.82    8.33
   0  -1  -8  221.59    8.17
   0  -1  -8  241.70    8.99
   0   1   8  240.32    8.41
   0   1   8  231.94    8.29
  -1  -1  -8 1581.74   55.35
  -1  -1  -8 1560.93   54.58
  -1  -1  -8 1606.27   54.57
  -1  -1  -8 1606.30   54.44
   1   1   8 1663.92   54.65
   1   1   8 1569.62   54.74
  -2  -1  -8   58.23    2.17
   2   1   8   56.51    2.44
  -3  -1  -8   65.38    2.53
  -3  -1  -8   64.52    2.49
   3   1   8   67.30    2.66
   3   1   8   68.30    2.87
  -4  -1  -8  326.59   11.44
   4   1   8  335.21   11.57
   5  -2  -8  127.52    4.76
   4  -2  -8  152.07    5.96
   4  -2  -8  161.51    5.51
   4  -2  -8  156.09    5.96
   3  -2  -8   32.94    1.39
   2  -2  -8 1151.28   39.77
   2  -2  -8 1175.64   39.88
   1  -2  -8   22.34    1.04
   1  -2  -8   21.81    1.04
   1  -2  -8   23.09    1.10
  -1   2   8   21.55    1.11
   0  -2  -8 1045.70   35.58
   0  -2  -8 1040.26   36.32
   0  -2  -8 1046.71   35.59
   0   2   8 1033.46   35.67
   0   2   8 1027.67   35.56
  -1  -2  -8  516.53   18.74
  -1  -2  -8  513.32   17.69
  -1  -2  -8  516.23   17.83
  -1  -2  -8  526.29   17.86
   1   2   8  524.99   17.92
   1   2   8  500.81   17.99
  -2  -2  -8   28.60    1.23
   2   2   8   31.02    1.55
  -3  -2  -8  107.14    3.98
  -3  -2  -8  106.06    3.93
   3   2   8  112.20    4.12
   3   2   8  111.60    4.32
  -4  -2  -8   29.10    1.22
   4   2   8   30.54    1.33
   5  -3  -8  632.18   22.08
   5  -3  -8  659.01   22.27
   4  -3  -8  141.93    5.44
   4  -3  -8  145.04    5.08
   3  -3  -8  135.94    5.25
   3  -3  -8  139.26    5.26
   3  -3  -8  140.62    4.99
   3  -3  -8  134.65    4.93
   3  -3  -8  138.09    5.35
   3  -3  -8  137.51    4.91
   2  -3  -8  626.64   22.57
   2  -3  -8  684.73   22.67
   1  -3  -8   19.68    0.99
   1  -3  -8   17.48    1.01
   1  -3  -8   18.41    0.97
   0  -3  -8  151.57    6.06
   0  -3  -8  139.63    5.24
   0  -3  -8  143.24    5.25
   0   3   8  144.14    5.24
  -1  -3  -8  550.45   18.90
   1   3   8  540.53   18.94
  -2  -3  -8  453.00   15.80
  -2  -3  -8  436.22   15.80
   2   3   8  460.95   15.94
   2   3   8  483.34   16.14
  -3  -3  -8  250.16    8.83
   3   3   8  255.15    8.96
  -4  -3  -8   10.06    0.55
   4   3   8   10.19    0.60
   5  -4  -8  538.50   19.42
   5  -4  -8  590.68   19.30
   4  -4  -8   19.19    1.22
   4  -4  -8   16.70    0.91
   4  -4  -8   18.99    0.88
   3  -4  -8 1163.34   42.59
   3  -4  -8 1343.13   42.91
   3  -4  -8 1282.62   42.64
   3  -4  -8 1190.13   42.69
   3  -4  -8 1253.91   42.77
   2  -4  -8  822.05   28.15
   2  -4  -8  839.76   28.27
   2  -4  -8  804.66   28.17
   2  -4  -8  832.61   28.36
   2  -4  -8  810.86   28.20
   1  -4  -8   14.44    0.90
   1  -4  -8   13.75    0.93
   1  -4  -8   15.63    0.88
   0  -4  -8  137.18    5.10
   0  -4  -8  139.13    5.08
   0   4   8  139.68    5.10
  -1  -4  -8   14.28    0.91
  -1  -4  -8   13.39    0.81
  -1  -4  -8   14.22    0.81
   1   4   8   12.47    0.88
  -2  -4  -8   27.30    1.32
  -2  -4  -8   28.37    1.24
   2   4   8   29.17    1.35
   2   4   8   28.74    1.47
  -3  -4  -8   29.44    1.26
   3   4   8   32.82    1.40
   4  -5  -8   84.08    3.09
   4  -5  -8   81.57    3.26
   4  -5  -8   88.63    3.06
   3  -5  -8    2.28    0.36
   3  -5  -8    1.66    0.34
   3  -5  -8    2.59    0.61
   2  -5  -8   79.88    3.24
   2  -5  -8   81.65    2.97
   2  -5  -8   80.99    3.07
   2  -5  -8   78.94    2.98
   2  -5  -8   79.81    3.17
   2  -5  -8   78.11    3.02
   1  -5  -8  182.00    6.51
   1  -5  -8  184.63    6.62
   1  -5  -8  185.94    6.52
   1  -5  -8  177.46    6.66
   1  -5  -8  187.68    6.50
   0  -5  -8   26.76    1.33
   0  -5  -8   25.91    1.19
   0  -5  -8   25.27    1.15
   0  -5  -8   26.19    1.21
   0   5   8   26.59    1.32
  -1  -5  -8  137.97    5.02
  -1  -5  -8  138.15    4.87
  -1  -5  -8  133.48    4.91
   1   5   8  130.98    5.04
  -2  -5  -8  251.23    8.81
   2   5   8  254.52    8.92
   3   5   8   83.59    3.06
   4  -6  -8  363.42   12.97
   4  -6  -8  382.42   12.82
   4  -6  -8  375.59   12.85
   3  -6  -8  112.08    3.96
   3  -6  -8  112.39    3.95
   3  -6  -8  110.68    4.19
   3  -6  -8  107.14    3.99
   2  -6  -8  131.93    4.68
   2  -6  -8  131.51    4.65
   2  -6  -8  128.35    4.65
   2  -6  -8  126.84    4.91
   1  -6  -8   90.67    3.36
   1  -6  -8   93.81    3.37
   1  -6  -8   88.17    3.53
   1  -6  -8   94.60    3.36
  -1   6   8   88.81    3.69
  -1   6   8   89.88    3.51
   0  -6  -8    1.35    0.32
   0  -6  -8    0.96    0.27
   0  -6  -8    2.15    0.33
  -1  -6  -8   82.93    3.04
   1   6   8   80.98    3.09
  -2  -6  -8   44.90    1.67
   2   6   8   43.25    1.73
   3  -7  -8   81.70    2.92
   3  -7  -8   78.61    3.08
   3  -7  -8   82.03    2.89
   3  -7  -8   83.63    2.91
   2  -7  -8   59.59    2.27
   2  -7  -8   61.51    2.28
   2  -7  -8   61.37    2.28
  -2   7   8   62.98    2.57
   1  -7  -8   52.88    1.97
   1  -7  -8   49.94    1.97
  -1   7   8   52.50    2.27
   0  -7  -8  247.87    8.75
   0  -7  -8  252.40    8.70
   0  -7  -8  253.05    8.75
  -1  -7  -8  158.06    5.47
   1   7   8  154.83    5.51
   1  -8  -8  204.54    7.05
   2   8  -9   95.11    3.47
  -2  -8   9   97.73    3.38
   1   8  -9  530.01   18.12
  -1  -8   9  520.88   18.00
   0   8  -9  158.59    5.58
   0  -8   9  152.88    5.45
  -1   8  -9  655.42   23.09
   1  -8   9  689.85   23.03
   2  -8   9    4.33    0.35
   3   7  -9   29.25    1.18
   3   7  -9   27.98    1.17
   2   7  -9   -0.10    0.21
   2   7  -9    0.25    0.28
   2   7  -9    0.20    0.46
   2   7  -9    0.26    0.30
   1   7  -9  208.64    8.06
   1   7  -9  221.41    7.55
   1   7  -9  215.56    7.68
   0   7  -9  291.55   10.37
   0   7  -9  299.68   10.52
   0   7  -9  309.07   10.93
   0  -7   9  295.85   10.38
  -1   7  -9  106.78    4.10
  -1   7  -9  114.26    4.46
   1  -7   9  112.72    4.03
  -2   7  -9   38.83    1.87
   2  -7   9   39.00    1.55
  -3   7  -9 1327.77   45.46
   3   6  -9   76.02    3.34
   3   6  -9   79.63    2.99
   3   6  -9   80.61    2.96
   2   6  -9  734.26   24.87
   2   6  -9  730.69   24.98
   2   6  -9  694.67   25.50
   2   6  -9  740.47   25.04
   1   6  -9  271.98   10.24
   1   6  -9  275.81   10.44
   1   6  -9  272.53    9.71
   1   6  -9  283.95    9.62
   1   6  -9  274.47    9.76
  -1  -6   9  272.80    9.73
   0   6  -9   16.77    1.37
   0   6  -9   15.99    1.00
   0   6  -9   15.67    1.42
   0   6  -9   15.13    0.83
   0  -6   9   16.75    0.95
   0  -6   9   17.01    0.85
  -1   6  -9   16.17    1.36
  -1   6  -9   14.75    1.23
   1  -6   9   15.15    0.84
   1  -6   9   16.07    1.03
  -2   6  -9 1048.79   35.68
  -2   6  -9 1059.15   36.23
   2  -6   9 1012.26   35.33
   2  -6   9 1011.09   35.61
  -3   6  -9  247.48    8.80
   3  -6   9  242.67    8.60
  -4   6  -9  162.43    5.72
   4  -6   9  156.62    5.56
   4   5  -9    5.70    0.47
   4   5  -9    5.15    0.48
   4   5  -9    5.19    0.69
   3   5  -9  502.41   17.31
   3   5  -9  468.27   17.97
   3   5  -9  509.90   17.48
   3   5  -9  531.94   17.46
   2   5  -9  480.50   16.36
   2   5  -9  463.68   16.29
   2   5  -9  447.66   16.92
   2   5  -9  469.29   16.37
   2   5  -9  479.01   16.21
   2   5  -9  478.62   17.16
  -2  -5   9  466.46   16.31
   1   5  -9   91.08    3.39
   1   5  -9   88.76    3.33
   1   5  -9   88.13    3.45
   1   5  -9   91.46    4.07
   1   5  -9   87.53    3.45
   1   5  -9   90.24    3.94
  -1  -5   9   90.19    3.44
   0   5  -9  723.00   25.97
   0   5  -9  781.93   25.95
   0   5  -9  748.13   25.94
   0   5  -9  752.04   26.39
   0   5  -9  767.86   26.59
   0  -5   9  763.70   26.06
  -1   5  -9    0.21    0.30
  -1   5  -9    0.49    0.54
  -1   5  -9   -0.06    0.45
   1  -5   9    0.27    0.34
  -2   5  -9    0.92    0.50
  -2   5  -9    1.07    0.58
   2  -5   9    0.85    0.42
  -3   5  -9  367.46   12.88
   3  -5   9  358.75   12.71
  -4   5  -9  369.75   12.98
   4  -5   9  373.24   12.86
   4   4  -9    1.96    0.37
   4   4  -9    2.96    0.71
   4   4  -9    2.65    0.39
   3   4  -9  172.55    6.42
   3   4  -9  185.45    7.26
   3   4  -9  163.05    7.03
   3   4  -9  183.38    6.44
   3   4  -9  181.84    6.38
   2   4  -9    2.20    0.49
   2   4  -9    1.65    0.34
   2   4  -9    2.61    0.78
   2   4  -9    2.45    0.45
   2   4  -9    3.19    0.90
   2   4  -9    1.93    0.46
  -2  -4   9    4.41    0.46
   1   4  -9  918.01   31.86
   1   4  -9  939.30   32.50
   0   4  -9   53.05    2.00
   0   4  -9   48.96    2.09
   0   4  -9   51.13    2.48
   0  -4   9   48.82    2.12
  -1   4  -9   23.35    1.54
  -1   4  -9   23.95    1.07
   1  -4   9   24.48    1.30
  -2   4  -9  489.95   17.34
  -2   4  -9  525.51   17.69
  -2   4  -9  499.81   17.81
   2  -4   9  485.55   17.49
   2  -4   9  515.38   17.65
  -3   4  -9   38.75    1.88
   3  -4   9   37.19    1.69
   3  -4   9   33.36    1.71
  -4   4  -9   52.47    2.25
   4  -4   9   53.54    2.12
   5   3  -9   37.29    1.47
   5   3  -9   39.98    1.71
   4   3  -9    1.68    0.65
   4   3  -9    1.71    0.38
   4   3  -9    1.20    0.39
   3   3  -9   86.64    3.30
   3   3  -9   84.56    3.97
   3   3  -9   87.39    3.23
   3   3  -9   82.14    3.93
   3   3  -9   78.88    3.24
   2   3  -9 2344.37   80.32
   2   3  -9 2360.82   79.64
   2   3  -9 2294.53   79.60
   1   3  -9   60.21    2.86
   1   3  -9   61.33    2.39
   1   3  -9   63.70    2.46
   0   3  -9   83.67    4.28
   0   3  -9   86.04    3.61
   0   3  -9   89.48    3.33
   0   3  -9   93.68    3.22
   0  -3   9   85.06    3.36
  -1   3  -9  699.35   24.51
   1  -3   9  725.72   24.66
  -2   3  -9  202.47    7.03
   2  -3   9  200.06    7.34
  -3   3  -9   46.06    2.10
   3  -3   9   39.67    1.94
   3  -3   9   44.16    1.95
  -4   3  -9  420.14   14.82
   4  -3   9  427.11   14.74
   5   2  -9    5.85    0.44
   5   2  -9    5.38    0.64
   4   2  -9  639.35   22.08
   4   2  -9  606.74   21.51
   3   2  -9  787.96   27.12
   3   2  -9  795.71   27.85
   3   2  -9  791.72   27.08
   3   2  -9  771.51   27.72
   2   2  -9    9.56    0.69
   2   2  -9    9.12    0.70
   2   2  -9    8.46    1.03
   1   2  -9  272.77    9.42
   1   2  -9  281.05    9.51
   1   2  -9  258.25   10.54
  -1  -2   9  268.24    9.48
   0   2  -9 1295.50   43.60
   0   2  -9 1248.60   44.59
   0   2  -9 1257.19   43.46
   0  -2   9 1294.77   43.65
  -1   2  -9  163.87    5.69
  -1   2  -9  166.64    5.83
  -1   2  -9  161.29    6.69
   1  -2   9  154.01    6.06
   1  -2   9  166.37    5.93
  -2   2  -9   46.53    1.76
   2  -2   9   45.02    2.02
  -3   2  -9  622.43   21.45
  -3   2  -9  629.14   21.81
   3  -2   9  626.05   21.71
  -4   2  -9  176.63    6.56
   4  -2   9  184.70    6.50
   5   1  -9  422.36   14.55
   4   1  -9  268.39   10.43
   4   1  -9  277.57    9.77
   4   1  -9  287.20   10.26
   2   1  -9  673.50   21.93
  -2  -1   9  597.81   22.93
   1   1  -9  131.71    4.69
   1   1  -9  133.84    4.79
   1   1  -9  132.32    5.71
   1   1  -9  130.00    4.77
   0   1  -9    1.18    0.33
   0   1  -9    0.91    0.22
   0   1  -9    0.73    0.30
   0   1  -9    1.07    0.73
   0  -1   9    0.90    0.33
  -1   1  -9   30.91    1.22
  -1   1  -9   31.01    1.34
  -1   1  -9   28.95    1.95
   1  -1   9   31.04    1.41
   1  -1   9   31.45    1.56
  -2   1  -9  280.45    9.51
   2  -1   9  264.41    9.76
   2  -1   9  279.25    9.77
  -3   1  -9   15.57    0.77
  -3   1  -9   15.98    0.84
   3  -1   9   16.26    1.01
   3  -1   9   15.94    1.03
  -4   1  -9    7.17    0.80
   4  -1   9    7.62    0.62
   5   0  -9   22.33    0.98
   2   0  -9   22.74    1.10
   1   0  -9    0.71    0.72
   1   0  -9    0.61    0.26
   1   0  -9    0.59    0.26
   1   0  -9    0.50    0.21
  -1   0   9    0.56    0.28
   0   0  -9  835.82   27.97
   0   0  -9  822.24   28.75
   0   0  -9  783.05   27.80
   0   0  -9  831.26   27.95
   0   0   9  799.96   28.05
  -1   0  -9  625.07   22.99
  -1   0  -9  654.21   22.23
  -1   0  -9  640.60   22.17
  -1   0  -9  663.32   22.05
   1   0   9  636.96   22.41
   1   0   9  645.10   22.24
  -2   0  -9   30.44    1.22
   2   0   9   29.02    1.47
  -3   0  -9   16.42    0.88
  -3   0  -9   17.47    0.83
   3   0   9   17.13    0.96
   3   0   9   17.17    1.12
   3   0   9   17.59    1.04
  -4   0  -9   94.22    3.35
   4   0   9   91.16    3.41
   5  -1  -9   32.31    1.51
   2  -1  -9    0.97    0.29
   1  -1  -9  477.78   16.24
   1  -1  -9  474.38   16.21
   1  -1  -9  447.05   16.93
   1  -1  -9  471.19   16.15
  -1   1   9  473.55   16.29
   0  -1  -9    0.56    0.18
   0  -1  -9    0.57    0.28
   0  -1  -9    0.41    0.67
   0  -1  -9    0.10    0.24
   0   1   9    0.24    0.23
   0   1   9   -0.12    0.29
  -1  -1  -9  172.42    6.28
  -1  -1  -9  176.92    6.11
  -1  -1  -9  175.47    6.27
   1   1   9  176.40    6.34
  -2  -1  -9  322.01   11.27
   2   1   9  330.69   11.60
  -3  -1  -9  890.04   30.41
  -3  -1  -9  877.66   30.37
   3   1   9  882.29   30.53
   3   1   9  902.35   30.74
  -4  -1  -9  229.95    7.99
   4   1   9  230.39    8.07
   5  -2  -9    0.36    0.36
   3  -2  -9   81.45    3.08
   2  -2  -9  633.88   22.41
   2  -2  -9  669.18   22.50
   1  -2  -9  129.86    4.78
   1  -2  -9  133.40    4.71
   1  -2  -9  127.71    4.74
   0  -2  -9   29.21    2.00
   0  -2  -9   30.93    1.37
   0  -2  -9   29.68    1.38
   0   2   9   29.76    1.36
  -1  -2  -9 1548.22   52.37
  -1  -2  -9 1520.04   52.36
   1   2   9 1525.65   52.44
  -2  -2  -9   31.91    1.26
  -2  -2  -9   29.81    1.32
   2   2   9   31.83    1.56
   2   2   9   29.87    1.42
  -3  -2  -9    8.91    0.60
  -3  -2  -9    8.18    0.64
   3   2   9    9.08    0.70
   3   2   9    9.36    0.82
  -4  -2  -9   32.01    1.28
   4   2   9   33.66    1.35
   5  -3  -9   61.48    2.10
   5  -3  -9   55.39    2.25
   4  -3  -9  399.46   14.60
   4  -3  -9  448.43   14.87
   3  -3  -9  486.80   17.72
   3  -3  -9  542.42   17.78
   3  -3  -9  515.22   17.83
   2  -3  -9    9.91    0.70
   2  -3  -9    9.79    0.76
   2  -3  -9    9.05    0.84
   2  -3  -9    9.50    0.76
   1  -3  -9    0.59    0.34
   1  -3  -9    1.71    0.37
   1  -3  -9    1.39    0.36
   0  -3  -9  239.09    8.64
   0  -3  -9  238.23    8.64
   0   3   9  254.46    8.69
  -1  -3  -9   22.09    1.05
  -1  -3  -9   22.15    1.10
  -1  -3  -9   24.03    1.18
  -1  -3  -9   22.05    1.16
   1   3   9   23.38    1.23
  -2  -3  -9   14.49    0.81
  -2  -3  -9   14.73    0.78
   2   3   9   16.29    0.91
   2   3   9   14.59    1.00
  -3  -3  -9 1006.84   33.19
   3   3   9  934.44   33.29
  -4  -3  -9    6.67    0.39
   4   3   9    6.57    0.42
   4  -4  -9    3.29    0.34
   4  -4  -9    3.65    0.36
   4  -4  -9    3.36    0.57
   3  -4  -9   11.75    0.72
   3  -4  -9   11.23    0.74
   3  -4  -9   10.22    0.78
   3  -4  -9   12.94    0.80
   2  -4  -9  301.92   10.30
   2  -4  -9  296.32   10.52
   2  -4  -9  290.00   10.31
   2  -4  -9  297.52   10.37
   2  -4  -9  295.52   10.40
   1  -4  -9  320.75   11.26
   1  -4  -9  319.02   11.43
   1  -4  -9  331.96   11.40
   1  -4  -9  324.99   11.27
   1  -4  -9  328.15   11.28
   1  -4  -9  321.24   11.30
   0  -4  -9  246.66    8.37
   0  -4  -9  230.75    8.44
   0  -4  -9  231.52    8.32
   0  -4  -9  235.79    8.31
   0  -4  -9  232.60    8.35
   0  -4  -9  243.63    8.48
   0   4   9  243.14    8.51
  -1  -4  -9  119.61    4.43
  -1  -4  -9  123.63    4.39
  -1  -4  -9  121.62    4.52
   1   4   9  119.41    4.58
  -2  -4  -9   49.88    1.96
   2   4   9   51.83    2.09
  -3  -4  -9    2.74    0.29
   3   4   9    3.04    0.36
   4  -5  -9   28.93    1.13
   4  -5  -9   27.22    1.29
   4  -5  -9   28.01    1.14
   3  -5  -9  945.49   32.00
   3  -5  -9  935.87   32.06
   3  -5  -9  963.86   32.15
   3  -5  -9  899.30   32.21
   2  -5  -9    0.28    0.33
   2  -5  -9    0.51    0.31
   2  -5  -9    0.18    0.27
   2  -5  -9    0.46    0.29
   2  -5  -9   -0.23    0.25
   1  -5  -9   32.73    1.51
   1  -5  -9   34.13    1.44
   1  -5  -9   33.53    1.43
   1  -5  -9   33.15    1.42
   1  -5  -9   31.17    1.52
  -1   5   9   33.94    1.55
   0  -5  -9   63.44    2.52
   0  -5  -9   61.09    2.34
   0  -5  -9   66.90    2.43
   0  -5  -9   54.18    2.57
   0  -5  -9   63.27    2.37
   0   5   9   60.80    2.53
  -1  -5  -9   98.25    3.76
  -1  -5  -9  105.19    3.72
  -2  -5  -9   64.56    2.37
   2   5   9   64.07    2.48
   3   5   9    0.20    0.16
   3  -6  -9  314.39   11.38
   3  -6  -9  335.18   11.21
   3  -6  -9  325.99   11.18
   3  -6  -9  323.35   11.23
   2  -6  -9    0.23    0.25
   2  -6  -9    0.34    0.26
   2  -6  -9    0.71    0.27
   2  -6  -9    0.59    0.41
   1  -6  -9  514.35   17.55
   1  -6  -9  509.80   17.53
   1  -6  -9  503.56   17.53
   0  -6  -9    2.68    0.34
   0  -6  -9    3.17    0.40
   0  -6  -9    2.86    0.32
  -1  -6  -9    5.94    0.45
   1   6   9    5.24    0.50
  -2  -6  -9    3.99    0.32
   2   6   9    3.86    0.36
   2  -7  -9   69.19    2.48
   2  -7  -9   69.59    2.46
   2  -7  -9   66.86    2.46
  -2   7   9   66.24    2.66
   1  -7  -9    1.87    0.27
   1  -7  -9    1.61    0.24
   0  -7  -9   31.20    1.22
  -1  -7  -9  254.24    8.76
   1   8 -10  527.77   18.49
  -1  -8  10  547.95   18.40
   0   8 -10    5.36    0.48
   0  -8  10    5.99    0.38
   1  -8  10   34.56    1.34
   2  -8  10    0.84    0.17
   2   7 -10  325.45   11.57
   2   7 -10  324.20   11.16
   2   7 -10  312.48   11.20
   2   7 -10  333.27   11.28
   1   7 -10    0.11    0.30
   1   7 -10    0.24    0.25
   1   7 -10   -0.04    0.46
   0   7 -10   32.36    1.39
   0   7 -10   35.36    1.53
   0   7 -10   36.74    1.92
   0  -7  10   34.48    1.40
  -1   7 -10  463.06   16.45
   1  -7  10  469.61   16.07
  -2   7 -10   57.76    2.49
   2  -7  10   60.34    2.20
  -3   7 -10   48.77    2.29
   3   6 -10   65.18    2.46
   3   6 -10   63.94    2.48
   3   6 -10   66.84    2.82
   2   6 -10    0.19    0.32
   2   6 -10    0.17    0.26
   2   6 -10    0.64    0.35
   2   6 -10   -0.02    0.51
   1   6 -10   64.34    2.61
   1   6 -10   68.05    2.88
   1   6 -10   66.21    2.49
   1   6 -10   65.17    3.21
   1   6 -10   63.92    2.59
   1   6 -10   66.51    3.07
  -1  -6  10   61.88    2.57
   0   6 -10  592.19   20.68
   0   6 -10  617.38   21.22
   0   6 -10  592.38   21.40
   0  -6  10  597.69   20.81
   0  -6  10  607.92   20.69
  -1   6 -10  211.87    7.68
  -1   6 -10  202.89    7.83
   1  -6  10  209.11    7.26
   1  -6  10  198.11    7.46
  -2   6 -10   31.90    1.72
   2  -6  10   32.71    1.35
  -3   6 -10    4.15    0.59
   3  -6  10    4.21    0.40
   4   5 -10   24.22    1.27
   4   5 -10   24.19    1.00
   4   5 -10   23.02    1.00
   3   5 -10    0.83    0.33
   3   5 -10    0.95    0.25
   3   5 -10    0.72    0.34
   3   5 -10    1.26    0.58
   2   5 -10  320.20   11.32
   2   5 -10  314.27   10.76
   2   5 -10  301.08   11.43
   2   5 -10  308.04   10.60
   2   5 -10  295.74   10.72
   2   5 -10  291.03   10.66
  -2  -5  10  296.97   10.69
   1   5 -10  404.34   14.65
   1   5 -10  403.46   14.70
   1   5 -10  428.23   15.19
   1   5 -10  425.98   14.61
   1   5 -10  429.88   15.42
  -1  -5  10  436.90   14.73
   0   5 -10  100.71    4.12
   0   5 -10   98.70    3.70
   0   5 -10   99.99    3.66
   0   5 -10   97.93    3.76
   0   5 -10  100.43    3.65
   0   5 -10  100.34    4.31
   0  -5  10   97.33    3.76
  -1   5 -10  100.05    3.99
  -1   5 -10   96.35    3.59
  -1   5 -10   95.96    4.11
   1  -5  10   95.98    3.82
  -2   5 -10 1909.67   68.10
  -2   5 -10 2071.96   68.03
   2  -5  10 1970.58   67.94
  -3   5 -10  259.53    9.32
   3  -5  10  259.63    9.14
  -4   5 -10   50.54    2.03
   4  -5  10   49.21    1.87
   4   4 -10  277.30    9.98
   4   4 -10  302.91   10.41
   4   4 -10  281.45   10.00
   3   4 -10  895.86   30.89
   3   4 -10  816.96   30.87
   3   4 -10  982.01   31.57
   2   4 -10  233.91    8.04
   2   4 -10  220.33    8.12
   2   4 -10  222.33    8.84
   2   4 -10  244.20    8.79
   2   4 -10  224.64    8.18
  -2  -4  10  225.76    8.14
   1   4 -10  325.58   11.55
   1   4 -10  331.28   11.42
   1   4 -10  325.60   11.92
   1   4 -10  333.83   11.47
   1   4 -10  331.06   12.14
   1   4 -10  318.80   11.52
   0   4 -10   77.70    3.44
   0   4 -10   76.96    2.88
   0   4 -10   76.30    2.99
   0  -4  10   74.19    3.04
  -1   4 -10  487.66   16.64
  -1   4 -10  490.39   17.00
  -1   4 -10  472.47   17.12
  -1   4 -10  476.09   16.62
   1  -4  10  484.33   16.90
  -2   4 -10  431.89   14.99
  -2   4 -10  417.48   14.64
   2  -4  10  424.31   14.94
   2  -4  10  420.94   14.80
  -3   4 -10  529.66   18.68
   3  -4  10  539.20   18.54
  -4   4 -10  871.05   30.03
   4  -4  10  876.12   29.92
   4   3 -10  310.85   10.67
   4   3 -10  287.07   10.19
   4   3 -10  276.27   10.17
   3   3 -10   23.58    1.72
   3   3 -10   22.94    1.29
   3   3 -10   27.20    1.86
   3   3 -10   19.13    1.14
   2   3 -10    0.35    0.54
   2   3 -10    1.02    0.37
   2   3 -10   -0.18    0.55
   2   3 -10    0.77    0.30
   2   3 -10    0.20    0.38
   2   3 -10    0.94    0.36
   1   3 -10 1410.49   50.87
   1   3 -10 1510.41   50.32
   1   3 -10 1496.48   50.41
   0   3 -10   98.57    3.60
   0   3 -10   99.13    3.74
   0  -3  10   98.40    3.78
  -1   3 -10  969.72   33.21
  -1   3 -10  954.78   33.33
   1  -3  10  988.68   33.49
  -2   3 -10 1284.97   44.83
  -2   3 -10 1303.83   45.16
   2  -3  10 1324.21   45.15
   2  -3  10 1341.60   45.06
  -3   3 -10   14.19    1.13
   3  -3  10   12.82    0.91
  -4   3 -10   26.68    1.39
   4  -3  10   30.26    1.28
   4   2 -10  164.97    6.29
   4   2 -10  162.30    5.86
   3   2 -10    6.03    1.30
   3   2 -10    6.49    0.71
   3   2 -10    6.38    1.01
   3   2 -10    4.42    0.55
   2   2 -10  434.97   15.21
   2   2 -10  439.29   15.18
   1   2 -10  401.31   13.68
   1   2 -10  403.16   13.79
  -1  -2  10  381.33   13.76
   0   2 -10  294.03   10.23
   0   2 -10  287.19   10.08
   0  -2  10  290.53   10.27
  -1   2 -10  747.19   25.88
  -1   2 -10  745.90   25.75
   1  -2  10  763.67   26.00
  -2   2 -10   16.15    0.87
  -2   2 -10   15.73    0.78
   2  -2  10   16.04    1.03
  -3   2 -10   76.93    2.83
  -3   2 -10   75.26    2.78
  -3   2 -10   72.04    3.07
   3  -2  10   79.57    3.03
  -4   2 -10    8.42    0.78
   4  -2  10    8.36    0.61
   2   1 -10    9.33    0.69
   2   1 -10   10.54    0.71
   1   1 -10  151.15    5.40
   1   1 -10  150.69    5.28
   1   1 -10  144.85    5.38
   0   1 -10  941.39   31.68
   0   1 -10  957.10   31.65
   0   1 -10  939.97   31.50
   0   1 -10  911.31   32.66
   0  -1  10  858.66   31.75
  -1   1 -10   14.41    0.85
  -1   1 -10   17.18    0.77
   1  -1  10   13.51    0.90
  -2   1 -10  212.35    7.60
  -2   1 -10  218.67    7.76
  -2   1 -10  220.70    7.56
   2  -1  10  214.81    7.81
  -3   1 -10  395.81   13.53
  -3   1 -10  397.70   13.49
   3  -1  10  359.93   13.79
   3  -1  10  411.49   13.73
  -4   1 -10    6.52    0.49
   4  -1  10    7.21    0.54
   2   0 -10  198.73    7.07
   1   0 -10   19.87    0.91
   1   0 -10   19.60    1.88
   1   0 -10   19.76    1.02
   1   0 -10   20.65    1.03
  -1   0  10   19.43    1.05
   0   0 -10  585.98   19.40
   0   0 -10  570.61   19.43
   0   0 -10  562.63   19.24
   0   0  10  526.00   19.50
  -1   0 -10  320.68   10.66
  -1   0 -10  306.60   10.80
   1   0  10  297.57   10.85
  -2   0 -10  977.48   33.15
  -2   0 -10  969.07   33.01
  -2   0 -10  966.10   32.96
   2   0  10  945.50   33.25
  -3   0 -10   70.43    2.60
  -3   0 -10   68.26    2.54
   3   0  10   66.16    2.81
   3   0  10   71.34    2.76
  -4   0 -10  273.16    9.17
   4   0  10  256.87    9.19
   2  -1 -10   54.41    2.20
   1  -1 -10  206.72    7.26
   1  -1 -10  198.86    7.21
   0  -1 -10  388.62   13.62
   0  -1 -10  390.00   13.59
   0   1  10  391.70   13.59
  -1  -1 -10   73.26    2.89
  -1  -1 -10   75.20    2.87
  -1  -1 -10   73.83    2.69
   1   1  10   73.01    2.93
  -2  -1 -10  175.37    6.15
  -2  -1 -10  174.24    6.09
  -2  -1 -10  180.62    6.27
   2   1  10  168.01    6.23
   2   1  10  171.09    6.40
  -3  -1 -10   14.01    0.79
   3   1  10   14.45    0.84
  -4  -1 -10  519.00   17.70
   4   1  10  514.54   17.74
   2  -2 -10  358.84   12.51
   2  -2 -10  351.74   12.30
   2  -2 -10  355.28   12.28
   2  -2 -10  347.40   12.37
   1  -2 -10  660.51   22.13
   1  -2 -10  621.11   22.13
   0  -2 -10  146.19    5.37
   0  -2 -10  149.14    5.36
   0   2  10  144.94    5.37
  -1  -2 -10    8.35    0.60
  -1  -2 -10    6.77    0.63
  -1  -2 -10    8.17    0.67
  -1  -2 -10    8.30    0.65
  -1  -2 -10    7.10    0.64
  -1  -2 -10    7.37    0.71
   1   2  10    7.21    0.70
  -2  -2 -10  220.94    7.67
  -2  -2 -10  215.98    7.61
  -2  -2 -10  218.58    7.76
   2   2  10  218.01    7.78
   2   2  10  220.37    7.94
  -3  -2 -10   81.03    2.91
   3   2  10   76.46    2.98
  -4  -2 -10    1.00    0.19
   4   2  10    1.19    0.20
   4  -3 -10  157.93    5.53
   3  -3 -10    1.38    0.30
   3  -3 -10    1.15    0.31
   3  -3 -10    1.58    0.36
   2  -3 -10  406.34   13.98
   2  -3 -10  406.44   13.85
   2  -3 -10  382.57   13.76
   2  -3 -10  402.79   13.80
   2  -3 -10  398.25   13.88
   1  -3 -10  182.53    6.60
   1  -3 -10  176.21    6.43
   1  -3 -10  181.90    6.45
   1  -3 -10  189.66    6.60
   1  -3 -10  178.47    6.47
   1  -3 -10  179.40    6.44
  -1   3  10  189.81    6.59
   0  -3 -10  148.01    5.18
   0  -3 -10  139.13    5.13
   0  -3 -10  141.42    5.25
   0  -3 -10  141.10    5.09
   0  -3 -10  141.44    5.12
   0  -3 -10  141.70    5.26
   0   3  10  149.11    5.31
  -1  -3 -10  253.85    9.16
  -1  -3 -10  257.59    9.16
  -1  -3 -10  260.89    9.24
  -1  -3 -10  267.59    9.12
   1   3  10  263.18    9.34
  -2  -3 -10  260.78    9.02
  -2  -3 -10  262.95    9.02
   2   3  10  248.97    9.27
   2   3  10  263.34    9.15
  -3  -3 -10   36.41    1.41
   3   3  10   35.01    1.48
   4  -4 -10   36.80    1.43
   4  -4 -10   37.93    1.45
   3  -4 -10  163.21    5.71
   3  -4 -10  160.67    5.76
   2  -4 -10    1.14    0.32
   2  -4 -10    0.08    0.24
   2  -4 -10    0.17    0.31
   2  -4 -10    0.24    0.26
   2  -4 -10    0.65    0.31
   1  -4 -10    6.00    0.59
   1  -4 -10    6.76    0.56
   1  -4 -10    5.81    0.50
   1  -4 -10    6.07    0.59
   1  -4 -10    6.04    0.62
   1  -4 -10    6.43    0.59
  -1   4  10    6.15    0.65
   0  -4 -10  688.28   23.82
   0  -4 -10  701.88   23.74
   0  -4 -10  671.80   23.68
   0  -4 -10  676.80   23.81
   0  -4 -10  677.09   23.66
   0   4  10  722.74   23.91
  -1  -4 -10  250.73    8.88
  -1  -4 -10  255.92    8.76
  -1  -4 -10  248.04    8.81
   1   4  10  245.78    8.97
  -2  -4 -10    0.70    0.24
   2   4  10    0.39    0.28
  -3  -4 -10   88.33    3.15
   3   4  10   90.04    3.23
   4  -5 -10   15.27    0.67
   4  -5 -10   15.23    0.67
   3  -5 -10    7.34    0.53
   3  -5 -10    7.85    0.55
   3  -5 -10    7.46    0.53
   2  -5 -10   26.05    1.16
   2  -5 -10   25.19    1.12
   2  -5 -10   25.56    1.17
   1  -5 -10  317.58   10.78
   1  -5 -10  314.06   10.78
   1  -5 -10  313.74   10.75
   1  -5 -10  313.34   10.80
  -1   5  10  286.83   11.01
   0  -5 -10   56.82    2.17
   0  -5 -10   54.69    2.13
   0  -5 -10   57.56    2.23
   0  -5 -10   56.00    2.19
  -1  -5 -10   86.33    3.18
   1   5  10   86.74    3.26
  -2  -5 -10  693.38   24.08
   2   5  10  715.44   24.17
   3  -6 -10  276.67    9.31
   3  -6 -10  267.75    9.27
   3  -6 -10  263.97    9.31
   2  -6 -10    2.03    0.28
   2  -6 -10    1.95    0.29
   2  -6 -10    2.28    0.32
   1  -6 -10   10.17    0.60
   1  -6 -10   10.29    0.60
   1  -6 -10    9.72    0.64
   0  -6 -10  232.77    7.91
   0  -6 -10  222.30    7.81
   0  -6 -10  221.30    7.84
  -1  -6 -10    5.00    0.41
   1   6  10    4.51    0.41
   2  -7 -10   25.45    1.01
   1  -7 -10   68.97    2.52
   1  -7 -10   69.79    2.48
   0  -7 -10   72.25    2.60
   0   7  10   72.15    2.61
   0  -8  11   53.47    1.94
   1  -8  11   16.55    0.70
   2   7 -11   64.68    2.66
   2   7 -11   63.71    2.37
   2   7 -11   64.75    2.33
   2   7 -11   64.86    2.41
   1   7 -11  329.15   11.04
   1   7 -11  311.27   11.11
   1   7 -11  318.28   11.46
   0   7 -11   56.68    2.55
   0   7 -11   55.51    2.10
   0  -7  11   57.09    2.11
  -1   7 -11   16.15    1.14
   1  -7  11   17.47    0.80
  -2   7 -11    4.58    0.65
   2  -7  11    4.63    0.35
   3   6 -11   35.67    1.66
   3   6 -11   33.88    1.38
   3   6 -11   34.46    1.38
   2   6 -11  627.07   22.03
   2   6 -11  628.70   21.62
   2   6 -11  624.09   21.63
   2   6 -11  630.95   21.53
   1   6 -11    0.49    0.36
   1   6 -11    0.11    0.27
   1   6 -11    0.16    0.53
   0   6 -11  110.08    4.06
   0   6 -11  113.12    4.57
   0  -6  11  114.08    4.07
  -1   6 -11   11.57    1.12
   1  -6  11   10.42    0.68
  -2   6 -11    9.65    0.94
   2  -6  11    8.87    0.56
  -3   6 -11   21.62    1.16
   3   5 -11   99.49    3.62
   3   5 -11   93.49    3.49
   3   5 -11  101.35    4.02
   3   5 -11   97.74    3.61
   2   5 -11   18.43    1.12
   2   5 -11   20.36    0.99
   2   5 -11   20.38    1.54
   1   5 -11   57.88    2.35
   1   5 -11   55.42    2.27
   1   5 -11   56.91    2.93
   1   5 -11   56.25    2.23
   1   5 -11   56.51    2.75
  -1  -5  11   55.77    2.31
   0   5 -11  630.00   21.56
   0   5 -11  646.15   22.31
   0   5 -11  627.33   22.05
   0   5 -11  624.15   21.56
   0   5 -11  613.86   21.65
   0   5 -11  615.92   21.60
   0  -5  11  630.27   21.68
  -1   5 -11   26.17    1.93
  -1   5 -11   28.74    1.27
  -1   5 -11   29.64    1.71
   1  -5  11   28.79    1.49
  -2   5 -11  286.47   10.32
  -3   5 -11  744.84   25.58
   3  -5  11  734.67   25.39
   4   4 -11    0.14    0.20
   4   4 -11    0.13    0.20
   4   4 -11    0.51    0.35
   3   4 -11  205.57    7.42
   3   4 -11  210.86    7.90
   2   4 -11   39.85    1.77
   2   4 -11   41.87    2.31
   2   4 -11   42.19    1.69
   2   4 -11   42.15    1.86
   2   4 -11   39.69    2.37
  -2  -4  11   39.69    1.76
   1   4 -11  282.49   10.64
   1   4 -11  280.22   10.08
   1   4 -11  293.38   10.18
   1   4 -11  288.74   10.25
   1   4 -11  293.55   10.91
   1   4 -11  292.25   10.15
   1   4 -11  299.86   10.29
   0   4 -11   80.94    3.08
   0   4 -11   77.10    2.94
   0   4 -11   75.77    3.37
   0   4 -11   77.27    3.03
   0   4 -11   78.42    2.95
   0   4 -11   77.44    2.92
   0  -4  11   79.06    3.13
  -1   4 -11  496.02   17.38
  -1   4 -11  509.48   17.34
  -1   4 -11  492.42   17.33
  -1   4 -11  514.37   17.74
   1  -4  11  500.23   17.59
  -2   4 -11    5.11    0.46
  -2   4 -11    4.92    0.50
  -2   4 -11    5.76    0.77
   2  -4  11    5.46    0.59
   2  -4  11    5.59    0.65
  -3   4 -11  125.49    4.81
   3  -4  11  129.06    4.66
  -4   4 -11   89.54    3.40
   4  -4  11   93.79    3.29
   4   3 -11  156.64    5.96
   4   3 -11  161.94    5.63
   3   3 -11  135.66    5.41
   3   3 -11  131.67    4.93
   2   3 -11    7.31    0.72
   2   3 -11    9.71    0.74
   2   3 -11    9.64    0.75
   2   3 -11    8.89    1.18
   2   3 -11    8.26    0.65
   1   3 -11  169.79    5.91
   1   3 -11  167.41    5.84
   1   3 -11  167.09    6.01
   1   3 -11  154.30    6.30
   1   3 -11  166.45    5.89
   1   3 -11  164.06    5.97
   0   3 -11   29.53    1.41
   0   3 -11   30.33    1.31
   0  -3  11   28.13    1.45
  -1   3 -11 2066.54   73.14
  -1   3 -11 2168.72   72.81
  -1   3 -11 2054.77   72.85
  -1   3 -11 2114.86   72.98
  -1   3 -11 2147.83   72.81
   1  -3  11 2263.49   73.10
  -2   3 -11   63.78    2.52
  -2   3 -11   64.89    2.46
  -2   3 -11   66.79    2.47
  -2   3 -11   65.79    2.82
   2  -3  11   67.89    2.65
   2  -3  11   64.24    2.71
  -3   3 -11   78.49    3.22
   3  -3  11   81.78    3.10
  -4   3 -11  472.63   16.61
   4  -3  11  488.65   16.54
   4   2 -11  509.87   17.89
   3   2 -11   23.22    1.17
   3   2 -11   25.37    1.29
   3   2 -11   23.46    1.64
   2   2 -11  561.94   19.70
   2   2 -11  565.03   19.81
   2   2 -11  569.22   19.82
   2   2 -11  593.63   19.78
   1   2 -11  282.68    9.95
   1   2 -11  293.09   10.09
  -1  -2  11  280.02   10.07
   0   2 -11   32.38    1.51
   0   2 -11   32.28    1.35
   0  -2  11   31.71    1.52
  -1   2 -11  167.89    6.27
  -1   2 -11  183.88    6.61
   1  -2  11  172.55    6.39
  -2   2 -11 1109.58   38.09
  -2   2 -11 1090.68   37.74
  -2   2 -11 1086.78   37.79
   2  -2  11 1108.20   38.01
   2  -2  11 1128.21   37.95
  -3   2 -11  758.32   26.04
  -3   2 -11  724.77   26.24
   3  -2  11  797.26   26.21
  -4   2 -11   20.71    1.23
   4  -2  11   21.58    0.95
   2   1 -11  676.06   23.38
   2   1 -11  692.29   23.45
   2   1 -11  670.86   23.33
   1   1 -11   -0.13    0.28
   1   1 -11    0.26    0.25
   1   1 -11    0.22    0.30
   0   1 -11  630.42   21.95
   0   1 -11  640.47   21.80
  -1   1 -11 4005.12  139.28
  -1   1 -11 4134.72  139.14
   1  -1  11 4127.77  139.38
  -2   1 -11   38.11    1.54
  -2   1 -11   38.84    1.61
  -2   1 -11   39.13    1.74
   2  -1  11   38.24    1.76
  -3   1 -11   21.13    1.01
   3  -1  11   21.51    1.11
  -4   1 -11   13.79    0.66
   4  -1  11   14.31    0.69
   2   0 -11   64.67    2.55
   1   0 -11  612.88   21.18
   1   0 -11  611.37   21.15
   0   0 -11  429.31   14.91
   0   0 -11  437.28   15.11
   0   0 -11  432.17   15.07
  -1   0 -11  592.52   21.35
  -1   0 -11  652.18   21.19
  -1   0 -11  619.01   21.34
  -1   0 -11  613.24   21.36
   1   0  11  610.57   21.40
  -2   0 -11  569.80   19.35
  -2   0 -11  582.39   19.49
  -2   0 -11  559.68   19.29
   2   0  11  536.03   19.55
  -3   0 -11  178.99    6.24
   3   0  11  174.61    6.34
  -4   0 -11   14.32    0.66
   2  -1 -11   85.17    3.23
   2  -1 -11   83.04    3.07
   1  -1 -11  359.05   12.57
   1  -1 -11  359.14   12.60
   0  -1 -11  101.77    3.80
   0  -1 -11  103.17    3.84
   0   1  11   97.02    3.78
  -1  -1 -11   89.63    3.38
  -1  -1 -11   89.28    3.37
  -1  -1 -11   89.29    3.23
  -1  -1 -11   89.23    3.41
  -1  -1 -11   90.20    3.21
  -1  -1 -11   85.77    3.26
  -1  -1 -11   87.99    3.26
   1   1  11   86.82    3.46
  -2  -1 -11  606.46   20.76
  -2  -1 -11  614.31   20.87
  -2  -1 -11  601.72   20.70
   2   1  11  592.83   21.00
  -3  -1 -11   33.10    1.34
   3   1  11   30.58    1.37
   3   1  11   32.88    1.38
  -4  -1 -11  213.64    7.37
   2  -2 -11   32.53    1.49
   2  -2 -11   31.84    1.38
   2  -2 -11   31.78    1.34
   1  -2 -11    9.92    0.64
   1  -2 -11    9.93    0.76
   1  -2 -11    8.68    0.64
   1  -2 -11    9.32    0.65
   1  -2 -11    9.76    0.76
  -1   2  11    9.23    0.68
   0  -2 -11  767.99   26.80
   0  -2 -11  779.72   26.87
   0  -2 -11  797.44   26.97
   0  -2 -11  766.03   26.93
   0  -2 -11  783.82   26.79
   0   2  11  794.42   26.99
  -1  -2 -11  273.11    9.67
  -1  -2 -11  260.61    9.51
  -1  -2 -11  273.07    9.63
  -1  -2 -11  277.11    9.55
  -1  -2 -11  273.04    9.69
   1   2  11  284.33    9.80
  -2  -2 -11   38.22    1.58
  -2  -2 -11   38.45    1.65
  -2  -2 -11   39.21    1.58
   2   2  11   38.75    1.79
   2   2  11   38.65    1.65
  -3  -2 -11   60.71    2.21
   3   2  11   57.53    2.26
   3  -3 -11    3.63    0.39
   3  -3 -11    4.19    0.39
   2  -3 -11  164.93    5.69
   2  -3 -11  161.26    5.63
   2  -3 -11  160.05    5.80
   2  -3 -11  152.05    5.61
   2  -3 -11  155.91    5.71
   1  -3 -11  752.06   25.82
   1  -3 -11  721.87   25.80
   1  -3 -11  748.83   25.81
   1  -3 -11  758.34   25.95
   1  -3 -11  759.81   25.98
   1  -3 -11  744.66   25.85
  -1   3  11  782.32   25.98
   0  -3 -11   38.71    1.69
   0  -3 -11   40.72    1.67
   0  -3 -11   41.40    1.80
   0  -3 -11   39.92    1.80
   0  -3 -11   41.56    1.65
   0  -3 -11   41.92    1.74
   0   3  11   42.28    1.86
  -1  -3 -11  156.25    5.79
  -1  -3 -11  160.47    5.74
  -1  -3 -11  160.00    5.68
   1   3  11  161.23    5.92
  -2  -3 -11   41.71    1.65
  -2  -3 -11   40.90    1.64
   2   3  11   43.67    1.76
  -3  -3 -11  330.44   11.10
   3   3  11  314.53   11.16
   4  -4 -11    0.62    0.18
   3  -4 -11   47.08    1.83
   3  -4 -11   46.79    1.80
   2  -4 -11  539.07   18.61
   2  -4 -11  548.66   18.68
   2  -4 -11  536.70   18.62
   1  -4 -11  528.85   18.09
   1  -4 -11  516.23   18.19
   1  -4 -11  501.18   18.21
   1  -4 -11  527.64   18.12
   1  -4 -11  525.23   18.07
   1  -4 -11  542.32   18.08
  -1   4  11  531.97   18.25
   0  -4 -11  810.28   27.20
   0  -4 -11  817.90   27.21
   0  -4 -11  783.17   27.11
   0  -4 -11  784.60   27.28
   0  -4 -11  797.10   27.15
   0  -4 -11  755.01   27.26
   0   4  11  794.33   27.36
  -1  -4 -11  207.95    7.35
   1   4  11  211.04    7.45
  -2  -4 -11    4.64    0.36
   2   4  11    4.48    0.43
   3  -5 -11   44.79    1.68
   3  -5 -11   44.08    1.71
   2  -5 -11  138.71    4.92
   2  -5 -11  136.79    4.90
   2  -5 -11  139.81    4.95
   1  -5 -11   31.74    1.38
   1  -5 -11   33.90    1.36
   1  -5 -11   32.95    1.39
   1  -5 -11   31.70    1.32
   0  -5 -11  388.27   13.55
   0  -5 -11  394.90   13.52
   0  -5 -11  380.16   13.48
   0  -5 -11  403.97   13.59
  -1  -5 -11   85.45    3.12
   1   5  11   86.29    3.19
  -2  -5 -11   15.39    0.64
   2   5  11   14.34    0.70
   3  -6 -11   20.11    0.94
   2  -6 -11   14.59    0.67
   2  -6 -11   15.50    0.72
   2  -6 -11   14.54    0.70
   1  -6 -11   87.13    3.20
   1  -6 -11   89.15    3.23
   1  -6 -11   90.87    3.19
   0  -6 -11   45.61    1.69
   0  -6 -11   44.55    1.66
  -1  -6 -11   12.97    0.58
   1   6  11   12.32    0.62
   1   7 -12   70.88    2.90
   1   7 -12   69.45    2.53
   0   7 -12   17.96    0.80
   0   7 -12   19.07    1.21
   0  -7  12   20.00    0.82
  -1   7 -12   54.65    2.37
   1  -7  12   56.91    2.06
  -2   7 -12    7.01    0.65
   2  -7  12    6.92    0.37
   2   6 -12  573.84   19.47
   2   6 -12  560.78   19.88
   2   6 -12  569.67   19.54
   1   6 -12  381.76   13.10
   1   6 -12  376.08   13.57
   1   6 -12  380.65   13.18
   0   6 -12    6.88    0.98
   0   6 -12    6.84    0.52
   0  -6  12    6.56    0.50
  -1   6 -12  328.53   11.99
   1  -6  12  341.97   11.60
  -2   6 -12    1.20    0.46
   2  -6  12    1.78    0.23
  -3   6 -12    2.40    0.52
   3   5 -12  183.80    6.45
   3   5 -12  182.97    6.77
   2   5 -12  378.79   13.71
   2   5 -12  381.60   13.31
   2   5 -12  386.09   13.20
   1   5 -12    0.00    0.52
   1   5 -12    0.26    0.35
   1   5 -12    0.60    0.32
   0   5 -12    9.87    0.65
   0   5 -12    9.57    0.71
   0   5 -12    9.53    0.78
   0   5 -12    9.58    1.14
   0   5 -12    9.56    0.65
   0  -5  12    8.90    0.70
  -1   5 -12   49.74    1.97
  -1   5 -12   50.84    2.42
  -2   5 -12   88.54    3.54
   2  -5  12   86.22    3.16
  -3   5 -12   10.73    0.83
   3  -5  12    9.85    0.55
   4   4 -12    0.17    0.33
   3   4 -12   35.40    1.86
   3   4 -12   35.04    1.52
   2   4 -12    2.94    0.39
   2   4 -12    3.33    0.52
   2   4 -12    2.95    0.72
   1   4 -12  102.60    3.78
   1   4 -12  100.68    4.25
   1   4 -12  103.31    3.75
   1   4 -12   98.12    3.68
   1   4 -12  104.06    3.86
   0   4 -12  106.70    3.83
   0   4 -12  105.61    4.32
   0   4 -12  108.26    3.81
   0   4 -12  103.66    3.92
   0   4 -12  103.83    3.95
   0   4 -12  102.00    3.84
   0  -4  12   99.94    3.99
  -1   4 -12  110.22    4.35
  -1   4 -12  103.26    3.92
  -1   4 -12  110.47    3.92
  -1   4 -12  105.30    3.98
   1  -4  12  109.18    4.17
  -2   4 -12  142.34    5.03
  -2   4 -12  141.75    5.38
   2  -4  12  141.35    5.15
  -3   4 -12   93.21    3.65
   3  -4  12   96.63    3.49
   4   3 -12   55.04    2.28
   3   3 -12   23.11    1.16
   3   3 -12   22.60    1.49
   2   3 -12   84.06    3.04
   2   3 -12   82.38    3.10
   2   3 -12   75.13    3.54
   2   3 -12   84.62    3.18
   1   3 -12  148.52    5.25
   1   3 -12  148.21    5.35
   1   3 -12  139.56    5.68
   1   3 -12  144.58    5.17
   1   3 -12  148.80    5.23
   1   3 -12  141.89    5.30
   0   3 -12   23.03    1.54
   0   3 -12   22.49    1.20
   0   3 -12   23.35    1.10
   0   3 -12   22.41    1.06
   0   3 -12   22.48    1.10
   0   3 -12   21.47    1.17
   0  -3  12   22.15    1.24
  -1   3 -12  165.68    6.06
  -1   3 -12  173.02    6.00
  -1   3 -12  167.28    6.37
  -1   3 -12  170.29    6.01
   1  -3  12  167.62    6.12
   1  -3  12  170.99    6.25
  -2   3 -12  990.97   34.13
  -2   3 -12  969.05   34.41
  -2   3 -12 1009.67   34.18
  -2   3 -12  997.40   34.11
   2  -3  12  985.49   34.37
   2  -3  12 1034.99   34.29
  -3   3 -12    0.51    0.40
   3  -3  12    0.39    0.27
   3   2 -12  147.93    5.36
   2   2 -12    3.68    0.46
   2   2 -12    4.88    0.50
   2   2 -12    3.69    0.42
   2   2 -12    4.87    0.56
   1   2 -12   15.57    0.95
   1   2 -12   15.34    0.87
   1   2 -12   16.04    0.87
   1   2 -12   14.57    0.96
   1   2 -12   16.21    0.82
  -1  -2  12   17.73    1.31
   0   2 -12  276.98    9.46
   0   2 -12  269.13    9.58
   0   2 -12  276.90    9.44
   0   2 -12  259.34    9.50
   0   2 -12  270.16    9.46
   0  -2  12  271.05    9.64
  -1   2 -12  192.37    6.72
  -1   2 -12  196.98    6.67
  -1   2 -12  181.86    6.64
  -1   2 -12  190.47    6.65
  -1   2 -12  181.90    6.74
  -1   2 -12  181.09    6.76
   1  -2  12  195.50    6.90
  -2   2 -12   95.20    3.47
  -2   2 -12   95.30    3.52
   2  -2  12   99.26    3.66
   2  -2  12   91.56    3.67
  -3   2 -12  279.55    9.86
   3  -2  12  289.13    9.98
   2   1 -12  425.86   14.86
   2   1 -12  434.71   14.98
   1   1 -12   25.40    1.12
   1   1 -12   22.89    1.21
   1   1 -12   26.08    1.17
   1   1 -12   26.19    1.27
   1   1 -12   25.00    1.13
   0   1 -12  434.93   14.83
   0   1 -12  402.77   14.90
   0   1 -12  438.66   14.85
   0   1 -12  420.65   14.85
   0   1 -12  439.65   14.99
   0   1 -12  417.58   14.89
   0  -1  12  454.04   15.06
  -1   1 -12   23.40    1.09
  -1   1 -12   23.36    1.20
  -1   1 -12   23.78    1.16
  -1   1 -12   23.19    1.18
  -1   1 -12   22.40    1.05
  -1   1 -12   24.80    1.09
   1  -1  12   24.32    1.26
  -2   1 -12   42.40    1.73
  -2   1 -12   42.33    1.83
  -2   1 -12   41.78    1.64
   2  -1  12   39.40    1.82
  -3   1 -12  825.57   27.73
   3  -1  12  793.95   27.81
   2   0 -12  507.19   17.58
   1   0 -12    3.71    0.40
   1   0 -12    3.53    0.42
   1   0 -12    2.31    0.42
   1   0 -12    2.16    0.43
   0   0 -12   12.81    0.75
   0   0 -12   12.07    0.88
   0   0 -12   12.71    0.76
   0   0 -12   12.94    0.73
   0   0 -12   12.28    0.85
   0   0 -12   12.25    0.81
   0   0 -12   13.25    0.85
  -1   0 -12  431.37   15.12
  -1   0 -12  450.91   15.29
  -1   0 -12  437.93   15.12
  -1   0 -12  436.87   15.28
  -1   0 -12  439.36   15.16
  -1   0 -12  437.77   15.18
   1   0  12  437.46   15.35
  -2   0 -12  530.96   18.20
  -2   0 -12  513.93   18.13
  -2   0 -12  539.68   18.32
  -3   0 -12    4.31    0.41
   3   0  12    4.16    0.42
   2  -1 -12    5.38    0.56
   2  -1 -12    5.42    0.44
   1  -1 -12  487.60   16.85
   1  -1 -12  472.52   16.72
   1  -1 -12  488.75   16.82
   1  -1 -12  484.65   16.67
   1  -1 -12  485.09   16.69
   0  -1 -12 2628.79   91.29
   0  -1 -12 2736.66   91.48
   0  -1 -12 2658.68   91.27
   0  -1 -12 2672.17   91.43
   0  -1 -12 2701.24   91.38
  -1  -1 -12  341.30   11.92
  -1  -1 -12  341.26   11.93
  -1  -1 -12  342.20   11.89
  -1  -1 -12  353.04   11.93
  -1  -1 -12  344.38   12.05
  -1  -1 -12  354.68   12.05
   1   1  12  334.56   12.13
   1   1  12  337.09   12.10
  -2  -1 -12   38.37    1.60
  -2  -1 -12   39.43    1.69
  -3  -1 -12  123.06    4.12
   3   1  12  107.68    4.13
   2  -2 -12   30.41    1.35
   2  -2 -12   30.96    1.30
   2  -2 -12   32.18    1.47
   1  -2 -12  685.83   23.37
   1  -2 -12  671.51   23.28
   1  -2 -12  669.99   23.23
   1  -2 -12  687.49   23.41
   1  -2 -12  685.73   23.22
  -1   2  12  657.42   23.35
   0  -2 -12  374.22   12.86
   0  -2 -12  369.79   12.88
   0  -2 -12  369.77   13.01
   0  -2 -12  370.02   13.05
   0  -2 -12  378.56   12.97
   0   2  12  366.95   13.06
  -1  -2 -12 1308.19   46.46
  -1  -2 -12 1357.35   46.48
  -1  -2 -12 1319.77   46.59
  -1  -2 -12 1419.30   46.60
   1   2  12 1379.85   46.74
   1   2  12 1381.21   46.56
  -2  -2 -12  260.12    9.25
  -2  -2 -12  258.68    9.22
  -2  -2 -12  270.82    9.18
   2   2  12  265.41    9.25
  -3  -2 -12    0.34    0.20
   3   2  12    1.21    0.23
   3  -3 -12  169.95    5.99
   2  -3 -12   74.67    2.88
   2  -3 -12   77.57    2.87
   2  -3 -12   81.76    2.95
   1  -3 -12  229.59    7.89
   1  -3 -12  224.78    8.05
   1  -3 -12  213.24    7.87
   1  -3 -12  228.25    7.95
   1  -3 -12  228.72    8.02
   1  -3 -12  230.65    7.90
  -1   3  12  219.85    8.03
   0  -3 -12  392.71   13.72
   0  -3 -12  390.09   13.82
   0  -3 -12  396.70   13.70
   0  -3 -12  398.24   13.67
   0  -3 -12  411.53   13.78
   0  -3 -12  385.75   13.83
   0   3  12  395.43   13.90
  -1  -3 -12  246.58    8.75
  -1  -3 -12  252.67    8.83
   1   3  12  252.68    8.83
  -2  -3 -12   80.42    2.91
  -2  -3 -12   78.31    2.89
   2   3  12   82.33    3.00
   3  -4 -12  266.12    9.14
   3  -4 -12  262.77    9.17
   2  -4 -12    8.45    0.58
   2  -4 -12    8.40    0.54
   2  -4 -12    8.20    0.60
   1  -4 -12   38.23    1.51
   1  -4 -12   35.60    1.52
   1  -4 -12   37.57    1.55
   1  -4 -12   36.16    1.49
   0  -4 -12  144.60    5.27
   0  -4 -12  150.53    5.29
   0  -4 -12  149.83    5.23
   0  -4 -12  143.46    5.19
  -1  -4 -12  120.22    4.20
  -1  -4 -12  113.48    4.22
   1   4  12  118.70    4.28
  -2  -4 -12   33.01    1.29
   2   4  12   35.41    1.38
   3  -5 -12  204.69    7.12
   3  -5 -12  205.88    7.10
   2  -5 -12  434.98   14.93
   2  -5 -12  431.06   14.91
   2  -5 -12  436.88   14.96
   1  -5 -12    5.82    0.42
   1  -5 -12    5.76    0.44
   1  -5 -12    5.09    0.49
   1  -5 -12    5.18    0.46
   0  -5 -12   48.83    1.88
   0  -5 -12   50.50    1.86
   0  -5 -12   47.34    1.81
   0  -5 -12   49.65    1.91
  -1  -5 -12  251.62    8.61
   1   5  12  246.64    8.67
   2  -6 -12  450.75   15.52
   1  -6 -12  848.05   29.65
   1  -6 -12  875.08   29.63
   1  -6 -12  879.49   29.58
   0   6  12  402.08   13.82
   1   7 -13  165.03    5.76
   1   7 -13  168.31    6.05
   0   7 -13   15.01    0.96
   0  -7  13   14.64    0.62
  -1   7 -13   93.88    3.65
   1  -7  13   99.75    3.40
   2   6 -13    6.65    0.49
   2   6 -13    6.69    0.41
   2   6 -13    7.61    0.76
   1   6 -13   94.22    3.85
   1   6 -13   95.35    3.51
   1   6 -13   99.09    3.45
   0   6 -13   87.60    3.50
   0   6 -13   81.96    3.04
   0  -6  13   84.75    3.05
  -1   6 -13  372.67   13.25
   1  -6  13  376.68   12.90
  -2   6 -13   63.91    2.51
   2  -6  13   59.33    2.20
   3   5 -13    2.33    0.28
   3   5 -13    2.49    0.44
   2   5 -13  227.56    7.92
   2   5 -13  217.62    8.26
   2   5 -13  230.17    7.83
   1   5 -13  122.95    4.94
   1   5 -13  125.09    4.55
   1   5 -13  125.16    4.46
   0   5 -13    5.26    0.81
   0   5 -13    3.81    0.39
   0   5 -13    3.65    0.47
   0   5 -13    3.69    0.38
  -1   5 -13   38.92    1.96
  -1   5 -13   38.33    1.54
  -2   5 -13    9.27    0.86
   2  -5  13    8.68    0.48
   3   4 -13  557.06   19.62
   3   4 -13  567.25   19.31
   2   4 -13  307.23   11.34
   2   4 -13  319.05   10.86
   2   4 -13  312.80   10.95
   1   4 -13   88.11    3.23
   1   4 -13   86.52    3.73
   1   4 -13   86.58    3.32
   1   4 -13   86.57    3.17
   0   4 -13  471.99   16.24
   0   4 -13  458.41   15.73
   0   4 -13  438.59   15.75
   0   4 -13  465.56   15.72
   0   4 -13  456.22   15.81
   0   4 -13  442.24   15.84
  -1   4 -13  197.58    7.15
  -1   4 -13  201.71    7.49
  -1   4 -13  206.17    7.09
  -2   4 -13   67.99    2.47
  -2   4 -13   66.43    2.80
   2  -4  13   68.31    2.58
  -3   4 -13   58.21    2.34
   3  -4  13   59.88    2.20
   3   3 -13  565.26   20.20
   3   3 -13  590.54   19.88
   2   3 -13    5.80    0.49
   2   3 -13    7.11    0.94
   2   3 -13    5.54    0.58
   1   3 -13   21.87    1.52
   1   3 -13   20.25    1.12
   1   3 -13   21.86    1.05
   1   3 -13   20.50    0.97
   1   3 -13   21.46    1.07
   1   3 -13   21.35    1.16
   0   3 -13   24.05    1.10
   0   3 -13   22.80    1.54
   0   3 -13   24.28    1.08
   0   3 -13   23.02    1.10
   0   3 -13   22.69    1.20
   0   3 -13   21.17    1.16
   0  -3  13   22.19    1.22
  -1   3 -13   13.98    0.81
  -1   3 -13   14.89    0.77
  -1   3 -13   13.81    1.12
  -1   3 -13   15.09    0.91
   1  -3  13   14.40    0.95
  -2   3 -13  171.23    5.93
  -2   3 -13  164.31    5.84
  -2   3 -13  161.35    6.13
   2  -3  13  170.15    5.99
  -3   3 -13    9.07    0.72
   3  -3  13    8.88    0.57
   2   2 -13   28.16    1.20
   2   2 -13   27.05    1.31
   2   2 -13   27.01    1.23
   2   2 -13   27.31    1.29
   1   2 -13   64.47    2.58
   1   2 -13   65.25    2.42
   1   2 -13   61.98    2.46
   1   2 -13   66.52    2.47
   1   2 -13   61.43    2.53
   0   2 -13   76.35    2.94
   0   2 -13   75.05    2.98
   0   2 -13   78.42    2.89
   0   2 -13   76.58    2.85
   0   2 -13   75.91    2.87
   0  -2  13   74.97    3.03
  -1   2 -13   69.19    2.63
  -1   2 -13   66.64    2.75
  -1   2 -13   73.63    2.74
  -1   2 -13   70.89    2.63
  -1   2 -13   71.91    2.66
   1  -2  13   69.79    2.86
  -2   2 -13   39.46    1.64
   2  -2  13   38.60    1.69
  -3   2 -13   33.27    1.33
   3  -2  13   32.77    1.38
   2   1 -13  210.35    7.35
   2   1 -13  208.15    7.45
   1   1 -13   33.72    1.40
   1   1 -13   32.58    1.36
   1   1 -13   32.10    1.39
   1   1 -13   31.41    1.51
   1   1 -13   31.69    1.48
  -1  -1  13   31.55    1.50
   0   1 -13  260.46    8.75
   0   1 -13  250.78    8.72
   0   1 -13  239.20    8.81
   0   1 -13  248.47    8.75
   0   1 -13  250.03    8.81
   0   1 -13  246.76    8.87
   0  -1  13  251.66    8.95
  -1   1 -13  204.39    7.21
  -1   1 -13  205.48    7.14
  -1   1 -13  205.52    7.15
  -1   1 -13  203.81    7.16
  -1   1 -13  200.00    7.27
  -1   1 -13  202.41    7.28
   1  -1  13  202.13    7.36
  -2   1 -13   15.57    0.87
  -3   1 -13   92.88    3.32
   3  -1  13   91.42    3.38
   2   0 -13  273.06    9.45
   2   0 -13  269.81    9.44
   1   0 -13    4.17    0.43
   1   0 -13    4.81    0.49
   1   0 -13    4.73    0.54
   1   0 -13    4.82    0.56
   0   0 -13  448.46   15.86
   0   0 -13  458.31   15.71
   0   0 -13  458.69   15.77
   0   0 -13  471.56   15.79
   0   0 -13  447.12   15.73
   0   0 -13  446.75   15.81
  -1   0 -13   41.61    1.63
  -1   0 -13   40.13    1.66
  -1   0 -13   42.19    1.79
  -1   0 -13   41.46    1.72
  -1   0 -13   41.04    1.64
  -1   0 -13   38.97    1.76
   1   0  13   40.61    1.83
  -2   0 -13  167.82    6.00
  -2   0 -13  170.82    6.10
  -3   0 -13  191.71    6.47
   3   0  13  178.62    6.49
   2  -1 -13  223.30    7.80
   2  -1 -13  223.71    8.49
   1  -1 -13  210.07    7.68
   1  -1 -13  217.06    7.81
   1  -1 -13  217.57    7.78
   1  -1 -13  226.72    7.66
   1  -1 -13  216.09    7.62
   0  -1 -13  247.38    8.68
   0  -1 -13  248.59    8.57
   0  -1 -13  242.91    8.71
   0  -1 -13  239.32    8.75
   0  -1 -13  246.90    8.59
  -1  -1 -13    9.97    0.75
  -1  -1 -13    8.88    0.64
  -1  -1 -13    8.42    0.69
  -1  -1 -13   10.12    0.60
   1   1  13    9.14    0.82
  -2  -1 -13  406.56   13.94
  -2  -1 -13  400.69   14.01
  -3  -1 -13    6.93    0.46
   3   1  13    6.68    0.45
   2  -2 -13    0.78    0.24
   2  -2 -13    0.36    0.25
   1  -2 -13   88.77    3.22
   1  -2 -13   87.97    3.19
   1  -2 -13   87.07    3.37
   1  -2 -13   82.94    3.32
   1  -2 -13   87.33    3.26
   0  -2 -13   33.76    1.58
   0  -2 -13   37.45    1.50
   0  -2 -13   36.87    1.58
   0  -2 -13   35.27    1.45
   0  -2 -13   34.00    1.61
  -1  -2 -13  225.79    7.65
  -1  -2 -13  205.70    7.52
  -1  -2 -13  213.57    7.53
  -2  -2 -13  120.42    4.27
  -2  -2 -13  119.87    4.33
   3  -3 -13    6.16    0.42
   2  -3 -13  170.34    6.04
   2  -3 -13  174.08    6.11
   1  -3 -13 1181.15   40.34
   1  -3 -13 1196.56   40.33
   1  -3 -13 1164.64   40.39
   0  -3 -13   32.99    1.44
   0  -3 -13   35.34    1.39
   0  -3 -13   34.08    1.43
   0  -3 -13   35.03    1.50
  -1  -3 -13  322.38   11.29
  -1  -3 -13  329.41   11.22
   1   3  13  321.49   11.28
  -2  -3 -13  194.09    6.86
   2   3  13  203.01    6.93
   3  -4 -13   15.47    0.69
   2  -4 -13  176.83    6.22
   2  -4 -13  183.21    6.29
   2  -4 -13  175.75    6.24
   1  -4 -13  193.68    6.74
   1  -4 -13  188.33    6.76
   1  -4 -13  200.29    6.75
   1  -4 -13  190.23    6.80
   0  -4 -13  557.96   18.78
   0  -4 -13  545.25   18.75
   0  -4 -13  530.29   18.80
   0  -4 -13  555.71   18.84
  -1  -4 -13  389.32   12.88
  -1  -4 -13  359.13   12.91
   1   4  13  375.11   12.93
   2  -5 -13  315.42   10.85
   2  -5 -13  312.07   10.83
   2  -5 -13  319.13   10.88
   1  -5 -13  203.05    7.10
   1  -5 -13  208.10    7.06
   1  -5 -13  200.38    7.09
   0  -5 -13   45.42    1.67
   0  -5 -13   45.40    1.69
   0  -5 -13   43.05    1.64
   0   5  13   46.88    1.73
   1   6 -14   30.56    1.25
   1   6 -14   31.17    1.20
   1   6 -14   32.12    1.55
   0   6 -14   43.02    1.96
   0   6 -14   40.97    1.57
   0  -6  14   43.97    1.59
  -1   6 -14  561.65   19.70
   1  -6  14  573.96   19.41
   2   5 -14  110.68    4.18
   2   5 -14  106.88    3.88
   2   5 -14  106.53    3.80
   1   5 -14  126.00    4.94
   1   5 -14  130.59    4.52
   1   5 -14  125.86    4.59
   0   5 -14   44.12    1.80
   0   5 -14   44.90    2.15
   0   5 -14   43.58    1.71
   0   5 -14   47.02    1.72
  -1   5 -14  170.46    6.32
  -1   5 -14  171.04    5.97
  -2   5 -14    5.31    0.65
   2  -5  14    5.11    0.31
   3   4 -14    0.20    0.18
   3   4 -14    0.51    0.30
   2   4 -14  546.14   18.93
   2   4 -14  555.40   19.01
   2   4 -14  554.63   19.36
   1   4 -14   12.15    0.66
   1   4 -14   13.32    1.18
   1   4 -14   13.50    0.84
   1   4 -14   13.51    0.73
   0   4 -14   32.19    1.33
   0   4 -14   31.77    1.34
   0   4 -14   32.42    1.46
   0   4 -14   32.75    1.81
  -1   4 -14   69.49    3.00
  -1   4 -14   73.64    2.74
  -1   4 -14   73.71    2.66
  -2   4 -14   61.07    2.47
   2  -4  14   59.13    2.24
   3   3 -14  477.15   16.39
   2   3 -14  285.04    9.74
   2   3 -14  276.48    9.82
   1   3 -14   20.64    1.11
   1   3 -14   20.40    0.93
   1   3 -14   19.84    0.98
   0   3 -14  356.79   12.32
   0   3 -14  357.34   12.22
   0   3 -14  344.68   12.22
  -1   3 -14   39.06    1.54
  -1   3 -14   38.31    1.65
  -2   3 -14    5.79    0.53
   2  -3  14    5.68    0.51
   3  -3  14  101.38    3.60
   2   2 -14    7.52    0.54
   2   2 -14    8.00    0.67
   1   2 -14 1023.58   34.92
   1   2 -14 1002.29   35.34
   1   2 -14 1029.64   34.85
   1   2 -14 1017.13   34.81
   0   2 -14  125.52    4.76
   0   2 -14  132.65    4.74
   0   2 -14  129.43    4.63
   0   2 -14  131.72    4.71
   0   2 -14  131.65    4.65
   0  -2  14  124.52    4.82
  -1   2 -14    0.27    0.31
  -1   2 -14   -0.04    0.22
  -1   2 -14    0.02    0.23
  -2   2 -14   82.82    3.00
   2  -2  14   78.94    3.04
  -3   2 -14   71.03    2.75
   3  -2  14   78.08    2.72
   2   1 -14    1.21    0.27
   1   1 -14   63.58    2.38
   1   1 -14   65.43    2.42
   1   1 -14   60.05    2.51
   1   1 -14   63.44    2.49
  -1  -1  14   62.48    2.56
   0   1 -14   20.25    0.97
   0   1 -14   18.52    0.92
   0   1 -14   19.82    1.08
   0   1 -14   18.94    1.07
   0   1 -14   20.20    0.98
   0   1 -14   18.49    1.00
   0  -1  14   18.43    1.08
  -1   1 -14  720.37   24.60
  -1   1 -14  711.03   24.54
  -1   1 -14  715.98   24.66
  -1   1 -14  715.96   24.53
  -2   1 -14   25.64    1.15
   2  -1  14   25.40    1.19
  -3   1 -14    7.18    0.45
   3  -1  14    7.44    0.46
   2   0 -14    6.11    0.50
   2   0 -14    6.00    0.45
   1   0 -14  287.73    9.77
   1   0 -14  271.49    9.94
   1   0 -14  283.27    9.80
   0   0 -14  273.75    9.46
   0   0 -14  265.67    9.57
   0   0 -14  271.03    9.42
   0   0 -14  268.46    9.53
   0   0 -14  282.90    9.51
   0   0  14  261.58    9.61
  -1   0 -14   56.07    2.24
  -1   0 -14   55.20    2.08
  -1   0 -14   54.00    2.11
  -1   0 -14   54.72    2.16
  -2   0 -14    5.60    0.52
   2   0  14    5.24    0.52
  -3   0 -14  594.76   20.33
   2  -1 -14   19.78    0.88
   1  -1 -14   20.41    1.00
   1  -1 -14   21.43    0.97
   1  -1 -14   19.84    1.02
   0  -1 -14   41.85    1.69
   0  -1 -14   41.61    1.76
   0  -1 -14   41.25    1.65
  -1  -1 -14  609.22   20.48
  -1  -1 -14  585.23   20.37
  -1  -1 -14  587.28   20.39
  -1  -1 -14  591.72   20.33
  -2  -1 -14  234.77    8.16
   2  -2 -14    2.20    0.32
   2  -2 -14    2.16    0.28
   1  -2 -14   97.09    3.65
   1  -2 -14   98.06    3.59
   1  -2 -14  102.08    3.59
   0  -2 -14   96.62    3.50
   0  -2 -14   95.17    3.47
   0  -2 -14   96.52    3.57
  -1  -2 -14   82.41    3.05
  -1  -2 -14   85.71    3.14
  -2  -2 -14   23.74    0.98
   2   2  14   23.57    1.00
   2  -3 -14   34.09    1.36
   2  -3 -14   32.70    1.30
   1  -3 -14  222.53    7.67
   1  -3 -14  218.97    7.74
   1  -3 -14  219.77    7.68
   0  -3 -14    8.60    0.55
   0  -3 -14    8.18    0.59
   0  -3 -14    8.13    0.50
  -1  -3 -14  327.23   11.41
  -1  -3 -14  332.15   11.36
   2  -4 -14  271.94    9.41
   1  -4 -14   73.72    2.61
   1  -4 -14   74.42    2.61
   1  -4 -14   73.94    2.67
   1  -4 -14   68.59    2.62
   0  -4 -14    8.09    0.47
   0  -4 -14    7.69    0.42
   0  -4 -14    8.19    0.50
   0   4  14    7.47    0.46
   1   5 -15   21.39    1.20
   1   5 -15   21.80    0.89
   1   5 -15   21.61    0.97
   0   5 -15    8.09    0.46
   0   5 -15    8.86    0.57
   0   5 -15    8.86    0.47
   0   5 -15    8.79    0.78
  -1   5 -15  532.19   18.54
   1  -5  15  537.94   18.30
   2   4 -15    4.59    0.40
   2   4 -15    4.33    0.63
   2   4 -15    4.97    0.35
   1   4 -15   20.45    0.89
   1   4 -15   22.40    0.94
   1   4 -15   21.41    1.30
   1   4 -15   22.00    1.04
   0   4 -15 1005.42   33.93
   0   4 -15  980.14   33.84
   0   4 -15 1004.97   33.85
   0   4 -15  974.33   34.18
  -1   4 -15    7.58    0.45
  -1   4 -15    7.07    0.55
  -1   4 -15    7.13    0.76
   2   3 -15  387.10   13.21
   2   3 -15  376.83   13.13
   1   3 -15   36.10    1.55
   1   3 -15   36.59    1.46
   1   3 -15   35.95    1.41
   0   3 -15   21.61    0.97
   0   3 -15   21.97    0.99
   0   3 -15   23.20    1.12
  -1   3 -15   16.21    0.87
  -1   3 -15   15.43    0.74
  -2   3 -15  350.08   11.87
   2  -3  15  339.01   11.88
   2   2 -15   64.43    2.46
   2   2 -15   65.13    2.38
   1   2 -15   16.77    0.82
   1   2 -15   17.89    0.98
   1   2 -15   18.00    0.87
   0   2 -15  556.21   19.19
   0   2 -15  570.38   19.29
   0   2 -15  550.00   19.20
  -1   2 -15  358.94   12.08
  -1   2 -15  348.91   11.99
  -1   2 -15  337.22   11.98
   1  -2  15  346.36   12.08
  -2   2 -15    8.32    0.54
   2  -2  15    7.22    0.50
   2   1 -15    1.74    0.27
   1   1 -15  374.32   12.99
   1   1 -15  381.22   13.08
   1   1 -15  373.92   13.01
   0   1 -15  174.96    6.21
   0   1 -15  169.18    6.25
   0   1 -15  181.89    6.29
   0   1 -15  177.92    6.19
  -1   1 -15  160.63    5.73
  -1   1 -15  164.24    5.73
  -1   1 -15  165.24    5.81
  -1   1 -15  163.46    5.84
  -2   1 -15  296.26   10.25
   2  -1  15  296.60   10.30
   2   0 -15  534.05   18.12
   2   0 -15  522.56   18.10
   1   0 -15   53.82    2.03
   1   0 -15   51.72    1.99
   0   0 -15   16.63    0.92
   0   0 -15   17.42    0.82
   0   0 -15   16.47    0.89
   0   0 -15   16.60    0.84
  -1   0 -15  590.67   20.87
  -1   0 -15  628.34   20.99
  -1   0 -15  607.88   20.86
  -1   0 -15  610.48   20.92
  -2   0 -15  165.04    5.81
   2   0  15  166.94    5.86
   2  -1 -15   14.66    0.67
   1  -1 -15   10.11    0.65
   1  -1 -15   10.67    0.59
   1  -1 -15   10.44    0.62
   0  -1 -15  175.06    6.14
   0  -1 -15  175.46    6.24
   0  -1 -15  175.46    6.17
  -1  -1 -15   21.38    0.99
  -1  -1 -15   20.20    0.93
  -1  -1 -15   19.87    0.85
  -1  -1 -15   20.58    0.89
  -2  -1 -15   20.98    0.89
   2   1  15   21.53    0.91
   2  -2 -15  476.79   16.39
   2  -2 -15  477.79   16.34
   1  -2 -15  267.96    9.25
   1  -2 -15  268.22    9.31
   1  -2 -15  265.03    9.24
   0  -2 -15    1.39    0.29
   0  -2 -15    0.99    0.22
   0  -2 -15    1.73    0.27
  -1  -2 -15    2.07    0.29
  -1  -2 -15    2.08    0.25
   2  -3 -15   40.03    1.52
   2  -3 -15   40.12    1.47
   1  -3 -15   50.74    1.84
   1  -3 -15   49.78    1.84
   1  -3 -15   49.17    1.90
   0  -3 -15  408.57   13.58
   0  -3 -15  397.06   13.63
   0  -3 -15  381.13   13.55
   1   4 -16   44.07    1.66
   1   4 -16   46.49    1.69
   1   4 -16   46.93    1.76
   0   4 -16  176.21    6.04
   0   4 -16  178.74    6.11
   0   4 -16  167.67    6.03
  -1   4 -16  377.77   12.93
   2   3 -16    3.24    0.32
   2   3 -16    3.71    0.29
   1   3 -16    2.31    0.28
   1   3 -16    2.60    0.35
   1   3 -16    2.37    0.24
   0   3 -16  753.26   25.61
   0   3 -16  733.94   25.61
   0   3 -16  761.77   25.69
  -1   3 -16    1.73    0.22
  -1   3 -16    1.65    0.28
   2   2 -16   92.68    3.32
   2   2 -16   95.08    3.37
   1   2 -16  275.31    9.51
   1   2 -16  280.06    9.60
   1   2 -16  271.47    9.53
   0   2 -16    9.49    0.54
   0   2 -16    8.55    0.51
   0   2 -16    9.03    0.66
  -1   2 -16    1.31    0.21
  -1   2 -16    1.70    0.30
   1  -2  16    1.36    0.23
   2   1 -16   49.85    1.83
   1   1 -16  110.66    3.99
   1   1 -16  112.31    3.95
   1   1 -16  109.14    3.92
   0   1 -16  129.60    4.63
   0   1 -16  131.45    4.62
   0   1 -16  131.78    4.68
  -1   1 -16   76.38    2.69
  -1   1 -16   73.54    2.69
  -1   1 -16   74.95    2.76
   1  -1  16   76.31    2.77
   2   0 -16  266.95    9.20
   1   0 -16  472.65   16.12
   1   0 -16  466.23   16.10
   0   0 -16   49.55    1.82
   0   0 -16   47.10    1.88
   0   0 -16   49.50    1.88
   0   0 -16   49.11    1.84
  -1   0 -16    1.21    0.20
  -1   0 -16    0.75    0.24
  -1   0 -16    1.12    0.18
   2  -1 -16  408.67   13.98
   1  -1 -16    4.65    0.39
   1  -1 -16    5.13    0.37
   1  -1 -16    4.52    0.40
   0  -1 -16  436.26   15.11
   0  -1 -16  450.85   15.13
   0  -1 -16  435.65   15.18
  -1  -1 -16  147.74    5.13
   1  -2 -16   75.37    2.76
   1  -2 -16   77.66    2.71
   1  -2 -16   75.21    2.71
   0  -2 -16  591.75   20.29
   0  -2 -16  586.52   20.22
   0  -2 -16  598.29   20.24
   0   3 -17  684.73   23.66
   0   3 -17  694.14   23.57
   1   2 -17  392.06   13.59
   1   2 -17  394.08   13.61
   1   2 -17  405.76   13.85
   0   2 -17  100.21    3.60
   0   2 -17  104.25    3.60
   0   2 -17  103.37    3.65
   1   1 -17  367.04   12.85
   1   1 -17  383.32   12.87
   0   1 -17   74.27    2.64
   0   1 -17   74.14    2.68
   0   1 -17   74.22    2.63
   1   0 -17   51.14    1.83
   1   0 -17   50.48    1.84
   0   0 -17  148.60    5.09
   0   0 -17  144.32    5.07
 _exptl_absorpt_process_details 'SADABS 2014/4'
 _exptl_absorpt_correction_type   multiscan
 _exptl_absorpt_correction_T_max  0.7534
 _exptl_absorpt_correction_T_min  0.5699
 _exptl_special_details
)
 The following wavelength and cell were deduced by SADABS from the
 direction cosines etc. They are given here for emergency use only:
 CELL 1.54195    5.050    8.047   14.196   96.873   95.106   96.305
)
_computing_structure_solution     'SHELXT 2014/4 (Sheldrick, 2014)'
;
_shelx_hkl_checksum              52401
_shelx_res_file
;
TITL fox1669_1b_0m_a.res in P-1
    fox1669_1b_x.res
    created by SHELXL-2016/6 at 10:57:14 on 31-Aug-2017
CELL  1.54178   5.0506   8.0441  14.1954   96.877   95.134   96.306
ZERR    2.000   0.0002   0.0003   0.0005    0.001    0.002    0.001
LATT 1
SFAC C  H  N  O  S
UNIT 20  18  6  6  4
LIST 6 ! automatically inserted. Change 6 to 4 for CHECKCIF!!
L.S. 10
ACTA
BOND $H
FMAP -2
PLAN 10
SIZE 0.030 0.075 0.928
htab
EQIV $1 -x+2, -y+1, -z+1
HTAB C11 O41_$1
EQIV $2 x-1, y, z-1
HTAB C11 O41_$2
EQIV $3 -x+1, -y+1, -z+1
HTAB C11 O42_$3
EQIV $4 x-1, y, z
HTAB N3 O5_$4
WGHT    0.037800    0.327700
EXTI    0.010863
FVAR       1.02149
C1    1    0.951944    0.831136    0.238982    11.00000    0.01146    0.01064 =
         0.00997    0.00150    0.00226    0.00358
C4    1    1.237974    0.796577    0.463384    11.00000    0.01255    0.00976 =
         0.01006   -0.00039    0.00017    0.00186
C11   1    0.624561    0.674884    0.092032    11.00000    0.01881    0.01453 =
         0.00780    0.00020   -0.00265    0.00193
AFIX  23
H11A  2    0.724453    0.584755    0.068911    11.00000   -1.20000
H11B  2    0.439253    0.646726    0.065250    11.00000   -1.20000
AFIX   0
C21   1    0.740787    0.840322    0.062356    11.00000    0.01376    0.01582 =
         0.00863    0.00148   -0.00089    0.00312
AFIX  23
H21A  2    0.619648    0.924802    0.072605    11.00000   -1.20000
H21B  2    0.768383    0.825242   -0.004732    11.00000   -1.20000
AFIX   0
C41   1    1.167517    0.761734    0.560091    11.00000    0.01258    0.01012 =
         0.00967    0.00150    0.00111    0.00551
C42   1    1.355928    0.829852    0.636919    11.00000    0.01167    0.01195 =
         0.01291    0.00161    0.00078    0.00140
AFIX  43
H42   2    1.510037    0.896660    0.626419    11.00000   -1.20000
AFIX   0
C43   1    1.314643    0.798548    0.728379    11.00000    0.01419    0.01249 =
         0.01043   -0.00062   -0.00199    0.00225
AFIX  43
H43   2    1.438497    0.844206    0.779928    11.00000   -1.20000
AFIX   0
C44   1    1.084116    0.697440    0.741343    11.00000    0.01647    0.01010 =
         0.00808    0.00191    0.00247    0.00517
C45   1    0.893238    0.627545    0.667157    11.00000    0.01273    0.01105 =
         0.01303    0.00221    0.00233    0.00197
AFIX  43
H45   2    0.741234    0.559278    0.678181    11.00000   -1.20000
AFIX   0
C46   1    0.934938    0.662202    0.575550    11.00000    0.01255    0.01155 =
         0.00999   -0.00033   -0.00121    0.00303
AFIX  43
H46   2    0.807768    0.619030    0.524546    11.00000   -1.20000
AFIX   0
N2    3    1.107949    0.878008    0.315827    11.00000    0.01226    0.01516 =
         0.00872    0.00301    0.00096    0.00176
N3    3    1.033481    0.814329    0.398254    11.00000    0.00979    0.01604 =
         0.00807    0.00271    0.00194    0.00175
H3    2    0.880555    0.814923    0.411800    11.00000   -1.20000
N4    3    1.041723    0.664660    0.838936    11.00000    0.01953    0.01182 =
         0.01066    0.00185    0.00185    0.00347
O5    4    1.472522    0.808282    0.445883    11.00000    0.01143    0.02586 =
         0.01219    0.00499    0.00202    0.00501
O41   4    1.216620    0.723007    0.903823    11.00000    0.02324    0.01964 =
         0.00918    0.00167   -0.00308    0.00245
O42   4    0.832526    0.581723    0.851713    11.00000    0.02566    0.02839 =
         0.01465    0.00478    0.00555   -0.00850
S1    5    0.646087    0.699322    0.221651    11.00000    0.01357    0.01487 =
         0.00805    0.00199   -0.00096   -0.00273
S2    5    1.057288    0.906213    0.134828    11.00000    0.01201    0.01869 =
         0.00858    0.00433    0.00076    0.00005
HKLF 4
REM  fox1669_1b_0m_a.res in P-1
REM R1 =  0.0263 for    2013 Fo > 4sig(Fo)  and  0.0265 for all    2044 data
REM    167 parameters refined using      0 restraints
END
WGHT      0.0378      0.3277
REM Instructions for potential hydrogen bonds
HTAB C11 O41_$1
HTAB C11 O41_$2
HTAB C11 O42_$3
HTAB N3 O5_$4
REM Highest difference peak  0.351,  deepest hole -0.336,  1-sigma level  0.081
Q1    1   1.2561  0.8637  0.1207  11.00000  0.05    0.35
Q2    1   1.1419  0.8003  0.1199  11.00000  0.05    0.34
Q3    1   0.9523  0.6191  0.7844  11.00000  0.05   -0.34
Q4    1   0.8298  0.7482  0.2285  11.00000  0.05    0.31
Q5    1   0.5993  0.7399  0.0255  11.00000  0.05   -0.30
Q6    1   0.4205  0.6475  0.0390  11.00000  0.05   -0.29
Q7    1   1.4508  0.8684  0.6877  11.00000  0.05   -0.28
Q8    1   0.5412  0.6364  0.1866  11.00000  0.05   -0.28
Q9    1   1.0864  0.6861  0.5649  11.00000  0.05    0.28
Q10   1   1.1697  0.7039  0.8180  11.00000  0.05   -0.28
;
_shelx_res_checksum              82807
loop_
_space_group_symop_operation_xyz
'x, y, z'
'-x, -y, -z'
loop_
_atom_site_type_symbol
_atom_site_label
_atom_site_fract_x
_atom_site_fract_y
_atom_site_fract_z
_atom_site_U_iso_or_equiv
_atom_site_adp_type
_atom_site_calc_flag
_atom_site_occupancy
C C1 0.9519(3) 0.83114(17) 0.23898(10) 0.0104(3) Uani d 1
C C4 1.2380(3) 0.79658(17) 0.46338(10) 0.0110(3) Uani d 1
C C11 0.6246(3) 0.67488(18) 0.09203(10) 0.0141(3) Uani d 1
H H11A 0.724453 0.584755 0.068911 0.017 Uiso calc 1
H H11B 0.439253 0.646726 0.065250 0.017 Uiso calc 1
C C21 0.7408(3) 0.84032(18) 0.06236(10) 0.0128(3) Uani d 1
H H21A 0.619648 0.924802 0.072605 0.015 Uiso calc 1
H H21B 0.768383 0.825242 -0.004732 0.015 Uiso calc 1
C C41 1.1675(3) 0.76173(17) 0.56009(10) 0.0105(3) Uani d 1
C C42 1.3559(3) 0.82985(18) 0.63692(10) 0.0122(3) Uani d 1
H H42 1.510037 0.896660 0.626419 0.015 Uiso calc 1
C C43 1.3146(3) 0.79855(18) 0.72838(10) 0.0127(3) Uani d 1
H H43 1.438497 0.844206 0.779928 0.015 Uiso calc 1
C C44 1.0841(3) 0.69744(17) 0.74134(10) 0.0111(3) Uani d 1
C C45 0.8932(3) 0.62754(17) 0.66716(10) 0.0121(3) Uani d 1
H H45 0.741234 0.559278 0.678181 0.015 Uiso calc 1
C C46 0.9349(3) 0.66220(17) 0.57555(10) 0.0115(3) Uani d 1
H H46 0.807768 0.619030 0.524546 0.014 Uiso calc 1
N N2 1.1079(2) 0.87801(15) 0.31583(8) 0.0119(3) Uani d 1
N N3 1.0335(2) 0.81433(15) 0.39825(8) 0.0111(3) Uani d 1
H H3 0.881(4) 0.815(2) 0.4118(13) 0.013 Uiso d 1
N N4 1.0417(3) 0.66466(15) 0.83894(9) 0.0138(3) Uani d 1
O O5 1.4725(2) 0.80828(14) 0.44588(7) 0.0160(2) Uani d 1
O O41 1.2166(2) 0.72301(13) 0.90382(7) 0.0177(2) Uani d 1
O O42 0.8325(2) 0.58172(15) 0.85171(8) 0.0234(3) Uani d 1
S S1 0.64609(7) 0.69932(4) 0.22165(2) 0.01259(13) Uani d 1
S S2 1.05729(7) 0.90621(4) 0.13483(2) 0.01304(13) Uani d 1
loop_
_atom_site_aniso_label
_atom_site_aniso_U_11
_atom_site_aniso_U_22
_atom_site_aniso_U_33
_atom_site_aniso_U_12
_atom_site_aniso_U_13
_atom_site_aniso_U_23
C1 0.0115(7) 0.0106(6) 0.0100(6) 0.0036(5) 0.0023(5) 0.0015(5)
C4 0.0125(7) 0.0098(6) 0.0101(7) 0.0019(5) 0.0002(5) -0.0004(5)
C11 0.0188(7) 0.0145(7) 0.0078(6) 0.0019(6) -0.0026(6) 0.0002(5)
C21 0.0138(7) 0.0158(7) 0.0086(6) 0.0031(6) -0.0009(6) 0.0015(5)
C41 0.0126(7) 0.0101(6) 0.0097(6) 0.0055(5) 0.0011(5) 0.0015(5)
C42 0.0117(7) 0.0120(7) 0.0129(7) 0.0014(5) 0.0008(6) 0.0016(5)
C43 0.0142(7) 0.0125(7) 0.0104(7) 0.0023(5) -0.0020(6) -0.0006(5)
C44 0.0165(7) 0.0101(6) 0.0081(6) 0.0052(5) 0.0025(6) 0.0019(5)
C45 0.0127(7) 0.0110(7) 0.0130(7) 0.0020(5) 0.0023(6) 0.0022(5)
C46 0.0125(7) 0.0116(6) 0.0100(7) 0.0030(5) -0.0012(5) -0.0003(5)
N2 0.0123(6) 0.0152(6) 0.0087(6) 0.0018(5) 0.0010(5) 0.0030(4)
N3 0.0098(6) 0.0160(6) 0.0081(6) 0.0018(5) 0.0019(5) 0.0027(4)
N4 0.0195(6) 0.0118(6) 0.0107(6) 0.0035(5) 0.0018(5) 0.0018(5)
O5 0.0114(5) 0.0259(6) 0.0122(5) 0.0050(4) 0.0020(4) 0.0050(4)
O41 0.0232(6) 0.0196(5) 0.0092(5) 0.0024(4) -0.0031(4) 0.0017(4)
O42 0.0257(6) 0.0284(6) 0.0147(5) -0.0085(5) 0.0055(5) 0.0048(4)
S1 0.0136(2) 0.0149(2) 0.00805(19) -0.00273(14) -0.00096(14) 0.00199(13)
S2 0.0120(2) 0.0187(2) 0.00858(19) 0.00005(14) 0.00076(14) 0.00433(13)
loop_
_atom_type_symbol
_atom_type_description
_atom_type_scat_dispersion_real
_atom_type_scat_dispersion_imag
_atom_type_scat_source
C C 0.0181 0.0091 'International Tables Vol C Tables 4.2.6.8 and 6.1.1.4'
H H 0.0000 0.0000 'International Tables Vol C Tables 4.2.6.8 and 6.1.1.4'
N N 0.0311 0.0180 'International Tables Vol C Tables 4.2.6.8 and 6.1.1.4'
O O 0.0492 0.0322 'International Tables Vol C Tables 4.2.6.8 and 6.1.1.4'
S S 0.3331 0.5567 'International Tables Vol C Tables 4.2.6.8 and 6.1.1.4'
loop_
_geom_angle_atom_site_label_1
_geom_angle_atom_site_label_2
_geom_angle_atom_site_label_3
_geom_angle
N2 C1 S1 128.98(11)
N2 C1 S2 116.29(11)
S1 C1 S2 114.73(8)
O5 C4 N3 122.70(13)
O5 C4 C41 120.21(12)
N3 C4 C41 117.10(12)
C21 C11 S1 108.04(9)
C21 C11 H11A 110.1
S1 C11 H11A 110.1
C21 C11 H11B 110.1
S1 C11 H11B 110.1
H11A C11 H11B 108.4
C11 C21 S2 107.18(9)
C11 C21 H21A 110.3
S2 C21 H21A 110.3
C11 C21 H21B 110.3
S2 C21 H21B 110.3
H21A C21 H21B 108.5
C46 C41 C42 120.04(13)
C46 C41 C4 123.86(12)
C42 C41 C4 116.06(13)
C43 C42 C41 120.38(14)
C43 C42 H42 119.8
C41 C42 H42 119.8
C42 C43 C44 118.29(13)
C42 C43 H43 120.9
C44 C43 H43 120.9
C45 C44 C43 123.04(13)
C45 C44 N4 119.01(13)
C43 C44 N4 117.95(12)
C44 C45 C46 118.14(13)
C44 C45 H45 120.9
C46 C45 H45 120.9
C45 C46 C41 120.09(13)
C45 C46 H46 120.0
C41 C46 H46 120.0
C1 N2 N3 117.14(12)
C4 N3 N2 115.61(12)
C4 N3 H3 122.1(13)
N2 N3 H3 120.0(13)
O42 N4 O41 123.18(12)
O42 N4 C44 118.42(12)
O41 N4 C44 118.40(12)
C1 S1 C11 95.16(7)
C1 S2 C21 95.48(7)
loop_
_geom_bond_atom_site_label_1
_geom_bond_atom_site_label_2
_geom_bond_distance
C1 N2 1.2788(19)
C1 S1 1.7552(14)
C1 S2 1.7657(14)
C4 O5 1.2279(18)
C4 N3 1.3546(18)
C4 C41 1.4991(19)
C11 C21 1.517(2)
C11 S1 1.8190(14)
C11 H11A 0.9700
C11 H11B 0.9700
C21 S2 1.8121(14)
C21 H21A 0.9700
C21 H21B 0.9700
C41 C46 1.397(2)
C41 C42 1.397(2)
C42 C43 1.381(2)
C42 H42 0.9300
C43 C44 1.385(2)
C43 H43 0.9300
C44 C45 1.383(2)
C44 N4 1.4706(18)
C45 C46 1.391(2)
C45 H45 0.9300
C46 H46 0.9300
N2 N3 1.3975(17)
N3 H3 0.81(2)
N4 O42 1.2259(17)
N4 O41 1.2283(16)
loop_
_geom_hbond_atom_site_label_D
_geom_hbond_atom_site_label_H
_geom_hbond_atom_site_label_A
_geom_hbond_site_symmetry_A
_geom_hbond_distance_DH
_geom_hbond_distance_HA
_geom_hbond_distance_DA
_geom_hbond_angle_DHA
N3 H3 O5 1_455 0.81(2) 2.16(2) 2.9676(16) 178.2(18)
