#------------------------------------------------------------------------------
#$Date: 2019-12-25 22:16:41 +0200 (Wed, 25 Dec 2019) $
#$Revision: 245862 $
#$URL: file:///home/coder/svn-repositories/cod/cif/2/31/14/2311409.cif $
#------------------------------------------------------------------------------
#
# This file is available in the Crystallography Open Database (COD),
# http://www.crystallography.net/. The original data for this entry
# were provided by IUCr Journals, http://journals.iucr.org/.
#
# The file may be used within the scientific community so long as
# proper attribution is given to the journal article from which the
# data were obtained.
#
data_2311409
loop_
_publ_author_name
'Kang, Linda'
'Lynch, Genevieve'
'Lynch, Will'
'Padgett, Clifford'
_publ_section_title
;
 Manganese(II) chloride complexes with pyridine <i>N</i>-oxide (PNO)
 derivatives and their solid-state structures.
;
_journal_issue                   'Pt 10'
_journal_name_full
'Acta crystallographica. Section E, Crystallographic communications'
_journal_page_first              1434
_journal_page_last               1438
_journal_paper_doi               10.1107/S2056989017012038
_journal_volume                  73
_journal_year                    2017
_chemical_formula_iupac          '[Mn2 Cl4 (C6 H7 N O)2 (H2 O)4]'
_chemical_formula_moiety         'C12 H22 Cl4 Mn2 N2 O6'
_chemical_formula_sum            'C12 H22 Cl4 Mn2 N2 O6'
_chemical_formula_weight         541.99
_chemical_name_systematic
'Bis(\m-3-methylpyridine <i>N</i>-oxide)bis[diaquadichloridomanganese(II)]'
_space_group_crystal_system      triclinic
_space_group_IT_number           2
_space_group_name_Hall           '-P 1'
_space_group_name_H-M_alt        'P -1'
_atom_sites_solution_hydrogens   mixed
_atom_sites_solution_primary     dual
_audit_creation_method
;
Olex2 1.2
(compiled 2017.03.28 svn.r3405 for OlexSys, GUI svn.r5337)
;
_cell_angle_alpha                98.0330(10)
_cell_angle_beta                 99.272(7)
_cell_angle_gamma                113.634(11)
_cell_formula_units_Z            1
_cell_length_a                   7.902(7)
_cell_length_b                   8.026(7)
_cell_length_c                   9.893(8)
_cell_measurement_reflns_used    5886
_cell_measurement_temperature    173(2)
_cell_measurement_theta_max      27.5
_cell_measurement_theta_min      2.8
_cell_volume                     552.6(8)
_computing_cell_refinement
;
CrystalClearSM Expert (Rigaku, 2011)
;
_computing_data_collection
;
CrystalClearSM Expert (Rigaku, 2011)
;
_computing_data_reduction
;
CrystalClearSM Expert (Rigaku, 2011)
;
_computing_molecular_graphics
;
<i>OLEX2</i> (Dolomanov <i>et al.</i>,  2009)
;
_computing_publication_material
;
<i>OLEX2</i> (Dolomanov <i>et al.</i>,  2009)
;
_computing_structure_refinement
;
SHELXL2017 (Sheldrick, 2015<i>b</i>)
;
_computing_structure_solution
;
SHELXT (Sheldrick, 2015<i>a</i>)
;
_diffrn_ambient_temperature      173
_diffrn_measured_fraction_theta_full 0.997
_diffrn_measured_fraction_theta_max 0.987
_diffrn_measurement_device_type  'Rigaku XtalLab mini CCD'
_diffrn_measurement_method       '\w scans'
_diffrn_radiation_type           MoK\a
_diffrn_radiation_wavelength     0.71073
_diffrn_reflns_av_R_equivalents  0.0724
_diffrn_reflns_limit_h_max       10
_diffrn_reflns_limit_h_min       -10
_diffrn_reflns_limit_k_max       10
_diffrn_reflns_limit_k_min       -10
_diffrn_reflns_limit_l_max       12
_diffrn_reflns_limit_l_min       -12
_diffrn_reflns_number            5837
_diffrn_reflns_theta_full        25.242
_diffrn_reflns_theta_max         27.623
_diffrn_reflns_theta_min         2.844
_diffrn_standards_number         0
_exptl_absorpt_coefficient_mu    1.654
_exptl_absorpt_correction_T_max  0.630
_exptl_absorpt_correction_T_min  0.482
_exptl_absorpt_correction_type   multi-scan
_exptl_absorpt_process_details
;
(REQAB; Rigaku, 1998)
;
_exptl_crystal_colour            'clear brown'
_exptl_crystal_density_diffrn    1.629
_exptl_crystal_density_method    "'not measured"
_exptl_crystal_description       Prism
_exptl_crystal_F_000             274
_exptl_crystal_size_max          0.85
_exptl_crystal_size_mid          0.5
_exptl_crystal_size_min          0.275
_refine_diff_density_max         0.562
_refine_diff_density_min         -0.414
_refine_ls_extinction_method     none
_refine_ls_goodness_of_fit_ref   1.070
_refine_ls_hydrogen_treatment    mixed
_refine_ls_matrix_type           full
_refine_ls_number_parameters     135
_refine_ls_number_reflns         2553
_refine_ls_number_restraints     4
_refine_ls_restrained_S_all      1.073
_refine_ls_R_factor_all          0.0330
_refine_ls_R_factor_gt           0.0313
_refine_ls_shift/su_max          0.000
_refine_ls_shift/su_mean         0.000
_refine_ls_structure_factor_coef Fsqd
_refine_ls_weighting_details
'w=1/[\s^2^(Fo^2^)+(0.0310P)^2^+0.0230P] where P=(Fo^2^+2Fc^2^)/3'
_refine_ls_weighting_scheme      calc
_refine_ls_wR_factor_gt          0.0852
_refine_ls_wR_factor_ref         0.0871
_reflns_number_gt                2375
_reflns_number_total             2553
_reflns_threshold_expression     'I > 2\s(I)'
_cod_data_source_file            zl2709sup1.cif
_cod_data_source_block           III
_cod_database_code               2311409
_shelx_space_group_comment
;
The symmetry employed for this shelxl refinement is uniquely defined
by the following loop, which should always be used as a source of
symmetry information in preference to the above space-group names.
They are only intended as comments.
;
_shelx_estimated_absorpt_t_min   0.334
_shelx_estimated_absorpt_t_max   0.659
_shelx_hkl_file
;
   0   0  -2 1943.79   21.99
   0   0  -2 1670.26   19.28
   0   0   2 1734.12   23.86
   0   0  -3    2.45    0.50
   0   0  -3    2.44    0.60
   0   0   3    4.21    0.78
   0   0  -4  377.10    5.67
   0   0  -4  321.13    5.18
   0   0   4  339.38    5.82
   0   0  -5   57.17    2.92
   0   0  -5   45.86    3.01
   0   0   5   52.76    3.02
   0   0  -6  613.03   17.10
   0   0  -6  517.29   14.68
   0   0   6  576.18   16.64
   0   0  -7   26.47    2.27
   0   0  -7   22.86    4.52
   0   0   7   22.45    2.28
   0   0  -8  808.84   20.81
   0   0  -8  674.41   17.33
   0   0   8  804.16   20.81
   0   0  -9    0.83    1.05
   0   0  -9    0.38    0.96
   0   0   9    0.39    1.46
   0   0 -10   69.97    7.18
   0   0 -10   65.71    9.99
   0   0  10   75.20    6.82
   0   0 -11  222.28   25.84
   0   0  11  288.47   34.91
   0   0  12   27.49    3.86
   0   1 -12   33.40    3.11
   0  -1  12   47.90    4.75
   0   1 -11  382.18   44.12
   0  -1  11  484.30   55.88
   0   1 -10  718.14   51.45
   0  -1  10  897.27   64.72
   0   1  -9    9.19    1.62
   0   1  -9    9.73    2.30
   0  -1   9    5.42    1.58
   0   1  -8   16.23    2.77
   0   1  -8   15.50    4.21
   0  -1   8   16.56    2.60
   0   1  -7  873.09   24.21
   0   1  -7  786.05   24.02
   0  -1   7  919.45   26.70
   0   1  -6  688.54   18.69
   0   1  -6  633.82   18.02
   0  -1   6  671.99   19.16
   0   1  -5    0.61    0.35
   0   1  -5   -0.58    0.82
   0  -1   5   -0.25    0.75
   0   1  -4  533.22    6.74
   0   1  -4  488.17    7.32
   0  -1   4  517.79    7.80
   0   1  -3  253.10    3.27
   0   1  -3  224.20    3.90
   0  -1   3  246.68    4.25
   0   1  -2  381.92    7.05
   0  -1   2  405.58    6.54
   0  -1   1 5459.14   89.57
   0  -1   0 3084.82   34.08
   0   1   0 2814.60   30.79
   0  -1   0 2359.96   43.75
   0  -1  -1 3414.73   38.16
   0   1   1 2508.81   28.19
   0  -1  -2  133.58    2.86
   0  -1  -2  104.76    1.68
   0   1   2  108.03    3.23
   0  -1  -3 6488.68   72.47
   0  -1  -3 4930.02   54.57
   0   1   3 5554.32   62.63
   0  -1  -4 3737.17   43.54
   0  -1  -4 2891.17   33.07
   0   1   4 3344.06   39.38
   0  -1  -5 3072.41   86.93
   0  -1  -5 2375.48   67.07
   0   1   5 2836.45   80.70
   0  -1  -6  563.44   16.24
   0  -1  -6  431.87   12.29
   0   1   6  524.71   16.24
   0  -1  -7  104.70    8.07
   0  -1  -7   85.43    6.50
   0   1   7  102.22    8.12
   0  -1  -8   82.58    7.48
   0  -1  -8   62.76   10.17
   0   1   8   78.27    7.34
   0  -1  -9   11.44    2.19
   0  -1  -9    9.09    1.60
   0   1   9    9.36    2.30
   0  -1 -10   95.12   13.35
   0  -1 -10   65.95    2.76
   0   1  10   94.99   12.50
   0  -1 -11   36.77    2.81
   0   1  11   38.68    3.57
   0   1  12   31.06    4.23
   0   2 -12    4.10    1.94
   0  -2  12    8.61    3.07
   0   2 -11   69.76   14.38
   0  -2  11   83.44   10.55
   0   2 -10  218.50   19.69
   0  -2  10  247.22   18.99
   0   2  -9   85.78    9.40
   0  -2   9   89.40    9.51
   0   2  -8  821.71   42.90
   0  -2   8  906.28   23.83
   0   2  -7 2235.87   60.19
   0   2  -7 2372.95   66.23
   0  -2   7 2508.17   74.60
   0   2  -6 2785.39   72.69
   0   2  -6 2787.58   74.96
   0  -2   6 3054.65   81.54
   0   2  -5  681.07   19.15
   0   2  -5  675.06   20.60
   0  -2   5  723.11   21.56
   0   2  -4   26.70    5.04
   0  -2   4   29.68    1.77
   0   2  -3  641.76    9.74
   0  -2   3  693.88    9.49
   0  -2   2  457.23    5.47
   0   2  -2  436.52    6.26
   0  -2   2  439.34    6.33
   0  -2   1  418.39    5.42
   0   2  -1  411.04    5.74
   0  -2   1  376.04    5.43
   0  -2   0   96.85    2.11
   0  -2   0   97.55    1.80
   0  -2   0   79.20    1.94
   0  -2  -1   19.58    1.12
   0  -2  -1   21.57    0.66
   0   2   1   15.81    1.18
   0  -2  -2  106.12    2.75
   0   2   2   81.46    2.33
   0  -2  -3    3.90    0.81
   0  -2  -3    4.69    0.41
   0   2   3    7.13    2.14
   0  -2  -4 2605.05   74.16
   0  -2  -4 1687.24   47.51
   0   2   4 2152.95   62.55
   0  -2  -5 3852.25  102.18
   0  -2  -5 2341.54   61.51
   0   2   5 3283.25   87.46
   0  -2  -6  597.74   16.86
   0   2   6  883.87   26.27
   0  -2  -7  537.55   14.56
   0  -2  -8  595.87   40.17
   0  -2  -8  338.59   22.76
   0   2   8  568.56   38.79
   0  -2  -9  165.22   13.05
   0   2   9  170.59   13.74
   0  -2 -11   24.56    3.09
   0   2  11   28.40    3.47
   0   3 -12   10.55    2.81
   0  -3  12   15.62    2.97
   0   3 -11   74.55   14.20
   0  -3  11   81.50   10.30
   0   3 -10   78.26   14.10
   0  -3  10   86.06    8.73
   0   3  -9    4.76    1.49
   0  -3   9    4.28    1.69
   0   3  -8   14.38    3.53
   0  -3   8    9.51    2.02
   0   3  -7  325.45   15.36
   0  -3   7  360.77   16.68
   0   3  -6 1599.16   44.89
   0  -3   6 1714.04   46.51
   0   3  -5 2858.93   81.96
   0  -3   5 3022.38   86.29
   0   3  -4 1221.69   35.33
   0  -3   4 1222.18   35.95
   0  -3   3 3474.70   38.37
   0   3  -3 3375.00   40.03
   0  -3   3 3389.95   39.48
   0  -3   2 6256.12   68.92
   0   3  -2 6177.58   69.70
   0  -3   2 5688.89   64.70
   0  -3   1  207.44    3.64
   0   3  -1  202.16    3.66
   0  -3   1  172.87    3.67
   0  -3   0   19.32    1.26
   0  -3   0   14.46    1.26
   0  -3  -1  436.83    6.98
   0  -3  -1  432.54    5.65
   0   3   1  325.39    7.70
   0  -3  -2    9.94    1.33
   0  -3  -2    9.67    0.63
   0   3   2    7.15    2.10
   0  -3  -3   11.01    1.65
   0   3   3    7.72    2.17
   0  -3  -4  543.27   16.02
   0   3   4  444.98   14.27
   0  -3  -5  338.74   10.94
   0   3   5  283.72    9.34
   0  -3  -6   14.10    2.26
   0   3   6   12.98    2.02
   0  -3  -7  125.83   12.69
   0   3   7  108.61   11.06
   0  -3  -8  186.93   14.28
   0   3   8  167.96   14.68
   0  -3  -9  579.93   11.72
   0   3   9  535.80   66.30
   0  -3 -10   77.73    8.64
   0   3  10   81.61    9.20
   0   4 -12   78.25   13.19
   0  -4  12   88.29   14.79
   0   4 -11   26.67    6.96
   0  -4  11   29.86    7.39
   0   4 -10   27.53    6.74
   0  -4  10   27.61    4.14
   0   4  -9   18.18    4.30
   0  -4   9   20.28    4.79
   0   4  -8   -0.59    1.55
   0  -4   8    1.67    1.76
   0   4  -7   48.72    9.76
   0  -4   7   48.32    5.18
   0   4  -6  605.45   18.18
   0  -4   6  615.66   18.42
   0   4  -5  108.75    6.07
   0  -4   5  106.70    6.17
   0   4  -4    3.25    1.30
   0  -4   4    4.37    0.96
   0  -4   3  696.26   20.10
   0   4  -3  705.41   22.02
   0  -4   3  637.18   19.08
   0  -4   2 1775.98   50.33
   0   4  -2 1803.77   51.52
   0  -4   2 1563.16   45.01
   0  -4   1 5769.89  162.37
   0   4  -1 5633.10  186.00
   0  -4   1 4855.78  136.54
   0  -4   0  758.19   22.30
   0   4   0  724.19   21.31
   0  -4   0  603.33   18.12
   0  -4  -1 1209.15   35.08
   0   4   1  930.10   27.56
   0  -4  -2 1202.49   33.00
   0  -4  -2 1081.29   28.52
   0   4   2  908.25   26.04
   0  -4  -3  478.55   14.65
   0   4   3  375.79   11.87
   0  -4  -4  280.40   13.46
   0   4   4  220.83   11.31
   0  -4  -5  577.68   15.72
   0   4   5  504.25   14.22
   0  -4  -6   27.50    5.15
   0   4   6   23.62    5.53
   0  -4  -7    1.06    1.33
   0   4   7    2.82    2.02
   0  -4  -8  147.56   18.87
   0   4   8  134.10   17.25
   0  -4  -9   63.79    4.17
   0   4   9   55.28   12.17
   0  -4 -10   41.84    8.98
   0   4  10   40.29    8.49
   0  -5  12  278.97   53.14
   0   5 -11  150.86   16.47
   0  -5  11  153.34   16.02
   0   5 -10   34.65    8.73
   0  -5  10   34.25   10.20
   0   5  -9   64.73   13.61
   0  -5   9   57.75    7.54
   0   5  -8   66.97   12.21
   0  -5   8   64.53    7.35
   0   5  -7  176.42   11.67
   0  -5   7  182.07   10.08
   0   5  -6  999.74   29.16
   0  -5   6  939.47   24.13
   0   5  -5  338.30   15.70
   0  -5   5  314.67   16.44
   0  -5   4  444.49   12.79
   0   5  -4  464.24   16.88
   0  -5   4  438.39   13.54
   0  -5   3    1.97    0.56
   0   5  -3    0.42    0.65
   0  -5   3    0.86    0.74
   0  -5   2  293.97   14.09
   0   5  -2  292.86   14.86
   0  -5   2  264.00   13.05
   0  -5   1  258.12   12.55
   0   5  -1  263.98   12.69
   0  -5   1  215.69   10.87
   0  -5   0  286.15    9.40
   0   5   0  297.20    8.91
   0  -5  -1  723.96   21.24
   0   5   1  671.61   19.09
   0   5   1  554.34   16.72
   0  -5  -2 3596.05  309.53
   0   5   2 2817.54  242.83
   0  -5  -3  848.19   22.16
   0   5   3  692.76   18.54
   0  -5  -4    7.67    2.34
   0   5   4    1.24    0.68
   0  -5  -5   48.17    5.83
   0   5   5   39.39   10.59
   0  -5  -6    9.53    2.55
   0   5   6    8.82    2.96
   0  -5  -7    6.62    2.06
   0   5   7    5.52    1.62
   0  -5  -8   28.66    3.52
   0   5   8   28.76    3.25
   0  -5  -9   30.51    5.96
   0   5   9   25.05    4.73
   0   6 -11    5.81    2.50
   0  -6  11    6.52    2.72
   0   6 -10    0.52    1.12
   0  -6  10    1.18    1.59
   0   6  -9  225.85   31.41
   0  -6   9  224.41   28.24
   0   6  -8  577.13   47.61
   0  -6   8  552.39   40.99
   0   6  -7  199.98   16.12
   0  -6   7  185.07   14.86
   0   6  -6    2.09    1.08
   0  -6   6    4.61    1.53
   0  -6   5  509.16   24.41
   0  -6   4    8.26    1.20
   0   6  -4    9.80    2.82
   0  -6   4   10.64    2.85
   0  -6   3  118.38   10.07
   0   6  -3  112.57   10.57
   0  -6   3  105.71    9.38
   0  -6   2 1057.19   46.19
   0   6  -2 1098.95   51.73
   0  -6   2  917.62   40.21
   0  -6   1  395.65   10.98
   0   6  -1  372.82   13.69
   0  -6   1  327.29    9.86
   0  -6   0  118.75   10.34
   0   6   0  102.93   10.35
   0   6   0   92.17    6.36
   0  -6  -1  118.81   10.96
   0   6   1  100.01    4.56
   0  -6  -2   47.80    5.00
   0   6   2   41.99   10.81
   0  -6  -3   15.84    2.99
   0   6   3   12.95    4.20
   0  -6  -4  111.94    9.24
   0   6   4   92.37    7.91
   0  -6  -5  132.15   17.02
   0   6   5  112.61   15.38
   0  -6  -6  277.95   32.57
   0   6   6  270.63   31.58
   0  -6  -7  137.91   22.57
   0   6   7  132.35   21.65
   0   7 -10    1.48    1.25
   0  -7  10    1.97    1.72
   0   7  -9    1.27    1.15
   0  -7   9    2.44    1.43
   0  -7   8   48.81    7.52
   0   7  -7   91.52   18.86
   0  -7   7   82.80   10.93
   0   7  -6  343.15   25.18
   0  -7   6  309.68   23.25
   0   7  -5  377.42   31.56
   0  -7   5  316.94   24.72
   0  -7   4  405.06   30.54
   0   7  -4  493.36   38.19
   0  -7   4  420.21   32.24
   0  -7   3  123.20   17.92
   0   7  -3  143.43   10.61
   0  -7   3  122.38    9.33
   0  -7   2    1.59    0.72
   0   7  -2    2.70    1.03
   0  -7   2    1.53    1.79
   0  -7   1  273.97   19.23
   0   7  -1  284.02   20.79
   0  -7   1  231.32   16.41
   0  -7   0   36.20    4.47
   0   7   0   30.78    8.01
   0  -7  -1   35.02    4.41
   0   7   1   28.26    7.64
   0  -7  -2   67.86    6.62
   0   7   2   59.06   11.58
   0  -7  -3  104.57   13.58
   0   7   3   89.53   11.89
   0  -7  -4   43.32    6.92
   0   7   4   39.26    9.61
   0  -7  -5   21.87    3.30
   0   7   5   18.51    4.63
   0  -7  -6   77.66   18.95
   0   7   6   67.96   13.52
   0   8  -9   58.83   15.58
   0  -8   9   56.10   11.45
   0   8  -8  177.36   32.49
   0  -8   8  170.67   27.55
   0   8  -7   24.49    6.14
   0  -8   7   23.32    3.52
   0   8  -6    4.05    1.52
   0  -8   6    3.12    1.61
   0   8  -5    5.26    1.60
   0  -8   5    3.96    1.85
   0   8  -4   57.66    7.18
   0  -8   4   43.50    5.39
   0  -8   3  147.12   22.97
   0   8  -3  176.19   23.52
   0  -8   3  141.91   18.16
   0  -8   2   72.56    7.10
   0   8  -2   71.40    4.82
   0  -8   2   70.46    4.18
   0  -8   1  141.08   17.85
   0   8  -1  116.61   15.43
   0  -8   0  285.81   35.62
   0   8   0  248.97   31.46
   0  -8  -1   52.67    7.97
   0   8   1   41.49   13.24
   0  -8  -2   16.33    2.58
   0   8   2   13.78    4.19
   0  -8  -3   74.41    8.45
   0   8   3   66.68    9.13
   0   8   4   80.75   22.91
   0   9  -6  110.54   22.01
   0  -9   6  101.01   19.83
   0   9  -5   19.08    5.93
   0  -9   5   24.17    3.55
   0   9  -4   92.93   20.34
   0  -9   4   76.21   12.87
   0  -9   3   16.63    4.65
   0  -9   2    1.46    0.75
   0   9  -2    2.94    1.20
   0  -9   1    7.63    2.45
   0   9  -1    7.62    2.84
   0  -9   0   35.63    3.45
   0   9   0   24.75    8.66
   0  -9  -1  107.12   20.72
   0   9   1  100.13   19.85
  -1   9   3   53.67   17.76
   1  -9  -2    0.06    1.25
  -1   9   2    0.77    0.78
   1  -9  -1   15.83    2.13
  -1   9   1   13.53    5.20
   1  -9   0    1.09    0.67
  -1   9   0    2.60    1.46
   1  -9   1   -0.42    0.84
  -1   9  -1    2.41    1.29
   1  -9   2   71.56    7.42
  -1   9  -2   64.61   11.20
   1  -9   2   62.21    6.93
  -1   9  -3   90.98   10.17
   1  -9   3   67.24    7.28
  -1   9  -4   65.27   15.34
   1  -9   4   61.42    6.93
  -1   9  -5    7.97    2.24
   1  -9   5    5.75    2.00
  -1   9  -6  133.44   24.11
   1  -9   6  121.55   19.84
  -1   9  -7   75.68   20.29
   1  -9   7   70.46   14.08
   1  -8  -5   67.91   13.49
  -1   8   5   57.45   16.35
   1  -8  -4   78.49    8.78
  -1   8   4   55.59   13.41
   1  -8  -3   49.93    5.92
  -1   8   3   46.29   10.65
   1  -8  -2  289.89   33.81
  -1   8   2  223.08   26.13
   1  -8  -1  405.93   50.34
  -1   8   1  335.11   43.40
   1  -8   0  242.92   19.46
  -1   8   0  212.28   16.66
   1  -8   1  125.14   10.34
  -1   8  -1  133.31   11.70
   1  -8   2   31.60    3.94
  -1   8  -2   29.16    7.04
   1  -8   2   24.36    3.59
   1  -8   3   18.75    3.37
  -1   8  -3   19.72    5.05
   1  -8   3   17.18    2.66
  -1   8  -4    3.78    1.42
   1  -8   4    2.32    1.42
  -1   8  -5   15.37    3.83
   1  -8   5   10.55    2.71
  -1   8  -6    1.09    1.04
   1  -8   6    3.75    1.25
  -1   8  -7   47.19    9.46
   1  -8   7   41.28    5.12
  -1   8  -8    9.56    2.29
   1  -8   8    6.92    2.46
  -1   8  -9    4.90    1.82
   1  -8   9    4.54    2.00
   1  -7  -7    0.34    1.48
  -1   7   7    0.20    1.41
   1  -7  -6    3.22    2.10
  -1   7   6    5.44    2.33
   1  -7  -5    8.18    2.26
   1  -7  -4    4.88    1.94
  -1   7   4    6.79    2.32
   1  -7  -3   58.69    6.79
  -1   7   3   51.24   10.76
   1  -7  -2   34.13    4.53
  -1   7   2   28.93    7.36
   1  -7  -1  515.67   34.99
  -1   7   1  514.20   34.55
  -1   7   1  417.25   29.09
   1  -7   0 1071.05   71.32
  -1   7   0 1091.26  111.13
  -1   7   0  917.03   91.24
   1  -7   1  672.48   31.28
  -1   7  -1  689.00   31.98
   1  -7   1  515.71   24.35
   1  -7   2  552.94   31.74
  -1   7  -2  601.43   30.66
   1  -7   2  471.41   22.48
   1  -7   3  818.85   37.55
  -1   7  -3  899.41   43.75
   1  -7   3  691.00   35.79
  -1   7  -4  309.85   23.72
   1  -7   4  246.80   17.23
  -1   7  -5   86.80   14.70
   1  -7   5   74.88    8.16
  -1   7  -6   39.15    7.33
   1  -7   6   31.61    4.11
  -1   7  -7   59.19   11.79
   1  -7   7   56.06    8.62
  -1   7  -8   83.68   17.25
   1  -7   8   75.01    4.37
  -1   7  -9   14.57    3.00
   1  -7   9   12.94    2.31
  -1   7 -10    2.84    1.50
   1  -7  10    2.49    2.23
   1  -6  -8   79.53   13.49
  -1   6   8   70.48   19.32
   1  -6  -7  276.41   27.26
  -1   6   7  260.88   24.32
   1  -6  -6    0.48    1.47
  -1   6   6    0.32    1.03
   1  -6  -5   11.37    2.43
  -1   6   5   14.41    4.27
   1  -6  -4    5.72    1.69
   1  -6  -3  289.10   14.88
  -1   6   3  247.41   12.47
   1  -6  -2   57.28    6.06
   1  -6  -2   53.88    5.00
  -1   6   2   44.41    5.73
   1  -6  -1  157.38    8.17
   1  -6  -1  142.94   12.65
  -1   6   1  120.13    6.40
   1  -6   0   14.86    2.11
   1  -6   0   16.50    1.83
   1  -6   1   33.72    4.65
  -1   6  -1   42.05    3.92
   1  -6   1   28.49    2.84
   1  -6   2  177.41    8.46
  -1   6  -2  174.14    8.57
   1  -6   2  143.96    7.29
   1  -6   3 1872.39   80.15
  -1   6  -3 1931.99   84.88
   1  -6   3 1587.79   76.45
  -1   6  -4 1325.87   56.84
   1  -6   4 1193.76   53.86
  -1   6  -5  280.82    9.21
   1  -6   5  258.77    9.32
  -1   6  -6 1162.70   57.93
   1  -6   6 1072.57   49.78
  -1   6  -7  388.21   29.93
   1  -6   7  351.18   28.27
  -1   6  -8   79.75   16.31
   1  -6   8   74.28    8.45
  -1   6  -9   22.16    4.91
   1  -6   9   21.17    4.42
  -1   6 -10   44.82   10.77
   1  -6  10   44.63    5.64
  -1   6 -11    8.66    3.22
   1  -6  11    8.66    3.19
   1  -5  -9   21.83    3.22
  -1   5   9   14.97    5.01
   1  -5  -8  172.47   20.83
  -1   5   8  160.01   19.25
   1  -5  -7  355.71   27.12
  -1   5   7  335.24   25.42
   1  -5  -6  229.17   18.20
  -1   5   6  201.71   15.98
   1  -5  -5   73.29    7.03
  -1   5   5   69.02   10.27
   1  -5  -4 1568.66   43.04
  -1   5   4 1300.76   38.03
   1  -5  -3   70.43   12.19
   1  -5  -3   56.22    4.30
  -1   5   3   56.06    4.84
   1  -5  -2   38.99    3.34
   1  -5  -2   36.71    2.30
  -1   5   2   33.57    2.65
   1  -5  -1  250.10   12.75
   1  -5  -1  259.12   12.58
  -1   5   1  198.89    9.96
   1  -5   0   42.68    2.92
   1  -5   0   42.21    2.65
   1  -5   0   34.82    2.59
   1  -5   1    5.38    1.05
   1  -5   1    4.25    1.12
   1  -5   1    4.49    0.96
   1  -5   2    2.35    0.73
   1  -5   2    2.10    0.94
   1  -5   3   58.35    3.21
  -1   5  -3   62.26    4.59
   1  -5   3   50.12    3.28
  -1   5  -4    1.22    0.36
  -1   5  -4    0.99    0.70
   1  -5   4    1.35    0.97
  -1   5  -5  168.58    9.21
   1  -5   5  181.15    6.65
  -1   5  -6  110.95    8.82
   1  -5   6  117.52    9.21
  -1   5  -7 1196.10   56.05
   1  -5   7 1160.92   53.32
  -1   5  -8  928.38   62.35
   1  -5   8  893.66   61.47
  -1   5  -9  434.13   31.67
   1  -5   9  445.78   32.43
  -1   5 -10    7.90    2.09
   1  -5  10    5.41    2.38
  -1   5 -11   39.83    8.49
   1  -5  11   46.86    8.86
   1  -4 -10    1.74    2.03
  -1   4  10    2.38    1.74
   1  -4  -9    8.18    2.30
  -1   4   9    7.40    1.77
   1  -4  -8   17.02    3.28
  -1   4   8   11.83    2.55
   1  -4  -7   57.08    6.74
  -1   4   7   54.07    6.34
   1  -4  -6  171.99   18.19
  -1   4   6  156.26    8.46
   1  -4  -5  408.22   18.84
   1  -4  -5  313.73   13.78
   1  -4  -4 1075.92   30.92
   1  -4  -4  843.77   23.45
  -1   4   4  896.26   26.35
   1  -4  -3 3428.42   91.99
   1  -4  -3 2962.68   78.03
  -1   4   3 2759.67   73.73
   1  -4  -2 1291.59   37.69
   1  -4  -2 1203.06   34.43
  -1   4   2 1006.84   29.26
   1  -4  -1  523.33   21.38
   1  -4  -1  489.30   19.69
  -1   4   1  383.15   15.76
   1  -4   0  300.45   12.53
   1  -4   0  290.41   11.99
   1  -4   0  231.14    9.79
   1  -4   1  244.47   12.06
   1  -4   1  240.18   10.12
   1  -4   1  202.59    8.69
   1  -4   2   87.87    5.98
   1  -4   2   86.79    4.27
   1  -4   2   75.21    3.76
  -1   4  -3  412.80   16.56
  -1   4  -3  393.08   17.37
   1  -4   3  377.63   15.65
  -1   4  -4   49.48    2.52
  -1   4  -4   54.28    3.65
   1  -4   4   52.44    3.36
  -1   4  -5   44.05    7.87
   1  -4   5   38.44    2.82
  -1   4  -6   68.26    9.39
   1  -4   6   68.04    4.77
  -1   4  -7  142.89    8.95
   1  -4   7  146.06    7.95
  -1   4  -8  735.17   36.55
   1  -4   8  737.73   35.91
  -1   4  -9   71.29   14.16
   1  -4   9   69.19    7.94
  -1   4 -10   49.66    5.62
   1  -4  10   53.93    5.63
  -1   4 -11  230.43   25.37
   1  -4  11  259.50   24.32
  -1   4 -12  139.19   27.15
   1  -4  12  158.11   30.49
   1  -3 -11    2.06    1.34
  -1   3  11   -0.35    1.49
   1  -3 -10   34.27    4.55
  -1   3  10   34.38    4.61
   1  -3  -9   61.21    6.56
  -1   3   9   56.75    6.16
   1  -3  -8   41.59    5.23
  -1   3   8   42.37    5.32
   1  -3  -7  487.47   22.46
  -1   3   7  789.78   37.04
   1  -3  -6  214.86   10.93
   1  -3  -6  143.60    6.77
   1  -3  -5   40.63    3.16
   1  -3  -5   29.37    1.87
  -1   3   5   37.33    2.75
   1  -3  -4   21.91    3.85
   1  -3  -4   16.87    1.30
  -1   3   4   18.51    4.78
   1  -3  -3  244.00   10.48
   1  -3  -3  201.07    8.32
  -1   3   3  199.33    8.74
   1  -3  -2  194.20    4.20
   1  -3  -2  160.56    3.12
  -1   3   2  144.45    3.49
   1  -3  -1  145.10    3.31
   1  -3  -1  127.90    2.62
  -1   3   1  107.99    2.55
   1  -3   0 2440.16   28.29
   1  -3   0 2328.08   26.86
   1  -3   0 1920.51   22.60
   1  -3   1 9999.00  111.49
   1  -3   1 8672.84  339.65
  -1   3  -2 6600.05   72.70
   1  -3   2 6551.97   74.36
   1  -3   2 5962.17   67.65
  -1   3  -3  832.22    9.95
  -1   3  -3  880.21   12.23
   1  -3   3  893.33   12.09
  -1   3  -4   50.32    2.22
  -1   3  -4   73.73    5.71
   1  -3   4   74.66    3.83
  -1   3  -5  135.15    5.53
  -1   3  -5  130.82    7.49
   1  -3   5  138.25    6.41
  -1   3  -6   16.58    1.66
  -1   3  -6   18.72    4.41
   1  -3   6   17.43    1.94
  -1   3  -7  604.38   29.27
   1  -3   7  649.68   29.01
  -1   3  -8  453.26   12.88
   1  -3   8  479.39   13.49
  -1   3  -9   14.34    3.70
   1  -3   9    9.68    2.19
  -1   3 -10   41.65    8.17
   1  -3  10   48.52   10.70
  -1   3 -11    4.19    1.48
   1  -3  11    2.76    1.74
  -1   3 -12  165.98   27.24
   1  -3  12  216.56   34.85
   1  -2 -11   50.32    9.79
  -1   2  11   46.33    3.66
   1  -2 -10  242.60   30.34
  -1   2  10  244.88   31.08
   1  -2  -9  445.66   32.29
   1  -2  -9  278.60   20.87
  -1   2   9  444.53   32.69
   1  -2  -8    1.46    1.50
   1  -2  -8    1.10    0.79
  -1   2   8    2.71    1.54
   1  -2  -7  454.05   20.60
   1  -2  -7  302.00   13.64
  -1   2   7  429.70   19.91
   1  -2  -6  188.39    6.77
   1  -2  -6  128.20    4.46
  -1   2   6  180.64    6.62
   1  -2  -5   52.78    3.46
   1  -2  -5   38.99    2.36
  -1   2   5   50.24    3.66
   1  -2  -4  131.75    6.25
   1  -2  -4   94.09    4.22
  -1   2   4  120.25    5.57
   1  -2  -3  905.28   12.25
   1  -2  -3  653.33    8.45
  -1   2   3  788.90   10.54
   1  -2  -2  186.52    3.60
   1  -2  -2  146.52    2.62
  -1   2   2  155.46    2.92
   1  -2  -1 1362.08   21.14
   1  -2  -1 1108.88   13.10
  -1   2   1 1000.84   11.93
   1  -2   0   99.20    2.11
   1  -2   0   89.36    1.92
   1  -2   0   80.66    1.68
   1  -2   1 6237.39   68.72
   1  -2   1 5967.08   65.56
  -1   2  -2 3741.98   41.24
   1  -2   2 4333.78   51.00
   1  -2   2 4295.66   47.89
  -1   2  -3 1331.40   20.22
  -1   2  -4   45.22    1.29
  -1   2  -4   54.03    2.43
   1  -2   4   50.55    2.15
  -1   2  -5 2422.76   68.16
  -1   2  -5 2369.55   69.33
   1  -2   5 2399.62   70.49
  -1   2  -6  690.11   18.68
  -1   2  -6  639.48   18.28
   1  -2   6  684.71   20.28
  -1   2  -7    4.66    1.90
   1  -2   7    3.99    1.26
  -1   2  -8  297.18    7.88
  -1   2  -8  269.60   16.38
   1  -2   8  290.16    9.14
  -1   2  -9   43.61    9.47
   1  -2   9   49.08    5.73
  -1   2 -10    3.16    1.17
   1  -2  10    2.19    1.68
  -1   2 -11   58.54    8.68
   1  -2  11   75.58   17.46
  -1   2 -12  145.72   26.05
   1  -2  12  194.37   31.33
  -1   1  12   26.90    3.73
   1  -1 -11    6.10    1.81
   1  -1 -11    5.05    1.35
  -1   1  11    6.00    2.12
   1  -1 -10  149.72   11.72
   1  -1 -10  106.11    8.46
  -1   1  10  160.53   13.00
   1  -1  -9  391.47   26.60
   1  -1  -9  297.66   20.39
  -1   1   9  409.78   28.67
   1  -1  -8  123.58    4.66
   1  -1  -8   96.38    8.43
  -1   1   8  117.97   10.41
   1  -1  -7   21.96    1.97
  -1   1   7   20.25    2.15
   1  -1  -6  605.12   17.06
   1  -1  -6  485.05   14.07
  -1   1   6  592.36   17.05
   1  -1  -5 4549.22  128.47
   1  -1  -5 3565.03  100.44
  -1   1   5 4354.49  122.69
   1  -1  -4    1.45    0.95
   1  -1  -4    1.02    0.64
   1  -1  -3 2769.57   32.33
   1  -1  -3 2111.41   24.35
  -1   1   3 2526.94   29.07
   1  -1  -2 5217.56   57.71
   1  -1  -2 3891.39   43.28
  -1   1   2 4627.04   51.00
   1  -1  -1   14.11    2.38
   1  -1  -1   11.24    0.94
   1  -1  -1   11.82    0.58
  -1   1   1   10.71    0.56
  -1   1   0 3778.77   41.57
   1  -1   0 3293.20   36.35
   1  -1   1 3395.32   37.63
   1  -1   1 3384.25   37.25
  -1   1  -2    9.31    1.73
   1  -1   2   16.03    0.95
   1  -1   2   10.92    0.73
   1  -1   3 2093.18   24.54
  -1   1  -4   23.66    1.14
  -1   1  -4   22.66    1.68
   1  -1   4   21.33    1.62
  -1   1  -5  787.28   22.77
  -1   1  -5  718.30   21.13
   1  -1   5  757.09   22.51
  -1   1  -6 2859.46   76.33
  -1   1  -6 2598.91   69.17
   1  -1   6 2762.12   73.74
  -1   1  -7  132.93    6.89
  -1   1  -7  112.62    7.97
   1  -1   7  122.13    6.96
  -1   1  -8  826.47   20.39
  -1   1  -8  758.49   19.49
   1  -1   8  837.82   22.01
  -1   1  -9   64.17    6.63
  -1   1  -9   57.10    6.80
   1  -1   9   64.56    7.19
  -1   1 -10   51.09    5.19
  -1   1 -10   45.81    8.96
   1  -1  10   52.86    6.63
  -1   1 -11   25.23    3.18
   1  -1  11   32.03    4.64
   1  -1  12   63.39   12.82
   1   0 -12   -0.03    0.89
  -1   0  12    1.29    1.23
   1   0 -11   11.28    1.81
  -1   0  11   14.32    3.28
   1   0 -10  246.46   18.01
   1   0 -10  197.37   14.87
  -1   0  10  259.79   19.48
   1   0  -9  550.17   36.85
   1   0  -9  484.17   32.82
  -1   0   9  613.78   41.45
   1   0  -8   25.96    5.79
   1   0  -8   23.98    2.87
  -1   0   8   30.34    7.62
   1   0  -7   85.68    4.68
   1   0  -7   75.23    4.46
  -1   0   7   90.12    5.36
   1   0  -6  287.21   13.64
   1   0  -6  236.70   11.62
  -1   0   6  288.81   15.08
   1   0  -5 2170.95   61.29
   1   0  -5 1915.36   56.23
  -1   0   5 2155.64   63.45
   1   0  -4 1284.19   15.59
   1   0  -4 1112.52   15.84
  -1   0   4 1275.56   17.05
   1   0  -3    7.02    0.59
   1   0  -3    4.52    0.78
  -1   0   3    7.68    0.84
  -1   0   2 3105.69   34.37
   1   0  -2 2708.26   33.60
  -1   0   2 3228.43   36.06
   1   0  -1   10.33    0.75
  -1   0   1   11.71    0.54
   1   0   0  615.26    7.24
   1   0   1  242.49    3.40
   1   0   1  222.96    3.63
   1   0   2 5067.50   56.29
   1   0   3  468.29    7.39
  -1   0  -4  133.13    3.18
  -1   0  -4  120.84    2.83
   1   0   4  119.59    4.55
  -1   0  -5  466.41   19.06
  -1   0  -5  395.76   16.16
   1   0   5  414.68   17.42
  -1   0  -6  354.26   17.87
  -1   0  -6  302.33   14.85
   1   0   6  336.81   16.51
  -1   0  -7  399.02   17.95
  -1   0  -7  328.48   14.91
   1   0   7  364.97   16.92
  -1   0  -8    3.65    1.15
  -1   0  -8    5.49    1.50
   1   0   8    3.63    1.31
  -1   0  -9  105.13   11.02
  -1   0  -9   79.25    8.42
   1   0   9   94.37   10.18
  -1   0 -10  269.28   33.44
  -1   0 -10  199.26   24.85
   1   0  10  260.71   32.72
   1   0  11  128.97   13.68
   1   1 -12    1.04    1.22
  -1  -1  12    1.71    1.56
   1   1 -11    0.05    1.29
  -1  -1  11    2.08    1.75
   1   1 -10  222.37   16.73
  -1  -1  10  280.02   21.65
   1   1  -9  195.03    9.38
   1   1  -9  187.47    9.83
  -1  -1   9  222.69   12.11
   1   1  -8 1161.58   49.79
   1   1  -8 1156.90   50.79
  -1  -1   8 1300.46   56.62
   1   1  -7    5.58    0.80
   1   1  -7    6.52    1.81
  -1  -1   7    6.49    1.19
   1   1  -6  386.71   10.64
   1   1  -6  368.89   19.54
  -1  -1   6  405.02   12.79
   1   1  -5  471.41   19.30
  -1  -1   5  529.96   21.60
  -1  -1   4 1623.88   18.34
   1   1  -4 1527.56   19.87
  -1  -1   4 1675.48   21.21
   1   1  -3   46.29    2.00
  -1  -1   2    5.72    0.44
   1   1  -2    9.35    2.79
  -1  -1   2    6.86    0.86
  -1  -1   1 1381.05   15.81
   1   1  -1 1639.75   28.05
  -1  -1   1 1584.96   18.42
  -1  -1   0 4758.88   52.71
  -1  -1  -1    6.07    0.79
  -1  -1  -1    6.03    0.43
   1   1   1    7.84    0.28
   1   1   1    6.39    1.68
  -1  -1  -2  562.35    7.98
   1   1   2  458.82    7.01
  -1  -1  -3  103.76    2.88
  -1  -1  -3   81.52    2.06
   1   1   3   81.09    3.63
  -1  -1  -4  334.36   13.97
  -1  -1  -4  255.84   10.44
   1   1   4  292.06   12.51
  -1  -1  -5 1585.30   42.90
  -1  -1  -5 1264.49   33.68
   1   1   5 1411.54   38.41
  -1  -1  -6 1380.53   38.48
  -1  -1  -6 1056.29   29.00
   1   1   6 1305.81   36.86
  -1  -1  -7  333.22    9.64
  -1  -1  -7  237.14    6.57
   1   1   7  296.06    9.52
  -1  -1  -8    7.33    1.88
  -1  -1  -8    3.45    1.00
   1   1   8    4.21    1.74
  -1  -1  -9   43.75    9.60
   1   1   9   44.44    5.64
  -1  -1 -10  258.84   30.11
   1   1  10  258.85   30.41
  -1  -1 -11   24.30    2.90
   1   1  11   21.68    3.29
   1   2 -12   26.55    2.91
  -1  -2  12   30.14    3.29
   1   2 -11  245.17   30.73
  -1  -2  11  286.48   35.84
   1   2 -10  171.12   13.34
  -1  -2  10  187.00   14.39
   1   2  -9   53.51    6.11
  -1  -2   9   58.82    6.49
   1   2  -8   47.78    5.09
  -1  -2   8   56.94    5.89
   1   2  -7   67.73    5.32
  -1  -2   7   68.95    4.40
   1   2  -6  766.67   22.76
  -1  -2   6  860.57   24.29
   1   2  -5 8240.82  238.92
  -1  -2   5 9134.72  257.07
  -1  -2   4 2807.43   30.53
   1   2  -4 2884.03   35.30
  -1  -2   4 2999.09   35.35
  -1  -2   3  124.23    1.96
   1   2  -3  125.27    6.20
  -1  -2   3  132.74    3.23
  -1  -2   2  362.54    4.91
   1   2  -2  348.92    5.49
  -1  -2   2  351.16    5.64
  -1  -2   1   17.81    2.90
   1   2  -1   15.56    1.32
  -1  -2   1   16.57    1.28
  -1  -2   0  331.30    8.31
   1   2   0  308.38    4.16
  -1  -2   0  257.87    4.58
   1   2   1   39.28    0.72
   1   2   1   34.59    1.73
  -1  -2  -2  138.16    3.52
   1   2   2  107.57    5.68
  -1  -2  -3 3465.13   98.27
   1   2   3 2698.87   77.39
  -1  -2  -4 1089.80   29.98
   1   2   4  884.83   25.78
  -1  -2  -5    3.29    1.05
   1   2   5    1.55    1.31
  -1  -2  -6  465.78   21.74
   1   2   6  402.74   18.50
  -1  -2  -7  292.54   14.55
   1   2   7  268.02   13.77
  -1  -2  -8   31.38    4.16
   1   2   8   26.66    4.00
  -1  -2  -9  153.51   19.53
   1   2   9  151.33   19.46
  -1  -2 -10  165.27   16.73
   1   2  10  166.82   17.22
   1   2  11   31.71    4.45
   1   3 -12   90.86   15.17
  -1  -3  12  106.17   17.54
   1   3 -11  172.24   22.53
  -1  -3  11  187.66   22.19
   1   3 -10  101.38   15.23
  -1  -3  10  100.04    9.15
   1   3  -9    2.94    0.91
  -1  -3   9    2.76    1.01
   1   3  -8   29.76    5.77
  -1  -3   8   35.13    5.30
   1   3  -7  437.46   19.93
  -1  -3   7  479.15   21.82
   1   3  -6    6.83    1.56
  -1  -3   6    6.26    1.46
   1   3  -5  959.12   27.42
  -1  -3   5 1006.41   28.02
  -1  -3   4  658.06   18.62
   1   3  -4  683.02   20.47
  -1  -3   4  693.04   20.73
  -1  -3   3  378.97   15.19
   1   3  -3  383.94   16.50
  -1  -3   3  376.34   15.64
  -1  -3   2  463.39   18.78
   1   3  -2  453.58   19.10
  -1  -3   2  425.74   17.51
  -1  -3   1 3324.81   93.44
   1   3  -1 3179.34   37.20
  -1  -3   1 2856.12   34.14
  -1  -3   0 5286.60  148.44
   1   3   0 4881.76  143.97
  -1  -3   0 4244.83  125.59
  -1  -3  -1  344.44   14.35
   1   3   1  290.19   11.61
   1   3   1  251.09   11.95
  -1  -3  -2  150.90    6.92
   1   3   2  119.67    5.78
  -1  -3  -3  369.42   11.30
   1   3   3  295.98   14.65
  -1  -3  -4  147.94    7.97
   1   3   4  113.38    7.11
  -1  -3  -5    3.34    1.60
   1   3   5    2.59    1.31
  -1  -3  -6   90.95    8.37
   1   3   6   76.68    7.34
  -1  -3  -7   90.51    9.88
   1   3   7   87.61    9.62
  -1  -3  -8  120.45   15.49
   1   3   8  117.67   15.31
  -1  -3  -9   -0.35    1.50
   1   3   9    2.57    2.76
  -1  -3 -10   53.30   10.74
   1   3  10   52.36   10.68
   1   4 -12  174.54   29.09
  -1  -4  12  195.53   31.51
   1   4 -11  432.97   43.43
  -1  -4  11  477.07   45.25
   1   4 -10  196.20   15.48
  -1  -4  10  205.62   26.08
   1   4  -9  111.88   12.35
  -1  -4   9  115.74   12.59
   1   4  -8   -0.56    1.60
  -1  -4   8    1.55    1.88
   1   4  -7  104.62   11.06
  -1  -4   7   99.18    9.33
   1   4  -6  114.75   10.82
  -1  -4   6  113.38    8.83
   1   4  -5   46.70    8.56
  -1  -4   5   44.08    3.44
  -1  -4   4  291.58   13.58
   1   4  -4  307.94   16.82
  -1  -4   4  289.63   14.25
  -1  -4   3  996.45   26.78
   1   4  -3  995.25   28.33
  -1  -4   3  901.92   25.30
  -1  -4   2    4.91    0.87
   1   4  -2   21.78    5.70
  -1  -4   2    4.55    1.17
  -1  -4   1 3043.83   80.42
   1   4  -1 3018.57   79.69
  -1  -4   1 2511.91   88.24
  -1  -4   0 2570.40   69.42
   1   4   0 2449.22   69.08
  -1  -4  -1 2120.71   68.22
   1   4   1 1902.91   50.10
   1   4   1 1698.36   46.79
  -1  -4  -2  604.05   18.07
   1   4   2  478.93   14.86
  -1  -4  -3 1024.96   44.97
   1   4   3  825.46   36.79
  -1  -4  -4   58.60    6.06
   1   4   4   50.58    5.43
  -1  -4  -5   12.75    2.39
   1   4   5   14.36    4.00
  -1  -4  -6    7.97    2.28
   1   4   6    7.40    2.05
  -1  -4  -7   63.28   12.64
   1   4   7   61.53    6.22
  -1  -4  -8  149.80   14.57
   1   4   8  144.25   14.03
  -1  -4  -9   15.14    2.58
   1   4   9   14.14    2.83
   1   5 -11  267.42   26.89
  -1  -5  11  266.09   26.90
   1   5 -10  146.86   18.77
  -1  -5  10  152.29   18.26
   1   5  -9  224.67   18.46
  -1  -5   9  231.23   17.99
   1   5  -8  340.56   26.52
  -1  -5   8  334.42   26.18
   1   5  -7  989.06   66.61
  -1  -5   7  966.97   64.77
   1   5  -6   81.91    8.06
  -1  -5   6   70.98    7.06
  -1  -5   5   91.69    8.98
  -1  -5   4   12.71    2.66
   1   5  -4    6.13    1.85
  -1  -5   4   17.01    2.24
  -1  -5   3    3.95    0.86
   1   5  -3    3.08    1.12
  -1  -5   3    2.54    1.20
  -1  -5   2   31.58    2.39
   1   5  -2   30.21    7.24
  -1  -5   2   26.17    2.39
  -1  -5   1    1.29    0.85
   1   5  -1    0.18    0.49
  -1  -5   1    0.81    1.10
  -1  -5   0   12.33    1.78
   1   5   0   10.06    2.26
   1   5   0   10.96    3.75
  -1  -5  -1    9.14    1.63
   1   5   1    9.39    3.20
  -1  -5  -2  124.65    5.09
   1   5   2  107.77    4.88
  -1  -5  -3    0.07    1.41
   1   5   3    0.75    1.01
  -1  -5  -4 1036.40   78.23
   1   5   4  898.71   67.99
  -1  -5  -5  445.58   33.12
   1   5   5  403.11   29.76
  -1  -5  -6  226.23   28.60
   1   5   6  197.28   24.96
  -1  -5  -7   92.74    9.60
   1   5   7   85.85    8.95
  -1  -5  -8   92.18   18.07
   1   5   8   88.44   17.38
   1   6 -11    3.64    1.23
  -1  -6  11    3.88    2.36
   1   6 -10    4.06    2.01
  -1  -6  10    2.44    1.64
   1   6  -9    9.25    2.12
  -1  -6   9   10.14    2.33
   1   6  -8  162.96   14.67
  -1  -6   8  153.15   13.95
   1   6  -7  497.67   37.86
  -1  -6   7  451.68   33.65
   1   6  -6 1808.18  180.70
  -1  -6   6 1651.95  123.79
   1   6  -5  626.46   43.30
  -1  -6   5  579.31   39.27
  -1  -6   4   92.39    8.17
   1   6  -4   93.06   11.80
  -1  -6   4   91.81    8.39
  -1  -6   3  220.89   10.78
   1   6  -3  233.35   12.05
  -1  -6   3  202.80   10.56
  -1  -6   2  115.92   11.13
   1   6  -2  112.33   11.14
  -1  -6   2   98.89    9.09
  -1  -6   1    1.37    0.93
   1   6  -1    0.78    0.59
  -1  -6   1    1.34    1.20
  -1  -6   0   88.85   13.86
   1   6   0   73.74    7.10
  -1  -6  -1    5.78    1.56
   1   6   1    7.35    2.49
  -1  -6  -2  290.10   24.85
   1   6   2  264.97   20.71
  -1  -6  -3    1.13    1.47
   1   6   3    1.32    0.92
  -1  -6  -4   76.29    4.30
   1   6   4   59.48    6.06
  -1  -6  -5   96.59   12.04
  -1  -6  -6    3.17    1.63
   1   6   6    4.06    1.88
   1   6   7  121.84   23.59
   1   7 -10   10.51    3.25
  -1  -7  10   11.65    3.46
   1   7  -9   84.62   20.42
  -1  -7   9   81.38   18.40
   1   7  -8   41.70    8.87
  -1  -7   8   41.22    9.61
   1   7  -7   11.23    2.59
  -1  -7   7    9.00    3.03
   1   7  -6  148.72   18.98
  -1  -7   6  125.59   16.33
   1   7  -5   50.97    9.02
  -1  -7   5   40.60    4.77
   1   7  -4  327.27   24.02
  -1  -7   4  278.09   21.33
  -1  -7   3 1077.41   76.22
   1   7  -3 1264.20   89.67
  -1  -7   3 1036.40   73.74
  -1  -7   2  865.74   61.81
   1   7  -2  928.09   65.77
  -1  -7   2  794.15   57.07
  -1  -7   1  161.03   12.23
   1   7  -1  134.48   13.22
  -1  -7   0   54.61    5.73
   1   7   0   51.97    9.97
  -1  -7  -1   35.34    4.23
   1   7   1   30.04    7.87
  -1  -7  -2   30.93    3.73
  -1  -7  -3    1.52    1.43
  -1  -7  -4    7.08    2.19
   1   7   4    7.59    2.08
  -1  -7  -5    6.51    2.25
   1   7   5    6.24    2.46
   1   8  -8    1.29    1.64
  -1  -8   8    0.80    1.63
   1   8  -7   40.23    8.04
  -1  -8   7   37.12    4.94
   1   8  -6   23.58    4.62
  -1  -8   6   21.23    2.82
   1   8  -5    8.39    1.95
  -1  -8   5    7.60    2.32
   1   8  -4    6.79    1.67
  -1  -8   4    6.20    1.89
  -1  -8   3   16.26    2.77
   1   8  -3   14.26    3.61
  -1  -8   3   15.77    3.36
  -1  -8   2   41.09    9.21
  -1  -8   1  137.90   14.20
  -1  -8   0  235.29   21.92
  -1  -8  -1  310.40   30.69
   1   8   1  247.97   29.05
  -1  -8  -2  363.27   28.10
   1   8   2  335.74   26.25
  -1  -8  -3   54.82   11.19
   1   8   3   47.33   14.53
  -1  -9   4    2.85    1.47
   1   9  -2    1.88    1.23
   1   9  -1   -0.05    1.35
   2 -10   0   85.67   16.69
  -2  10   0   64.39   17.42
   2 -10   1  213.42   40.64
  -2  10  -1  173.62   33.32
  -2  10  -2   72.99   14.71
  -2  10  -3   56.92   17.20
   2 -10   3   50.10   10.07
  -2  10  -4   29.54    7.54
   2 -10   4   20.56    4.49
  -2  10  -5    6.31    1.83
   2  -9  -3   29.42    3.61
  -2   9   3   20.70    4.83
   2  -9  -2    6.09    1.57
  -2   9   2    7.18    2.00
   2  -9  -1   42.78    5.14
  -2   9   1   30.65    9.73
   2  -9   0   34.91    4.42
  -2   9   0   22.31    7.88
   2  -9   1   67.24   10.70
  -2   9  -1   68.86   10.65
  -2   9  -1   54.51    8.12
   2  -9   2    2.97    1.06
  -2   9  -2    0.81    0.68
   2  -9   2    2.95    1.55
  -2   9  -3    7.19    2.01
  -2   9  -4  254.07   31.95
   2  -9   4  208.92   24.58
  -2   9  -5  168.33   19.72
   2  -9   5  136.35   13.22
  -2   9  -6   75.29   15.60
   2  -9   6   67.33    7.56
  -2   9  -7   13.74    3.03
   2  -9   7   14.80    2.49
  -2   9  -8   -1.14    1.66
   2  -9   8    0.04    1.23
   2  -8  -6  122.81   30.99
  -2   8   6   97.92   20.06
   2  -8  -5   42.01    9.50
  -2   8   5   31.82    8.11
   2  -8  -4    1.88    1.00
  -2   8   4    1.89    2.20
   2  -8  -3    0.46    0.75
  -2   8   3    0.63    0.64
   2  -8  -2    2.30    1.78
  -2   8   2    0.52    0.66
   2  -8  -1   65.90    6.92
   2  -8  -1   59.13    5.79
  -2   8   1   48.40    5.26
   2  -8   0  426.76   30.89
  -2   8   0  332.94   25.97
   2  -8   1  433.17   33.75
  -2   8  -1  463.96   35.30
   2  -8   1  327.08   23.90
   2  -8   2   12.09    2.14
  -2   8  -2   14.45    3.99
   2  -8   2   10.53    2.02
  -2   8  -3    2.38    1.15
  -2   8  -3    1.18    1.08
   2  -8   3    2.54    1.34
  -2   8  -4   94.31    8.72
   2  -8   4   75.40    7.52
  -2   8  -5   49.98    9.34
   2  -8   5   40.34    7.29
  -2   8  -6   10.44    2.98
   2  -8   6   10.84    2.09
   2  -8   7   14.42    3.67
  -2   8  -8  210.89   31.02
   2  -8   8  171.15   17.73
  -2   8  -9  177.02   40.50
   2  -8   9  166.62   27.09
   2  -7  -7   44.18    4.58
  -2   7   7   36.03    4.08
   2  -7  -6  101.87   10.40
  -2   7   6   93.14    9.33
   2  -7  -5   29.15    5.65
  -2   7   5   23.87    6.20
   2  -7  -4   35.17    4.93
  -2   7   4   29.85    6.40
   2  -7  -3  312.65   24.60
  -2   7   3  255.77   20.15
   2  -7  -2  598.47   44.74
   2  -7  -2  530.02   35.68
  -2   7   2  455.07   32.07
   2  -7  -1  265.35   14.34
   2  -7  -1  252.75   13.53
  -2   7   1  208.85   11.52
   2  -7   0   99.98    9.00
   2  -7   0   94.99    8.40
  -2   7   0   71.16    6.60
   2  -7   1  121.98   10.60
   2  -7   1  120.19   10.49
   2  -7   1   92.77    8.31
   2  -7   2  310.60   14.89
   2  -7   2  324.77   15.86
   2  -7   2  252.07   13.69
  -2   7  -3  500.31   23.40
  -2   7  -3  514.56   24.70
   2  -7   3  406.91   19.65
  -2   7  -4  881.76   40.55
  -2   7  -4  928.74   43.31
   2  -7   4  738.41   34.41
  -2   7  -5  135.94   10.57
   2  -7   5  115.39   12.20
  -2   7  -6   46.18   11.92
   2  -7   6   41.49    5.05
  -2   7  -7    4.51    1.53
   2  -7   7    3.71    1.55
  -2   7  -8   15.58    4.00
   2  -7   8   11.21    3.64
  -2   7  -9   57.94   11.56
   2  -7   9   55.45    6.45
  -2   7 -10   51.03   11.93
   2  -7  10   53.52    4.73
   2  -6  -8   29.31    3.47
  -2   6   8   25.72    6.68
   2  -6  -7   72.99   11.10
  -2   6   7   56.74   14.94
   2  -6  -6  374.26   29.46
  -2   6   6  334.24   25.26
   2  -6  -5  194.92   15.81
  -2   6   5  162.65   13.80
   2  -6  -4  340.42   24.42
   2  -6  -4  284.29   19.24
  -2   6   4  296.03   20.38
   2  -6  -3  234.15    8.33
   2  -6  -3  215.83    6.26
  -2   6   3  190.64    6.59
   2  -6  -2  120.12   11.12
   2  -6  -2  108.41    9.77
  -2   6   2   92.40    3.83
   2  -6  -1  306.10   14.37
   2  -6  -1  295.15   13.44
  -2   6   1  229.41   11.13
   2  -6   0   73.52    5.98
   2  -6   0   71.32    5.65
   2  -6   0   53.69    4.48
   2  -6   1    3.62    1.10
   2  -6   1    3.34    1.32
   2  -6   1    2.54    0.70
   2  -6   2  453.77   13.44
   2  -6   2  457.56   20.53
   2  -6   2  365.50   16.59
  -2   6  -3   57.75    5.08
   2  -6   3   52.18    4.67
   2  -6   3   40.84    3.68
  -2   6  -4  116.82    8.64
  -2   6  -4  114.63    9.07
   2  -6   4   95.39    7.50
  -2   6  -5  965.87   26.61
   2  -6   5  879.56   22.44
  -2   6  -6  462.69   22.34
   2  -6   6  445.96   21.43
  -2   6  -7  161.12   13.11
   2  -6   7  151.62   12.29
  -2   6  -8  290.27   29.23
   2  -6   8  262.85   20.17
  -2   6  -9  415.51   53.63
   2  -6   9  407.01   50.57
  -2   6 -10   32.49    6.90
   2  -6  10   31.44    3.48
   2  -6  11    1.27    1.71
   2  -5 -10    1.26    1.31
  -2   5  10    0.65    1.42
   2  -5  -9   38.54    3.76
  -2   5   9   36.06    3.24
   2  -5  -8   94.90   12.75
  -2   5   8   91.32   11.97
   2  -5  -7    2.57    1.18
  -2   5   7    3.73    1.61
   2  -5  -6  317.05   26.47
  -2   5   6  297.16   20.74
   2  -5  -5 1857.99  175.50
   2  -5  -5 1420.00  135.34
  -2   5   5 1688.87  159.21
   2  -5  -4  808.88   36.05
   2  -5  -4  677.52   29.49
  -2   5   4  687.69   30.51
   2  -5  -3  172.45    6.56
   2  -5  -3  144.58   10.59
  -2   5   3  136.07    5.49
   2  -5  -2 1614.65   45.35
   2  -5  -2 1392.79   38.52
  -2   5   2 1226.11   34.04
   2  -5  -1  379.69   18.31
   2  -5  -1  355.34   10.51
  -2   5   1  283.81    8.85
   2  -5   0    2.52    0.99
   2  -5   0    5.74    2.00
   2  -5   1   89.86    4.90
   2  -5   1   84.81    4.72
   2  -5   1   66.68    3.77
  -2   5  -2  821.74   22.51
   2  -5   2  803.98   22.60
   2  -5   2  682.86   19.13
  -2   5  -3 2714.42   72.82
   2  -5   3 2758.17   74.24
   2  -5   3 2433.07   64.69
  -2   5  -4  208.65    6.43
   2  -5   4  231.65    7.73
  -2   5  -5    1.75    0.50
  -2   5  -5    2.48    1.45
   2  -5   5    1.64    1.01
  -2   5  -6   16.76    4.35
   2  -5   6   19.06    2.58
  -2   5  -7   13.00    3.12
   2  -5   7   11.66    3.70
  -2   5  -8  334.45   26.25
   2  -5   8  327.14   26.12
  -2   5  -9  587.68   58.86
   2  -5   9  598.23   44.36
  -2   5 -10  110.99   15.79
   2  -5  10  106.27   13.27
  -2   5 -11    6.03    2.46
   2  -5  11    6.91    2.43
   2  -4 -10   23.16    3.35
  -2   4  10   22.14    3.08
   2  -4  -9   16.09    3.13
  -2   4   9   12.51    1.96
   2  -4  -8  387.91   28.58
  -2   4   8  382.97   27.93
   2  -4  -7   46.83   11.31
   2  -4  -7   30.57    3.39
  -2   4   7   43.41    4.99
   2  -4  -6   83.27    8.14
   2  -4  -6   51.88    4.93
  -2   4   6   76.21    7.36
   2  -4  -5    8.27    2.41
   2  -4  -5    7.36    1.09
  -2   4   5   11.34    1.97
   2  -4  -4  201.91    7.58
   2  -4  -4  161.57    5.33
  -2   4   4  177.59    6.10
   2  -4  -3   10.09    1.64
   2  -4  -3   11.45    1.14
  -2   4   3   12.58    3.40
   2  -4  -2 2348.89   70.36
   2  -4  -2 2078.29   58.86
  -2   4   2 1839.01   52.26
   2  -4  -1 5319.83  149.46
   2  -4  -1 4831.18  136.05
  -2   4   1 3909.83  130.87
   2  -4   0 1041.01   30.06
   2  -4   0  968.04   27.99
   2  -4   0  807.56   23.32
   2  -4   1 4068.95  114.43
   2  -4   1 3634.93  102.20
  -2   4  -2 2221.53   66.79
   2  -4   2 2197.22   62.42
   2  -4   2 1986.76   56.47
  -2   4  -3 1630.21   46.36
   2  -4   3 1719.17   49.26
   2  -4   3 1634.72   46.89
  -2   4  -4    6.89    0.79
   2  -4   4    5.62    1.28
   2  -4   4    6.62    1.29
  -2   4  -5  270.91    7.73
  -2   4  -5  382.31   13.33
   2  -4   5  394.99   14.74
  -2   4  -6   83.98    6.15
  -2   4  -6   97.31   10.50
   2  -4   6   97.66    7.68
  -2   4  -7  361.55   10.76
   2  -4   7  368.01   10.79
  -2   4  -8   77.33    8.73
   2  -4   8   78.34    9.38
  -2   4  -9    5.82    2.24
   2  -4   9    5.70    1.91
  -2   4 -10   14.94    4.18
   2  -4  10   13.88    3.76
  -2   4 -11    6.23    1.90
   2  -4  11    4.90    2.42
   2  -3 -11  161.93   26.11
  -2   3  11  170.76   27.66
   2  -3 -10   21.14    3.89
  -2   3  10   19.54    3.74
   2  -3  -9  287.70   21.92
   2  -3  -9  157.20   12.86
  -2   3   9  294.65   22.36
   2  -3  -8  276.15   19.38
   2  -3  -8  161.20   11.30
  -2   3   8  259.70   18.12
   2  -3  -7  195.86    6.76
   2  -3  -7  128.57    5.50
  -2   3   7  187.68    6.45
   2  -3  -6    3.84    0.91
   2  -3  -6    3.98    0.95
  -2   3   6    2.36    0.96
   2  -3  -5   39.71    7.10
   2  -3  -5   27.60    1.92
  -2   3   5   34.82    2.44
   2  -3  -4 1890.72   54.42
   2  -3  -4 1336.25   38.25
  -2   3   4 1671.94   47.87
   2  -3  -3 1049.18   30.60
   2  -3  -3  792.58   22.96
  -2   3   3  925.34   26.63
   2  -3  -2   29.55    1.41
  -2   3   2   31.70    1.27
   2  -3  -1  633.47    9.01
   2  -3  -1  530.32    7.59
  -2   3   1  452.80   10.39
   2  -3   0 1260.80   16.05
   2  -3   0 1113.22   13.23
  -2   3  -1 1434.46   24.87
   2  -3   1 1375.69   17.09
   2  -3   1 1235.25   14.72
  -2   3  -2 5420.08   61.63
   2  -3   2 5504.65   62.23
   2  -3   2 5539.78   61.89
  -2   3  -3 5880.32  164.44
   2  -3   3 7350.41  206.05
   2  -3   3 7144.80  199.92
  -2   3  -4  432.94   12.73
   2  -3   4  649.71   19.41
   2  -3   4  643.51   19.10
  -2   3  -5  166.68    8.03
  -2   3  -5  197.26    9.90
   2  -3   5  202.37   10.11
  -2   3  -6  359.73   10.41
  -2   3  -6  377.28   12.15
   2  -3   6  380.54   12.76
  -2   3  -7  436.97   19.10
  -2   3  -7  442.76   20.42
   2  -3   7  469.89   21.40
  -2   3  -8   44.09    4.01
  -2   3  -8   40.95    4.76
   2  -3   8   47.16    4.83
  -2   3  -9    1.38    1.04
   2  -3   9   -0.32    1.39
  -2   3 -10    1.42    1.08
   2  -3  10    0.97    0.71
  -2   3 -11  103.17   15.87
   2  -3  11  123.47   13.13
  -2   3 -12    1.15    1.15
   2  -3  12    3.08    2.53
  -2   2  12   90.75   17.86
   2  -2 -11   14.13    2.17
   2  -2 -11   10.03    1.47
  -2   2  11   14.88    4.59
   2  -2 -10   29.73    3.45
   2  -2 -10   19.00    3.39
  -2   2  10   32.60    3.92
   2  -2  -9  286.69   22.32
   2  -2  -9  204.96   16.02
  -2   2   9  305.84   24.01
   2  -2  -8 1368.06   63.21
   2  -2  -8  956.96   43.85
  -2   2   8 1382.44   65.64
   2  -2  -7 1382.21   60.22
   2  -2  -7  995.97   43.26
  -2   2   7 1400.87   60.75
   2  -2  -6  147.18    7.69
   2  -2  -6  111.14    8.35
  -2   2   6  147.77   10.99
   2  -2  -5  369.04   17.69
   2  -2  -5  277.89   10.85
  -2   2   5  354.28   10.49
   2  -2  -4 2168.40   62.26
   2  -2  -4 1583.88   45.14
  -2   2   4 1971.58   55.84
   2  -2  -3  145.64    3.77
  -2   2   3  182.92    3.34
   2  -2  -2   12.23    1.06
   2  -2  -2    8.64    0.84
  -2   2   2   11.28    0.61
  -2   2   1   96.22    3.73
   2  -2  -1   81.82    2.08
  -2   2   1   81.34    1.34
  -2   2   0  864.55   10.89
   2  -2   0  745.38    9.67
   2  -2   0  711.18    8.47
  -2   2  -1 2312.94   26.52
   2  -2   1 2229.99   25.92
   2  -2   1 2415.64   28.28
  -2   2  -2  601.06    8.09
   2  -2   2  737.27    9.91
   2  -2   2  743.21    9.50
  -2   2  -3  635.91    8.59
   2  -2   3  947.16   12.68
   2  -2   3  935.37   12.25
  -2   2  -4 1393.13   39.61
   2  -2   4 1735.35   49.51
   2  -2   4 1706.69   48.78
  -2   2  -5 1100.76   29.65
  -2   2  -5 1147.39   31.40
   2  -2   5 1177.55   32.20
  -2   2  -6 1677.26   45.71
  -2   2  -6 1625.84   45.39
   2  -2   6 1668.80   48.53
  -2   2  -7 1306.42   56.33
  -2   2  -7 1187.84   55.48
   2  -2   7 1266.65   56.23
  -2   2  -8  744.93   34.12
  -2   2  -8  691.28   32.31
   2  -2   8  753.09   39.20
  -2   2  -9   26.99    3.17
  -2   2  -9   18.99    4.90
   2  -2   9   23.23    3.71
  -2   2 -10    2.84    1.16
   2  -2  10    4.49    1.78
  -2   2 -11   18.02    6.18
   2  -2  11   24.62    3.20
   2  -2  12   65.54   13.22
   2  -1 -12    0.94    0.88
  -2   1  12    2.96    2.41
   2  -1 -11    2.87    0.83
   2  -1 -11    3.51    1.22
  -2   1  11    5.15    1.79
   2  -1 -10   74.11    6.68
   2  -1 -10   61.06    5.41
  -2   1  10   79.72    7.10
   2  -1  -9    1.21    1.17
   2  -1  -9   -0.24    1.00
  -2   1   9    0.26    1.33
   2  -1  -8  115.10   10.51
   2  -1  -8   84.50    7.91
  -2   1   8  123.90   12.75
   2  -1  -7  393.77   11.93
   2  -1  -7  308.82    9.82
   2  -1  -6  519.82   14.88
   2  -1  -6  427.85   12.63
  -2   1   6  549.11   15.96
   2  -1  -5 2793.63   79.01
   2  -1  -5 2218.86   63.13
  -2   1   5 2713.78   76.91
   2  -1  -4 5196.06   58.78
   2  -1  -4 4150.72   47.61
  -2   1   4 5172.23   58.26
  -2   1   2 2173.67   25.12
   2  -1  -2 1671.28   19.97
  -2   1   2 2189.52   24.48
  -2   1   1  942.50   11.62
   2  -1  -1  767.55    9.79
   2  -1  -1  924.29   10.29
  -2   1   1  869.59    9.70
  -2   1   0 1595.64   18.71
   2  -1   0 1536.26   17.96
  -2   1   0 1353.89   15.12
   2  -1   0 1478.05   16.47
   2  -1   1 1292.15   14.98
  -2   1  -2    4.29    0.70
   2  -1   2    3.68    0.69
  -2   1  -3  262.34    4.57
   2  -1   3  322.61    5.31
   2  -1   3  300.14    5.21
  -2   1  -4  119.62    5.42
   2  -1   4  117.26    5.88
  -2   1  -5  396.29   11.48
  -2   1  -5  379.69   13.94
   2  -1   5  394.73   11.86
  -2   1  -6   13.48    1.59
  -2   1  -6   13.36    3.30
   2  -1   6   14.24    2.00
  -2   1  -7 1000.38   43.45
  -2   1  -7  895.46   38.91
   2  -1   7  966.32   42.51
  -2   1  -8 1590.08  149.87
  -2   1  -8 1375.61   63.74
   2  -1   8 1490.04   71.26
  -2   1  -9   42.25    4.89
  -2   1  -9   39.38    4.54
   2  -1   9   39.42    5.30
  -2   1 -10  187.98   23.50
  -2   1 -10  148.05   18.61
   2  -1  10  189.28   24.07
   2  -1  11  268.64   30.15
   2   0 -12    8.92    1.92
  -2   0  12   12.69    3.19
   2   0 -11    3.83    1.42
  -2   0  11    5.32    1.64
   2   0 -10   18.86    2.50
   2   0 -10   16.12    2.82
  -2   0  10   21.13    3.48
   2   0  -9  635.03   42.37
   2   0  -9  533.29   36.12
  -2   0   9  674.83   45.47
   2   0  -8   11.18    1.61
   2   0  -8    6.85    1.76
   2   0  -7   39.05    2.50
   2   0  -7   32.26    2.73
  -2   0   7   41.19    3.05
   2   0  -6  127.09    6.98
  -2   0   6  151.32    7.76
  -2   0   5   10.44    1.13
   2   0  -5   14.53    1.63
  -2   0   5   12.77    2.45
  -2   0   4 4010.50   45.41
   2   0  -4 3594.63   42.96
  -2   0   4 4339.93   50.49
   2   0  -3 7569.04   85.09
  -2   0   3 8966.95   98.95
   2   0  -2 7675.47   84.72
   2   0  -1 1254.90   15.17
  -2   0   1 1290.27   15.05
  -2   0   0 7772.40  304.24
  -2   0  -1 3024.10   34.53
   2   0   1 3792.58   42.77
   2   0   1 3395.55   38.36
  -2   0  -2 1244.46   15.57
   2   0   2 1418.65   16.77
   2   0   2 1287.02   16.11
  -2   0  -3   66.19    2.36
   2   0   3   71.80    1.85
   2   0   3   63.77    2.36
  -2   0  -4  445.37   18.30
  -2   0  -4  433.95   17.48
   2   0   4  427.29   17.68
  -2   0  -5  680.54   19.25
  -2   0  -5  610.26   16.87
   2   0   5  606.32   17.49
  -2   0  -6    5.92    1.46
  -2   0  -6    5.20    1.30
   2   0   6    4.42    1.49
  -2   0  -7  644.54   16.90
  -2   0  -7  520.96   13.19
   2   0   7  605.55   16.60
  -2   0  -8    7.17    1.57
  -2   0  -8    5.33    1.71
   2   0   8    5.50    2.00
  -2   0  -9    3.19    1.22
  -2   0  -9    2.81    0.86
   2   0   9    4.12    2.12
  -2   0 -10    8.06    1.68
   2   0  10    7.49    2.18
   2   0  11  227.30   36.50
   2   1 -12   13.44    2.20
  -2  -1  12   16.31    4.18
   2   1 -11   93.56   12.26
  -2  -1  11  117.05   15.18
   2   1 -10 1168.28   84.28
  -2  -1  10 1411.68  125.32
   2   1  -9  403.89   27.62
  -2  -1   9  477.29   32.66
  -2  -1   8  113.05   10.00
   2   1  -8  106.55   10.78
  -2  -1   8  128.38    7.14
  -2  -1   7  172.38    5.47
   2   1  -7  158.18    6.02
  -2  -1   7  178.54    6.49
  -2  -1   6   16.02    2.16
   2   1  -6   14.57    1.63
  -2  -1   6   17.96    1.80
  -2  -1   5   64.78    3.02
   2   1  -5   62.09    4.48
  -2  -1   5   92.64    4.57
  -2  -1   4  223.17    3.52
   2   1  -4  252.85    6.12
  -2  -1   4  291.79    5.28
  -2  -1   3   17.39    0.88
   2   1  -3   25.54    1.55
  -2  -1   3   30.74    4.09
   2   1  -2 2165.21   34.40
  -2  -1   1   44.19    1.61
   2   1  -1   56.53    1.67
  -2  -1   1   56.11    1.81
  -2  -1   0 3338.63   38.29
   2   1   0 3608.15   43.39
   2   1   0 3312.82   47.10
   2   1   1 9972.34  390.87
   2   1   2 4107.97   45.07
   2   1   2 3630.23   46.79
  -2  -1  -3 3961.14  112.30
   2   1   3 3394.39   97.36
  -2  -1  -4 1199.95   32.94
  -2  -1  -4  953.14   25.29
   2   1   4 1013.51   28.28
  -2  -1  -5  391.04   12.24
  -2  -1  -5  296.13    8.47
   2   1   5  342.77   10.92
  -2  -1  -6    0.54    0.22
   2   1   6    1.50    1.35
  -2  -1  -7  145.25   14.42
   2   1   7  122.72   11.40
  -2  -1  -8   11.01    2.09
   2   1   8    8.45    2.24
  -2  -1  -9   65.37    6.28
   2   1   9   60.75    6.27
  -2  -1 -10    5.43    1.72
   2   1  10    6.89    2.50
   2   2 -12    3.87    1.75
  -2  -2  12    6.24    1.96
   2   2 -11   87.24   10.86
  -2  -2  11  107.47   13.16
   2   2 -10  820.00   58.56
  -2  -2  10  983.05   70.21
   2   2  -9  599.74   41.22
  -2  -2   9  664.35   44.86
   2   2  -8  228.68    7.71
  -2  -2   8  239.76    7.87
   2   2  -7  254.16   12.35
  -2  -2   7  283.87   13.29
   2   2  -6  668.06   19.88
  -2  -2   6  751.63   21.44
  -2  -2   5  173.60    8.14
   2   2  -5  276.01   13.53
  -2  -2   5  284.56   13.85
  -2  -2   4  132.73    5.55
   2   2  -4  170.46    8.13
  -2  -2   4  188.24    8.30
  -2  -2   3  147.33    6.20
   2   2  -3  201.65    9.74
  -2  -2   3  189.03    8.20
  -2  -2   2  211.02    3.79
   2   2  -2  234.78    4.52
  -2  -2   2  227.01    4.54
  -2  -2   1  136.73    3.13
   2   2  -1  144.72    3.52
  -2  -2   1  132.08    3.33
  -2  -2   0  334.65    5.79
   2   2   0  329.72    4.72
   2   2   0  282.66    5.79
  -2  -2  -1  915.17   30.28
   2   2   1  794.29   22.41
   2   2   1  753.34   22.19
  -2  -2  -2  789.86   25.68
   2   2   2  661.63   20.24
  -2  -2  -3  230.87   11.52
   2   2   3  192.77    9.87
  -2  -2  -4  362.95   11.59
   2   2   4  306.15    9.96
  -2  -2  -5 1418.29   61.72
   2   2   5 1272.56   55.67
  -2  -2  -6  737.47   35.20
   2   2   6  679.59   32.46
  -2  -2  -7  137.84   11.37
   2   2   7  119.76   10.13
  -2  -2  -8  155.72   12.46
   2   2   8  143.98   11.91
  -2  -2  -9   76.36    8.26
   2   2   9   75.30    8.47
  -2  -2 -10   34.17    6.86
   2   2  10   33.52    4.41
   2   3 -12    4.75    2.57
  -2  -3  12    4.78    1.87
   2   3 -11    3.72    1.99
   2   3 -10   77.48    7.27
  -2  -3  10   87.65    7.87
   2   3  -9   75.15   15.27
  -2  -3   9   78.94    8.79
   2   3  -8   23.06    4.52
  -2  -3   8   30.68    6.63
   2   3  -7  314.55   19.42
  -2  -3   7  338.40   15.72
   2   3  -6 1581.26   44.60
  -2  -3   6 1673.21   47.03
  -2  -3   5 3642.28   95.03
   2   3  -5 3936.34  105.44
  -2  -3   5 3923.23  119.76
  -2  -3   4 1571.19   41.47
   2   3  -4 1642.61   52.45
  -2  -3   4 1619.44   43.96
  -2  -3   3  116.04    5.13
   2   3  -3  105.40    5.39
  -2  -3   3  104.37    5.10
  -2  -3   2  482.48   19.57
   2   3  -2  479.04   19.57
  -2  -3   2  445.87   18.50
  -2  -3   1   47.24    2.69
   2   3  -1   46.63    2.53
  -2  -3   1   39.29    2.64
  -2  -3   0  105.36    5.11
   2   3   0   96.17    4.32
   2   3   0   83.17    4.35
  -2  -3  -1  393.22   11.80
   2   3   1  328.60   10.31
  -2  -3  -2   45.57    3.35
   2   3   2   38.38    3.88
  -2  -3  -3  126.54    7.37
   2   3   3  110.24    8.04
  -2  -3  -4    1.67    1.29
   2   3   4    2.04    1.16
  -2  -3  -5  255.20   13.26
   2   3   5  240.35   12.33
  -2  -3  -6  273.44   21.84
   2   3   6  233.65   18.63
  -2  -3  -7  337.99   26.42
   2   3   7  303.54   23.24
  -2  -3  -8   94.00   11.85
   2   3   8   85.64   10.97
  -2  -3  -9  240.44   38.48
   2   3   9  230.10   36.92
   2   4 -12   22.51    3.55
  -2  -4  12   21.99    3.47
   2   4 -11   12.66    2.67
  -2  -4  11   13.29    3.09
   2   4 -10   81.13   16.93
  -2  -4  10   82.47   11.06
   2   4  -9   86.90    9.20
  -2  -4   9   96.39    8.03
   2   4  -8    1.87    1.55
  -2  -4   8   -0.36    1.34
   2   4  -7   79.83    7.53
  -2  -4   7   77.57    7.32
   2   4  -6   43.09    9.29
  -2  -4   6   47.05    4.99
   2   4  -5  530.48   23.90
  -2  -4   5  526.17   23.62
  -2  -4   4  558.30   15.90
   2   4  -4  587.20   17.40
  -2  -4   4  542.64   16.54
  -2  -4   3  951.63   26.53
   2   4  -3  962.48   27.71
  -2  -4   3  891.57   25.72
  -2  -4   2 1047.14   29.56
   2   4  -2 1030.91   28.78
  -2  -4   2  914.89   27.30
  -2  -4   1 2931.84   79.63
   2   4  -1 2862.75  201.13
  -2  -4   1 2637.67   72.96
  -2  -4   0  698.47   20.40
   2   4   0  651.48   18.10
   2   4   0  597.02   18.87
  -2  -4  -1   18.57    4.50
   2   4   1   14.39    3.94
  -2  -4  -2  134.28   12.41
   2   4   2  114.40   13.44
  -2  -4  -3   16.05    2.66
   2   4   3   15.79    4.52
  -2  -4  -4    4.22    2.04
   2   4   4    1.71    1.19
  -2  -4  -5  207.28   15.84
   2   4   5  174.02   14.35
  -2  -4  -6  108.94   14.23
   2   4   6   84.42   13.41
  -2  -4  -7    0.73    1.48
   2   4   7    0.61    1.43
  -2  -4  -8   13.36    2.91
   2   4   8   12.54    2.61
   2   5 -11  129.98   21.63
  -2  -5  11  125.47   20.59
   2   5 -10    0.50    0.96
  -2  -5  10    1.88    1.75
   2   5  -9   72.07   14.29
  -2  -5   9   69.28    6.96
   2   5  -8    7.28    2.13
  -2  -5   8    5.23    1.68
   2   5  -7    4.08    1.48
  -2  -5   7    0.97    1.89
   2   5  -6   64.38   12.26
  -2  -5   6   60.62   12.66
   2   5  -5  778.22   38.79
  -2  -5   5  685.30   32.06
  -2  -5   4    3.42    0.88
   2   5  -4    3.80    1.45
  -2  -5   4    3.73    1.23
  -2  -5   3    7.62    1.29
   2   5  -3   11.39    3.37
  -2  -5   3    5.32    1.63
  -2  -5   2  129.23    4.67
   2   5  -2  134.71    4.75
  -2  -5   2  119.86    5.20
  -2  -5   1  713.20   18.35
   2   5  -1  682.68   16.98
  -2  -5   1  601.04   16.54
  -2  -5   0  670.51   18.10
   2   5   0  561.20   17.14
  -2  -5  -1   44.23    4.59
   2   5   1   34.68    8.45
  -2  -5  -2  618.02   41.72
   2   5   2  534.40   36.57
  -2  -5  -3  798.64   60.46
   2   5   3  723.03   55.36
  -2  -5  -4   33.06    4.23
   2   5   4   32.58    7.59
  -2  -5  -5    3.58    2.49
   2   5   5    2.23    1.25
  -2  -5  -6   23.25    3.61
   2   5   6   19.98    6.00
  -2  -5  -7    1.21    1.59
   2   5   7    1.82    2.19
   2   6 -10   69.47   15.18
  -2  -6  10   69.57   11.83
   2   6  -9  132.97   23.88
  -2  -6   9  128.19   12.65
   2   6  -8  384.92   45.91
  -2  -6   8  365.45   42.41
   2   6  -7  195.83   15.73
  -2  -6   7  188.36   15.04
   2   6  -6  284.57   21.48
  -2  -6   6  254.16   19.03
   2   6  -5  189.60   15.15
  -2  -6   5  170.91   14.20
  -2  -6   4  224.61   17.21
   2   6  -4  243.16   19.11
  -2  -6   4  230.11   18.23
  -2  -6   3   19.42    2.57
   2   6  -3   15.33    3.35
  -2  -6   3   17.15    3.24
  -2  -6   2   86.81    9.11
   2   6  -2   76.46    8.82
  -2  -6   2   80.03    8.84
  -2  -6   1    7.84    1.63
   2   6  -1    1.91    1.40
  -2  -6   0    1.72    1.15
   2   6   0    2.20    0.99
  -2  -6  -1   21.30    3.19
   2   6   1   19.45    5.74
  -2  -6  -2  262.77   20.45
   2   6   2  237.02   18.50
  -2  -6  -3  298.64   37.69
   2   6   3  285.95   35.85
  -2  -6  -4  235.26   22.18
   2   6   4  209.35   21.06
  -2  -6  -5   66.17   11.24
   2   6   5   61.43   17.48
   2   7  -9    4.47    1.63
  -2  -7   9    6.13    2.52
   2   7  -8   51.70    9.31
  -2  -7   8   54.91   11.84
   2   7  -7   91.97   19.45
  -2  -7   7   89.55    9.22
   2   7  -6  134.93   17.05
  -2  -7   6  125.31   15.17
   2   7  -5  115.95   14.86
  -2  -7   5  116.14   15.12
   2   7  -4   96.06   12.86
  -2  -7   4   90.30   12.06
  -2  -7   3   24.50    2.84
   2   7  -3   17.84    5.22
  -2  -7   3   21.02    3.27
  -2  -7   2    1.03    0.92
  -2  -7   1  176.86   22.34
   2   7  -1  168.67   21.45
  -2  -7   0  218.34   29.54
   2   7   0  202.20   23.92
  -2  -7  -1  116.45   21.21
   2   7   1  105.06   11.42
  -2  -7  -2   54.73    3.89
   2   7   2   50.03   16.18
  -2  -7  -3   41.20    4.08
   2   7   3   36.20    8.49
   2   7   4   18.36    4.36
   2   8  -7    1.86    1.04
  -2  -8   7    2.72    1.58
   2   8  -6    5.86    2.13
  -2  -8   6    4.42    2.26
   2   8  -5   24.11    6.40
  -2  -8   5   27.86    3.50
  -2  -8   4   90.41   15.10
  -2  -8   3  250.72   25.14
  -2  -8   2  117.37   18.97
   2   8  -2  122.54   20.89
  -2  -8   1   -0.04    0.93
   2   8  -1    0.13    1.02
  -2  -8   0    2.54    1.35
   2   8   0    3.44    1.73
  -2  -8  -1   14.40    2.80
   2   8   1   13.46    3.97
   3 -10  -1   54.57   10.97
  -3  10   1   35.80   13.29
   3 -10   0    6.04    1.51
  -3  10   0    5.24    1.74
  -3  10  -1    7.29    2.86
  -3  10  -2  118.62   19.43
  -3  10  -3  133.42   21.79
   3 -10   3   84.14   13.99
  -3  10  -4  235.32   45.14
   3 -10   4  160.00   30.63
  -3  10  -5  236.68   45.33
   3 -10   5  149.30   28.59
  -3   9   4   23.30    8.00
   3  -9  -3   67.24   11.50
  -3   9   3   48.25   10.23
   3  -9  -2   -0.57    1.22
  -3   9   2   -0.01    1.00
   3  -9  -1   74.90    8.04
  -3   9   1   62.95    6.50
   3  -9   0   84.26   10.38
   3  -9   0   78.26    9.56
  -3   9   0   64.75    8.12
   3  -9   1    1.26    1.20
  -3   9  -1    1.65    1.20
  -3   9  -2    7.36    1.81
   3  -9   2    3.45    1.32
  -3   9  -3    1.57    1.00
  -3   9  -3    0.43    1.39
   3  -9   3    0.44    0.87
  -3   9  -4    0.62    0.71
   3  -9   4    0.13    0.92
  -3   9  -5   36.11    7.63
   3  -9   5   27.88    3.71
  -3   9  -6  329.87   32.69
   3  -9   6  234.20   23.31
  -3   9  -7  147.94   31.51
   3  -9   7  113.99   18.65
  -3   9  -8   78.30   21.32
   3  -8  -6    5.12    2.28
  -3   8   6    4.40    1.48
   3  -8  -5  148.34   15.67
  -3   8   5  132.91   13.57
   3  -8  -4  419.30   48.55
  -3   8   4  350.17   40.34
   3  -8  -3  384.73   47.86
  -3   8   3  293.24   36.34
   3  -8  -2  275.62   21.11
   3  -8  -2  237.68   17.88
  -3   8   2  211.37   16.07
   3  -8  -1  278.34   21.58
   3  -8  -1  263.99   19.35
  -3   8   1  218.45   16.98
   3  -8   0   42.51    5.27
   3  -8   0   41.63    4.89
  -3   8   0   31.72    3.82
   3  -8   1    5.32    1.51
  -3   8  -2   25.68    5.45
   3  -8   2   25.63    3.61
   3  -8   2   16.56    2.54
  -3   8  -3    1.40    0.72
   3  -8   3    2.70    1.29
   3  -8   3    1.04    0.88
  -3   8  -4  143.91   10.72
  -3   8  -4  150.90   11.83
   3  -8   4  112.69    8.86
  -3   8  -5  214.63   16.76
   3  -8   5  158.53   12.75
  -3   8  -6    1.85    1.52
   3  -8   6    1.90    0.90
  -3   8  -7   -1.32    1.65
   3  -8   7    0.25    0.68
  -3   8  -8   46.52    7.58
   3  -8   8   41.16    3.27
  -3   8  -9   63.95   17.37
   3  -8   9   51.80   10.34
   3  -7  -8    9.83    2.81
  -3   7   8   10.71    2.23
   3  -7  -7    0.58    1.37
   3  -7  -6   35.76    6.05
  -3   7   6   29.69    5.00
   3  -7  -5   19.03    3.16
  -3   7   5   15.57    2.32
   3  -7  -4  162.75   12.70
   3  -7  -4  136.43   10.22
  -3   7   4  126.81   12.29
   3  -7  -3   94.05   10.20
   3  -7  -3   83.82    8.79
  -3   7   3   76.75    8.21
   3  -7  -2   75.06    8.07
   3  -7  -2   67.72    6.97
  -3   7   2   52.51    7.01
   3  -7  -1  312.84   15.52
   3  -7  -1  275.35   13.44
  -3   7   1  222.98   10.99
   3  -7   0 1105.25   51.01
   3  -7   0 1061.51   49.27
  -3   7   0  762.87   74.09
   3  -7   1  721.48   33.89
   3  -7   1  558.07   26.07
  -3   7  -2  177.11    9.03
   3  -7   2  156.63   15.45
   3  -7   2  118.63   10.48
  -3   7  -3  119.57   10.30
   3  -7   3  109.02    9.83
   3  -7   3   81.40    8.64
  -3   7  -4  459.07   30.76
   3  -7   4  468.53   31.96
   3  -7   4  377.65   26.86
  -3   7  -5   33.87    4.57
   3  -7   5   27.92    3.61
  -3   7  -6  166.21   13.04
   3  -7   6  136.84   10.60
  -3   7  -7   20.22    4.72
   3  -7   7   16.67    2.67
  -3   7  -8   90.35   12.70
   3  -7   8   84.59   10.40
  -3   7  -9   11.37    2.78
   3  -7   9   10.86    3.27
  -3   7 -10    6.64    2.43
   3  -7  10    6.52    2.05
   3  -6  -9   39.32    4.75
  -3   6   9   32.21    3.76
   3  -6  -8    0.21    1.31
  -3   6   8    0.81    1.45
  -3   6   7   94.70   12.26
   3  -6  -6   11.65    2.86
   3  -6  -6    9.12    1.47
  -3   6   6    8.83    1.63
   3  -6  -5   14.79    2.91
   3  -6  -5    9.85    1.55
  -3   6   5   12.88    4.29
   3  -6  -4  455.14   22.17
   3  -6  -4  360.71   17.32
  -3   6   4  377.57   17.92
   3  -6  -3  350.05   10.53
   3  -6  -3  315.62    9.21
  -3   6   3  292.28    8.30
   3  -6  -2  410.24   18.85
   3  -6  -2  356.63   16.27
  -3   6   2  315.81   14.30
   3  -6  -1   10.94    1.82
   3  -6  -1   11.27    1.88
  -3   6   1    7.51    2.23
   3  -6   0  376.81   17.10
   3  -6   0  350.10   15.94
   3  -6   0  279.26   12.66
  -3   6  -1  489.51   15.20
   3  -6   1  459.16   14.07
   3  -6   1  368.20   11.19
  -3   6  -2  328.48   15.22
   3  -6   2  333.11   15.37
   3  -6   2  270.65   12.38
  -3   6  -3 1701.79   75.47
   3  -6   3 1705.07   73.66
   3  -6   3 1438.47   61.99
  -3   6  -4 2461.32   56.77
   3  -6   4 2763.40  224.61
   3  -6   4 2350.92  190.93
  -3   6  -5  107.72    9.12
   3  -6   5   78.01    7.50
  -3   6  -6   13.39    3.35
   3  -6   6   18.66    2.64
  -3   6  -7    0.58    0.81
   3  -6   7    0.31    1.00
  -3   6  -8   42.36    7.66
   3  -6   8   35.19    4.38
  -3   6  -9    4.85    2.11
   3  -6   9    2.77    1.12
  -3   6 -10   15.20    4.57
   3  -6  10   14.65    3.78
   3  -5 -10   54.59   11.11
  -3   5  10   63.16   12.56
   3  -5  -9   39.66    5.10
  -3   5   9   40.24    5.00
   3  -5  -8  104.20   13.63
  -3   5   8   99.27   12.81
   3  -5  -7  623.51   46.04
   3  -5  -7  393.53   28.22
  -3   5   7  567.83   42.27
   3  -5  -6  650.88   44.93
   3  -5  -6  420.58   28.42
  -3   5   6  614.08   41.26
   3  -5  -5   41.58    5.03
   3  -5  -5   31.43    3.40
  -3   5   5   38.35    4.14
   3  -5  -4  116.29    9.21
   3  -5  -4   89.51    6.90
  -3   5   4   97.08    7.42
   3  -5  -3    0.41    0.91
   3  -5  -3    1.73    0.61
  -3   5   3    1.09    0.59
   3  -5  -2   64.19    4.26
   3  -5  -2   55.59    3.46
  -3   5   2   52.97    3.10
   3  -5  -1  230.19   12.38
   3  -5  -1  198.98    9.90
  -3   5   1  161.41    8.56
  -3   5   0   63.87    5.70
   3  -5   0   53.56    3.35
   3  -5   0   45.06    2.64
  -3   5  -1   33.75    2.35
   3  -5   1   37.08    2.80
   3  -5   1   27.83    1.91
  -3   5  -2  163.58    8.22
   3  -5   2  146.73    7.71
   3  -5   2  127.79    6.51
  -3   5  -3   52.38    3.30
   3  -5   3   62.84    4.09
   3  -5   3   60.26    3.56
  -3   5  -4  285.53    8.74
   3  -5   4  346.32   11.32
   3  -5   4  320.25   10.05
  -3   5  -5  585.38   25.50
   3  -5   5  819.37   36.26
   3  -5   5  767.09   36.70
  -3   5  -6  242.25    6.66
  -3   5  -6  333.11   10.34
   3  -5   6  322.34    9.57
  -3   5  -7  565.29   38.59
   3  -5   7  541.29   36.83
  -3   5  -8  352.24   26.01
   3  -5   8  336.43   25.50
  -3   5  -9  330.66   41.34
   3  -5   9  325.99   41.20
  -3   5 -10    1.38    1.32
   3  -5  10    2.05    1.95
  -3   5 -11   12.31    2.65
   3  -5  11   15.09    3.08
   3  -4 -11   32.89    5.97
  -3   4  11   34.96    4.17
   3  -4 -10   55.65    4.01
  -3   4  10   59.33    4.03
   3  -4  -9    3.59    1.68
   3  -4  -9    2.16    0.79
  -3   4   9    4.19    1.79
   3  -4  -8   34.25    4.60
   3  -4  -8   22.39    2.87
  -3   4   8   33.50    4.30
   3  -4  -7  172.16   12.52
   3  -4  -7  114.34    8.29
  -3   4   7  169.08   12.10
   3  -4  -6  577.17   15.95
   3  -4  -6  396.15   10.89
  -3   4   6  538.77   14.16
   3  -4  -5  380.94   17.49
   3  -4  -5  269.41   12.37
  -3   4   5  336.86   15.53
   3  -4  -4  304.84    9.93
   3  -4  -4  223.88    7.26
  -3   4   4  279.64    8.59
   3  -4  -3 1515.30   41.31
   3  -4  -3 1127.68   30.66
  -3   4   3 1261.84   34.26
   3  -4  -2 1083.10   31.80
   3  -4  -2  866.22   25.52
  -3   4   2  871.17   24.93
  -3   4   1  973.14   35.48
   3  -4  -1  770.08   22.69
  -3   4   1  673.69   22.95
  -3   4   0  504.95   20.60
   3  -4   0  460.78   18.92
   3  -4   0  392.51   15.78
  -3   4  -1  275.30   12.19
   3  -4   1  253.47   10.83
   3  -4   1  231.91    9.63
  -3   4  -2   42.42    2.46
   3  -4   2   42.48    2.65
   3  -4   2   35.57    1.94
  -3   4  -3   75.86    4.12
   3  -4   3   85.85    4.98
   3  -4   3   79.48    4.31
  -3   4  -4  111.51    5.72
   3  -4   4  149.91    7.91
   3  -4   4  141.44    7.59
  -3   4  -5   42.00    2.63
   3  -4   5   60.28    3.93
   3  -4   5   58.74    3.72
  -3   4  -6   17.62    3.30
  -3   4  -6   21.46    2.60
   3  -4   6   20.77    2.36
  -3   4  -7    3.00    0.81
  -3   4  -7    4.42    1.56
   3  -4   7    3.37    1.35
  -3   4  -8  459.72   35.41
   3  -4   8  448.53   34.30
  -3   4  -9  437.23   33.45
   3  -4   9  450.27   34.28
  -3   4 -10   57.54    9.21
   3  -4  10   61.57    9.22
  -3   4 -11   57.43   10.60
   3  -4  11   61.80   11.92
   3  -3 -11   32.66    3.40
  -3   3  11   31.55    7.34
   3  -3 -10  152.85   18.25
   3  -3 -10   90.45   13.35
  -3   3  10  156.14   18.62
   3  -3  -9   18.32    4.07
   3  -3  -9   12.88    3.51
  -3   3   9   18.69    3.67
   3  -3  -8   18.25    2.78
   3  -3  -8   14.43    4.43
  -3   3   8   17.88    2.88
   3  -3  -7  100.89    9.58
   3  -3  -7   65.41    6.24
  -3   3   7   97.92    9.07
   3  -3  -6   50.20    4.21
  -3   3   6   67.74    6.62
   3  -3  -5    2.61    1.11
   3  -3  -5    3.39    0.87
  -3   3   5    3.63    0.96
   3  -3  -4   19.85    1.94
   3  -3  -4   14.23    1.43
   3  -3  -3 1313.55   38.00
   3  -3  -3  984.34   28.65
  -3   3   3 1194.88   34.02
  -3   3   2 6146.26  176.24
   3  -3  -2 4816.45  135.32
  -3   3   2 5401.09  151.06
  -3   3   1 3303.99   40.66
   3  -3  -1 2649.82   31.83
  -3   3   1 2581.84   28.52
  -3   3   0  225.22    5.13
   3  -3   0  190.70    4.38
   3  -3   0  178.69    2.59
   3  -3   1  293.50    6.00
   3  -3   1  287.53    4.20
  -3   3  -2  205.72    8.82
   3  -3   2  204.59    8.89
   3  -3   2  212.70    8.85
  -3   3  -3   16.10    1.43
   3  -3   3   18.74    1.79
   3  -3   3   19.12    3.08
  -3   3  -4  208.73   10.17
   3  -3   4  292.40   14.20
   3  -3   4  285.56   13.75
  -3   3  -5  378.82   11.41
   3  -3   5  484.75   14.59
   3  -3   5  462.56   14.00
  -3   3  -6   50.69    4.13
  -3   3  -6   50.49    4.70
   3  -3   6   48.32    4.24
  -3   3  -7   75.70    7.00
  -3   3  -7   84.49   10.67
   3  -3   7   76.21    7.42
  -3   3  -8  123.43    8.79
  -3   3  -8  127.11   15.03
   3  -3   8  119.66   12.14
  -3   3  -9  138.02   12.77
   3  -3   9  161.72   13.02
  -3   3 -10   34.52    7.60
   3  -3  10   42.14    6.66
  -3   3 -11    3.59    1.71
   3  -3  11    2.99    2.15
  -3   2  12   71.78   14.19
   3  -2 -11    8.98    1.77
   3  -2 -11    7.89    1.52
  -3   2  11   10.42    2.64
  -3   2  10    0.88    1.56
   3  -2  -9  217.26   17.01
   3  -2  -9  151.79   12.15
  -3   2   9  205.39   16.62
   3  -2  -8  229.98   11.53
   3  -2  -8  174.44    9.06
  -3   2   8  242.64   12.15
   3  -2  -7  116.75    9.07
   3  -2  -7   81.22    6.58
  -3   2   7  120.39    9.31
   3  -2  -6  588.77   17.31
   3  -2  -6  464.26   14.01
  -3   2   6  613.78   17.81
   3  -2  -5 1610.64   43.70
   3  -2  -5 1235.57   33.99
  -3   2   5 1590.32   42.55
  -3   2   4   20.66    4.09
   3  -2  -4   24.01    5.24
  -3   2   4   21.27    1.40
  -3   2   3  535.16   25.46
   3  -2  -3  413.65   17.00
  -3   2   3  533.33   21.29
  -3   2   2 1528.37   22.23
   3  -2  -2 1193.50   15.42
  -3   2   2 1496.92   16.81
  -3   2   0 1353.92   16.89
   3  -2   0 1199.73   15.48
  -3   2  -1  107.21    2.89
   3  -2   1  104.47    2.78
   3  -2   1  105.69    2.07
  -3   2  -2 2309.18   27.91
   3  -2   2 2891.80   34.01
   3  -2   2 2795.51   32.22
  -3   2  -3 3715.32  109.86
   3  -2   3 5049.70  141.82
   3  -2   3 4769.73  133.96
  -3   2  -4  101.45    5.38
   3  -2   4  130.60    7.06
   3  -2   4  122.93    6.44
  -3   2  -5  159.19    5.55
   3  -2   5  171.70    6.00
   3  -2   5  161.94    6.00
  -3   2  -6  109.94    8.35
  -3   2  -6  107.23    8.44
   3  -2   6  114.63    8.92
  -3   2  -7   15.26    2.16
  -3   2  -7   16.10    3.61
   3  -2   7   15.03    2.43
  -3   2  -8  883.82   66.28
  -3   2  -8  778.69   69.44
   3  -2   8  843.08   63.67
  -3   2  -9  221.35   16.76
  -3   2  -9  189.83   17.49
   3  -2   9  213.39   16.57
  -3   2 -10    0.91    0.99
   3  -2  10    0.25    1.47
   3  -2  11   14.84    3.43
   3  -1 -12   92.69   15.58
  -3   1  12  138.97   22.62
   3  -1 -11    1.84    1.15
  -3   1  11    3.40    1.87
  -3   1  10   32.19    6.05
   3  -1 -10   29.04    3.62
  -3   1  10   39.45    4.57
   3  -1  -9  584.93   39.45
  -3   1   9  763.47   51.62
  -3   1   8 1573.73  111.95
   3  -1  -8 1247.38   30.91
  -3   1   8 1600.94   39.15
  -3   1   7   94.76    7.79
   3  -1  -7   77.93    6.37
  -3   1   7   98.11    7.62
  -3   1   6  667.27   21.41
   3  -1  -6  565.11   16.42
  -3   1   6  708.18   20.17
  -3   1   5   30.95    2.28
   3  -1  -5   24.60    2.06
  -3   1   5   31.96    3.44
  -3   1   4   84.50    6.71
   3  -1  -4   67.00    3.79
  -3   1   4   90.14    4.11
  -3   1   3  776.96   10.82
   3  -1  -3  651.25    9.66
  -3   1   3  833.09   10.46
  -3   1   2 5225.24   59.13
   3  -1  -2 4361.00   49.88
  -3   1   2 5208.06   57.26
  -3   1   1  207.25    3.98
   3  -1  -1  193.00    3.79
  -3   1   0  662.05    9.73
   3  -1   0  727.03    9.83
   3  -1   0  652.09    8.05
  -3   1  -1  264.92    4.94
   3  -1   1  335.75    5.41
   3  -1   1  305.05    4.65
  -3   1  -2 1496.65   19.07
   3  -1   2 1993.60   23.85
   3  -1   2 1842.43   22.19
  -3   1  -3  761.72   26.25
   3  -1   3  943.17   27.36
   3  -1   3  864.71   25.30
  -3   1  -4  256.53   12.51
   3  -1   4  295.90   14.10
   3  -1   4  261.76   13.25
  -3   1  -5  113.45    6.21
  -3   1  -5  110.70    5.98
   3  -1   5  115.50    6.34
  -3   1  -6 1369.03   59.24
  -3   1  -6 1221.38   62.02
   3  -1   6 1298.71   59.91
  -3   1  -7    4.17    1.36
  -3   1  -7    3.10    1.05
   3  -1   7    2.33    2.04
  -3   1  -8   15.00    2.63
  -3   1  -8   12.59    2.79
   3  -1   8   28.60    4.37
  -3   1  -9   11.86    3.54
  -3   1  -9   10.53    2.70
   3  -1   9   11.44    2.63
  -3   1 -10    5.55    1.40
   3  -1  10    3.47    1.90
   3  -1  11   -0.03    1.09
   3   0 -12  134.04   21.71
  -3   0  12  180.11   29.15
   3   0 -11    8.49    1.78
  -3   0  11    9.49    1.95
   3   0 -10    1.56    1.37
  -3   0  10    5.91    1.58
  -3   0   9  718.32   48.80
   3   0  -9  647.49   43.76
  -3   0   9  816.79   55.29
  -3   0   8   90.22    8.45
   3   0  -8   80.84    7.78
  -3   0   8  105.07    9.85
  -3   0   7   96.99    7.78
   3   0  -7   80.14    6.66
  -3   0   7   96.97    7.58
  -3   0   6    6.16    1.32
   3   0  -6    6.11    1.33
  -3   0   6    6.31    1.29
  -3   0   5 1179.51   34.07
   3   0  -5 1059.66   30.97
  -3   0   5 1290.69   37.82
  -3   0   4 2663.77   75.36
   3   0  -4 2531.52   71.98
  -3   0   4 2903.09   81.98
  -3   0   3   49.66    2.73
   3   0  -3   48.41    2.11
  -3   0   3   56.99    1.86
  -3   0   2    4.62    0.97
   3   0  -2    4.66    0.93
  -3   0   2    1.31    0.57
  -3   0   1  200.05    4.06
   3   0  -1  240.98    5.50
  -3   0   1  224.75    3.79
  -3   0   0 2008.15   24.30
   3   0   0 2524.28   29.13
   3   0   0 2335.94   27.40
  -3   0  -1 1073.79   14.49
   3   0   1 1318.66   15.90
   3   0   1 1218.71   15.49
  -3   0  -2 2185.86   62.14
   3   0   2 2529.24   71.17
   3   0   2 2259.03   64.46
  -3   0  -3  602.70   18.77
   3   0   3  647.35   18.82
   3   0   3  587.10   18.15
  -3   0  -4    6.49    1.44
   3   0   4   11.32    1.72
   3   0   4    5.30    1.26
  -3   0  -5   13.54    1.75
  -3   0  -5   11.89    2.04
   3   0   5   12.30    2.63
  -3   0  -6   24.33    3.07
  -3   0  -6   22.34    2.84
   3   0   6   23.66    3.24
  -3   0  -7  405.06   27.60
  -3   0  -7  321.84   21.70
   3   0   7  383.98   26.35
  -3   0  -8  146.99   11.37
   3   0   8  146.99   11.58
  -3   0  -9   60.78    9.07
   3   0   9   58.28    8.86
  -3   0 -10   42.91    3.36
   3   0  10   43.03    3.76
   3   1 -12   53.45    5.47
  -3  -1  12   65.17    6.50
   3   1 -11   23.86    4.18
  -3  -1  11   27.05    4.63
   3   1 -10  233.08   17.64
  -3  -1  10  286.11   21.76
   3   1  -9  175.02   13.12
  -3  -1   9  202.13   14.50
  -3  -1   8  890.22   21.12
   3   1  -8  950.29   24.78
  -3  -1   8 1041.85   26.99
  -3  -1   7   89.88    6.76
   3   1  -7   92.86    7.49
  -3  -1   6   31.01    3.99
   3   1  -6   29.41    2.63
  -3  -1   6   36.39    2.62
  -3  -1   5    2.69    0.94
  -3  -1   5    2.50    1.10
  -3  -1   4 1050.30   30.06
   3   1  -4 1330.61   38.44
  -3  -1   4 1446.25   41.89
  -3  -1   3  655.58   19.17
   3   1  -3  887.24   25.89
  -3  -1   3  911.35   26.74
  -3  -1   2  229.82    9.93
   3   1  -2  314.78   13.44
  -3  -1   2  308.94   12.78
  -3  -1   1   53.89    3.08
   3   1  -1   66.69    3.74
  -3  -1   1   63.78    3.26
  -3  -1   0  706.30   20.85
   3   1   0  824.55   23.66
   3   1   0  757.88   22.24
  -3  -1  -1  147.04    7.17
   3   1   1  148.92    6.25
   3   1   1  143.45    6.52
  -3  -1  -2  493.35   23.36
   3   1   2  478.95   22.09
   3   1   2  459.99   21.80
  -3  -1  -3 2118.73   56.90
   3   1   3 1906.42   51.89
  -3  -1  -4   87.73    5.30
   3   1   4   79.90    5.79
  -3  -1  -5  167.48    6.05
   3   1   5  155.18    5.73
  -3  -1  -6  366.86   17.88
   3   1   6  345.97   17.09
  -3  -1  -7  317.06   24.59
   3   1   7  291.16   23.21
  -3  -1  -8   45.09    8.69
   3   1   8   41.60    4.91
  -3  -1  -9    2.28    2.03
   3   1   9    1.69    1.62
  -3  -1 -10   53.68   10.76
   3   1  10   51.65   14.58
   3   2 -12    1.10    1.55
  -3  -2  12    1.58    1.53
   3   2 -11   26.34    4.72
  -3  -2  11   32.60    5.32
   3   2 -10   66.78    6.76
  -3  -2  10   68.83    6.90
   3   2  -9  109.99   11.92
  -3  -2   9  133.25   11.10
   3   2  -8  906.29   45.20
  -3  -2   8 1005.41   46.68
   3   2  -7  969.80   42.91
  -3  -2   6   23.68    1.50
   3   2  -6   40.60    3.45
  -3  -2   6   45.85    3.40
  -3  -2   5  549.45   15.12
   3   2  -5  843.54   25.59
  -3  -2   5  898.95   25.23
  -3  -2   4  931.16   25.15
   3   2  -4 1349.49   37.68
  -3  -2   4 1380.93   39.81
  -3  -2   3  278.90   11.65
   3   2  -3  364.24   15.52
  -3  -2   3  365.03   15.31
  -3  -2   2    3.30    0.95
   3   2  -2    1.97    1.06
  -3  -2   2    1.42    0.76
  -3  -2   1   27.83    1.95
   3   2  -1   29.52    1.83
  -3  -2   1   26.47    1.95
  -3  -2   0  995.38   27.35
   3   2   0 1012.23   27.03
   3   2   0  947.64   26.20
  -3  -2  -1  864.86   24.42
   3   2   1  821.18   21.85
   3   2   1  805.79   23.87
  -3  -2  -2    3.91    1.18
   3   2   2    3.23    1.10
  -3  -2  -3    7.18    1.71
   3   2   3    5.01    1.67
  -3  -2  -4   67.99    6.68
   3   2   4   64.08    6.59
  -3  -2  -5    0.89    1.32
   3   2   5    0.81    1.46
  -3  -2  -6  136.54   11.35
   3   2   6  123.42   10.39
  -3  -2  -7  402.11   33.79
   3   2   7  399.23   30.05
  -3  -2  -8   71.11    7.64
   3   2   8   71.44   12.88
  -3  -2  -9   19.31    2.78
   3   2   9   19.61    3.13
   3   3 -12    0.67    1.46
  -3  -3  12    1.87    1.52
   3   3 -11   26.59    5.92
  -3  -3  11   31.59    4.55
   3   3 -10  168.97   21.46
  -3  -3  10  175.64   22.32
   3   3  -9  105.78    8.80
  -3  -3   9  113.49    9.30
   3   3  -8    3.41    1.31
  -3  -3   8    1.46    1.84
   3   3  -7   84.64    7.90
  -3  -3   7   89.63    8.16
   3   3  -6   53.52    4.85
  -3  -3   6   55.70    5.02
  -3  -3   5  557.26   24.13
   3   3  -5  677.75   32.15
  -3  -3   5  692.37   30.78
  -3  -3   4 2394.72   64.78
   3   3  -4 2798.30  196.91
  -3  -3   4 2668.28   74.01
  -3  -3   3 2878.30  202.09
   3   3  -3 3233.48  227.39
  -3  -3   3 3218.14  226.52
  -3  -3   2  817.00   23.28
   3   3  -2  858.52   29.57
  -3  -3   2  830.86   27.68
  -3  -3   1  129.63    6.85
   3   3  -1  133.82    4.60
  -3  -3   1  124.55    6.79
  -3  -3   0  590.84   17.52
   3   3   0  557.64   15.75
   3   3   0  520.39   16.83
  -3  -3  -1   29.47    5.76
   3   3   1   27.95    6.63
  -3  -3  -2   31.31    3.19
   3   3   2   32.15    7.79
  -3  -3  -3   11.42    2.05
   3   3   3   11.25    3.17
  -3  -3  -4  378.12   27.21
   3   3   4  344.67   24.11
  -3  -3  -5  488.14   37.50
   3   3   5  460.02   35.47
  -3  -3  -6    2.48    1.67
   3   3   6    2.15    1.24
   3   3   7   12.58    2.44
  -3  -3  -8    8.20    2.87
   3   3   8    9.19    3.10
   3   4 -11   38.95    4.28
  -3  -4  11   49.71    4.76
   3   4 -10  300.98   36.39
  -3  -4  10  299.16   34.93
   3   4  -9   11.04    2.58
  -3  -4   9   13.19    2.67
   3   4  -8    2.29    1.36
  -3  -4   8    3.48    1.59
   3   4  -7  109.58   11.54
  -3  -4   7  104.74   10.77
   3   4  -6  427.11   21.08
  -3  -4   6  397.03   19.16
  -3  -4   5    5.59    0.95
   3   4  -5    6.32    1.82
  -3  -4   5    5.67    1.74
  -3  -4   4  230.86    6.73
   3   4  -4  245.67    8.13
  -3  -4   4  229.93    7.57
  -3  -4   3  157.14    7.59
   3   4  -3  173.59    9.79
  -3  -4   3  159.20    8.24
  -3  -4   2   10.03    1.45
   3   4  -2   12.69    1.72
  -3  -4   2   10.36    1.98
  -3  -4   1  496.31   22.30
   3   4  -1  492.04   21.97
  -3  -4   0  892.69   22.49
   3   4   0  827.56   23.94
  -3  -4  -1  888.24   41.12
   3   4   1  824.60   41.29
  -3  -4  -2  116.27   10.46
   3   4   2  102.70   13.75
  -3  -4  -3  494.76   38.06
   3   4   3  446.90   37.05
  -3  -4  -4  165.13   13.64
   3   4   4  150.90   12.87
  -3  -4  -5   71.96    7.19
   3   4   5   63.78   12.69
  -3  -4  -6    2.66    2.22
   3   4   6    0.37    1.45
  -3  -4  -7    3.31    2.48
   3   4   7    0.53    1.53
   3   5 -11  323.05   61.53
  -3  -5  11  310.84   59.10
   3   5 -10  481.44   50.60
  -3  -5  10  488.11  113.02
  -3  -5   9  259.86   30.49
   3   5  -8   11.66    2.94
  -3  -5   8   14.95    2.81
   3   5  -7  109.36    9.13
  -3  -5   7  107.16   10.87
   3   5  -6   10.43    2.76
  -3  -5   6   12.16    3.82
   3   5  -5   -0.38    1.20
  -3  -5   5    0.43    1.37
  -3  -5   4    6.50    1.65
   3   5  -4    6.86    1.73
  -3  -5   4    8.88    2.09
  -3  -5   3   91.49    9.55
   3   5  -3   94.60   10.08
  -3  -5   3   87.43    9.06
  -3  -5   2  318.89   21.81
   3   5  -2  335.48   22.89
  -3  -5   2  316.13   21.99
  -3  -5   1   94.45    9.59
   3   5  -1   88.40   12.24
  -3  -5   0   42.63    5.20
   3   5   0   44.46   11.75
  -3  -5  -1  171.09   13.88
   3   5   1  158.85   12.98
  -3  -5  -2  910.34   66.15
   3   5   2  848.71   61.52
  -3  -5  -3  199.31   25.26
   3   5   3  187.05   23.97
  -3  -5  -4  284.36   33.29
   3   5   4  255.22   34.54
  -3  -5  -5  110.79   11.89
   3   5   5  100.39   20.67
  -3  -5  -6   38.22    8.00
   3   5   6   37.77   12.19
   3   6 -10   60.12   12.12
  -3  -6  10   59.11   12.05
   3   6  -9  166.65   27.04
  -3  -6   9  152.26   24.70
   3   6  -8  258.20   24.37
  -3  -6   8  243.17   23.22
   3   6  -7  171.71   20.39
  -3  -6   7  178.99   21.41
   3   6  -6  508.65   63.50
  -3  -6   6  463.75   57.48
   3   6  -5  466.49   35.19
  -3  -6   5  429.64   32.45
  -3  -6   4   43.02    4.43
   3   6  -4   39.29    8.48
  -3  -6   4   47.41    5.68
  -3  -6   3    0.42    0.73
   3   6  -3    0.86    0.97
  -3  -6   3    0.07    1.35
  -3  -6   2   16.58    2.44
  -3  -6   1   40.09    4.46
   3   6  -1   35.94    9.50
  -3  -6   0    2.91    1.34
   3   6   0    2.46    1.45
  -3  -6  -1   36.74    5.89
   3   6   1   33.05    8.46
  -3  -6  -2    7.89    2.19
   3   6   2    7.83    2.34
  -3  -6  -3    6.32    1.91
   3   6   3    7.12    2.52
  -3  -6  -4    8.10    2.25
   3   6   4    9.78    3.30
   3   7  -8   19.79    3.49
  -3  -7   8   15.90    2.89
   3   7  -7    2.38    1.68
  -3  -7   7    2.90    1.80
   3   7  -6  295.53   31.34
  -3  -7   6  272.87   27.10
   3   7  -5  420.45   42.15
  -3  -7   5  402.02   39.38
  -3  -7   4  219.49   20.84
  -3  -7   3  236.34   21.78
  -3  -7   3  243.59   23.08
  -3  -7   2  283.50   26.12
   3   7  -2  279.69   26.77
  -3  -7   1   54.29    3.41
   3   7  -1   46.92   13.48
  -3  -7   0    1.39    1.14
   3   7   0    0.86    1.23
  -3  -7  -1    2.26    1.67
   3   7   1    0.89    1.37
  -3  -7  -2    5.44    1.96
   3   7   2    6.74    2.40
  -4  10   0   90.78   15.01
   4 -10   0   64.26    4.72
  -4  10  -1  142.66   23.16
   4 -10   1  119.21   19.39
  -4  10  -2   39.03   10.65
  -4  10  -3    0.80    1.75
  -4  10  -4   45.95    9.54
  -4  10  -5    0.37    1.30
   4  -9  -4  123.70   20.27
   4  -9  -3  169.37   17.43
   4  -9  -2   23.36    3.82
   4  -9  -2   21.29    2.21
   4  -9  -1    2.52    0.97
  -4   9   1    0.89    0.61
  -4   9   0    3.47    1.45
   4  -9   0    1.44    1.24
  -4   9   0    0.63    0.48
  -4   9  -1   94.24   11.58
   4  -9   1   90.31   11.16
  -4   9  -1   61.58    7.92
  -4   9  -2  181.56   21.48
   4  -9   2  176.84   20.81
   4  -9   2  120.12   14.21
  -4   9  -3   75.37    9.16
   4  -9   3   78.56   11.55
   4  -9   3   51.36    7.57
   4  -9   4  134.99   15.93
  -4   9  -5  232.00   22.26
   4  -9   5  157.09   14.86
  -4   9  -6   33.16    6.08
   4  -9   6   20.42    5.67
  -4   9  -7   11.91    3.29
   4  -9   7    7.93    1.86
   4  -8  -6   56.06    5.18
   4  -8  -5   52.14    6.22
   4  -8  -4    1.74    1.66
   4  -8  -4    1.21    0.78
  -4   8   4    0.97    0.85
   4  -8  -3  183.51   23.32
   4  -8  -3  144.05   18.21
  -4   8   3  144.18   18.09
   4  -8  -2  166.74   13.19
   4  -8  -2  149.75   11.71
  -4   8   2  125.79   10.48
   4  -8  -1   55.54    6.31
  -4   8   1   36.97    5.55
  -4   8   0   72.59   15.22
   4  -8   0   62.83    7.11
  -4   8   0   46.87    5.19
  -4   8  -1  450.06   34.39
   4  -8   1  415.69   31.92
   4  -8   1  287.45   22.07
  -4   8  -2  121.98    9.58
   4  -8   2  113.42    9.88
   4  -8   2   80.10    6.42
  -4   8  -3    9.11    2.31
   4  -8   3    8.87    2.35
   4  -8   3    6.46    1.39
  -4   8  -4   15.17    3.42
   4  -8   4   14.97    2.74
   4  -8   4   12.86    2.10
   4  -8   5  165.63   20.80
  -4   8  -6  198.04   24.26
   4  -8   6  163.49   19.27
  -4   8  -7   25.66    5.48
   4  -8   7   20.65    3.04
  -4   8  -8   15.33    3.87
   4  -8   8   10.72    2.11
  -4   8  -9   72.66   15.50
   4  -8   9   56.48   11.32
   4  -7  -8   14.61    2.89
   4  -7  -7   12.00    2.94
   4  -7  -6  162.07   19.41
  -4   7   6  147.00   17.45
   4  -7  -5  346.18   26.33
   4  -7  -5  247.66   18.86
  -4   7   5  302.65   22.64
   4  -7  -4   84.48    9.43
   4  -7  -4   69.77    7.57
  -4   7   4   72.11    7.65
   4  -7  -3   15.24    2.90
   4  -7  -3   13.22    2.15
  -4   7   3   10.49    3.94
   4  -7  -2   75.53    8.07
   4  -7  -2   61.91    6.63
  -4   7   2   56.54    6.74
  -4   7   1  127.71   12.02
   4  -7  -1   98.18    8.82
  -4   7   1   79.11    7.23
  -4   7   0  202.61   11.82
   4  -7   0  193.10   10.15
  -4   7   0  143.58    7.30
  -4   7  -1  698.93   34.91
   4  -7   1  629.89   29.56
   4  -7   1  487.70   22.65
  -4   7  -2  650.29   30.46
   4  -7   2  588.96   27.77
   4  -7   2  469.12   22.48
  -4   7  -3   83.09    7.48
   4  -7   3   84.27    7.90
   4  -7   3   63.57    5.82
  -4   7  -4  352.24   24.33
   4  -7   4  376.80   26.14
   4  -7   4  293.45   21.47
  -4   7  -5   69.21    7.29
   4  -7   5   78.40    8.83
   4  -7   5   71.31    7.72
  -4   7  -6   80.66    7.40
   4  -7   6   60.03    6.13
  -4   7  -7    3.26    1.14
   4  -7   7    2.04    1.32
  -4   7  -8   11.61    3.29
   4  -7   8   12.69    2.15
  -4   7  -9   75.18   14.13
   4  -7   9   61.59   14.88
   4  -6  -9  112.87   21.91
   4  -6  -8  161.45   15.61
  -4   6   8  155.08   14.77
   4  -6  -7   63.43    6.53
   4  -6  -7   40.39    4.05
  -4   6   7   55.99    5.33
   4  -6  -6  306.05   22.83
   4  -6  -6  208.35   15.45
  -4   6   6  283.94   20.69
   4  -6  -5   68.91    7.88
   4  -6  -5   50.43    5.61
  -4   6   5   64.50    6.86
   4  -6  -4   37.33    4.51
   4  -6  -4   30.26    3.22
  -4   6   4   27.12    4.05
   4  -6  -3  126.86   11.79
   4  -6  -3  100.94    9.34
  -4   6   3   94.14    8.97
   4  -6  -2  111.36    4.43
  -4   6   2   89.00    8.01
  -4   6   1 1046.91   45.97
   4  -6  -1  855.33   37.49
  -4   6   1  694.76   30.05
   4  -6   0  862.77   38.20
   4  -6   0  685.46   29.73
  -4   6  -1   59.21    4.99
   4  -6   1   48.12    4.33
   4  -6   1   38.50    3.21
  -4   6  -2   10.44    2.67
   4  -6   2    9.79    1.91
   4  -6   2    4.03    1.28
  -4   6  -3  416.71   11.32
   4  -6   3  435.75   12.41
   4  -6   3  376.47   10.10
  -4   6  -4   77.28    7.30
   4  -6   4   92.28    9.01
   4  -6   4   82.92    7.80
  -4   6  -5  700.57   32.20
   4  -6   5  853.97   39.69
   4  -6   5  808.45   37.37
  -4   6  -6  677.43   50.80
   4  -6   6  854.06   64.44
  -4   6  -7  130.31   12.37
   4  -6   7  115.56   10.66
  -4   6  -8    2.02    1.50
   4  -6   8    3.51    1.09
  -4   6  -9   29.20    7.07
   4  -6   9   23.21    5.01
  -4   6 -10   45.45   11.95
   4  -6  10   45.24   12.50
   4  -5 -10   -0.28    1.40
  -4   5  10    1.94    1.41
   4  -5  -9   40.94    5.21
  -4   5   9   41.06    4.88
   4  -5  -8   26.61    3.74
   4  -5  -8   16.85    2.29
  -4   5   8   26.28    3.16
   4  -5  -7   24.21    3.99
   4  -5  -7   14.76    2.12
  -4   5   7   20.95    2.82
   4  -5  -6   34.90    4.89
   4  -5  -6   23.18    3.00
  -4   5   6   32.07    3.73
   4  -5  -5  893.07   41.56
   4  -5  -5  628.86   29.63
  -4   5   5  801.68   36.83
   4  -5  -4 1288.78   56.05
   4  -5  -4  993.09   43.36
  -4   5   4 1143.29   49.18
   4  -5  -3  113.24   10.38
  -4   5   3  119.22    8.88
  -4   5   2  533.46   20.47
   4  -5  -2  431.75   15.09
  -4   5   2  422.35   11.94
  -4   5   1 1278.18   36.30
   4  -5  -1 1056.83   29.93
  -4   5   1  871.21   24.38
  -4   5   0 1274.61   34.91
   4  -5   0 1072.36   31.25
   4  -5   0  893.16   23.90
  -4   5  -1    2.59    0.71
   4  -5   1    4.48    1.28
   4  -5   1    1.67    0.59
  -4   5  -2    6.85    1.65
   4  -5   2    4.99    1.12
   4  -5   2    5.42    0.85
  -4   5  -3  487.02   14.67
   4  -5   3  505.87   15.47
   4  -5   3  480.27   14.83
  -4   5  -4  428.08   19.08
   4  -5   4  487.56   22.33
   4  -5   4  454.36   23.75
  -4   5  -5    1.54    1.11
   4  -5   5    2.30    2.06
   4  -5   5    2.26    0.91
  -4   5  -6  157.85    7.98
   4  -5   6  220.08   11.63
   4  -5   6  203.26   10.38
  -4   5  -7   11.81    1.78
  -4   5  -7   10.61    2.44
   4  -5   7    9.94    1.88
  -4   5  -8   35.75    7.25
   4  -5   8   31.73    3.90
  -4   5  -9  370.62   43.37
   4  -5   9  345.53   40.07
  -4   5 -10  248.76   40.19
   4  -5  10  250.58   40.33
   4  -4 -11   52.69   10.62
  -4   4  11   52.98   10.58
   4  -4 -10   29.81    3.34
   4  -4 -10   16.03    1.94
  -4   4  10   24.23    5.71
   4  -4  -9   15.31    2.80
   4  -4  -9    9.86    1.79
  -4   4   9   17.33    2.44
   4  -4  -8  246.67   18.68
   4  -4  -8  159.63   12.11
  -4   4   8  244.58   18.02
   4  -4  -7  709.80   47.87
   4  -4  -7  459.88   33.96
  -4   4   7  685.73   45.89
   4  -4  -6   87.02    8.38
   4  -4  -6   63.16    6.12
  -4   4   6   88.05    8.12
   4  -4  -5  333.45   15.30
  -4   4   5  434.10   19.48
  -4   4   4 1196.82   59.52
   4  -4  -4  881.17   25.19
  -4   4   4 1055.09   29.30
  -4   4   3  872.24   26.05
   4  -4  -3  673.27   19.17
  -4   4   3  768.35   20.61
  -4   4   2 2180.19   58.42
   4  -4  -2 1746.37   47.17
  -4   4   2 1838.01   48.24
  -4   4   1 5560.58  263.69
   4  -4  -1 4395.32  130.46
  -4   4   0  669.03   20.62
   4  -4   0  580.98   17.82
   4  -4   0  481.08   13.75
  -4   4  -1   26.95    3.57
   4  -4   1   19.47    2.15
   4  -4   1   19.33    1.26
  -4   4  -2   47.59    3.03
   4  -4   2   37.76    2.85
   4  -4   2   36.56    2.22
  -4   4  -3  428.16   12.60
   4  -4   3  476.47   14.20
   4  -4   3  482.08   13.83
  -4   4  -4  890.81   25.42
   4  -4   4 1157.40   32.80
   4  -4   4 1137.64   31.88
  -4   4  -5   91.24    7.34
   4  -4   5  121.38    9.44
   4  -4   5  113.24    8.68
  -4   4  -6   52.07    4.86
   4  -4   6   57.63    5.64
   4  -4   6   53.68    5.75
  -4   4  -7  175.82   12.38
  -4   4  -7  180.18   13.39
   4  -4   7  168.38   12.31
  -4   4  -8   20.53    2.75
  -4   4  -8   25.24    5.48
   4  -4   8   20.78    3.18
  -4   4  -9   28.33    6.56
   4  -4   9   24.24    4.28
  -4   4 -10  222.34   22.69
   4  -4  10  230.25   23.54
  -4   3  11  283.12   45.26
   4  -3 -11  164.59   27.73
  -4   3  11  297.06   47.35
   4  -3 -10   26.51    7.48
  -4   3  10   45.99    7.07
   4  -3  -9   34.38    8.53
  -4   3   9   48.50    5.14
   4  -3  -8  129.29   10.47
  -4   3   8  185.91   14.97
  -4   3   7  609.82   29.92
   4  -3  -7  423.12   20.18
  -4   3   7  622.34   28.92
  -4   3   6  247.61   12.49
   4  -3  -6  168.37    8.47
  -4   3   6  232.13   10.92
  -4   3   5   77.69    4.98
   4  -3  -5   57.98    3.70
  -4   3   5   76.41    4.13
  -4   3   4   10.04    2.17
  -4   3   4    8.76    0.85
  -4   3   3  744.09   21.34
   4  -3  -3  548.67   19.77
  -4   3   3  686.86   18.23
  -4   3   2   16.71    3.18
   4  -3  -2    8.49    1.63
  -4   3   1  822.35   24.65
   4  -3  -1  685.08   20.45
  -4   3   0 1915.04   61.91
   4  -3   0 1712.43   49.29
  -4   3  -1 1463.52   43.15
   4  -3   1 1392.38   40.31
   4  -3   1 1445.68   40.87
  -4   3  -2 1004.99   29.37
   4  -3   2 1092.46   32.18
   4  -3   2 1066.02   30.53
  -4   3  -3 3522.95   93.12
   4  -3   3 4357.65  115.99
   4  -3   3 4060.61  152.49
  -4   3  -4 1315.87   36.96
   4  -3   4 1719.87   47.66
   4  -3   4 1628.13   44.99
  -4   3  -5   45.07    5.92
   4  -3   5   59.14    5.10
   4  -3   5   56.37    4.78
  -4   3  -6   11.06    1.87
   4  -3   6   11.37    3.53
  -4   3  -7   62.06    6.53
  -4   3  -7   56.03    6.42
   4  -3   7   61.57    6.58
  -4   3  -8   65.34    7.11
  -4   3  -8   61.70    7.09
   4  -3   8   60.70    6.85
  -4   3  -9   24.28    3.95
  -4   3  -9   20.42    4.85
   4  -3   9   26.19    4.60
  -4   3 -10    8.33    1.91
   4  -3  10    8.44    2.28
   4  -2 -12   44.43    8.93
  -4   2  12   69.76   13.85
   4  -2 -11  165.36   16.69
  -4   2  11  246.39   25.05
  -4   2  10  212.31   26.79
   4  -2 -10  158.67   20.11
  -4   2  10  225.00   28.25
  -4   2   9  145.37   12.45
   4  -2  -9  106.02    8.69
  -4   2   9  148.16   11.38
  -4   2   8  568.10   44.17
   4  -2  -8  413.17   28.30
  -4   2   8  540.80   36.82
  -4   2   7 1494.63   37.10
   4  -2  -7 1112.08   28.42
  -4   2   7 1458.17   35.26
  -4   2   6  276.14   12.88
   4  -2  -6  223.70   11.02
  -4   2   6  267.51   12.17
  -4   2   5   91.45    5.94
   4  -2  -5   70.16    4.34
  -4   2   5   90.41    5.44
  -4   2   4  358.64   11.36
   4  -2  -4  278.16   13.63
  -4   2   4  367.75   10.26
  -4   2   3 1040.14   30.46
   4  -2  -3  830.36   24.56
  -4   2   3 1003.57   28.39
  -4   2   2  929.30   27.29
   4  -2  -2  764.02   23.84
  -4   2   1   75.69    3.93
   4  -2  -1   64.50    3.40
   4  -2  -1   60.14    2.46
  -4   2   0    8.47    1.81
   4  -2   0    7.21    1.12
   4  -2   0    8.28    0.60
  -4   2  -1   83.48    4.29
   4  -2   1   86.58    4.28
   4  -2   1   83.06    3.69
  -4   2  -2  354.36   15.11
   4  -2   2  435.75   17.95
   4  -2   2  399.82   16.25
  -4   2  -3 1280.68   35.17
   4  -2   3 1603.04   43.14
   4  -2   3 1458.37   39.16
  -4   2  -4 1814.76   50.97
   4  -2   4 2197.48   60.14
   4  -2   4 2000.82   55.03
  -4   2  -5  650.28   28.91
   4  -2   5  727.98   31.97
   4  -2   5  673.24   29.87
  -4   2  -6  406.50   11.34
  -4   2  -6  394.13   18.17
   4  -2   6  388.91   11.80
  -4   2  -7  165.01   11.86
  -4   2  -7  161.72   14.65
   4  -2   7  152.61   11.54
  -4   2  -8  184.03   16.95
  -4   2  -8  168.53   13.76
   4  -2   8  183.02   14.42
  -4   2  -9   72.53    8.98
  -4   2  -9   58.92    9.65
   4  -2   9   73.84    9.34
   4  -2  10    2.41    1.90
   4  -1 -12    2.00    1.61
  -4   1  12    6.20    2.09
   4  -1 -11   28.44    5.82
  -4   1  11   33.87    6.16
  -4   1  10    5.33    1.04
   4  -1 -10    5.70    1.86
  -4   1  10    5.33    1.59
  -4   1   9   14.91    3.24
   4  -1  -9   11.84    2.40
  -4   1   9   13.69    3.74
  -4   1   8  318.24   16.68
   4  -1  -8  268.65   14.74
  -4   1   8  342.07   17.94
  -4   1   7 1558.41   75.32
   4  -1  -7 1330.58   58.14
  -4   1   7 1607.67   69.44
  -4   1   6 1702.59   47.57
   4  -1  -6 1363.21   41.44
  -4   1   6 1716.70   47.30
  -4   1   5 1265.36   34.47
   4  -1  -5 1079.76   30.01
  -4   1   5 1284.32   34.45
  -4   1   4  581.25   16.49
   4  -1  -4  482.93   15.29
  -4   1   4  574.97   15.80
  -4   1   3 1462.20   42.10
   4  -1  -3 1269.07   38.88
  -4   1   3 1397.41   39.62
  -4   1   2  183.65    8.09
   4  -1  -2  172.34    7.72
  -4   1   2  175.94    7.29
  -4   1   1  840.70   24.66
   4  -1  -1  860.66   25.21
   4  -1  -1  782.51   22.63
  -4   1   0  280.24   12.24
   4  -1   0  323.75   13.51
   4  -1   0  301.54   12.38
  -4   1  -1  451.28   14.18
   4  -1   1  516.17   24.12
   4  -1   1  482.48   14.31
  -4   1  -2  738.89   20.99
   4  -1   2  887.88   24.22
   4  -1   2  814.32   22.90
  -4   1  -3   25.34    5.57
   4  -1   3   35.12    2.39
   4  -1   3   25.08    2.25
  -4   1  -4  153.86    5.83
   4  -1   4  169.31    5.85
   4  -1   4  161.22    5.91
  -4   1  -5  223.55   10.90
   4  -1   5  235.24   10.86
   4  -1   5  220.46   10.71
  -4   1  -6   59.12    5.88
  -4   1  -6   55.25    6.31
   4  -1   6   52.50    5.31
  -4   1  -7  139.85   11.46
  -4   1  -7  117.98   12.40
   4  -1   7  122.71   10.14
  -4   1  -8 1106.67   89.56
   4  -1   8 1010.61   73.97
  -4   1  -9  178.41   16.84
   4  -1   9  184.10   17.71
  -4   1 -10    8.03    3.11
   4  -1  10   10.01    2.83
   4   0 -12    8.79    2.29
  -4   0  12   11.39    2.95
   4   0 -11    1.01    0.80
  -4   0  11   -0.21    1.32
   4   0 -10   71.14    6.57
  -4   0  10   79.41    6.92
  -4   0   9  156.11   12.32
   4   0  -9  140.01   11.46
  -4   0   9  163.45   13.06
  -4   0   8   73.44    7.37
   4   0  -8   66.70    6.46
  -4   0   8   76.06   12.00
  -4   0   7  158.29    7.63
   4   0  -7  152.96    8.19
  -4   0   7  173.14    8.72
  -4   0   6  145.27   10.68
   4   0  -6  139.17    5.61
  -4   0   6  163.39    5.78
  -4   0   5    2.82    0.86
   4   0  -5    4.81    1.33
  -4   0   5    6.40    1.19
  -4   0   4  352.01   10.41
   4   0  -4  365.53   11.24
  -4   0   4  412.37   12.05
  -4   0   3 2567.66   72.91
   4   0  -3 2777.25   79.68
  -4   0   3 2954.71   83.64
  -4   0   2 8398.76  243.15
   4   0  -2 9870.74  278.26
  -4   0   2 9952.56  453.06
  -4   0   1  481.42   14.81
   4   0  -1  593.00   17.78
   4   0  -1  543.08   16.30
  -4   0   0  475.68   14.70
   4   0   0  570.06   16.89
   4   0   0  515.98   15.46
  -4   0  -1  394.07   13.63
   4   0   1  467.03   13.17
   4   0   1  436.53   12.56
  -4   0  -2  517.02   15.34
   4   0   2  583.44   16.16
   4   0   2  539.12   16.31
  -4   0  -3  156.88    5.95
   4   0   3  169.35    5.43
   4   0   3  165.07    5.94
  -4   0  -4  154.41    7.92
   4   0   4  158.14    7.35
   4   0   4  151.21    7.63
  -4   0  -5   44.55    4.81
  -4   0  -5   37.65    4.84
   4   0   5   40.17    4.47
  -4   0  -6  373.85   25.68
   4   0   6  330.38   23.98
  -4   0  -7    8.39    2.33
   4   0   7    6.79    1.96
  -4   0  -8   78.16    9.68
   4   0   8   83.11   10.44
  -4   0  -9   72.03   16.12
   4   0   9   78.93    8.91
   4   1 -12   98.77   16.46
  -4  -1  12  113.35   18.61
   4   1 -11   19.70    3.32
  -4  -1  11   29.55    4.21
   4   1 -10    2.89    1.34
  -4  -1  10    5.10    1.67
   4   1  -9  205.24   16.48
  -4  -1   9  242.58   19.00
  -4  -1   8   25.54    2.55
   4   1  -8   30.34    4.23
  -4  -1   8   26.30    3.10
  -4  -1   7   34.34    3.85
   4   1  -7   36.52    4.20
  -4  -1   7   49.39    5.09
  -4  -1   6   36.66    3.15
   4   1  -6   41.07    4.04
  -4  -1   6   45.48    4.00
  -4  -1   5  652.25   18.55
   4   1  -5  818.17   24.33
  -4  -1   5  863.78   26.47
  -4  -1   4   22.67    1.78
   4   1  -4   30.70    2.74
  -4  -1   4   27.80    5.98
  -4  -1   3  860.31   23.73
   4   1  -3 1091.89   30.16
  -4  -1   3 1069.81   29.39
  -4  -1   2 1359.72   38.03
   4   1  -2 1743.93   47.02
  -4  -1   2 1668.33   45.89
  -4  -1   1  673.98   21.17
   4   1  -1  831.43   22.94
   4   1  -1  771.36   21.69
  -4  -1   0  587.09   16.98
   4   1   0  691.91   19.01
   4   1   0  635.81   18.83
  -4  -1  -1 2078.89   56.08
   4   1   1 2289.59   60.57
   4   1   1 2227.75   60.36
  -4  -1  -2  726.25   21.32
   4   1   2  763.69   21.16
   4   1   2  737.24   23.11
  -4  -1  -3  232.42   11.33
   4   1   3  216.49    9.69
   4   1   3  220.98   15.70
  -4  -1  -4   55.54    5.77
   4   1   4   45.73    4.87
  -4  -1  -5  107.54   10.97
   4   1   5  104.13   10.71
  -4  -1  -6  166.26   12.90
   4   1   6  150.24   12.04
  -4  -1  -7    2.82    1.56
   4   1   7    2.20    1.26
  -4  -1  -8   33.27    8.01
   4   1   8   31.64    4.22
  -4  -1  -9    2.23    1.57
   4   1   9    1.85    1.28
   4   2 -12   34.43    7.56
  -4  -2  12   34.39    4.48
   4   2 -11    7.05    2.23
  -4  -2  11    8.50    2.51
   4   2 -10  283.26   35.40
  -4  -2  10  318.06   39.58
   4   2  -9  885.24   63.50
  -4  -2   9  950.98   67.67
   4   2  -8  533.09   36.36
  -4  -2   8  551.84   37.37
  -4  -2   7   30.79    2.89
   4   2  -7   43.99    4.77
  -4  -2   7   48.96    4.90
  -4  -2   6    7.02    1.29
   4   2  -6    8.73    1.69
  -4  -2   6   11.49    3.10
  -4  -2   5    8.22    1.21
   4   2  -5   11.36    1.98
  -4  -2   5   10.19    1.69
  -4  -2   4    3.60    0.74
   4   2  -4    5.09    1.52
  -4  -2   4    7.39    1.42
  -4  -2   3  227.89    7.42
   4   2  -3  296.59    9.38
  -4  -2   3  282.89    9.15
  -4  -2   2   52.51    3.45
   4   2  -2   63.19    3.77
  -4  -2   2   60.83    3.99
   4   2  -1  354.55   10.59
   4   2  -1  326.82   11.68
  -4  -2   0  126.87    6.95
   4   2   0  132.67    4.46
   4   2   0  132.38    5.54
  -4  -2  -1   64.62    5.48
   4   2   1   59.82    4.53
   4   2   1   62.12    5.86
  -4  -2  -2  773.56   20.24
   4   2   2  735.66   19.87
  -4  -2  -3 1046.63   48.30
   4   2   3 1004.79   62.05
  -4  -2  -4  544.93   37.56
   4   2   4  535.41   36.83
  -4  -2  -5  612.46   44.22
   4   2   5  575.39   43.00
  -4  -2  -6  377.37   46.88
   4   2   6  369.55   46.12
  -4  -2  -7    5.75    2.16
   4   2   7    4.91    2.19
  -4  -2  -8    4.75    2.21
   4   2   8    2.72    2.05
   4   3 -11   19.91    3.19
  -4  -3  11   16.52    3.71
   4   3 -10   41.81    6.82
  -4  -3  10   45.97    7.27
   4   3  -9  431.21   33.42
  -4  -3   9  447.53   33.44
   4   3  -8  513.46   37.93
  -4  -3   8  525.06   38.80
   4   3  -7  415.09   28.55
  -4  -3   7  391.46   26.86
  -4  -3   6  179.71    8.74
   4   3  -6  250.74   13.11
  -4  -3   6  250.33   12.70
  -4  -3   5  410.36   10.87
   4   3  -5  534.87   14.70
  -4  -3   4  303.38    8.47
   4   3  -4  361.89   12.68
  -4  -3   3   30.53    2.94
   4   3  -3   30.24    3.02
  -4  -3   3   27.08    2.89
  -4  -3   2    7.02    1.47
   4   3  -2    6.83    1.32
  -4  -3   2    6.83    1.83
  -4  -3   1    2.53    1.06
   4   3  -1    1.96    0.73
   4   3  -1    2.90    1.10
  -4  -3   0   28.07    3.36
   4   3   0   26.02    2.58
   4   3   0   29.16    6.58
  -4  -3  -1   23.78    3.05
   4   3   1   28.48    5.64
  -4  -3  -2  125.06   13.17
   4   3   2  118.49   12.54
  -4  -3  -3   88.33    9.64
   4   3   3   83.70    9.35
  -4  -3  -4   33.49    4.62
   4   3   4   32.37    6.88
  -4  -3  -5  107.80   14.10
   4   3   5  107.67   14.02
  -4  -3  -6  106.04   14.52
   4   3   6  109.98   11.21
  -4  -3  -7  149.08   24.22
   4   3   7  151.21   24.80
   4   4 -11    2.58    1.78
  -4  -4  11    2.00    1.62
   4   4 -10    5.62    2.28
  -4  -4  10    5.63    2.11
  -4  -4   9   20.48    4.02
   4   4  -8   17.67    3.06
  -4  -4   8   18.16    3.04
   4   4  -7    1.91    1.69
  -4  -4   7    3.21    1.56
   4   4  -6   21.10    5.83
  -4  -4   6   20.34    3.12
  -4  -4   5  314.94   21.32
   4   4  -5  393.15   27.18
  -4  -4   5  356.11   24.55
  -4  -4   4  939.61   62.50
   4   4  -4 1091.84  107.73
  -4  -4   4 1067.81  105.59
  -4  -4   3  899.21   60.05
   4   4  -3  973.93   95.99
  -4  -4   3  931.80   63.93
  -4  -4   2  223.07   15.68
   4   4  -2  238.39   16.48
  -4  -4   2  234.57   16.66
  -4  -4   1  210.23   15.66
   4   4  -1  212.80   14.52
   4   4  -1  206.89   14.83
  -4  -4   0   25.86    3.47
   4   4   0   26.06    6.52
  -4  -4  -1   -1.02    1.30
   4   4   1    0.17    1.05
  -4  -4  -2  239.73   18.05
   4   4   2  223.09   18.42
  -4  -4  -3   77.37    4.34
   4   4   3   73.87   14.64
  -4  -4  -4   16.82    3.66
   4   4   4   19.68    4.76
  -4  -4  -5    1.83    1.94
   4   4   5    0.60    0.82
  -4  -4  -6   40.11    8.33
   4   4   6   35.66   11.43
   4   5 -10    0.16    1.64
  -4  -5  10   -0.58    1.44
   4   5  -9   88.39    9.85
  -4  -5   9   85.92    9.46
   4   5  -8  196.81   19.24
  -4  -5   8  188.38   17.92
   4   5  -7   20.54    3.97
  -4  -5   7   18.42    5.65
   4   5  -6   87.69   11.48
  -4  -5   6   76.45    4.34
   4   5  -5   78.17    6.89
  -4  -5   5   75.23   13.67
  -4  -5   4   43.92    4.96
   4   5  -4   50.06    5.71
  -4  -5   4   39.79    5.01
  -4  -5   3   23.02    3.06
   4   5  -3   23.46    3.12
  -4  -5   3   22.61    3.74
  -4  -5   2   44.41    5.17
   4   5  -2   41.39    5.47
  -4  -5   1  328.29   24.74
   4   5  -1  350.53   26.81
  -4  -5   0  823.24   60.59
   4   5   0  866.45   71.11
  -4  -5  -1  133.83   17.21
   4   5   1  137.35   27.68
  -4  -5  -2    3.99    1.58
   4   5   2    3.47    1.85
  -4  -5  -3   40.82    3.59
   4   5   3   37.22    7.25
  -4  -5  -4    4.09    2.11
   4   5   4    2.47    1.38
   4   6  -8    2.27    1.96
  -4  -6   8    2.52    1.71
   4   6  -7   24.55    3.16
  -4  -6   7   25.62    3.07
   4   6  -6   28.22    5.30
  -4  -6   6   28.56    4.15
   4   6  -5  105.01   10.31
  -4  -6   5   98.62   10.14
   4   6  -4  103.12   12.36
  -4  -6   4  106.31   13.26
  -4  -6   3    2.43    1.03
  -4  -6   3    2.05    1.72
  -4  -6   2   18.54    2.06
   4   6  -2   16.50    5.06
  -4  -6   1   45.34    5.19
   4   6  -1   41.97   10.46
  -4  -6   0   49.27    3.39
   4   6   0   54.16   10.98
  -4  -6  -1   22.30    2.92
   4   6   1   18.74    4.39
  -4  -6  -2   50.85   10.32
   4   6   2   46.38   14.36
  -4  -7   5    4.09    1.97
  -4  -7   4   22.58    3.63
   4   7  -3  106.20   22.11
  -4  -7   2   59.28   11.69
   4   7  -2   55.77   17.54
  -4  -7   1   33.77    3.93
   4   7  -1   32.38   10.46
  -5  10   2    1.43    1.51
  -5  10   1    0.39    1.18
   5 -10  -1   -0.39    0.80
  -5  10   0    0.42    0.91
   5 -10   0    4.08    1.73
  -5  10  -1   34.79   10.65
   5 -10   1   38.37    3.80
  -5  10  -2  276.70   44.32
   5 -10   2  249.60   39.96
   5 -10   3  183.18   34.96
  -5   9   4   19.62    3.05
  -5   9   3   40.69    8.17
   5  -9  -3   29.91    2.54
  -5   9   2    4.87    1.49
   5  -9  -2    2.12    1.27
  -5   9   1    2.57    1.19
   5  -9  -1    1.34    0.99
  -5   9   0  156.18   18.65
   5  -9   0  123.86   14.86
  -5   9  -1   79.11    9.79
   5  -9   1   69.27   10.26
   5  -9   2    2.84    1.91
  -5   9  -3   16.22    4.14
   5  -9   3   18.19    3.96
   5  -9   4   60.37    6.97
   5  -9   5   74.94   17.89
  -5   9  -6  297.40   47.53
  -5   9  -7  252.39   50.34
   5  -8  -5   74.79    8.14
  -5   8   4  233.33   28.65
   5  -8  -4  162.90   19.17
  -5   8   3  184.18   23.52
   5  -8  -3  135.97   19.61
  -5   8   2    9.18    2.22
  -5   8   1   38.64    8.31
   5  -8  -1   31.08    4.00
  -5   8   0   85.70    8.59
   5  -8   0   72.06    8.10
  -5   8  -1   74.46    8.29
   5  -8   1   65.78    7.60
  -5   8  -2   30.34    7.21
   5  -8   2   30.23    4.49
   5  -8   2   19.01    2.40
  -5   8  -3    9.04    2.41
   5  -8   3    9.61    2.53
   5  -8   3    5.37    1.13
  -5   8  -4    4.53    1.46
   5  -8   4    5.86    2.01
   5  -8   4    4.01    1.11
   5  -8   5   49.25    5.54
   5  -8   5   35.77    3.74
   5  -8   6    7.00    1.58
  -5   8  -7   55.32    4.40
   5  -8   7   49.91    3.20
  -5   8  -8  115.84   30.56
   5  -8   8   92.28   17.85
   5  -7  -6   18.18    3.17
  -5   7   5   26.42    3.88
   5  -7  -5   10.07    1.78
  -5   7   4   40.39    8.76
   5  -7  -4   35.75    4.41
  -5   7   3  523.13   40.13
   5  -7  -3  378.39   29.04
  -5   7   2  565.90   43.08
   5  -7  -2  460.95   35.26
  -5   7   1  415.14   31.65
   5  -7  -1  343.09   23.70
  -5   7   0  845.11   56.77
   5  -7   0  673.44   47.58
  -5   7  -1  584.08   39.75
   5  -7   1  485.03   33.06
  -5   7  -2   30.22    6.68
   5  -7   2   28.35    4.13
   5  -7   2   18.44    2.28
  -5   7  -3  232.07   17.99
   5  -7   3  232.60   18.52
   5  -7   3  171.45   13.31
  -5   7  -4   17.12    4.95
   5  -7   4   21.79    5.64
   5  -7   4   18.70    2.53
  -5   7  -5  166.11   12.45
   5  -7   5  192.68   14.83
   5  -7   5  158.14   11.91
   5  -7   6   30.48    4.12
   5  -7   6   23.14    2.81
  -5   7  -7    0.96    1.45
   5  -7   7    1.67    1.15
  -5   7  -8   18.79    5.31
   5  -7   8   13.74    3.31
  -5   7  -9    3.52    1.14
   5  -7   9    9.91    2.00
   5  -6  -8    6.60    1.39
  -5   6   7    1.18    1.62
   5  -6  -7    0.69    1.05
  -5   6   6   55.49    6.66
   5  -6  -6   39.10    4.34
  -5   6   5  369.27   28.73
   5  -6  -5  237.77   18.69
  -5   6   4  269.98   19.03
   5  -6  -4  184.75   13.89
  -5   6   3   98.10   10.38
   5  -6  -3   84.07    7.68
  -5   6   2    3.46    1.30
   5  -6  -2    1.39    0.96
   5  -6  -1    5.89    1.98
  -5   6   0  554.69   15.25
   5  -6   0  466.62   13.09
  -5   6  -1 1221.15   30.65
   5  -6   1 1117.96   28.43
   5  -6   2  208.60    7.49
  -5   6  -3   19.18    5.26
   5  -6   3   17.99    2.79
   5  -6   3   15.32    1.84
  -5   6  -4  763.67   51.07
   5  -6   4  801.55   53.98
   5  -6   4  691.24   46.83
  -5   6  -5  199.01   16.19
   5  -6   5  247.70   19.70
   5  -6   5  225.96   17.54
  -5   6  -6   13.15    2.12
   5  -6   6   15.98    3.26
   5  -6   6   15.43    2.34
  -5   6  -7   45.28    5.08
   5  -6   7   35.85    8.84
  -5   6  -8    0.69    0.49
   5  -6   8   -0.15    0.91
  -5   6  -9    3.04    1.84
   5  -6   9    8.70    2.84
  -5   5  10  181.61   36.25
  -5   5   9  207.92   23.72
   5  -5  -9  110.81   11.49
  -5   5   8   32.29    5.58
   5  -5  -8   19.27    2.53
  -5   5   7  120.13   10.93
   5  -5  -7   81.00    6.89
  -5   5   6  606.83   51.76
   5  -5  -6  400.15   30.57
  -5   5   5    3.63    1.36
   5  -5  -5    2.48    1.29
  -5   5   4  147.75    6.75
   5  -5  -4  122.53    4.98
  -5   5   3  305.76   17.58
   5  -5  -3  231.82   11.12
  -5   5   2   82.06    6.96
   5  -5  -2   63.69    5.40
  -5   5   1   48.01    9.28
   5  -5  -1   36.99    3.61
  -5   5   0    8.45    2.31
   5  -5   0    4.25    1.39
  -5   5  -1   20.19    4.18
   5  -5   1   21.62    3.86
  -5   5  -2    1.42    0.81
   5  -5   2    1.12    1.04
  -5   5  -3  114.24    4.70
   5  -5   3  117.92   10.96
   5  -5   3  110.04    9.85
   5  -5   4  678.69   18.54
   5  -5   4  643.22   16.33
  -5   5  -5  928.99   91.64
   5  -5   5 1117.50   74.74
   5  -5   5 1050.05   69.84
  -5   5  -6  251.28   19.37
   5  -5   6  317.62   24.75
   5  -5   6  273.85   21.96
  -5   5  -7   65.73    5.66
   5  -5   7   61.61    6.32
  -5   5  -8    2.26    1.05
   5  -5   8    0.94    1.13
  -5   5  -9   33.07    6.66
   5  -5   9   31.85    3.04
  -5   5 -10    4.44    1.75
   5  -5  10    2.96    1.52
  -5   4  10   61.13   19.41
   5  -4 -10   44.14    2.96
  -5   4   9   51.64   11.58
   5  -4  -9   30.83    4.87
  -5   4   9   51.27    7.55
  -5   4   8   53.02    9.62
   5  -4  -8   35.93    4.06
  -5   4   8   56.14    5.58
  -5   4   7  140.60   12.21
   5  -4  -7   97.29    8.18
  -5   4   7  139.12   10.91
  -5   4   6  950.89   46.39
   5  -4  -6  673.11   31.58
  -5   4   6  905.67   41.20
  -5   4   5 1018.38   26.34
   5  -4  -5  729.62   19.98
  -5   4   5  900.89   21.33
  -5   4   4  159.91    9.97
   5  -4  -4  112.92   10.60
  -5   4   3   52.85    3.81
   5  -4  -3   39.21    2.99
  -5   4   2    0.68    1.31
   5  -4  -2    0.68    1.24
  -5   4   1   71.88    4.64
   5  -4  -1   57.00    3.77
  -5   4   0  159.99    7.34
   5  -4   0  137.65   11.15
   5  -4   1  629.71   18.64
  -5   4  -2    0.02    1.00
   5  -4   2    0.80    0.75
   5  -4   2    0.06    0.32
  -5   4  -3   44.93    4.15
   5  -4   3   51.41    4.67
   5  -4   3   42.51    4.70
  -5   4  -4    1.10    1.64
   5  -4   4    1.86    1.15
  -5   4  -5   93.14    8.49
   5  -4   5  112.92   10.05
   5  -4   5  103.66    9.05
  -5   4  -6  152.69   12.13
   5  -4   6  173.84   14.01
   5  -4   6  151.12   12.04
  -5   4  -7   23.10    3.09
  -5   4  -7   20.68    3.17
   5  -4   7   22.39    3.09
  -5   4  -8  105.49   13.51
  -5   4  -8  102.59   18.18
   5  -4   8   91.78   11.93
  -5   4  -9  299.70   30.23
   5  -4   9  300.22   29.56
  -5   4 -10   59.37   12.45
   5  -4  10   59.82   12.00
  -5   3  11    1.79    0.96
   5  -3 -11    0.29    1.01
  -5   3  10   83.38   10.07
   5  -3 -10   57.50    6.39
  -5   3  10   82.12    8.21
  -5   3   9  156.18   21.80
   5  -3  -9  110.70   14.22
  -5   3   9  149.97   18.88
  -5   3   8   -0.53    1.13
   5  -3  -8    0.47    0.98
  -5   3   8    1.00    0.73
  -5   3   7    2.41    0.82
  -5   3   7   14.01    3.04
  -5   3   6  429.23   19.04
   5  -3  -6  345.15   10.43
  -5   3   6  426.07   11.28
  -5   3   5  403.64   19.57
   5  -3  -5  307.97   14.90
  -5   3   5  390.00   17.09
  -5   3   4  242.34   12.65
   5  -3  -4  191.32    6.95
  -5   3   3  119.34    6.80
   5  -3  -3   95.28    5.50
  -5   3   2 1088.66   30.28
   5  -3  -2  872.87   24.60
  -5   3   1 2014.33   54.40
   5  -3  -1 1743.79   48.14
  -5   3   0  205.85   11.19
   5  -3   0  189.81   10.15
  -5   3  -1   15.01    1.90
   5  -3   1   19.58    2.04
   5  -3   1   17.92    1.61
  -5   3  -2    8.03    1.61
   5  -3   2    8.32    1.62
   5  -3   2   11.93    1.07
   5  -3   3   21.06    2.06
  -5   3  -4   17.08    4.92
   5  -3   4   19.99    2.63
   5  -3   4   18.75    2.05
  -5   3  -5  328.57   16.13
   5  -3   5  355.08   17.19
   5  -3   5  314.97   16.85
  -5   3  -6  104.19   10.94
   5  -3   6  125.81   13.07
   5  -3   6  110.21   11.10
  -5   3  -7   16.77    2.74
  -5   3  -7   13.46    2.14
   5  -3   7   12.77    2.25
  -5   3  -8    2.14    0.98
  -5   3  -8    2.15    1.00
   5  -3   8    2.14    1.55
  -5   3  -9   70.46    7.66
  -5   3  -9   54.52   10.49
   5  -3   9   65.50    7.34
   5  -3  10   96.48   18.88
   5  -2 -11   95.62   18.10
  -5   2  11  117.44   12.13
  -5   2  10   25.69    5.75
   5  -2 -10   21.50    3.87
  -5   2  10   30.66    4.99
  -5   2   9  147.28   13.16
   5  -2  -9  115.74    9.51
  -5   2   9  148.46   11.59
  -5   2   8   37.38    7.09
   5  -2  -8   30.63    3.93
  -5   2   8   35.76    4.14
  -5   2   7  122.96   16.18
   5  -2  -7   99.18    8.95
  -5   2   7  120.59   10.74
  -5   2   6  120.56    6.58
   5  -2  -6  114.01    9.80
  -5   2   6  129.45    4.92
  -5   2   5  534.21   24.41
   5  -2  -5  444.42   20.72
  -5   2   5  511.16   22.23
  -5   2   4   35.88    4.15
   5  -2  -4   29.86    2.60
  -5   2   4   31.98    3.46
  -5   2   3  179.87   13.93
   5  -2  -3  147.59    7.83
  -5   2   3  136.16    6.45
  -5   2   2  206.64   10.41
   5  -2  -2  188.05    9.65
  -5   2   1 2805.73   79.65
   5  -2  -1 2772.27   73.92
   5  -2  -1 2250.57   58.94
  -5   2   0 1276.00   35.28
   5  -2   0 1330.95   36.65
   5  -2   0 1142.19   30.93
  -5   2  -1  333.07   10.97
   5  -2   1  380.30   11.45
   5  -2   1  335.96    9.66
  -5   2  -2  215.35    7.57
   5  -2   2  263.34    8.60
   5  -2   2  222.28    7.01
  -5   2  -3  710.02   31.56
   5  -2   3  821.80   36.27
   5  -2   3  751.29   32.73
   5  -2   4    1.22    1.24
   5  -2   4    0.88    0.86
  -5   2  -5  270.33   13.58
   5  -2   5  284.94   13.83
   5  -2   5  257.80   12.77
  -5   2  -6  274.69   21.42
   5  -2   6  282.29   22.09
   5  -2   6  274.37   21.26
  -5   2  -7   96.58    8.14
  -5   2  -7   85.66    8.12
   5  -2   7   93.40    7.87
  -5   2  -8    4.28    1.41
  -5   2  -8    2.91    1.09
   5  -2   8    3.14    1.42
  -5   2  -9   56.65    5.57
   5  -2   9   55.92    4.72
   5  -1 -12  154.50   29.83
  -5   1  12  201.57   38.90
   5  -1 -11  133.39   13.79
  -5   1  11  157.25   18.06
  -5   1  10    5.14    1.49
   5  -1 -10    4.64    1.91
  -5   1  10    6.73    2.10
  -5   1   9    3.59    1.29
   5  -1  -9    3.66    1.97
  -5   1   9    3.68    1.15
  -5   1   8  423.99   29.11
   5  -1  -8  358.71   25.58
  -5   1   8  431.91   29.31
  -5   1   7  437.16   20.84
   5  -1  -7  346.27   16.96
  -5   1   7  413.01   19.54
  -5   1   6  114.26   12.98
   5  -1  -6   97.89    8.00
  -5   1   6  120.03    9.04
  -5   1   5  491.53   23.98
   5  -1  -5  447.31   20.28
  -5   1   5  501.60   22.06
  -5   1   4  285.60   10.36
   5  -1  -4  273.71    9.70
  -5   1   4  279.69    8.37
  -5   1   3    4.64    1.23
   5  -1  -3    2.72    1.18
  -5   1   3    5.11    1.00
  -5   1   2 2172.88   58.46
   5  -1  -2 2276.01   61.29
   5  -1  -2 2067.03   55.21
  -5   1   1 1427.49   39.25
   5  -1  -1 1577.88   42.82
   5  -1  -1 1449.58   38.94
  -5   1   0    1.81    0.91
   5  -1   0    1.11    1.12
   5  -1   0    2.14    0.60
  -5   1  -1   70.56    4.45
   5  -1   1   78.48    4.44
   5  -1   1   75.22    6.89
  -5   1  -2   62.36    4.20
   5  -1   2   72.84    4.24
   5  -1   2   69.46    7.89
  -5   1  -3  492.07   23.63
   5  -1   3  527.78   23.30
   5  -1   3  492.85   21.99
  -5   1  -4  448.35   13.04
   5  -1   4  465.43   12.37
   5  -1   4  437.21   12.15
  -5   1  -5   15.95    2.84
   5  -1   5   16.66    2.29
   5  -1   5   14.89    2.38
  -5   1  -6  461.72   33.42
  -5   1  -6  429.26   30.72
   5  -1   6  449.83   32.56
  -5   1  -7   82.15   10.86
   5  -1   7   71.87    3.98
  -5   1  -8    0.61    1.45
   5  -1   8    1.89    1.35
  -5   1  -9   69.50   11.70
   5  -1   9   72.40   12.44
   5   0 -12  125.61   24.35
  -5   0  12  152.79   29.28
   5   0 -11   58.32    6.86
  -5   0  11   70.28    7.82
   5   0 -10   63.60    4.02
  -5   0  10   63.03   11.71
  -5   0   9  120.49    9.18
   5   0  -9  127.35   10.43
  -5   0   9  138.62   12.29
  -5   0   8  462.58   35.15
   5   0  -8  486.45   37.46
  -5   0   8  517.83   39.38
  -5   0   7  970.86   45.26
   5   0  -7 1024.27   47.51
  -5   0   7 1134.74   51.76
  -5   0   6  198.01    6.20
   5   0  -6  198.57    7.34
  -5   0   6  210.03    6.43
  -5   0   5   34.72    3.33
   5   0  -5   39.34    3.92
  -5   0   5   38.29    6.46
  -5   0   4  105.92    5.86
   5   0  -4  119.28    6.61
  -5   0   4  126.21    6.59
  -5   0   3  118.11    4.73
   5   0  -3  137.55    5.45
  -5   0   3  137.50    4.78
  -5   0   2  948.23   27.19
   5   0  -2 1132.40   31.86
  -5   0   1  601.11   18.76
   5   0  -1  678.79   19.63
   5   0  -1  635.10   18.44
  -5   0   0  393.70   12.46
   5   0   0  429.52   12.84
   5   0   0  401.57   12.53
  -5   0  -1    8.82    2.31
   5   0   1   10.97    1.35
   5   0   1   11.95    2.87
  -5   0  -2   77.32    6.56
   5   0   2   83.51    6.39
   5   0   2   80.37    6.37
  -5   0  -3  171.00    6.35
   5   0   3  179.17    5.47
   5   0   3  179.07    7.42
  -5   0  -4  244.78   12.52
   5   0   4  244.90   11.70
   5   0   4  241.51   13.19
  -5   0  -5  116.89   12.40
   5   0   5  119.00   10.20
  -5   0  -6   77.62    7.07
   5   0   6   73.25    6.71
  -5   0  -7  153.77   18.71
   5   0   7  148.71   18.14
  -5   0  -8   64.97   15.61
   5   0   8   67.89    7.69
   5   1 -12   91.34   17.96
  -5  -1  12   96.35   19.60
   5   1 -11   88.42    9.87
  -5  -1  11   89.01   10.08
   5   1 -10  128.90   15.66
  -5  -1  10  142.41   16.93
   5   1  -9   43.47    5.17
  -5  -1   9   48.68    5.33
  -5  -1   8  222.87   17.06
   5   1  -8  309.42   24.17
  -5  -1   8  333.64   25.65
  -5  -1   7  150.60   10.57
   5   1  -7  195.93   14.17
  -5  -1   7  198.30   13.97
  -5  -1   6  110.05    4.02
   5   1  -6  136.08    5.69
  -5  -1   6  132.60    6.22
  -5  -1   5    1.96    0.90
   5   1  -5    1.62    1.27
  -5  -1   5    2.16    0.96
  -5  -1   4  219.73   10.45
  -5  -1   4  260.98   12.07
  -5  -1   3  716.50   31.73
   5   1  -3  845.42   37.03
  -5  -1   3  825.44   36.01
  -5  -1   2  477.20   21.53
   5   1  -2  539.96   24.32
  -5  -1   1   12.31    1.95
   5   1  -1   15.09    1.77
   5   1  -1   13.15    3.43
  -5  -1   0   15.11    2.13
   5   1   0   15.51    1.77
   5   1   0   17.25    4.20
  -5  -1  -1   35.15    3.64
   5   1   1   40.25    3.33
   5   1   1   36.79    3.95
  -5  -1  -2  149.66    5.93
   5   1   2  147.06    4.48
   5   1   2  148.60    8.67
  -5  -1  -3 1129.67   52.40
   5   1   3 1153.10   54.36
  -5  -1  -4  464.90   35.67
   5   1   4  447.69   35.56
  -5  -1  -5   39.20    4.84
   5   1   5   40.31    4.77
  -5  -1  -6    6.80    1.99
   5   1   6    7.93    1.95
  -5  -1  -7   27.33    2.79
   5   1   7   24.47    5.66
  -5  -1  -8   60.61   12.07
   5   1   8   62.92   12.84
   5   2 -11   22.83    3.14
  -5  -2  11   30.61    3.42
   5   2 -10   13.81    2.51
  -5  -2  10   11.61    2.40
   5   2  -9   56.92    5.98
  -5  -2   9   59.76    6.02
   5   2  -8  411.10   30.24
  -5  -2   8  419.08   30.49
  -5  -2   7  722.40   54.13
   5   2  -7 1074.71   81.09
  -5  -2   7 1096.48   82.27
  -5  -2   6  146.12   10.34
   5   2  -6  190.99   14.02
  -5  -2   6  197.95   14.38
  -5  -2   5    7.81    2.11
   5   2  -5    7.33    1.78
  -5  -2   5    7.21    1.79
  -5  -2   4  106.94    4.85
   5   2  -4  139.51    6.68
  -5  -2   4  139.04    5.19
  -5  -2   3  238.95    7.38
   5   2  -3  290.21    8.53
  -5  -2   3  274.20    8.50
  -5  -2   2  164.95    5.80
   5   2  -2  191.53    6.43
  -5  -2   1   38.35    4.30
   5   2  -1   42.16    4.15
   5   2  -1   41.23    7.55
  -5  -2   0  117.37    4.90
   5   2   0  125.41    4.13
   5   2   0  122.09    7.18
  -5  -2  -1  499.03   23.87
   5   2   1  507.14   24.50
  -5  -2  -2   56.87    6.47
   5   2   2   69.01   13.74
  -5  -2  -3   64.07    7.24
   5   2   3   61.70    7.30
  -5  -2  -4   85.11    7.52
   5   2   4   88.41   12.31
  -5  -2  -5   72.46   10.78
   5   2   5   70.36    9.50
  -5  -2  -6   26.43    3.02
   5   2   6   25.07    3.59
  -5  -2  -7  120.59   23.34
   5   2   7  131.77   25.45
   5   3 -11   14.01    2.85
  -5  -3  11   21.27    3.74
   5   3 -10   70.66    8.25
  -5  -3  10   64.99   15.59
   5   3  -9  146.95   17.74
  -5  -3   9  140.52   16.85
   5   3  -8   27.54    3.86
  -5  -3   8   24.22    4.72
   5   3  -7  326.20   24.80
  -5  -3   7  324.48   28.66
  -5  -3   6  182.07   14.24
   5   3  -6  245.61   19.84
  -5  -3   6  239.00   20.25
  -5  -3   5  214.65   16.70
   5   3  -5  273.69   21.35
  -5  -3   5  259.19   20.25
  -5  -3   4  335.90   22.88
   5   3  -4  453.30   30.96
  -5  -3   4  439.11   30.10
  -5  -3   3  610.57   40.99
   5   3  -3  772.48   51.74
  -5  -3   3  741.86   50.12
  -5  -3   2  292.07   20.23
   5   3  -2  338.37   23.17
   5   3  -2  325.15   23.04
  -5  -3   1    1.02    1.13
   5   3  -1    0.59    0.83
   5   3  -1    1.91    1.24
  -5  -3   0   60.38    6.82
   5   3   0   63.63   13.41
  -5  -3  -1  225.50   17.82
   5   3   1  221.11   21.60
  -5  -3  -2  148.66   12.69
   5   3   2  157.60   18.80
  -5  -3  -3    3.93    2.17
   5   3   3    6.07    1.82
  -5  -3  -4    4.74    1.92
   5   3   4    4.13    1.77
  -5  -3  -5   52.34    3.99
   5   3   5   52.36   11.89
  -5  -3  -6    1.43    2.06
   5   4 -10   41.30    8.64
  -5  -4  10   39.85   11.89
   5   4  -9   47.85    3.77
  -5  -4   9   43.22    9.57
   5   4  -8   16.51    2.65
  -5  -4   8   14.48    3.48
   5   4  -7    1.80    1.54
  -5  -4   7    0.28    1.25
   5   4  -6  203.89   25.60
  -5  -4   6  191.80   24.16
  -5  -4   5  121.14    9.46
   5   4  -5  160.40   12.63
  -5  -4   5  144.01   11.69
  -5  -4   4   29.02    3.30
   5   4  -4   39.36    4.32
  -5  -4   4   39.29    4.85
  -5  -4   3  453.13   32.84
   5   4  -3  530.20   37.95
  -5  -4   3  512.14   37.25
  -5  -4   2  444.35   32.08
   5   4  -2  481.22   34.43
   5   4  -2  491.62   36.07
  -5  -4   1  386.57   29.05
   5   4  -1  412.80   32.06
  -5  -4   0  367.24   27.63
   5   4   0  411.31   31.74
  -5  -4  -1  398.67   49.44
   5   4   1  424.42   53.07
  -5  -4  -2    1.49    2.09
   5   4   2    0.70    1.31
  -5  -4  -3    1.06    1.23
   5   4   3    2.34    1.34
  -5  -4  -4    3.57    2.03
   5   4   4    2.55    1.27
   5   5  -8   -0.59    1.71
  -5  -5   8   -0.04    1.55
   5   5  -7   48.78    3.84
  -5  -5   7   48.83    3.68
   5   5  -6   65.62    7.18
  -5  -5   6   57.97    6.70
   5   5  -5   71.34    7.35
  -5  -5   5   66.15    7.30
  -5  -5   4   26.01    4.19
   5   5  -4   24.43    7.57
  -5  -5   4   30.52    5.18
  -5  -5   3    0.51    0.84
   5   5  -3   -0.31    1.32
  -5  -5   2    1.99    1.45
   5   5  -2    2.93    1.46
  -5  -5   1   17.43    2.36
   5   5  -1   17.86    5.75
  -5  -5   0   81.99    8.45
   5   5   0   87.99   15.60
  -5  -5  -1   33.98    3.57
   5   5   1   39.28    7.42
  -5  -5  -2  174.13   33.40
   5   5   2  176.31   36.52
  -5  -6   6   28.84    6.42
  -5  -6   5   23.64    3.42
  -5  -6   3    3.79    1.46
   5   6  -3    8.10    3.67
  -5  -6   2    0.35    1.07
  -5  -6   1   46.90   13.06
  -6  10   1   69.20   20.19
   6 -10  -1   59.29   11.80
  -6  10   0   47.79   17.61
   6 -10   0   47.01    9.59
  -6  10  -1   44.01   16.31
   6 -10   1   42.22   11.74
  -6  10  -2   20.74    5.86
   6 -10   2   21.48    3.27
   6 -10   3    0.09    1.75
  -6   9   4    0.98    1.06
   6  -9  -4    0.67    0.87
  -6   9   3   36.03    7.14
   6  -9  -3   24.74    2.91
  -6   9   2   66.47   20.53
   6  -9  -2   52.25    3.72
  -6   9   1   88.37   18.55
   6  -9  -1   74.58    7.91
  -6   9   0   49.54   11.23
   6  -9   0   47.27    5.60
  -6   9  -1  124.79   14.12
   6  -9   1  120.12   11.88
  -6   9  -2  331.43   30.53
   6  -9   2  295.01   34.23
  -6   9  -3   83.95   17.04
   6  -9   3   93.40   10.26
  -6   9  -4    0.10    0.61
   6  -9   4    1.00    1.62
   6  -9   5    1.36    1.81
   6  -9   6    0.98    1.78
  -6   8   6   -0.25    1.58
   6  -8  -6   -0.14    0.80
  -6   8   5    2.23    1.07
   6  -8  -5    2.33    1.25
  -6   8   4    1.52    1.26
   6  -8  -4    0.04    1.00
  -6   8   3  151.69   18.34
   6  -8  -3  115.95   13.99
  -6   8   2  475.88   58.94
   6  -8  -2  378.99   47.02
  -6   8   1  266.16   34.29
   6  -8  -1  212.04   26.72
  -6   8   0    1.38    1.05
   6  -8   0    0.38    1.20
  -6   8  -1   20.50    4.52
   6  -8   1   20.73    3.26
  -6   8  -2  164.35   20.71
   6  -8   2  147.72   18.88
  -6   8  -3   33.24    8.99
   6  -8   3   36.32    4.58
  -6   8  -4    4.44    1.52
   6  -8   4    3.72    1.65
  -6   8  -5  104.78   10.15
   6  -8   5  133.50   13.19
   6  -8   6  296.61   29.50
  -6   8  -7  105.38   20.64
  -6   7   7   24.72    5.37
   6  -7  -7   18.95    2.43
  -6   7   6   27.02    5.74
   6  -7  -6   19.15    2.90
  -6   7   5  346.34   44.45
   6  -7  -5  226.17   28.31
  -6   7   4  323.34   24.78
   6  -7  -4  214.60   17.60
   6  -7  -3    0.66    1.24
  -6   7   2  122.03   11.04
   6  -7  -2  102.34    8.48
  -6   7   1   32.36    7.07
   6  -7  -1   26.82    3.99
  -6   7   0   74.20   11.85
   6  -7   0   69.58   13.83
  -6   7  -1  324.04   25.23
   6  -7   1  275.77   21.64
  -6   7  -2  730.64   55.41
   6  -7   2  647.30   49.16
  -6   7  -3   30.03    6.58
   6  -7   3   28.56    4.56
  -6   7  -4   49.37    5.25
   6  -7   4   51.83   12.22
  -6   7  -5   21.85    2.91
   6  -7   5   27.34    3.85
  -6   7  -6   70.33    8.65
   6  -7   6   97.84   12.25
  -6   7  -8   19.41    3.28
  -6   6   9   83.54   23.90
   6  -6  -9   48.87    9.75
  -6   6   8  180.25   20.22
   6  -6  -8  105.99   11.08
  -6   6   7   12.09    3.33
   6  -6  -7    6.09    1.56
  -6   6   6  117.14   15.50
   6  -6  -6   77.44   10.16
  -6   6   5  234.80   27.81
   6  -6  -5  157.66   12.20
  -6   6   4  237.23   18.83
   6  -6  -4  168.89   14.11
  -6   6   3  372.87   25.68
   6  -6  -3  280.94   19.66
  -6   6   2   95.77   10.12
   6  -6  -2   72.25    9.34
  -6   6   1  203.48   11.69
   6  -6  -1  163.22    8.86
  -6   6   0  250.97   15.17
   6  -6   0  193.55   13.72
  -6   6  -1    6.32    2.01
   6  -6   1    7.31    2.13
  -6   6  -2   94.93    9.78
   6  -6   2   94.23    9.96
  -6   6  -3  615.99   41.63
   6  -6   3  605.42   43.00
  -6   6  -4  153.95   12.46
   6  -6   4  171.38   13.97
   6  -6   4  139.87   10.95
  -6   6  -5   72.96    6.29
   6  -6   5   87.63    7.79
   6  -6   5   70.33    6.37
  -6   6  -6  154.32   21.42
   6  -6   6  204.14   25.81
   6  -6   6  163.11   20.56
   6  -6   7  181.86   17.44
   6  -6   7  149.79   14.16
  -6   6  -8    3.69    2.03
   6  -6   8    1.46    0.99
  -6   5   9   12.33    2.96
   6  -5  -9    6.13    2.13
  -6   5   8  196.62   23.96
   6  -5  -8  127.58   15.26
  -6   5   7  385.77   48.33
   6  -5  -7  246.44   30.76
  -6   5   6  166.81   14.61
   6  -5  -6  112.03    9.03
  -6   5   5  336.21   29.67
   6  -5  -5  241.08   19.24
  -6   5   4  851.75   40.90
   6  -5  -4  617.26   29.48
  -6   5   3  140.13   14.16
   6  -5  -3  107.98    9.73
  -6   5   2   10.22    2.75
   6  -5  -2    5.07    1.53
  -6   5   1   11.06    3.17
   6  -5  -1    9.43    1.84
  -6   5   0 1089.15   31.51
   6  -5   0  913.81   23.59
  -6   5  -1  726.89   20.14
   6  -5   1  653.37   24.03
  -6   5  -2  119.06   10.66
   6  -5   2  110.49   10.10
  -6   5  -3   34.54    3.77
   6  -5   3   35.61    4.05
   6  -5   3   31.76    5.09
  -6   5  -4   61.71    6.63
   6  -5   4   79.30    8.52
   6  -5   4   64.59    6.59
  -6   5  -5    0.86    0.73
   6  -5   5    0.68    0.63
   6  -5   5    1.11    1.08
  -6   5  -6  438.58   32.67
   6  -5   6  484.64   36.32
   6  -5   6  407.24   30.40
  -6   5  -7  439.62   50.58
   6  -5   7  460.24   53.12
   6  -5   7  358.84   41.39
  -6   5  -8   32.70    3.07
   6  -5   8   28.24    2.48
  -6   5  -9   17.19    3.71
   6  -5   9   14.78    3.85
  -6   4  10  250.43   41.87
   6  -4 -10  154.24   25.26
  -6   4   9    0.34    0.65
   6  -4  -9    2.76    1.56
  -6   4   8   31.22    6.74
   6  -4  -8   25.98    3.21
  -6   4   7   -0.07    1.40
   6  -4  -7    0.12    1.08
  -6   4   6   10.14    2.60
   6  -4  -6    4.58    1.62
  -6   4   5  170.98   15.33
   6  -4  -5  135.29    7.78
  -6   4   4 1076.64   34.74
   6  -4  -4  840.52   22.32
  -6   4   3  575.74   15.64
   6  -4  -3  457.34   13.11
  -6   4   2   72.95    9.92
   6  -4  -2   58.58    5.20
  -6   4   1  930.14   41.51
   6  -4  -1  788.55   34.91
  -6   4   0 1129.39   52.66
   6  -4   0 1078.58   47.37
  -6   4  -1  614.41   27.78
   6  -4   1  595.46   28.65
  -6   4  -2   21.13    2.91
   6  -4   2   27.86    3.33
   6  -4   2   21.39    2.14
  -6   4  -3    2.00    1.87
   6  -4   3   -0.05    1.04
   6  -4   3    2.22    0.71
  -6   4  -4  289.01   20.08
   6  -4   4  341.12   23.49
   6  -4   4  285.10   19.43
  -6   4  -5  146.65   11.93
   6  -4   5  167.09   14.41
   6  -4   5  133.72   10.66
  -6   4  -6    1.84    0.99
   6  -4   6    2.01    1.86
   6  -4   6    2.45    1.08
  -6   4  -7    1.85    1.24
   6  -4   7    2.22    1.08
  -6   4  -8    0.98    1.02
  -6   4  -8    0.01    0.99
   6  -4   8    2.16    1.59
  -6   4  -9    0.04    0.52
   6  -4   9    1.61    1.55
   6  -3 -11  112.55   21.80
  -6   3  10  102.05   12.08
   6  -3 -10   79.68    8.77
  -6   3   9    0.42    0.77
   6  -3  -9    1.00    1.61
  -6   3   8    4.39    1.88
   6  -3  -8    5.07    1.84
  -6   3   7  129.21   13.10
   6  -3  -7  102.50    8.88
  -6   3   6  905.30   61.17
   6  -3  -6  733.60   49.34
  -6   3   5  329.61   16.81
   6  -3  -5  265.92   13.90
  -6   3   4   31.35    6.07
   6  -3  -4   29.26    3.46
  -6   3   3   19.97    3.88
   6  -3  -3   15.10    2.47
  -6   3   2  136.89   12.75
   6  -3  -2  125.27    7.93
  -6   3   1 1227.98   53.63
   6  -3  -1 1191.94   52.14
  -6   3   0 2347.03  204.04
   6  -3   0 2348.46  101.98
  -6   3  -1 1478.88   65.78
   6  -3   1 1610.61   70.59
  -6   3  -2    8.38    1.99
   6  -3   2    8.32    1.82
   6  -3   2    6.50    1.06
  -6   3  -3   22.62    3.02
   6  -3   3   27.13    3.19
   6  -3   3   22.33    2.35
  -6   3  -4  218.07   15.72
   6  -3   4  220.46   15.53
   6  -3   4  199.32   13.85
  -6   3  -5  160.40   13.21
   6  -3   5  163.79   13.29
   6  -3   5  143.12   11.41
  -6   3  -6    7.55    1.76
   6  -3   6    3.26    1.50
   6  -3   6    5.63    1.69
  -6   3  -7   51.57    7.84
  -6   3  -7   50.42    7.51
   6  -3   7   48.39    7.32
  -6   3  -8   89.93    9.65
   6  -3   8   84.25    9.10
   6  -2 -11  123.63   23.98
  -6   2  10  315.40   29.21
   6  -2 -10  254.62   23.84
  -6   2   9   82.56   11.18
   6  -2  -9   66.86    9.19
  -6   2   9   72.28    6.66
  -6   2   8    9.48    2.40
   6  -2  -8    9.26    2.59
  -6   2   8    6.75    1.28
  -6   2   7  334.22   25.89
   6  -2  -7  292.44   23.26
  -6   2   7  340.51   25.86
  -6   2   6  748.32   35.85
   6  -2  -6  656.61   32.16
  -6   2   6  707.90   32.34
  -6   2   5   38.31    7.00
   6  -2  -5   28.82    3.73
  -6   2   4    2.88    1.14
   6  -2  -4    2.40    1.30
  -6   2   3   96.42    9.05
   6  -2  -3   96.48    7.73
  -6   2   2  427.46   19.48
   6  -2  -2  427.05   19.53
  -6   2   1   12.42    2.32
   6  -2  -1   13.86    2.39
   6  -2  -1   11.28    2.21
  -6   2   0   79.57    6.61
   6  -2   0   76.42    5.70
  -6   2  -1   91.56    8.83
   6  -2   1  100.79    7.91
   6  -2   1   82.25    6.88
   6  -2   2  141.55    5.11
   6  -2   2  124.84    4.26
  -6   2  -3  371.92   18.29
   6  -2   3  404.83   19.28
   6  -2   3  348.05   18.20
  -6   2  -4  989.06   98.71
   6  -2   4 1033.53   68.79
   6  -2   4  926.68   91.50
  -6   2  -5  499.12   36.26
   6  -2   5  482.18   34.79
   6  -2   5  437.23   31.66
  -6   2  -6  183.92   23.20
   6  -2   6  175.92   22.15
   6  -2   6  167.95   21.19
  -6   2  -7   34.71    4.46
   6  -2   7   31.51    3.97
  -6   2  -8    6.10    2.39
   6  -2   8    6.40    2.39
   6  -1 -11   35.48    4.32
   6  -1 -10   47.12    5.72
  -6   1  10   42.12   11.21
  -6   1   9  100.13   14.69
   6  -1  -9   97.38   12.83
  -6   1   9  112.82   14.35
  -6   1   8  196.80   22.48
   6  -1  -8  175.63   15.14
  -6   1   8  203.71   15.09
  -6   1   7  638.65   50.17
   6  -1  -7  583.00   44.86
  -6   1   7  661.08   49.65
  -6   1   6  950.16   45.14
   6  -1  -6  875.11   42.00
  -6   1   6  951.88   43.82
  -6   1   5  446.86   12.41
   6  -1  -5  443.64   13.18
  -6   1   5  420.69   10.89
  -6   1   4   16.83    2.70
   6  -1  -4   16.79    2.48
  -6   1   4   15.20    1.77
  -6   1   3   91.79    7.49
   6  -1  -3   92.59    7.36
  -6   1   2    7.38    1.98
   6  -1  -2    4.94    1.57
  -6   1   1  590.93   29.49
   6  -1  -1  639.55   28.66
   6  -1  -1  566.72   25.12
  -6   1   0   27.43    3.58
   6  -1   0   23.09    2.68
   6  -1   0   19.15    4.30
  -6   1  -1   17.51    2.73
   6  -1   1   20.58    4.15
   6  -1   1   16.59    3.37
  -6   1  -2   89.21   11.06
   6  -1   2   92.38    8.13
   6  -1   2   91.19    8.13
  -6   1  -3   21.46    3.35
   6  -1   3   15.89    2.32
   6  -1   3   18.85    2.65
  -6   1  -4  116.64    9.95
   6  -1   4  116.33   11.97
   6  -1   4  112.71   10.05
  -6   1  -5  486.78   36.48
   6  -1   5  453.17   33.67
  -6   1  -6  340.21   39.54
   6  -1   6  300.78   34.91
  -6   1  -7   12.84    3.00
   6  -1   7    6.91    2.23
  -6   1  -8  111.12   21.66
   6  -1   8   96.27   19.77
   6   0 -11   36.70    4.23
  -6   0  11   34.37    4.56
   6   0 -10   15.55    2.61
  -6   0  10   12.48    3.09
   6   0  -9    3.37    1.77
  -6   0   9    1.86    1.29
  -6   0   8   74.62    6.19
   6   0  -8   77.85    7.08
  -6   0   8   76.78    6.40
  -6   0   7   30.61    3.70
   6   0  -7   35.80    4.70
  -6   0   7   27.51    6.75
  -6   0   6  640.88   43.05
   6   0  -6  721.39   49.49
  -6   0   6  730.39   48.85
  -6   0   5  895.37   43.91
   6   0  -5 1038.00   48.03
  -6   0   5 1009.55   46.23
  -6   0   4  461.64   12.86
   6   0  -4  508.84   16.58
  -6   0   4  496.76   13.19
  -6   0   3  161.34    6.04
   6   0  -3  179.66    6.26
  -6   0   3  177.26    5.64
   6   0  -2 1448.31   43.64
   6   0  -2 1345.77   33.21
  -6   0   1  349.23   11.26
   6   0  -1  410.72   11.53
   6   0  -1  358.69   13.47
  -6   0   0    0.28    1.28
   6   0   0    0.18    0.81
   6   0   0    0.62    0.59
  -6   0  -1   40.31    4.60
   6   0   1   39.09    3.83
   6   0   1   39.95    7.80
  -6   0  -2  217.58   15.60
   6   0   2  210.50   14.50
   6   0   2  211.22   15.04
  -6   0  -3  153.61   12.61
   6   0   3  140.58   11.00
   6   0   3  151.29   12.18
  -6   0  -4    1.59    1.72
   6   0   4   -0.05    1.11
  -6   0  -5   28.56    3.96
   6   0   5   27.35    3.50
  -6   0  -6    5.51    1.85
   6   0   6   10.54    2.59
  -6   0  -7    0.56    1.69
   6   0   7    0.56    1.23
   6   1 -11   15.46    4.13
  -6  -1  11   11.43    2.18
   6   1 -10   26.28    3.22
  -6  -1  10   24.85    2.71
   6   1  -9    3.64    1.85
  -6  -1   9    3.84    1.29
  -6  -1   8   63.14    5.26
   6   1  -8   89.27    7.79
  -6  -1   8   87.20    7.81
  -6  -1   7   -0.37    0.79
   6   1  -7    0.59    1.49
  -6  -1   7    0.08    0.51
  -6  -1   6   89.38    7.43
   6   1  -6  105.20   18.32
  -6  -1   6  108.09   11.60
  -6  -1   5    2.53    1.14
   6   1  -5    1.50    1.35
  -6  -1   5    1.04    0.87
  -6  -1   4   49.46    4.86
   6   1  -4   53.66    8.86
  -6  -1   4   50.31   10.18
  -6  -1   3   35.06    3.73
   6   1  -3   43.61    4.39
  -6  -1   3   42.29    4.23
  -6  -1   2  765.29   36.46
   6   1  -2  853.73   39.64
   6   1  -2  808.55   38.39
  -6  -1   1 1022.42   50.20
   6   1  -1 1104.67   53.76
   6   1  -1 1016.32   51.57
  -6  -1   0  338.71   24.20
   6   1   0  358.14   24.25
   6   1   0  342.33   24.34
  -6  -1  -1  503.23   34.33
   6   1   1  486.08   33.17
   6   1   1  501.87   34.45
  -6  -1  -2  395.93   30.70
   6   1   2  393.93   30.90
  -6  -1  -3   82.84    7.51
   6   1   3   86.35   16.36
   6   1   4    0.56    0.96
  -6  -1  -5   34.04    4.67
   6   1   5   28.44    3.80
  -6  -1  -6    1.16    1.49
   6   1   6    1.25    1.41
   6   2 -10   18.69    3.04
  -6  -2  10   18.55    2.70
   6   2  -9   47.30    5.80
  -6  -2   9   41.31   10.31
   6   2  -8   49.03    7.76
  -6  -2   8   46.33    9.29
  -6  -2   7    4.94    1.48
   6   2  -7    6.83    2.25
  -6  -2   7    8.83    2.09
  -6  -2   6   15.91    2.20
   6   2  -6   23.17    3.74
  -6  -2   6   24.70    3.41
  -6  -2   5    2.26    3.22
   6   2  -5    1.96    1.70
  -6  -2   5    1.80    1.52
  -6  -2   4  153.07   12.86
   6   2  -4  180.53   14.34
  -6  -2   4  168.65   13.50
  -6  -2   3  100.11   10.58
   6   2  -3  104.94    8.67
  -6  -2   2   68.13    7.52
   6   2  -2   75.74    8.06
   6   2  -2   65.20    8.02
  -6  -2   1  101.71   11.02
   6   2  -1   98.18   10.16
   6   2  -1   95.32   11.58
  -6  -2   0  135.71   11.06
   6   2   0  134.31   19.08
  -6  -2  -1  231.21   17.45
   6   2   1  225.16   19.87
  -6  -2  -2  338.66   25.66
   6   2   2  341.87   30.06
  -6  -2  -3  295.20   34.41
   6   2   3  301.17   35.23
  -6  -2  -4   53.09   11.84
   6   2   4   54.49    6.43
  -6  -2  -5    7.00    2.82
   6   2   5    9.58    3.51
   6   3 -10    0.54    1.59
  -6  -3  10    1.97    1.04
   6   3  -9  117.98   19.41
  -6  -3   9  117.11   19.14
   6   3  -8  329.73   30.48
  -6  -3   8  333.24   30.68
   6   3  -7  361.38   42.16
  -6  -3   7  333.54   38.66
  -6  -3   6   81.53   10.46
   6   3  -6  116.96   15.09
  -6  -3   6  108.12   14.04
  -6  -3   5   39.70    4.20
   6   3  -5   54.91    5.52
  -6  -3   5   44.63    4.74
  -6  -3   4   45.87    4.89
   6   3  -4   51.73    5.46
  -6  -3   4   47.83    5.30
  -6  -3   3   49.20    5.26
   6   3  -3   46.61    9.23
   6   3  -3   43.85   11.32
  -6  -3   2   95.61    8.07
   6   3  -2  103.64    8.28
   6   3  -2   94.80    9.84
  -6  -3   1   66.27    6.44
   6   3  -1   66.72    7.17
  -6  -3   0    3.26    1.98
   6   3   0    3.10    1.14
  -6  -3  -1    9.64    2.02
   6   3   1    8.84    2.55
  -6  -3  -2    1.38    1.50
   6   3   2    0.32    0.95
  -6  -3  -3   22.35    3.05
   6   3   3   21.40    4.06
  -6  -3  -4   59.76   12.10
   6   3   4   59.66   17.35
   6   4  -8   57.73   11.69
  -6  -4   8   57.47   11.58
   6   4  -7  125.15   20.38
  -6  -4   7  126.22   25.89
   6   4  -6  213.42   21.35
  -6  -4   6  200.79   20.20
  -6  -4   5  100.22    9.65
   6   4  -5  142.23   13.63
  -6  -4   5  138.51   13.57
  -6  -4   4  166.96   15.72
   6   4  -4  201.22   18.72
  -6  -4   4  193.73   18.46
  -6  -4   3  133.14   12.80
   6   4  -3  139.34   15.98
  -6  -4   2    6.15    1.40
   6   4  -2    8.52    2.06
  -6  -4   1    0.88    0.78
   6   4  -1    0.45    0.63
  -6  -4   0    7.36    1.99
   6   4   0    7.29    2.35
  -6  -4  -1   16.46    3.10
   6   4   1   15.85    3.20
   6   4   2    1.12    0.88
   6   5  -6   15.24    3.99
  -6  -5   6   19.31    3.44
  -6  -5   5    0.20    1.54
   6   5  -4   47.41   15.93
  -6  -5   3  146.57   23.60
   6   5  -3  185.16   30.51
  -6  -5   2   98.54   19.12
   6   5  -2  110.82   22.03
  -6  -5   1   56.39   11.28
   6   5  -1   56.32   15.59
  -7   9   3   64.72   17.18
   7  -9  -3   53.34   11.17
  -7   9   2   42.48   10.44
   7  -9  -2   33.84    3.67
  -7   9   1   -0.17    1.29
   7  -9  -1   -0.49    1.26
  -7   9   0   14.41    2.29
   7  -9   0   12.12    2.91
  -7   9  -1   26.10    6.71
   7  -9   1   23.55    3.14
  -7   9  -2    4.09    1.79
   7  -9   2    6.46    2.63
  -7   9  -3  103.92   17.27
   7  -9   3  113.29   18.72
   7  -9   4  174.19   33.50
  -7   8   6   86.75   22.95
  -7   8   5   65.60   14.98
   7  -8  -5   45.57    4.65
  -7   8   4  111.72   14.24
   7  -8  -4   73.05    8.23
  -7   8   3  165.64   15.98
   7  -8  -3  122.94   12.18
   7  -8  -2    6.31    2.12
  -7   8   1    7.85    1.99
   7  -8  -1    5.37    1.88
  -7   8   0   -0.05    1.33
   7  -8   0    0.23    1.35
  -7   8  -1   29.53    7.32
   7  -8   1   28.44    5.12
  -7   8  -2   45.29   12.74
   7  -8   2   45.96    7.39
  -7   8  -3   27.87    8.86
   7  -8   3   28.71    4.53
  -7   8  -4   -0.19    1.17
   7  -8   4   -0.07    1.46
  -7   8  -5    0.18    1.08
   7  -8   5   -0.44    1.55
   7  -8   6   10.54    2.65
  -7   7   7   29.07    5.09
   7  -7  -7   19.45    2.87
  -7   7   6   53.39    8.94
   7  -7  -6   40.03    3.13
  -7   7   5   83.72   15.70
   7  -7  -5   63.35    3.77
  -7   7   4   77.42   12.25
   7  -7  -4   61.04    7.99
  -7   7   3  354.64   47.89
   7  -7  -3  275.00   34.44
  -7   7   2  375.41   28.32
   7  -7  -2  286.01   22.99
  -7   7   1   27.80    5.58
   7  -7  -1   21.53    3.65
  -7   7   0    2.36    1.61
   7  -7   0    1.28    1.89
  -7   7  -1   29.76    5.73
   7  -7   1   21.81    3.37
  -7   7  -2  139.76   11.31
   7  -7   2  131.14   10.99
   7  -7   3    4.04    1.98
  -7   7  -4   30.99    4.96
   7  -7   4   37.24    6.10
  -7   7  -5   29.29    3.92
   7  -7   5   36.91    6.98
  -7   7  -6   46.74   12.36
   7  -7   6   66.90    6.63
   7  -7   7    3.26    1.63
  -7   6   8    1.22    0.94
   7  -6  -8    0.38    1.02
  -7   6   7   61.67   10.17
   7  -6  -7   47.00   11.41
  -7   6   6  114.59   22.08
   7  -6  -6   82.40   10.40
  -7   6   5  204.07   27.89
   7  -6  -5  138.13   17.68
  -7   6   4   28.72    5.58
   7  -6  -4   16.61    3.10
  -7   6   3   69.42   14.12
   7  -6  -3   59.93    6.99
  -7   6   2  127.83   10.92
   7  -6  -2  109.25    9.32
  -7   6   1   49.18    9.47
   7  -6  -1   36.91    4.97
  -7   6   0  188.96   15.96
   7  -6   0  173.68   14.22
  -7   6  -1 1047.74   79.96
   7  -6   1  918.66   69.60
  -7   6  -2  808.34   58.06
   7  -6   2  743.86   55.60
  -7   6  -3    0.02    1.48
   7  -6   3    0.24    1.46
  -7   6  -4    6.09    1.63
   7  -6   4    7.03    2.23
  -7   6  -5    1.17    1.22
   7  -6   5    1.07    2.03
  -7   6  -6    5.61    1.61
   7  -6   6    7.66    2.58
   7  -6   7    9.39    3.26
  -7   5   9  220.90   45.87
   7  -5  -9  140.41   27.00
  -7   5   8   16.72    6.56
   7  -5  -8    9.09    2.23
  -7   5   7   56.36   14.07
   7  -5  -7   41.03    6.43
  -7   5   6    9.09    2.02
   7  -5  -6    7.66    2.24
  -7   5   5   66.32   11.81
   7  -5  -5   56.27    6.65
  -7   5   4   16.91    4.57
   7  -5  -4   12.02    2.78
  -7   5   3  122.66   10.88
   7  -5  -3   94.64   10.37
  -7   5   2    4.74    1.45
   7  -5  -2    4.21    1.75
  -7   5   1    3.96    1.40
   7  -5  -1    3.69    1.93
  -7   5   0    3.41    1.15
   7  -5   0    5.94    2.00
  -7   5  -1  242.16   17.29
   7  -5   1  239.20   17.04
  -7   5  -2  301.01   23.90
   7  -5   2  297.19   23.64
  -7   5  -3   67.05    7.06
   7  -5   3   74.15    8.38
  -7   5  -4   46.44    4.94
   7  -5   4   51.59    5.80
  -7   5  -5  192.14   24.30
   7  -5   5  219.95   27.71
  -7   5  -6  103.66   10.42
   7  -5   6  117.03   11.79
  -7   5  -7   46.72    4.20
   7  -5   7   39.74    8.82
  -7   4  10   34.39    8.52
  -7   4   9  128.30   21.19
   7  -4  -9   94.53   15.61
  -7   4   8  169.46   16.57
   7  -4  -8  123.64   12.10
  -7   4   7   65.79    7.06
   7  -4  -7   49.18    5.44
  -7   4   6  227.11   18.52
   7  -4  -6  175.42   13.67
  -7   4   5  546.87   42.25
   7  -4  -5  451.58   34.90
  -7   4   4   88.86   12.14
   7  -4  -4   68.57    7.76
  -7   4   3   39.80    7.79
   7  -4  -3   36.80    4.55
  -7   4   2  271.64   15.27
   7  -4  -2  242.59   12.50
  -7   4   1   28.98    7.20
   7  -4  -1   28.49    3.48
  -7   4   0    6.77    2.05
   7  -4   0    6.47    1.73
  -7   4  -1   50.98    5.79
   7  -4   1   56.50    6.21
  -7   4  -2   17.82    4.39
   7  -4   2   17.21    3.42
  -7   4  -3   12.65    2.86
   7  -4   3    8.07    1.89
  -7   4  -4    1.18    1.22
   7  -4   4    0.19    1.16
   7  -4   4    0.82    0.58
  -7   4  -5   93.96   12.39
   7  -4   5   98.28   17.83
   7  -4   5   80.27   10.35
  -7   4  -6  321.51   29.85
   7  -4   6  321.82   29.59
   7  -4   6  243.07   22.36
  -7   4  -7  150.24   24.24
   7  -4   7  149.58   24.26
   7  -4   7  116.77   19.98
  -7   3  10    4.03    1.72
   7  -3 -10    1.59    1.59
  -7   3   9   99.25   18.56
   7  -3  -9   89.18    9.81
  -7   3   8   35.91    8.08
   7  -3  -8   30.77    5.17
  -7   3   7    2.09    0.77
   7  -3  -7    1.74    1.34
  -7   3   6  137.42   19.33
   7  -3  -6  118.04    9.68
  -7   3   5  542.37   47.81
   7  -3  -5  492.64   37.86
  -7   3   4  779.99   52.82
   7  -3  -4  695.06   46.96
  -7   3   3  234.92   15.75
   7  -3  -3  216.14   11.40
  -7   3   2   58.11    5.91
   7  -3  -2   56.98    5.73
  -7   3   1  155.35    8.63
   7  -3  -1  147.81    8.50
  -7   3   0   28.26    3.70
   7  -3   0   27.51    4.48
  -7   3  -1   96.92   10.49
   7  -3   1  112.24   11.37
  -7   3  -2  165.51   12.31
   7  -3   2  188.11   13.48
  -7   3  -3   79.41   12.66
   7  -3   3   90.59    9.72
   7  -3   3   71.57    7.51
  -7   3  -4    3.80    2.17
   7  -3   4    2.69    1.62
   7  -3   4    2.48    0.96
  -7   3  -5    0.34    1.39
   7  -3   5    2.75    1.44
   7  -3   5    1.15    0.84
  -7   3  -6   52.34    6.35
   7  -3   6   52.09    5.89
   7  -3   6   42.94    4.80
  -7   3  -7   37.52    4.08
   7  -3   7   29.43    2.88
   7  -2 -10   -1.36    1.50
  -7   2   9   70.42    8.70
   7  -2  -9   68.92    7.67
  -7   2   8   84.61   11.33
   7  -2  -8   69.03    9.55
  -7   2   7   27.39    6.62
   7  -2  -7   24.81    3.84
  -7   2   6    0.40    0.93
   7  -2  -6    0.79    1.49
  -7   2   5  287.54   23.37
   7  -2  -5  259.65   18.36
  -7   2   4  337.04   23.35
   7  -2  -4  315.91   21.99
  -7   2   3   91.72    8.40
   7  -2  -3  100.15    9.13
  -7   2   2    2.45    1.69
   7  -2  -2    3.95    1.43
  -7   2   1  415.23   20.26
   7  -2  -1  434.95   20.96
  -7   2   0  762.35   36.20
   7  -2   0  820.74   38.91
  -7   2  -1  194.20   14.81
   7  -2   1  192.51   14.03
   7  -2   1  164.84   11.48
  -7   2  -2    5.99    2.10
   7  -2   2    5.26    1.72
   7  -2   2    6.38    1.77
  -7   2  -3   14.85    2.92
   7  -2   3   13.60    2.44
   7  -2   3   12.92    3.83
  -7   2  -4   16.09    2.85
   7  -2   4   17.16    2.66
   7  -2   4   14.91    2.12
  -7   2  -5    4.36    1.84
   7  -2   5    3.20    1.10
   7  -2   5    3.17    1.30
  -7   2  -6  314.19   31.05
   7  -2   6  256.35   25.29
  -7   2  -7   15.16    3.16
   7  -2   7   12.82    2.55
   7  -1 -10  228.99   38.33
  -7   1   9    4.07    1.24
   7  -1  -9    4.85    2.39
  -7   1   8   15.63    2.22
   7  -1  -8   14.08    3.74
  -7   1   7    0.91    1.09
   7  -1  -7    0.92    1.47
  -7   1   6   77.89    6.60
   7  -1  -6   80.78    7.05
  -7   1   5  510.80   38.87
   7  -1  -5  512.72   39.13
  -7   1   4  626.07   42.43
   7  -1  -4  667.81   45.20
  -7   1   3   37.43    4.66
   7  -1  -3   32.34    4.06
   7  -1  -3   31.69    3.53
  -7   1   2   40.93    4.96
   7  -1  -2   41.09    4.91
   7  -1  -2   34.22    4.52
  -7   1   1  191.70   13.89
   7  -1  -1  216.07   15.24
   7  -1  -1  180.14   13.09
  -7   1   0  277.78   20.10
   7  -1   0  296.39   20.54
   7  -1   0  260.13   19.59
  -7   1  -1  136.16   11.42
   7  -1   1  145.77   11.77
   7  -1   1  127.80   10.21
  -7   1  -2  139.60   11.21
   7  -1   2  147.98   11.25
   7  -1   2  131.74   10.10
  -7   1  -3  385.83   29.27
   7  -1   3  341.41   25.40
   7  -1   3  331.18   24.84
  -7   1  -4  408.26   50.82
   7  -1   4  358.72   44.49
  -7   1  -5    2.58    1.66
   7  -1   5    2.41    1.31
  -7   1  -6   13.21    2.65
   7  -1   6    9.33    2.87
   7   0 -10   35.95    4.08
   7   0  -9   14.46    4.13
  -7   0   8   27.78    4.41
   7   0  -8   34.36    5.67
  -7   0   8   31.31    6.50
  -7   0   7  249.40   31.01
   7   0  -7  274.66   34.36
  -7   0   7  271.80   33.77
  -7   0   6   85.78    7.24
   7   0  -6  103.25   16.10
  -7   0   6   93.43    7.62
  -7   0   5    7.83    1.85
   7   0  -5    8.40    2.07
  -7   0   5    9.34    1.69
  -7   0   4   10.24    2.11
   7   0  -4   11.83    2.22
  -7   0   3    7.07    2.00
   7   0  -3    5.58    1.55
   7   0  -3    4.96    1.30
  -7   0   2  165.41   13.33
   7   0  -2  196.87   15.57
   7   0  -2  169.44   13.78
  -7   0   1  447.37   34.36
   7   0  -1  464.71   35.40
   7   0  -1  421.13   32.05
  -7   0   0  493.79   37.95
   7   0   0  516.91   39.28
   7   0   0  461.23   36.82
  -7   0  -1  113.05    9.27
   7   0   1  119.10    9.23
   7   0   1  105.99   10.56
  -7   0  -2   31.16    4.04
   7   0   2   28.62    3.80
   7   0   2   31.31    3.69
  -7   0  -3   12.27    2.65
   7   0   3   12.33    3.84
  -7   0  -4   51.66    6.36
   7   0   4   44.77    5.17
  -7   0  -5   45.75    4.53
   7   0   5   36.64    6.87
  -7   0  -6   23.20    3.72
   7   0   6   20.22    2.98
   7   1 -10   54.95   11.12
   7   1  -9   -0.17    1.63
  -7  -1   9    0.24    1.05
   7   1  -8    9.56    2.28
  -7  -1   8    9.49    2.51
  -7  -1   7   73.55    9.02
   7   1  -7   93.43   11.71
  -7  -1   7   91.61   11.10
  -7  -1   6  350.88   43.55
   7   1  -6  374.52   46.51
  -7  -1   6  374.31   46.35
  -7  -1   5  218.08   16.83
   7   1  -5  239.91   18.75
  -7  -1   5  218.29   16.71
  -7  -1   4  127.71    9.96
   7   1  -4  149.71   11.81
  -7  -1   3  127.14   10.06
   7   1  -3  142.68   11.13
   7   1  -3  119.39   11.15
  -7  -1   2   20.38    3.20
   7   1  -2   17.85    2.76
   7   1  -2   15.37    4.12
  -7  -1   1   76.73    6.77
   7   1  -1   81.92    6.82
   7   1  -1   75.90    7.51
  -7  -1   0  326.17   24.85
   7   1   0  314.67   23.47
   7   1   0  311.44   27.96
  -7  -1  -1  264.55   33.16
   7   1   1  238.50   32.07
  -7  -1  -2   13.73    3.15
   7   1   2   12.55    3.14
  -7  -1  -3   35.19    4.54
   7   1   3   32.42    4.07
  -7  -1  -4   74.04   12.55
   7   1   4   80.06   13.32
  -7  -1  -5   33.73    4.25
   7   1   5   31.47    3.90
   7   2  -9   66.19   13.24
  -7  -2   9   54.19   16.54
   7   2  -8   48.44    6.36
  -7  -2   8   46.57    4.03
   7   2  -7  236.57   22.59
  -7  -2   7  210.74   19.70
  -7  -2   6  196.35   22.92
   7   2  -6  234.10   27.46
  -7  -2   6  218.99   26.28
  -7  -2   5   16.47    3.08
   7   2  -5   17.95    3.36
  -7  -2   5   17.29    3.26
  -7  -2   4    8.07    1.91
   7   2  -4    5.91    2.10
   7   2  -4    6.48    1.64
  -7  -2   3   58.20    5.72
   7   2  -3   63.98    3.29
   7   2  -3   56.12    6.47
  -7  -2   2  181.28   22.89
   7   2  -2  178.18   22.75
   7   2  -2  176.27   22.42
  -7  -2   1  135.76   16.32
   7   2  -1  127.08   17.84
  -7  -2   0   13.41    3.21
   7   2   0   11.87    3.04
  -7  -2  -1   27.07    4.17
   7   2   1   29.83    7.46
  -7  -2  -2   11.93    2.54
   7   2   2   10.16    2.29
  -7  -2  -3   27.64    3.80
   7   2   3   23.88    5.24
   7   3  -8    5.27    1.98
  -7  -3   8    8.16    2.11
   7   3  -7  182.50   29.40
  -7  -3   7  168.69   27.19
   7   3  -6  340.03   35.66
  -7  -3   6  320.28   31.46
  -7  -3   5  172.86   17.27
   7   3  -5  201.80   20.29
  -7  -3   5  205.52   20.62
  -7  -3   4   48.47    3.31
   7   3  -4   50.65   12.14
   7   3  -4   43.76    3.47
  -7  -3   3   65.94    7.14
   7   3  -3   62.88   13.11
  -7  -3   2  135.61   13.98
   7   3  -2  130.70   15.46
  -7  -3   1   22.37    3.12
   7   3  -1   20.31    4.13
  -7  -3   0    2.99    2.13
   7   3   0    4.41    2.00
  -7  -3  -1   35.47    4.53
   7   3   1   27.19    7.77
  -7  -4   4   48.94    9.78
   7   4  -4   52.83   11.63
  -7  -4   3  177.69   33.88
   7   4  -3  189.91   39.81
  -7  -4   2  203.52   38.89
   7   4  -2  197.43   40.81
  -8   9   2   32.80    8.08
  -8   9   1   76.60   21.72
   8  -9  -1   69.11   13.83
  -8   9   0   58.47   14.62
  -8   9  -1   27.29    6.07
   8  -9   1   25.02    3.56
  -8   9  -2   74.63   22.11
   8  -9   2   85.34   16.92
  -8   8   5  104.26   23.04
  -8   8   4   20.18    5.33
   8  -8  -4   13.05    2.64
  -8   8   3    0.49    1.10
   8  -8  -3    0.58    1.37
  -8   8   2   36.01    6.43
   8  -8  -2   25.20    3.34
  -8   8   1  152.09   15.90
   8  -8  -1  124.10   13.69
  -8   8   0   16.10    6.18
   8  -8   0   15.09    2.60
  -8   8  -1    2.41    1.78
   8  -8   1    3.89    1.80
  -8   8  -2  135.46   14.12
   8  -8   2  133.69   14.02
  -8   8  -3  313.42   25.45
   8  -8   3  312.49   49.96
  -8   8  -4   57.24   11.45
   8  -8   4   52.78   16.54
  -8   7   6    1.76    1.14
   8  -7  -6    0.23    1.27
  -8   7   5    9.44    3.12
   8  -7  -5    8.36    3.21
  -8   7   4  134.02   15.90
   8  -7  -4   96.41    9.97
  -8   7   3   19.01    4.76
   8  -7  -3   13.09    2.59
  -8   7   2  144.80   17.81
   8  -7  -2  117.29   14.45
   8  -7  -1  256.70   30.17
  -8   7   0  132.75   16.03
   8  -7   0  111.66   13.74
  -8   7  -1   22.21    5.53
   8  -7   1   20.57    4.08
  -8   7  -2  220.89   20.85
   8  -7   2  203.54   19.31
  -8   7  -3   39.05    5.32
   8  -7   3   42.60    5.41
  -8   7  -4    3.76    2.00
   8  -7   5    4.38    1.80
  -8   6   7   32.92    7.57
   8  -6  -7   31.22    4.04
  -8   6   6   23.32    3.75
   8  -6  -6   17.49    2.95
  -8   6   5   96.72   17.18
   8  -6  -5   80.29    8.35
  -8   6   4  201.74   24.40
   8  -6  -4  163.49   19.52
  -8   6   3  339.14   43.17
   8  -6  -3  264.48   33.47
  -8   6   2   70.44   15.08
   8  -6  -2   57.94    6.33
  -8   6   1    1.32    1.11
   8  -6  -1    0.11    1.43
  -8   6   0   -0.93    1.64
   8  -6   0    2.84    2.19
  -8   6  -1   33.26    4.63
   8  -6   1   34.37    4.54
  -8   6  -2   64.42    4.37
  -8   6  -3  245.81   28.92
   8  -6   3  259.84   30.42
  -8   6  -4  165.06   16.01
   8  -6   4  169.19   16.39
  -8   6  -5   17.14    5.64
   8  -6   5   25.29    5.92
  -8   6  -6    7.06    2.09
   8  -6   6    6.57    2.15
  -8   5   8   77.47   19.45
   8  -5  -8   58.87   11.91
  -8   5   7  217.33   25.85
   8  -5  -7  155.44   16.41
  -8   5   6   76.88   14.21
   8  -5  -6   52.76   10.06
  -8   5   5   12.47    2.90
   8  -5  -5    8.26    2.46
  -8   5   4  144.17   24.73
   8  -5  -4  121.19   15.73
  -8   5   3  340.27   28.04
   8  -5  -3  292.77   23.78
  -8   5   2  202.15   21.49
   8  -5  -2  169.96   14.24
  -8   5   1   12.94    3.64
   8  -5  -1   10.57    2.66
  -8   5   0  181.56   14.52
   8  -5   0  174.12   13.95
  -8   5  -1  316.10   25.46
   8  -5   1  305.58   23.51
  -8   5  -2   44.42    4.99
   8  -5   2   45.84    7.94
  -8   5  -3   37.38    6.10
   8  -5   3   44.67    7.10
  -8   5  -4   83.87    8.74
   8  -5   4   89.08    9.17
  -8   5  -5    5.89    2.28
   8  -5   5    6.40    1.56
  -8   5  -6   28.53    6.71
   8  -5   6   34.03    4.18
  -8   4   9   86.95   17.58
   8  -4  -9   67.65   13.66
  -8   4   8    1.47    1.06
   8  -4  -8    3.48    2.34
  -8   4   7   73.90    8.23
   8  -4  -7   61.13    6.93
  -8   4   6   65.00   10.25
   8  -4  -6   51.40    7.97
  -8   4   5   84.94   16.38
   8  -4  -5   72.61    9.74
  -8   4   4  527.51   39.68
   8  -4  -4  439.47   33.04
  -8   4   3  848.66   62.29
   8  -4  -3  749.80   54.62
  -8   4   2   81.98    7.32
   8  -4  -2   76.38    7.90
  -8   4   1    0.92    2.21
   8  -4  -1    2.23    1.72
  -8   4   0   25.97    4.16
   8  -4   0   26.54    3.77
  -8   4  -1  159.14   12.82
   8  -4   1  170.91   13.65
  -8   4  -2  175.89   14.28
   8  -4   2  189.03   15.30
  -8   4  -3   14.69    2.69
   8  -4   3   17.31    2.81
  -8   4  -4   69.50    7.60
   8  -4   4   64.73    7.10
  -8   4  -5  142.65   14.94
   8  -4   5  138.35   14.28
  -8   4  -6    4.77    2.30
   8  -4   6    3.22    1.87
  -8   3   9  147.01   29.30
   8  -3  -9  142.22   27.54
  -8   3   8   29.24    7.25
   8  -3  -8   26.42    3.19
  -8   3   7    0.44    0.97
   8  -3  -7    2.58    2.04
  -8   3   6   36.62    6.60
   8  -3  -6   30.65    4.23
  -8   3   5   63.71    6.81
   8  -3  -5   51.86    5.95
  -8   3   4   95.05    8.19
   8  -3  -4   97.04    8.46
  -8   3   3  367.74   27.86
   8  -3  -3  339.62   25.10
  -8   3   2  128.94   10.45
   8  -3  -2  130.40   10.44
  -8   3   1   55.97    6.55
   8  -3  -1   42.65    5.33
  -8   3   0  179.27   14.05
   8  -3   0  188.95   14.45
  -8   3  -1  654.69   48.78
   8  -3   1  683.71   50.60
  -8   3  -2  190.56   24.85
   8  -3   2  179.02   22.81
  -8   3  -3   10.59    2.85
   8  -3   3   10.23    2.12
  -8   3  -4   24.12    6.82
   8  -3   4   28.47    3.98
  -8   3  -5  134.70   22.00
  -8   3  -6   16.08    3.33
  -8   2   9  140.87   26.70
   8  -2  -9  132.82   21.77
  -8   2   8    0.33    1.18
   8  -2  -8    0.70    1.42
  -8   2   7   15.00    2.96
   8  -2  -7   13.77    3.42
  -8   2   6   86.39   11.32
   8  -2  -6   91.57   12.13
  -8   2   5  203.19   15.84
   8  -2  -5  205.54   16.38
  -8   2   4   72.56    6.73
   8  -2  -4   67.13    6.52
  -8   2   3   19.08    3.54
   8  -2  -3   16.17    3.11
  -8   2   2  137.11   11.09
   8  -2  -2  135.97   10.69
  -8   2   1    3.03    2.23
   8  -2  -1    3.07    1.41
  -8   2   0  182.78   14.56
   8  -2   0  215.13   16.69
  -8   2  -1  575.62   43.76
   8  -2   1  614.27   45.62
  -8   2  -2  406.04   14.97
   8  -2   2  412.67   51.18
  -8   2  -3   93.30   11.79
   8  -2   3   95.77   11.66
  -8   2  -4   97.69   10.65
  -8   2  -5   38.03    4.61
   8  -1  -9  143.83   27.84
  -8   1   8   71.01    7.71
   8  -1  -8   77.66    8.89
  -8   1   7   43.09    4.96
   8  -1  -7   45.29    5.72
  -8   1   6  125.50   15.82
  -8   1   5  164.09   20.91
   8  -1  -5  177.55   22.61
  -8   1   4   31.23    4.19
   8  -1  -4   33.19    4.33
  -8   1   3   46.04    5.00
   8  -1  -3   51.19    5.69
  -8   1   2    1.25    1.38
   8  -1  -2    1.25    1.73
  -8   1   1  100.19    8.61
   8  -1  -1  105.45    8.74
  -8   1   0   44.00    5.06
   8  -1   0   37.89    4.21
  -8   1  -1    0.83    0.90
  -8   1  -2   17.43    3.74
   8  -1   2   14.51    2.69
   8  -1   2   14.50    2.61
  -8   1  -3    7.41    2.28
   8  -1   3    6.48    1.75
  -8   1  -4   22.90    3.91
   8  -1   4   10.76    2.06
   8   0  -9   31.40    7.95
   8   0  -8   19.70    2.89
  -8   0   7   19.58    2.42
   8   0  -7   21.61    2.79
  -8   0   6  171.32   16.19
   8   0  -6  196.88   18.69
  -8   0   5  509.44   11.24
   8   0  -5  578.87   66.78
  -8   0   4  358.06   44.52
   8   0  -4  405.70   50.69
  -8   0   3    8.82    2.25
   8   0  -3    8.28    2.30
  -8   0   2   18.64    3.02
   8   0  -2   17.39    2.72
  -8   0   1   80.06   10.72
   8   0  -1   78.43   10.30
   8   0  -1   57.04   10.74
  -8   0   0   56.23    8.70
   8   0   0   45.18    7.63
   8   0   0   51.57    7.84
  -8   0  -1    5.63    2.09
   8   0   1    6.14    1.75
  -8   0  -2    2.40    1.85
   8   0   2    1.66    0.69
  -8   0  -3   69.69   11.89
   8   0   3   60.30   10.11
   8   1  -8   17.47    4.26
   8   1  -7   82.84   13.95
  -8  -1   6    4.53    1.37
   8   1  -6    2.84    1.81
  -8  -1   5  112.21   10.97
   8   1  -5  123.73   12.19
  -8  -1   4  124.24   12.28
   8   1  -4  135.04   13.15
  -8  -1   3   95.90    9.74
   8   1  -3  108.34   10.75
   8   1  -3   81.10   10.25
  -8  -1   2  214.76   20.22
   8   1  -2  218.92   20.37
   8   1  -2  202.32   19.28
  -8  -1   1  434.25    9.84
   8   1  -1  383.01   35.96
  -8  -1   0   97.37   10.62
   8   1   0   84.28   10.55
  -8  -1  -1    3.93    2.17
   8   1   1    1.72    0.89
  -8  -1  -2    3.80    2.47
   8   2  -6    1.79    2.08
  -8  -2   5   22.46    2.67
   8   2  -5   23.84    3.17
  -8  -2   4    2.96    1.94
   8   2  -4    2.29    1.84
   8   2  -4    1.19    0.56
  -8  -2   3   26.60    3.20
   8   2  -3   17.51    5.30
  -8  -2   2    5.88    2.03
   8   2  -2    4.48    1.56
  -8  -2   1   64.15   11.02
   8   2  -1   55.30   10.05
  -8  -2   0   93.34   18.31
   8   2   0   78.89   16.79
  -9   8   2   22.18    3.74
   9  -8  -2   19.73    3.28
  -9   8   1    2.25    1.46
   9  -8  -1    1.80    1.58
  -9   8   0   -0.14    1.55
   9  -8   0    2.51    2.20
  -9   8  -1   15.83    3.15
   9  -8   1   12.25    2.90
  -9   7   5  105.02   28.35
  -9   7   4   39.84   11.56
   9  -7  -4   30.40    6.80
  -9   7   3   70.47   16.47
   9  -7  -3   56.15    9.70
  -9   7   2  181.96   29.72
   9  -7  -2  150.56   24.53
  -9   7   1   52.84   13.39
   9  -7  -1   48.92    4.17
   9  -7   0    1.92    2.03
  -9   7  -1   22.16    3.12
   9  -7   1   20.34    3.16
  -9   7  -2    1.77    2.51
   9  -7   2    0.41    1.55
  -9   7  -3   38.18   12.23
   9  -7   3   45.83    9.49
   9  -6  -6   49.43   10.10
  -9   6   5    4.89    2.25
   9  -6  -5    6.23    2.55
  -9   6   4    2.33    1.54
   9  -6  -4    1.31    1.51
  -9   6   3   69.99   11.49
   9  -6  -3   61.58    7.30
  -9   6   2  363.36   43.36
   9  -6  -2  329.30   30.56
  -9   6   1  233.04   22.54
   9  -6  -1  211.41   20.31
  -9   6   0    4.36    1.62
   9  -6   0    7.47    2.57
  -9   6  -1    2.73    1.37
   9  -6   1    5.08    1.97
  -9   6  -2  111.75   12.02
   9  -6   2  108.36   11.71
  -9   6  -3   13.35    2.80
   9  -6   3   18.06    3.45
  -9   6  -4    3.50    1.45
  -9   5   7    3.53    1.97
   9  -5  -7    1.63    1.52
  -9   5   6   68.54   14.89
   9  -5  -6   53.64    9.35
  -9   5   5   21.82    3.82
   9  -5  -5   14.62    4.47
  -9   5   4   15.12    3.76
   9  -5  -4   12.08    2.69
  -9   5   3    3.11    1.90
   9  -5  -3    4.09    1.79
  -9   5   2   23.32    4.54
   9  -5  -2   26.98    5.73
  -9   5   1    3.21    1.76
  -9   5   0    1.08    1.69
   9  -5   0    0.37    1.36
  -9   5  -1   40.11    9.35
   9  -5   1   46.52    5.77
  -9   5  -2  311.52   31.10
   9  -5   2  310.78   31.97
  -9   5  -3  232.56   37.61
   9  -5   3  250.26   40.55
  -9   5  -4   29.98    6.57
   9  -5   4   34.96    4.45
  -9   4   7   48.11   13.18
   9  -4  -7   44.87    9.49
  -9   4   6    3.94    1.64
   9  -4  -6    3.90    2.19
  -9   4   5    2.35    2.02
   9  -4  -5    2.92    1.47
  -9   4   4   11.62    2.77
   9  -4  -4    8.94    2.49
  -9   4   3   -0.50    1.66
   9  -4  -3    2.18    1.60
  -9   4   2   42.19    6.99
   9  -4  -2   36.86    6.12
  -9   4   1   29.48    5.20
   9  -4  -1   28.88    4.96
  -9   4   0    7.48    2.44
   9  -4   0    9.01    2.02
  -9   4  -1    0.81    1.84
   9  -4   1    3.33    2.21
  -9   4  -2   81.20    9.23
   9  -4   2   87.87   12.02
  -9   4  -3   72.43   12.51
   9  -4   3   63.97   10.87
  -9   4  -4   30.12    6.56
   9  -4   4   28.42    3.75
  -9   3   7   36.19    3.68
   9  -3  -7   35.24    3.93
  -9   3   6   49.56    3.77
   9  -3  -6   52.75    4.32
  -9   3   5  130.47   12.83
   9  -3  -5  131.59   13.00
  -9   3   4  301.06   28.02
  -9   3   3  136.61   16.63
   9  -3  -3  137.89   16.92
  -9   3   2    2.02    2.45
   9  -3  -2    1.58    1.43
  -9   3   1   28.27    5.43
   9  -3  -1   29.57    5.14
  -9   3   0    6.71    2.17
   9  -3   0   10.03    2.22
  -9   3  -1   17.38    3.28
   9  -3   1   15.61    2.57
  -9   3  -2   27.01    3.36
   9  -3   2   29.56    3.06
  -9   3  -3   27.70    7.43
   9  -3   3   30.59    3.59
  -9   2   7   43.72    3.96
   9  -2  -7   40.54    4.31
  -9   2   6    1.26    1.98
   9  -2  -6   -0.37    1.34
  -9   2   5   10.39    2.20
   9  -2  -5   14.61    2.49
  -9   2   4  133.24   13.26
   9  -2  -4  153.70   14.96
  -9   2   3  333.93   30.90
   9  -2  -3  379.53   35.17
  -9   2   2   95.33   10.01
   9  -2  -2  102.45   10.58
  -9   2   1   43.44    5.33
   9  -2  -1   41.15    4.99
  -9   2   0  133.34   13.26
   9  -2   0  138.90   13.55
  -9   2  -1   89.60   10.05
   9  -2   1   78.04    8.60
  -9   2  -2    9.70    3.14
   9  -2   2    7.87    2.84
  -9   2  -3   65.22   13.13
  -9   1   7   33.18    6.86
   9  -1  -7   39.78    8.36
  -9   1   6    2.04    2.14
   9  -1  -6    1.10    1.48
  -9   1   5    6.25    2.18
   9  -1  -5    3.79    1.92
  -9   1   4  232.59   23.29
   9  -1  -4  241.42   24.16
  -9   1   3  124.03   13.20
   9  -1  -3  131.28   13.68
  -9   1   2    1.05    1.60
   9  -1  -2    0.91    1.42
  -9   1   1   30.20    3.41
   9  -1  -1   29.24    2.97
  -9   1   0  175.28   24.98
   9  -1   0  170.92   17.23
  -9   1  -1  171.12   27.79
  -9   1  -2   25.97    3.99
  -9   0   6   21.75    5.93
   9   0  -6   21.20    3.88
  -9   0   5   38.00    3.63
   9   0  -5   43.74    4.64
  -9   0   4  214.18   34.57
   9   0  -4  227.37   36.41
  -9   0   3  131.68   23.53
   9   0  -3  148.85   24.09
  -9   0   2   31.03    7.49
   9   0  -2   33.84    3.58
  -9   0   1   12.72    2.55
  -9   0   0   27.08    3.96
 -10   6   3   91.19   18.04
 -10   6   2   32.49    7.17
  10  -6  -2   30.73    4.84
 -10   6   1    2.52    1.86
  10  -6  -1    4.22    2.32
 -10   6   0   35.99    7.73
 -10   5   4    6.48    2.24
  10  -5  -4    7.90    2.23
 -10   5   3   84.55   16.71
  10  -5  -3   84.02   16.61
 -10   5   2  212.40   40.72
  10  -5  -2  203.10   38.88
 -10   5   1   48.85   10.15
  10  -5  -1   46.28    9.66
 -10   5   0    2.60    1.85
  10  -5   0    5.08    2.07
  10  -4  -4    5.92    2.47
 -10   4   3   98.00   19.23
  10  -4  -3  100.35   19.66
 -10   4   2  106.20   27.81
  10  -4  -2  106.92   20.84
 -10   4   1   25.08    3.82
  10  -4  -1   25.02    4.54
 -10   4   0   12.22    2.95
  10  -4   0   14.98    3.20
 -10   3   4    7.20    2.40
  10  -3  -4    6.91    2.13
  10  -3  -3  212.49   40.66
 -10   3   2  301.17   57.46
  10  -3  -2  330.91   62.90
 -10   3   1   79.81   15.96
  10  -3  -1   92.47   18.13
 -10   3   0   -0.20    1.71
  10  -3   0    2.61    1.95
 -10   2   3   25.97    9.32
  10  -2  -3   31.08    4.28
  10  -2  -2   37.88    7.99
   0   0   0    0.00    0.00
_computing_structure_solution     'SHELXT 2014/5 (Sheldrick, 2014)'
_computing_structure_solution     'SHELXT 2014/5 (Sheldrick, 2014)'
;
_shelx_hkl_checksum              57605
_shelx_res_file
;
TITL x674a_a.res in P-1
    x674a.res
    created by SHELXL-2017/1 at 18:07:00 on 21-Jul-2017
REM Old TITL x674a_a.res in P-1
REM SHELXT solution in P-1
REM R1 0.104, Rweak 0.008, Alpha 0.033, Orientation as input
REM Formula found by SHELXT: C6 N O3 Cl2 Mn
CELL 0.71073 7.9019 8.0258 9.8929 98.033 99.272 113.634
ZERR 1 0.0067 0.0071 0.0081 0.001 0.007 0.011
LATT 1
SFAC C H Cl Mn N O
UNIT 12 22 4 2 2 6
EQIV $1 -X,-Y,1-Z
EQIV $2 -X,1-Y,1-Z
DFIX 0.84 H2a O2 H2b O2 H3a O3 H3b O3
L.S. 10
PLAN  20
SIZE 0.275 0.5 0.85
TEMP -100
HTAB O3 Cl2_$1
HTAB O2 Cl1_$2
BOND $H
list 4
fmap 2
acta
OMIT -1 0 1
OMIT 2 0 0
REM <olex2.extras>
REM <HklSrc "%.\\x674a.hkl">
REM </olex2.extras>
WGHT    0.031000    0.023000
FVAR       1.13820
MN1   4    0.270312    0.401038    0.535525    11.00000    0.02823    0.02782 =
         0.03006    0.00651    0.00843    0.00960
CL1   3    0.149226    0.486067    0.735537    11.00000    0.04711    0.06176 =
         0.03097    0.01421    0.01432    0.02996
CL2   3    0.322990    0.136718    0.606686    11.00000    0.04366    0.03488 =
         0.05968    0.02357    0.01506    0.01366
O1    6    0.565605    0.600912    0.626826    11.00000    0.03261    0.03105 =
         0.03132   -0.00099    0.00916    0.00736
O2    6    0.260493    0.646701    0.456164    11.00000    0.03894    0.04131 =
         0.05847    0.02317    0.01378    0.01852
H2A   2    0.354384    0.710975    0.435776    11.00000    0.05417
H2B   2    0.167284    0.638412    0.403419    11.00000    0.06082
O3    6    0.006939    0.234352    0.376958    11.00000    0.03393    0.03214 =
         0.04382    0.00797    0.00391    0.00795
H3A   2   -0.069443    0.128542    0.389177    11.00000    0.06313
H3B   2   -0.053330    0.288533    0.352491    11.00000    0.08018
N1    5    0.628860    0.713024    0.755692    11.00000    0.02951    0.02927 =
         0.02709    0.00627    0.00611    0.01070
C1    1    0.656075    0.890317    0.770038    11.00000    0.04419    0.03060 =
         0.02750    0.00662    0.00823    0.01583
AFIX  43
H1    2    0.630727    0.934959    0.688679    11.00000   -1.20000
AFIX   0
C2    1    0.720370    1.010216    0.900838    11.00000    0.04849    0.03639 =
         0.03357    0.00168    0.01118    0.01384
C3    1    0.753829    0.939951    1.016914    11.00000    0.06731    0.05972 =
         0.02629    0.00150    0.00492    0.01583
AFIX  43
H3    2    0.796735    1.018158    1.108581    11.00000   -1.20000
AFIX   0
C4    1    0.725045    0.757061    0.999731    11.00000    0.07649    0.06858 =
         0.03552    0.02454    0.00278    0.02883
AFIX  43
H4    2    0.748670    0.709051    1.079578    11.00000   -1.20000
AFIX   0
C5    1    0.662026    0.643055    0.867071    11.00000    0.05901    0.04259 =
         0.04237    0.01864    0.00645    0.02360
AFIX  43
H5    2    0.642330    0.516547    0.854670    11.00000   -1.20000
AFIX   0
C6    1    0.749363    1.208720    0.913097    11.00000    0.10491    0.03918 =
         0.05708   -0.00470    0.02377    0.02567
AFIX 137
H6A   2    0.875173    1.284026    0.898886    11.00000   -1.50000
H6B   2    0.740781    1.258165    1.006799    11.00000   -1.50000
H6C   2    0.651078    1.213665    0.841615    11.00000   -1.50000
AFIX   0
HKLF 4
REM  x674a_a.res in P-1
REM R1 =  0.0314 for    2375 Fo > 4sig(Fo)  and  0.0331 for all    2553 data
REM    135 parameters refined using      4 restraints
END
WGHT      0.0309      0.0196
REM Highest difference peak  0.563,  deepest hole -0.414,  1-sigma level  0.070
Q1    1   0.4037  0.5160  0.5998  11.00000  0.05    0.56
Q2    1   0.1406  0.2978  0.4658  11.00000  0.05    0.53
Q3    1   0.1548  0.4191  0.5398  11.00000  0.05    0.42
Q4    1   0.2791  0.5860  0.8042  11.00000  0.05    0.37
Q5    1   0.3815  0.3844  0.5305  11.00000  0.05    0.37
Q6    1   0.2672  0.4883  0.7458  11.00000  0.05    0.31
Q7    1   0.2014  0.0448  0.5483  11.00000  0.05    0.30
Q8    1   0.0648  0.3860  0.6781  11.00000  0.05    0.28
Q9    1   0.8444  1.2819  0.9974  11.00000  0.05    0.27
Q10   1   0.1082  0.1928  0.3797  11.00000  0.05    0.26
Q11   1   0.4507  0.1168  0.6026  11.00000  0.05    0.25
Q12   1   0.1988  0.1791  0.6560  11.00000  0.05    0.22
Q13   1   0.2729  0.6891  0.7826  11.00000  0.05    0.22
Q14   1   0.4535  0.2373  0.6794  11.00000  0.05    0.22
Q15   1   0.7285  0.9611  0.8376  11.00000  0.05    0.21
Q16   1   0.4629  0.5981  0.6763  11.00000  0.05    0.21
Q17   1   0.8275  1.2962  0.8361  11.00000  0.05    0.20
Q18   1   0.6819  1.3010  1.1143  11.00000  0.05    0.19
Q19   1   0.0210  0.4892  0.7190  11.00000  0.05    0.19
Q20   1   0.7819  0.9700  0.9549  11.00000  0.05    0.18
;
_shelx_res_checksum              7978
loop_
_space_group_symop_operation_xyz
'x, y, z'
'-x, -y, -z'
loop_
_atom_site_type_symbol
_atom_site_label
_atom_site_fract_x
_atom_site_fract_y
_atom_site_fract_z
_atom_site_U_iso_or_equiv
_atom_site_adp_type
_atom_site_calc_flag
_atom_site_occupancy
Mn Mn1 0.27031(3) 0.40104(3) 0.53553(2) 0.02936(11) Uani d 1
Cl Cl1 0.14922(6) 0.48607(7) 0.73553(4) 0.04342(14) Uani d 1
Cl Cl2 0.32299(6) 0.13672(6) 0.60668(6) 0.04544(15) Uani d 1
O O1 0.56562(15) 0.60090(16) 0.62683(12) 0.0345(3) Uani d 1
O O2 0.2605(2) 0.6467(2) 0.45620(16) 0.0443(3) Uani d 1
H H2A 0.355(3) 0.710(3) 0.436(2) 0.055(7) Uiso d 1
H H2B 0.167(3) 0.639(3) 0.404(2) 0.062(8) Uiso d 1
O O3 0.00694(17) 0.23434(18) 0.37696(14) 0.0395(3) Uani d 1
H H3A -0.069(3) 0.128(2) 0.390(2) 0.062(7) Uiso d 1
H H3B -0.054(4) 0.288(4) 0.352(3) 0.081(10) Uiso d 1
N N1 0.62886(17) 0.71302(18) 0.75570(13) 0.0294(3) Uani d 1
C C1 0.6561(2) 0.8903(2) 0.77007(17) 0.0342(4) Uani d 1
H H1 0.631326 0.934009 0.690425 0.041 Uiso calc 1
C C2 0.7204(3) 1.0102(3) 0.90084(19) 0.0415(4) Uani d 1
C C3 0.7538(3) 0.9400(3) 1.0169(2) 0.0568(6) Uani d 1
H H3 0.795802 1.016517 1.106619 0.068 Uiso calc 1
C C4 0.7250(4) 0.7571(4) 0.9997(2) 0.0611(6) Uani d 1
H H4 0.748138 0.710090 1.077885 0.073 Uiso calc 1
C C5 0.6620(3) 0.6431(3) 0.8670(2) 0.0472(5) Uani d 1
H H5 0.642729 0.519251 0.854911 0.057 Uiso calc 1
C C6 0.7494(4) 1.2087(3) 0.9131(3) 0.0701(7) Uani d 1
H H6A 0.873126 1.282752 0.900126 0.105 Uiso calc 1
H H6B 0.739622 1.256760 1.004510 0.105 Uiso calc 1
H H6C 0.653880 1.213706 0.842403 0.105 Uiso calc 1
loop_
_atom_site_aniso_label
_atom_site_aniso_U_11
_atom_site_aniso_U_22
_atom_site_aniso_U_33
_atom_site_aniso_U_12
_atom_site_aniso_U_13
_atom_site_aniso_U_23
Mn1 0.02821(16) 0.02780(17) 0.03004(17) 0.00959(12) 0.00843(11) 0.00651(12)
Cl1 0.0471(3) 0.0617(3) 0.0309(2) 0.0299(2) 0.01431(18) 0.0142(2)
Cl2 0.0436(3) 0.0349(3) 0.0596(3) 0.0137(2) 0.0151(2) 0.0236(2)
O1 0.0326(6) 0.0310(6) 0.0313(6) 0.0074(5) 0.0091(5) -0.0010(5)
O2 0.0389(7) 0.0414(7) 0.0584(9) 0.0185(6) 0.0137(6) 0.0231(7)
O3 0.0339(6) 0.0322(7) 0.0438(7) 0.0079(5) 0.0039(5) 0.0080(6)
N1 0.0295(6) 0.0293(7) 0.0271(6) 0.0107(5) 0.0061(5) 0.0062(5)
C1 0.0443(9) 0.0307(8) 0.0273(7) 0.0159(7) 0.0082(6) 0.0067(6)
C2 0.0484(10) 0.0363(9) 0.0336(8) 0.0138(8) 0.0112(7) 0.0016(7)
C3 0.0674(13) 0.0598(13) 0.0262(9) 0.0158(11) 0.0049(9) 0.0014(9)
C4 0.0766(14) 0.0687(15) 0.0355(10) 0.0289(12) 0.0028(10) 0.0246(10)
C5 0.0591(11) 0.0424(10) 0.0425(10) 0.0236(9) 0.0064(9) 0.0186(9)
C6 0.105(2) 0.0393(11) 0.0571(14) 0.0257(13) 0.0237(14) -0.0048(10)
loop_
_atom_type_symbol
_atom_type_description
_atom_type_scat_dispersion_real
_atom_type_scat_dispersion_imag
_atom_type_scat_source
C C 0.0033 0.0016 'International Tables Vol C Tables 4.2.6.8 and 6.1.1.4'
H H 0.0000 0.0000 'International Tables Vol C Tables 4.2.6.8 and 6.1.1.4'
Cl Cl 0.1484 0.1585 'International Tables Vol C Tables 4.2.6.8 and 6.1.1.4'
Mn Mn 0.3368 0.7283 'International Tables Vol C Tables 4.2.6.8 and 6.1.1.4'
N N 0.0061 0.0033 'International Tables Vol C Tables 4.2.6.8 and 6.1.1.4'
O O 0.0106 0.0060 'International Tables Vol C Tables 4.2.6.8 and 6.1.1.4'
loop_
_geom_angle_atom_site_label_1
_geom_angle_atom_site_label_2
_geom_angle_atom_site_label_3
_geom_angle_site_symmetry_1
_geom_angle_site_symmetry_3
_geom_angle
Cl1 Mn1 Cl2 . . 98.31(4)
O1 Mn1 Cl1 . . 95.44(6)
O1 Mn1 Cl1 2_666 . 165.45(4)
O1 Mn1 Cl2 2_666 . 89.66(5)
O1 Mn1 Cl2 . . 93.11(7)
O1 Mn1 O1 . 2_666 71.87(7)
O1 Mn1 O2 2_666 . 82.07(6)
O1 Mn1 O2 . . 81.64(7)
O2 Mn1 Cl1 . . 89.20(6)
O2 Mn1 Cl2 . . 171.24(4)
O3 Mn1 Cl1 . . 101.10(7)
O3 Mn1 Cl2 . . 97.13(6)
O3 Mn1 O1 . 2_666 89.88(8)
O3 Mn1 O1 . . 159.02(5)
O3 Mn1 O2 . . 85.76(7)
Mn1 O1 Mn1 . 2_666 108.13(7)
N1 O1 Mn1 . . 124.29(9)
N1 O1 Mn1 . 2_666 127.41(10)
Mn1 O2 H2A . . 114.4(17)
Mn1 O2 H2B . . 121.9(18)
H2A O2 H2B . . 112(2)
Mn1 O3 H3A . . 118.3(16)
Mn1 O3 H3B . . 116(2)
H3A O3 H3B . . 109(3)
C1 N1 O1 . . 119.45(13)
C1 N1 C5 . . 121.69(16)
C5 N1 O1 . . 118.86(16)
N1 C1 H1 . . 119.3
N1 C1 C2 . . 121.31(16)
C2 C1 H1 . . 119.3
C1 C2 C3 . . 117.8(2)
C1 C2 C6 . . 119.87(19)
C3 C2 C6 . . 122.4(2)
C2 C3 H3 . . 120.0
C4 C3 C2 . . 119.99(19)
C4 C3 H3 . . 120.0
C3 C4 H4 . . 119.9
C3 C4 C5 . . 120.16(18)
C5 C4 H4 . . 119.9
N1 C5 C4 . . 119.10(19)
N1 C5 H5 . . 120.5
C4 C5 H5 . . 120.5
C2 C6 H6A . . 109.5
C2 C6 H6B . . 109.5
C2 C6 H6C . . 109.5
H6A C6 H6B . . 109.5
H6A C6 H6C . . 109.5
H6B C6 H6C . . 109.5
loop_
_geom_bond_atom_site_label_1
_geom_bond_atom_site_label_2
_geom_bond_site_symmetry_2
_geom_bond_distance
Mn1 Cl1 . 2.4602(15)
Mn1 Cl2 . 2.4900(19)
Mn1 O1 2_666 2.2228(17)
Mn1 O1 . 2.1792(18)
Mn1 O2 . 2.246(2)
Mn1 O3 . 2.1704(17)
O1 N1 . 1.3411(19)
O2 H2A . 0.791(15)
O2 H2B . 0.802(16)
O3 H3A . 0.863(16)
O3 H3B . 0.795(17)
N1 C1 . 1.334(2)
N1 C5 . 1.340(2)
C1 H1 . 0.9300
C1 C2 . 1.381(2)
C2 C3 . 1.381(3)
C2 C6 . 1.500(3)
C3 H3 . 0.9300
C3 C4 . 1.373(4)
C4 H4 . 0.9300
C4 C5 . 1.377(3)
C5 H5 . 0.9300
C6 H6A . 0.9600
C6 H6B . 0.9600
C6 H6C . 0.9600
loop_
_geom_hbond_atom_site_label_D
_geom_hbond_atom_site_label_H
_geom_hbond_atom_site_label_A
_geom_hbond_site_symmetry_A
_geom_hbond_distance_DH
_geom_hbond_distance_HA
_geom_hbond_distance_DA
_geom_hbond_angle_DHA
_geom_hbond_publ_flag
O2 H2B Cl1 2_566 0.802(16) 2.379(17) 3.147(3) 161(2) yes
O3 H3A Cl2 2_556 0.863(16) 2.275(17) 3.120(2) 167(2) yes
