#------------------------------------------------------------------------------
#$Date: 2019-12-27 19:49:19 +0200 (Fri, 27 Dec 2019) $
#$Revision: 246235 $
#$URL: file:///home/coder/svn-repositories/cod/cif/2/31/19/2311995.cif $
#------------------------------------------------------------------------------
#
# This file is available in the Crystallography Open Database (COD),
# http://www.crystallography.net/. The original data for this entry
# were provided by IUCr Journals, http://journals.iucr.org/.
#
# The file may be used within the scientific community so long as
# proper attribution is given to the journal article from which the
# data were obtained.
#
data_2311995
loop_
_publ_author_name
'Cigler, Andrew J.'
'Kaduk, James A.'
_publ_section_title
;
 Dilithium (citrate) crystals and their relatives.
;
_journal_issue                   'Pt 10'
_journal_name_full
'Acta crystallographica. Section C, Structural chemistry'
_journal_page_first              1160
_journal_page_last               1170
_journal_paper_doi               10.1107/S2053229618012597
_journal_volume                  74
_journal_year                    2018
_chemical_formula_analytical     'C6 H6 Li Na O7'
_chemical_formula_moiety         'Li Na H C6 H5 O7'
_chemical_formula_structural     'Li Na H C6 H5 O7'
_chemical_formula_sum            'C6 H6 Li Na O7'
_chemical_formula_weight         220.04
_chemical_name_common            'lithium sodium hydrogen citrate'
_chemical_name_systematic        'lithium sodium hydrogen citrate'
_space_group_IT_number           2
_space_group_name_Hall           '-P 1'
_space_group_name_H-M_alt        'P -1'
_symmetry_cell_setting           triclinic
_symmetry_space_group_name_Hall  '-P 1'
_symmetry_space_group_name_H-M   'P -1'
_audit_creation_date             2017-04-21T13:32
_audit_creation_method           'from EXP file using GSAS2CIF'
_audit_update_record
;
2017-04-21T13:32  Initial CIF as created by GSAS2CIF

2017-05-16 # Formatted by publCIF
;
_cell_angle_alpha                91.762(5)
_cell_angle_beta                 104.388(5)
_cell_angle_gamma                97.438(4)
_cell_formula_units_Z            2
_cell_length_a                   6.5811(4)
_cell_length_b                   6.3570(4)
_cell_length_c                   9.9389(5)
_cell_measurement_temperature    300
_cell_volume                     398.52(4)
_computing_structure_refinement  GSAS
_computing_structure_solution    FOX
_diffrn_ambient_temperature      300
_diffrn_detector                 'Si strip'
_diffrn_detector_type            Xcelerator
_diffrn_measurement_device_type  'PANalytical Empyrean'
_diffrn_radiation_polarisn_ratio 0.5
_diffrn_radiation_probe          x-ray
_diffrn_source                   'sealed X-ray tube'
_diffrn_source_target            Mo
_diffrn_source_type              'PANalytical Empyrean'
_exptl_absorpt_coefficient_mu    0.073
_exptl_absorpt_correction_T_max  1.00000
_exptl_absorpt_correction_T_min  1.00000
_exptl_absorpt_process_details
;   GSAS Absorption/surface roughness correction: function number 0
 No correction is applied.
;
_exptl_crystal_density_diffrn    1.834
_pd_block_id                     2017-04-21T13:32|KADU1688|James_A._Kaduk|nccpan
_pd_calc_method                  'Rietveld Refinement'
_pd_char_colour                  white
_pd_instr_dist_spec/detc         240
_pd_instr_dist_src/spec          240
_pd_meas_2theta_range_inc        0.01671
_pd_meas_2theta_range_max        49.99084
_pd_meas_2theta_range_min        1.0109
_pd_meas_number_of_points        2932
_pd_meas_scan_method             step
_pd_phase_name                   'Li Na H C6 H5 O7'
_pd_prep_temperature             393
_pd_proc_2theta_range_inc        0.01671
_pd_proc_2theta_range_max        49.99084
_pd_proc_2theta_range_min        1.0109
_pd_proc_info_datetime           2017-04-21T13:32:20
_pd_proc_ls_background_function
;   GSAS Background function number 1 with  1 terms.
 Shifted Chebyshev function of 1st kind
      1:    771.559    
;
_pd_proc_ls_peak_cutoff          0.01000
_pd_proc_ls_profile_function
;
 CW Profile function number 4 with  27 terms
 Pseudovoigt profile coefficients as parameterized in
 P. Thompson, D.E. Cox & J.B. Hastings (1987). J. Appl. Cryst.,20,79-83.
 Asymmetry correction of L.W. Finger, D.E. Cox & A. P. Jephcoat (1994).
 J. Appl. Cryst.,27,892-900.
 Microstrain broadening by P.W. Stephens,  (1999). J. Appl. Cryst.,32,281-289.
 #1(GU)   =  186.900 #2(GV)   =    0.000 #3(GW)   =    0.100
 #4(GP)   =    0.000 #5(LX)   =    0.989 #6(ptec) =     0.00
 #7(trns) =     0.00 #8(shft) =   0.0000 #9(sfec) =     0.00
 #10(S/L) =   0.0159 #11(H/L) =   0.0160 #12(eta) =   0.6917
 Peak tails are ignored  where the intensity is below 0.0100 times the peak
   Aniso. broadening axis   0.0   0.0   1.0
;
_pd_proc_ls_prof_R_factor        0.0347
_pd_proc_ls_prof_wR_expected     0.0231
_pd_proc_ls_prof_wR_factor       0.0439
_pd_proc_number_of_points        2932
_pd_spec_mounting                'Glass capillary'
_pd_spec_mount_mode              transmission
_pd_spec_shape                   cylinder
_pd_spec_size_axial              12
_pd_spec_size_equat              1
_pd_spec_size_thick              1
_refine_ls_goodness_of_fit_all   2.05
_refine_ls_hydrogen_treatment    refU
_refine_ls_matrix_type           full
_refine_ls_number_parameters     64
_refine_ls_number_restraints     29
_refine_ls_R_Fsqd_factor         0.14161
_refine_ls_shift/su_max          0.03
_refine_ls_shift/su_mean         0.01
_refine_ls_weighting_scheme      sigma
_reflns_d_resolution_high        0.839
_reflns_d_resolution_low         9.607
_reflns_limit_h_max              7
_reflns_limit_h_min              0
_reflns_limit_k_max              7
_reflns_limit_k_min              -7
_reflns_limit_l_max              11
_reflns_limit_l_min              -11
_reflns_number_total             2806
_cod_data_source_file            ov3116sup4.cif
_cod_data_source_block           KADU1688_publ
_cod_original_cell_volume        398.519(23)
_cod_database_code               2311995
_publcif_datablock.id            {ad0b0c3f-1930-4201-8fb7-98c66b649f4f}
_gsas_exptl_extinct_corr_t_min   1.00000
_gsas_exptl_extinct_corr_t_max   1.00000
_publcif_info_exptl_table_max_cols 4
_publcif_info_exptl_table_use_headnotes n
loop_
_symmetry_equiv_pos_site_id
_symmetry_equiv_pos_as_xyz
1 +x,+y,+z
-1 -x,-y,-z
loop_
_atom_site_type_symbol
_atom_site_label
_atom_site_fract_x
_atom_site_fract_y
_atom_site_fract_z
_atom_site_occupancy
_atom_site_thermal_displace_type
_atom_site_U_iso_or_equiv
_atom_site_symmetry_multiplicity
C C1 1.1348(16) 0.5574(19) 0.3245(9) 1.0 Uiso 0.0085(14) 2
C C2 1.0167(13) 0.7280(15) 0.3641(7) 1.0 Uiso 0.01 2
C C3 0.7937(11) 0.7368(11) 0.2707(6) 1.0 Uiso 0.01 2
C C4 0.6920(14) 0.8960(15) 0.3441(7) 1.0 Uiso 0.01 2
C C5 0.4908(15) 0.9577(14) 0.2535(10) 1.0 Uiso 0.0085(14) 2
C C6 0.8101(17) 0.8178(13) 0.1281(7) 1.0 Uiso 0.0085(14) 2
H H7 1.11688 0.88881 0.36563 1.0 Uiso 0.013 2
H H8 0.99508 0.70505 0.47325 1.0 Uiso 0.013 2
H H9 0.81154 1.04581 0.38031 1.0 Uiso 0.013 2
H H10 0.65055 0.82329 0.43899 1.0 Uiso 0.013 2
O O11 1.3067(13) 0.5282(16) 0.4127(8) 1.0 Uiso 0.0085(14) 2
O O12 1.0604(16) 0.4331(14) 0.2156(9) 1.0 Uiso 0.0085(14) 2
O O13 0.4239(15) 1.1277(14) 0.2888(8) 1.0 Uiso 0.0085(14) 2
O O14 0.3701(13) 0.8280(11) 0.1576(9) 1.0 Uiso 0.0085(14) 2
O O15 0.9188(14) 0.9988(13) 0.1259(8) 1.0 Uiso 0.0085(14) 2
O O16 0.7446(14) 0.6887(14) 0.0205(8) 1.0 Uiso 0.0085(14) 2
O O17 0.6695(15) 0.5325(13) 0.2471(8) 1.0 Uiso 0.0085(14) 2
H H18 0.60951 0.45587 0.29331 1.0 Uiso 0.0110(19) 2
Na Na19 0.2516(10) 0.6844(12) -0.0629(8) 1.0 Uiso 0.0161(27) 2
Li Li20 1.139(6) 1.179(6) 0.1320(33) 1.0 Uiso 0.04 2
H H21 1.30005 0.34713 0.34999 1.0 Uiso 0.05 2
loop_
_atom_type_symbol
_atom_type_number_in_cell
_atom_type_scat_dispersion_real
_atom_type_scat_dispersion_imag
_atom_type_scat_Cromer_Mann_a1
_atom_type_scat_Cromer_Mann_a2
_atom_type_scat_Cromer_Mann_a3
_atom_type_scat_Cromer_Mann_a4
_atom_type_scat_Cromer_Mann_b1
_atom_type_scat_Cromer_Mann_b2
_atom_type_scat_Cromer_Mann_b3
_atom_type_scat_Cromer_Mann_b4
_atom_type_scat_Cromer_Mann_c
_atom_type_scat_source
C 12.0 0.000 0.000 2.31000 20.8439 1.02000 10.2075 1.58860 0.56870 0.86500
51.6512 0.21560 International_Tables_Vol_C
H 12.0 0.000 0.000 0.49300 10.5109 0.32291 26.1257 0.14019 3.14236 0.04081
57.7997 0.00304 International_Tables_Vol_C
O 14.0 0.000 0.000 3.04850 13.2771 2.28680 5.70110 1.54630 0.32390 0.86700
32.9089 0.25080 International_Tables_Vol_C
Na 2.0 0.000 0.000 4.76260 3.28500 3.17360 8.84220 1.26740 0.31360 1.11280
129.424 0.67600 International_Tables_Vol_C
Li 2.0 0.000 0.000 1.12820 3.95460 0.75080 1.05240 0.61750 85.3905 0.46530
168.261 0.03770 International_Tables_Vol_C
Si 0.0 0.000 0.000 6.29150 2.43860 3.03530 32.3337 1.98910 0.67850 1.54100
81.6937 1.14070 International_Tables_Vol_C
loop_
_diffrn_radiation_wavelength
_diffrn_radiation_wavelength_wt
_diffrn_radiation_type
_diffrn_radiation_wavelength_id
0.709237 1.000 K\a~1~ 1
0.713647 0.500 K\a~2~ 2
loop_
_geom_angle_atom_site_label_1
_geom_angle_atom_site_label_2
_geom_angle_atom_site_label_3
_geom_angle
_geom_angle_site_symmetry_1
_geom_angle_site_symmetry_3
_geom_angle_publ_flag
C2 C1 O11 117.0(5) 1_555 1_555 n
C2 C1 O12 122.4(5) 1_555 1_555 n
O11 C1 O12 120.3(5) 1_555 1_555 n
C1 C2 C3 116.7(5) 1_555 1_555 n
C2 C3 C4 107.1(4) 1_555 1_555 n
C2 C3 C6 109.9(5) 1_555 1_555 n
C2 C3 O17 111.3(5) 1_555 1_555 n
C4 C3 C6 109.0(4) 1_555 1_555 n
C4 C3 O17 111.4(4) 1_555 1_555 n
C6 C3 O17 108.2(4) 1_555 1_555 n
C3 C4 C5 113.9(4) 1_555 1_555 n
C4 C5 O13 118.9(5) 1_555 1_555 n
C4 C5 O14 120.7(5) 1_555 1_555 n
O13 C5 O14 119.4(6) 1_555 1_555 n
C3 C6 O15 118.4(6) 1_555 1_555 n
C3 C6 O16 118.6(4) 1_555 1_555 n
O15 C6 O16 122.1(5) 1_555 1_555 n
C1 O11 H21 89.9(6) 1_555 1_555 n
C1 O12 Na19 139.7(7) 1_555 -1_665 n
C1 O12 Li20 136.8(10) 1_555 -1_766 n
Na19 O12 Li20 81.0(11) -1_665 -1_766 n
C5 O13 Li20 109.7(10) 1_555 -1_676 n
C5 O14 Na19 154.0(10) 1_555 1_555 n
C6 O15 Na19 121.5(8) 1_555 -1_675 n
C6 O15 Li20 157.7(15) 1_555 -1_776 n
Na19 O15 Li20 80.6(12) -1_675 -1_776 n
C6 O16 Na19 115.7(6) 1_555 -1_665 n
C6 O16 Li20 107.1(11) 1_555 1_554 n
Na19 O16 Li20 121.8(11) -1_665 1_554 n
C3 O17 H18 135.0(9) 1_555 1_555 n
C3 O17 Na19 112.1(5) 1_555 -1_665 n
H18 O17 Na19 109.3(7) 1_555 -1_665 n
O12 Na19 O14 138.3(4) -1_665 1_555 n
O12 Na19 O15 74.09(35) -1_665 -1_675 n
O12 Na19 O16 83.9(4) -1_665 -1_665 n
O12 Na19 O17 73.4(4) -1_665 -1_665 n
O14 Na19 O15 88.6(4) 1_555 -1_675 n
O14 Na19 O16 99.8(4) 1_555 -1_665 n
O14 Na19 O17 145.7(4) 1_555 -1_665 n
O15 Na19 O16 154.6(4) -1_675 -1_665 n
O15 Na19 O17 118.7(4) -1_675 -1_665 n
O16 Na19 O17 64.96(30) -1_665 -1_665 n
O12 Li20 O13 101.6(14) -1_766 -1_676 n
O12 Li20 O15 100.1(17) -1_766 -1_776 n
O12 Li20 O16 100.0(19) -1_766 1_556 n
O13 Li20 O15 114.9(19) -1_676 -1_776 n
O13 Li20 O16 103.4(16) -1_676 1_556 n
O15 Li20 O16 131.5(19) -1_776 1_556 n
loop_
_geom_bond_atom_site_label_1
_geom_bond_atom_site_label_2
_geom_bond_distance
_geom_bond_site_symmetry_2
_geom_bond_publ_flag
C1 C2 1.5100(20) 1_555 n
C1 O11 1.286(5) 1_555 n
C1 O12 1.273(5) 1_555 n
C2 C1 1.5100(20) 1_555 n
C2 C3 1.5387(20) 1_555 n
C3 C2 1.5387(20) 1_555 n
C3 C4 1.5415(20) 1_555 n
C3 C6 1.5467(20) 1_555 n
C3 O17 1.421(5) 1_555 n
C4 C3 1.5415(20) 1_555 n
C4 C5 1.5103(20) 1_555 n
C5 C4 1.5103(20) 1_555 n
C5 O13 1.289(5) 1_555 n
C5 O14 1.274(5) 1_555 n
C6 C3 1.5467(20) 1_555 n
C6 O15 1.277(5) 1_555 n
C6 O16 1.276(5) 1_555 n
O11 C1 1.286(5) 1_555 n
O11 H21 1.282(9) 1_555 n
O12 C1 1.273(5) 1_555 n
O12 Na19 2.249(9) -1_665 n
O12 Li20 1.980(32) -1_766 n
O13 C5 1.289(5) 1_555 n
O13 Li20 2.186(33) -1_676 n
O14 C5 1.274(5) 1_555 n
O14 Na19 2.256(8) 1_555 n
O14 Li20 2.84(4) -1_676 n
O15 C6 1.277(5) 1_555 n
O15 Na19 2.454(10) -1_675 n
O15 Li20 2.686(29) 1_554 n
O15 Li20 1.72(4) -1_776 n
O16 C6 1.276(5) 1_555 n
O16 Na19 3.139(11) 1_555 n
O16 Na19 2.424(9) -1_665 n
O16 Li20 2.02(4) 1_554 n
O17 C3 1.421(5) 1_555 n
O17 H18 0.812(7) 1_555 n
O17 Na19 2.455(9) -1_665 n
H18 O17 0.812(7) 1_555 n
Na19 O12 2.249(9) -1_665 n
Na19 O14 2.256(8) 1_555 n
Na19 O15 2.454(10) -1_675 n
Na19 O16 3.139(11) 1_555 n
Na19 O16 2.424(9) -1_665 n
Na19 O17 2.455(9) -1_665 n
Li20 O12 1.980(32) -1_766 n
Li20 O13 2.186(33) -1_676 n
Li20 O14 2.84(4) -1_676 n
Li20 O15 2.686(29) 1_556 n
Li20 O15 1.72(4) -1_776 n
Li20 O16 2.02(4) 1_556 n
H21 O11 1.282(9) 1_555 n
loop_
_pd_meas_counts_total
_pd_proc_ls_weight
_pd_proc_intensity_bkg_calc
_pd_calc_intensity_total
1074.0 0.0 771.55902 .
1175.0 0.0 771.55902 .
1182.0 0.0 771.55902 .
1142.0 0.0 771.55902 .
1236.0 0.0 771.55902 .
1285.0 0.0 771.55902 .
1303.0 0.0 771.55902 .
1288.0 0.0 771.55902 .
1312.0 0.0 771.55902 .
1365.0 0.0 771.55902 .
1333.0 0.0 771.55902 .
1490.0 0.0 771.55902 .
1447.0 0.0 771.55902 .
1513.0 0.0 771.55902 .
1484.0 0.0 771.55902 .
1481.0 0.0 771.55902 .
1517.0 0.0 771.55902 .
1564.0 0.0 771.55902 .
1531.0 0.0 771.55902 .
1531.0 0.0 771.55902 .
1500.0 0.0 771.55902 .
1538.0 0.0 771.55902 .
1478.0 0.0 771.55902 .
1537.0 0.0 771.55902 .
1529.0 0.0 771.55902 .
1515.0 0.0 771.55902 .
1533.0 0.0 771.55902 .
1591.0 0.0 771.55902 .
1521.0 0.0 771.55902 .
1588.0 0.0 771.55902 .
1543.0 0.0 771.55902 .
1476.0 0.0 771.55902 .
1547.0 0.0 771.55902 .
1495.0 0.0 771.55902 .
1565.0 0.0 771.55902 .
1572.0 0.0 771.55902 .
1510.0 0.0 771.55902 .
1513.0 0.0 771.55902 .
1581.0 0.0 771.55902 .
1593.0 0.0 771.55902 .
1569.0 0.0 771.55902 .
1510.0 0.0 771.55902 .
1486.0 0.0 771.55902 .
1554.0 0.0 771.55902 .
1515.0 0.0 771.55902 .
1567.0 0.0 771.55902 .
1498.0 0.0 771.55902 .
1561.0 0.0 771.55902 .
1478.0 0.0 771.55902 .
1485.0 0.0 771.55902 .
1569.0 0.0 771.55902 .
1530.0 0.0 771.55902 .
1550.0 0.0 771.55902 .
1462.0 0.0 771.55902 .
1512.0 0.0 771.55902 .
1514.0 0.0 771.55902 .
1548.0 0.0 771.55902 .
1532.0 0.0 771.55902 .
1527.0 0.0 771.55902 .
1476.0 0.0 771.55902 .
1506.0 0.0 771.55902 .
1548.0 0.0 771.55902 .
1586.0 0.0 771.55902 .
1551.0 0.0 771.55902 .
1562.0 0.0 771.55902 .
1523.0 0.0 771.55902 .
1509.0 0.0 771.55902 .
1609.0 0.0 771.55902 .
1643.0 0.0 771.55902 .
1569.0 0.0 771.55902 .
1556.0 0.0 771.55902 .
1598.0 0.0 771.55902 .
1550.0 0.0 771.55902 .
1612.0 0.0 771.55902 .
1598.0 0.0 771.55902 .
1555.0 0.0 771.55902 .
1540.0 0.0 771.55902 .
1571.0 0.0 771.55902 .
1611.0 0.0 771.55902 .
1669.0 0.0 771.55902 .
1580.0 0.0 771.55902 .
1593.0 0.0 771.55902 .
1502.0 0.0 771.55902 .
1561.0 0.0 771.55902 .
1614.0 0.0 771.55902 .
1663.0 0.0 771.55902 .
1588.0 0.0 771.55902 .
1596.0 0.0 771.55902 .
1583.0 0.0 771.55902 .
1623.0 0.0 771.55902 .
1639.0 0.0 771.55902 .
1632.0 0.0 771.55902 .
1534.0 0.0 771.55902 .
1650.0 0.0 771.55902 .
1604.0 0.0 771.55902 .
1626.0 0.0 771.55902 .
1629.0 0.0 771.55902 .
1603.0 0.0 771.55902 .
1630.0 0.0 771.55902 .
1638.0 0.0 771.55902 .
1660.0 0.0 771.55902 .
1703.0 0.0 771.55902 .
1658.0 0.0 771.55902 .
1508.0 0.0 771.55902 .
1644.0 0.0 771.55902 .
1616.0 0.0 771.55902 .
1647.0 0.0 771.55902 .
1625.0 0.0 771.55902 .
1634.0 0.0 771.55902 .
1593.0 0.0 771.55902 .
1720.0 0.0 771.55902 .
1598.0 0.0 771.55902 .
1715.0 0.0 771.55902 .
1635.0 0.0 771.55902 .
1715.0 0.0 771.55902 .
1622.0 0.0 771.55902 .
1559.0 0.0 771.55902 .
1647.0 0.0 771.55902 .
1622.0 0.0 771.55902 .
1637.0 0.0 771.55902 .
1645.0 0.000608 771.55902 1686.47607
1626.0 0.000615 771.55902 1684.49146
1697.0 0.000589 771.55902 1682.44312
1621.0 0.000617 771.55902 1680.34473
1622.0 0.000617 771.55902 1678.18945
1667.0 0.000600 771.55902 1675.96594
1639.0 0.000610 771.55902 1673.69324
1583.0 0.000632 771.55902 1671.35571
1599.0 0.000625 771.55902 1668.96313
1575.0 0.000635 771.55902 1666.51489
1680.0 0.000595 771.55902 1664.01196
1618.0 0.000618 771.55902 1661.45667
1664.0 0.000601 771.55902 1658.84778
1663.0 0.000601 771.55902 1656.17273
1600.0 0.000625 771.55902 1653.45654
1571.0 0.000637 771.55902 1650.68506
1628.0 0.000614 771.55902 1647.85620
1572.0 0.000636 771.55902 1644.98560
1592.0 0.000628 771.55902 1642.06567
1607.0 0.000622 771.55902 1639.08813
1594.0 0.000627 771.55902 1636.06946
1632.0 0.000613 771.55902 1632.99023
1625.0 0.000615 771.55902 1629.87683
1627.0 0.000615 771.55902 1626.71277
1602.0 0.000624 771.55902 1623.50464
1546.0 0.000647 771.55902 1620.25146
1561.0 0.000641 771.55902 1616.95825
1572.0 0.000636 771.55902 1613.61792
1532.0 0.000653 771.55902 1610.24060
1680.0 0.000595 771.55902 1606.81433
1616.0 0.000619 771.55902 1603.35449
1609.0 0.000622 771.55902 1599.85999
1529.0 0.000654 771.55902 1596.31372
1606.0 0.000623 771.55902 1592.74231
1628.0 0.000614 771.55902 1589.14160
1638.0 0.000611 771.55902 1585.48682
1646.0 0.000608 771.55902 1581.81116
1571.0 0.000637 771.55902 1578.10376
1572.0 0.000636 771.55902 1574.36182
1672.0 0.000598 771.55902 1570.58789
1654.0 0.000605 771.55902 1582.72229
1590.0 0.000629 771.55902 1580.39307
1607.0 0.000622 771.55902 1586.46228
1694.0 0.000590 771.55902 1585.48181
1683.0 0.000594 771.55902 1585.12415
1697.0 0.000589 771.55902 1585.68518
1628.0 0.000614 771.55902 1587.78552
1848.0 0.000541 771.55902 1593.48291
1690.0 0.000592 771.55902 1609.78394
1754.0 0.000570 771.55902 1642.28760
1715.0 0.000583 771.55902 1691.76538
1838.0 0.000544 771.55902 1753.37781
1910.0 0.000524 771.55902 1824.97607
1955.0 0.000512 771.55902 1905.63721
2056.0 0.000486 771.55902 1992.94482
2062.0 0.000485 771.55902 2085.55444
2109.0 0.000474 771.55902 2186.67261
2162.0 0.000463 771.55902 2300.48950
2368.0 0.000422 771.55902 2428.05859
2358.0 0.000424 771.55902 2568.37183
2538.0 0.000394 771.55902 2722.55371
2724.0 0.000367 771.55902 2895.10596
2963.0 0.0003375 771.55902 3091.70508
3053.0 0.0003275 771.55902 3318.13013
3520.0 0.0002841 771.55902 3582.22974
3863.0 0.0002589 771.55902 3897.00708
4251.0 0.0002352 771.55902 4279.77246
4659.0 0.0002146 771.55902 4750.96973
5286.0 0.0001892 771.55902 5355.78662
6492.0 0.0001540 771.55902 6170.56104
7834.0 0.0001276 771.55902 7352.63184
10121.0 0.0000988 771.55902 9301.63574
11758.0 0.0000850 771.55902 11922.60547
9786.0 0.0001022 771.55902 10571.85059
7045.0 0.0001419 771.55902 7182.31445
4306.0 0.0002322 771.55902 3960.25684
2409.0 0.000415 771.55902 2421.87720
1830.0 0.000546 771.55902 1976.18054
1628.0 0.000614 771.55902 1786.94910
1565.0 0.000639 771.55902 1679.60181
1512.0 0.000661 771.55902 1611.10583
1425.0 0.000702 771.55902 1563.87231
1463.0 0.000684 771.55902 1529.35046
1383.0 0.000723 771.55902 1502.95496
1385.0 0.000722 771.55902 1481.99194
1335.0 0.000749 771.55902 1464.84973
1402.0 0.000713 771.55902 1450.46643
1408.0 0.000710 771.55902 1438.12878
1398.0 0.000715 771.55902 1393.92053
1361.0 0.000735 771.55902 1370.15942
1454.0 0.000688 771.55902 1366.47607
1382.0 0.000724 771.55902 1362.83325
1432.0 0.000698 771.55902 1359.22571
1382.0 0.000724 771.55902 1355.65454
1320.0 0.000758 771.55902 1352.12061
1414.0 0.000707 771.55902 1348.63330
1393.0 0.000718 771.55902 1345.17969
1411.0 0.000709 771.55902 1341.77075
1340.0 0.000746 771.55902 1338.40869
1324.0 0.000755 771.55902 1335.09473
1367.0 0.000732 771.55902 1331.81836
1332.0 0.000751 771.55902 1328.59241
1337.0 0.000748 771.55902 1325.41260
1327.0 0.000754 771.55902 1322.28809
1354.0 0.000739 771.55902 1319.20508
1325.0 0.000755 771.55902 1316.18457
1427.0 0.000701 771.55902 1313.20581
1325.0 0.000755 771.55902 1310.29053
1417.0 0.000706 771.55902 1307.42407
1315.0 0.000760 771.55902 1304.62073
1339.0 0.000747 771.55902 1301.86890
1324.0 0.000755 771.55902 1299.17749
1272.0 0.000786 771.55902 1296.54004
1273.0 0.000786 771.55902 1293.96375
1309.0 0.000764 771.55902 1291.45056
1312.0 0.000762 771.55902 1289.00098
1322.0 0.000756 771.55902 1286.61316
1244.0 0.000804 771.55902 1284.28931
1300.0 0.000769 771.55902 1282.02991
1335.0 0.000749 771.55902 1279.83154
1253.0 0.000798 771.55902 1277.70557
1312.0 0.000762 771.55902 1275.64355
1303.0 0.000767 771.55902 1273.65405
1233.0 0.000811 771.55902 1271.73389
1253.0 0.000798 771.55902 1269.88037
1284.0 0.000779 771.55902 1268.10010
1285.0 0.000778 771.55902 1266.38879
1311.0 0.000763 771.55902 1264.75049
1283.0 0.000779 771.55902 1263.18628
1249.0 0.000801 771.55902 1261.69287
1297.0 0.000771 771.55902 1260.27966
1243.0 0.000805 771.55902 1258.93445
1313.0 0.000762 771.55902 1257.67285
1256.0 0.000796 771.55902 1256.48633
1241.0 0.000806 771.55902 1255.36426
1233.0 0.000811 771.55902 1254.33545
1344.0 0.000744 771.55902 1253.37842
1230.0 0.000813 771.55902 1252.50342
1263.0 0.000792 771.55902 1251.70325
1285.0 0.000778 771.55902 1250.98975
1218.0 0.000821 771.55902 1250.34875
1251.0 0.000799 771.55902 1249.79224
1270.0 0.000787 771.55902 1249.31604
1268.0 0.000789 771.55902 1248.92651
1241.0 0.000806 771.55902 1248.61646
1252.0 0.000799 771.55902 1248.38635
1295.0 0.000772 771.55902 1248.24060
1323.0 0.000756 771.55902 1248.17859
1230.0 0.000813 771.55902 1248.19971
1216.0 0.000822 771.55902 1248.30518
1248.0 0.000801 771.55902 1248.49585
1296.0 0.000772 771.55902 1248.77405
1238.0 0.000808 771.55902 1249.12817
1335.0 0.000749 771.55902 1249.57397
1246.0 0.000803 771.55902 1250.10217
1291.0 0.000775 771.55902 1250.72168
1202.0 0.000832 771.55902 1251.42493
1225.0 0.000816 771.55902 1252.21423
1219.0 0.000820 771.55902 1253.08716
1287.0 0.000777 771.55902 1254.04321
1257.0 0.000796 771.55902 1255.08765
1308.0 0.000765 771.55902 1256.22241
1248.0 0.000801 771.55902 1257.43933
1242.0 0.000805 771.55902 1258.74146
1238.0 0.000808 771.55902 1260.13757
1208.0 0.000828 771.55902 1261.60828
1286.0 0.000778 771.55902 1263.17249
1212.0 0.000825 771.55902 1264.81958
1313.0 0.000762 771.55902 1266.55579
1285.0 0.000778 771.55902 1268.37842
1259.0 0.000794 771.55902 1270.28564
1321.0 0.000757 771.55902 1272.27515
1296.0 0.000772 771.55902 1274.35144
1254.0 0.000797 771.55902 1276.52026
1271.0 0.000787 771.55902 1278.76196
1251.0 0.000799 771.55902 1281.09778
1242.0 0.000805 771.55902 1283.50854
1268.0 0.000789 771.55902 1286.01147
1253.0 0.000798 771.55902 1288.59705
1210.0 0.000826 771.55902 1291.26538
1206.0 0.000829 771.55902 1294.01550
1303.0 0.000767 771.55902 1297.27332
1223.0 0.000818 771.55902 1300.24011
1304.0 0.000767 771.55902 1308.92664
1215.0 0.000823 771.55902 1312.98767
1333.0 0.000750 771.55902 1319.76196
1255.0 0.000797 771.55902 1324.50085
1256.0 0.000796 771.55902 1329.73071
1327.0 0.000754 771.55902 1335.72449
1322.0 0.000756 771.55902 1343.14417
1410.0 0.000709 771.55902 1353.29492
1345.0 0.000743 771.55902 1367.64355
1362.0 0.000734 771.55902 1386.21130
1373.0 0.000728 771.55902 1410.90637
1389.0 0.000720 771.55902 1440.11890
1442.0 0.000693 771.55902 1474.65881
1443.0 0.000693 771.55902 1514.90710
1509.0 0.000663 771.55902 1560.76111
1597.0 0.000626 771.55902 1614.10767
1645.0 0.000608 771.55902 1677.91406
1776.0 0.000563 771.55902 1753.45178
1858.0 0.000538 771.55902 1848.38855
1988.0 0.000503 771.55902 1971.09900
2237.0 0.000447 771.55902 2138.90649
2572.0 0.000389 771.55902 2364.47998
2937.0 0.0003405 771.55902 2587.49805
2946.0 0.0003394 771.55902 2631.89941
2598.0 0.000385 771.55902 2409.80859
2333.0 0.000429 771.55902 2153.89502
1975.0 0.000506 771.55902 1906.24414
1631.0 0.000613 771.55902 1689.87244
1541.0 0.000649 771.55902 1574.05310
1333.0 0.000750 771.55902 1528.20886
1393.0 0.000718 771.55902 1512.95459
1477.0 0.000677 771.55902 1509.84302
1440.0 0.000694 771.55902 1513.06726
1437.0 0.000696 771.55902 1520.78101
1410.0 0.000709 771.55902 1532.43152
1430.0 0.000699 771.55902 1548.21838
1509.0 0.000663 771.55902 1569.20508
1505.0 0.000664 771.55902 1598.00354
1645.0 0.000608 771.55902 1640.60156
1614.0 0.000620 771.55902 1699.26941
1673.0 0.000598 771.55902 1730.62585
1668.0 0.000600 771.55902 1677.93005
1657.0 0.000604 771.55902 1637.08545
1532.0 0.000653 771.55902 1602.64246
1487.0 0.000672 771.55902 1553.94531
1541.0 0.000649 771.55902 1535.38330
1412.0 0.000708 771.55902 1532.78442
1458.0 0.000686 771.55902 1532.93762
1438.0 0.000695 771.55902 1536.90564
1515.0 0.000660 771.55902 1541.65942
1447.0 0.000691 771.55902 1546.87903
1477.0 0.000677 771.55902 1552.40186
1544.0 0.000648 771.55902 1558.14136
1550.0 0.000645 771.55902 1564.03625
1519.0 0.000658 771.55902 1570.05505
1629.0 0.000614 771.55902 1575.13135
1565.0 0.000639 771.55902 1581.44360
1499.0 0.000667 771.55902 1587.80847
1533.0 0.000652 771.55902 1593.73071
1582.0 0.000632 771.55902 1600.23364
1596.0 0.000627 771.55902 1606.76721
1571.0 0.000637 771.55902 1619.88501
1576.0 0.000635 771.55902 1627.18494
1588.0 0.000630 771.55902 1634.63623
1583.0 0.000632 771.55902 1645.59595
1651.0 0.000606 771.55902 1653.83142
1592.0 0.000628 771.55902 1662.44714
1678.0 0.000596 771.55902 1671.56384
1743.0 0.000574 771.55902 1681.41650
1725.0 0.000580 771.55902 1692.50574
1648.0 0.000607 771.55902 1705.95325
1703.0 0.000587 771.55902 1723.62891
1745.0 0.000573 771.55902 1747.40222
1898.0 0.000527 771.55902 1777.45874
1828.0 0.000547 771.55902 1817.05054
1917.0 0.000522 771.55902 1863.46997
1840.0 0.000543 771.55902 1919.95386
1943.0 0.000515 771.55902 1986.19507
1943.0 0.000515 771.55902 2066.69434
2065.0 0.000484 771.55902 2161.45801
2332.0 0.000429 771.55902 2284.53271
2388.0 0.000419 771.55902 2441.87158
2726.0 0.000367 771.55902 2655.11426
2900.0 0.0003448 771.55902 2905.73950
3082.0 0.0003245 771.55902 3088.19043
2946.0 0.0003394 771.55902 3018.11328
2754.0 0.000363 771.55902 2773.26733
2569.0 0.000389 771.55902 2556.81006
2370.0 0.000422 771.55902 2325.96729
2240.0 0.000446 771.55902 2148.07910
2065.0 0.000484 771.55902 2023.39331
2069.0 0.000483 771.55902 1967.98071
2096.0 0.000477 771.55902 1965.86951
2084.0 0.000480 771.55902 1963.10706
2106.0 0.000475 771.55902 1968.38000
2062.0 0.000485 771.55902 1979.50232
2001.0 0.000500 771.55902 1996.18323
2184.0 0.000458 771.55902 2019.58521
2311.0 0.000433 771.55902 2053.62036
2365.0 0.000423 771.55902 2107.50171
2411.0 0.000415 771.55902 2195.77246
2558.0 0.000391 771.55902 2327.40625
2646.0 0.000378 771.55902 2508.78345
2797.0 0.000358 771.55902 2753.20459
3097.0 0.0003229 771.55902 3049.47729
3292.0 0.0003038 771.55902 3424.44775
3691.0 0.0002709 771.55902 3881.40723
4177.0 0.0002394 771.55902 4439.55225
5017.0 0.0001993 771.55902 5177.18994
5785.0 0.0001729 771.55902 6154.87695
7554.0 0.0001324 771.55902 7500.84619
9498.0 0.0001053 771.55902 9090.13965
10426.0 0.0000959 771.55902 10062.10645
9351.0 0.0001069 771.55902 9225.66797
7335.0 0.0001363 771.55902 7632.77002
6321.0 0.0001582 771.55902 6466.76172
5326.0 0.0001878 771.55902 5120.39111
3876.0 0.0002580 771.55902 3776.24023
2849.0 0.000351 771.55902 2966.92969
2500.0 0.000400 771.55902 2619.22876
2430.0 0.000412 771.55902 2450.40698
2560.0 0.000391 771.55902 2360.55859
2350.0 0.000426 771.55902 2305.47119
2363.0 0.000423 771.55902 2285.70947
2277.0 0.000439 771.55902 2265.12964
2443.0 0.000409 771.55902 2262.31128
2445.0 0.000409 771.55902 2260.03540
2403.0 0.000416 771.55902 2205.32666
2407.0 0.000415 771.55902 2228.47095
2545.0 0.000393 771.55902 2256.96899
2639.0 0.000379 771.55902 2272.39795
2691.0 0.000372 771.55902 2351.48804
2715.0 0.000368 771.55902 2476.07251
2925.0 0.0003419 771.55902 2650.16211
3055.0 0.0003273 771.55902 2892.62573
3284.0 0.0003045 771.55902 3192.31030
3677.0 0.0002720 771.55902 3582.17236
4056.0 0.0002465 771.55902 4070.82397
4473.0 0.0002236 771.55902 4690.77002
5341.0 0.0001872 771.55902 5525.06494
6563.0 0.0001524 771.55902 6665.71533
8368.0 0.0001195 771.55902 8215.22559
10326.0 0.0000968 771.55902 9824.62891
10443.0 0.0000958 771.55902 10229.88379
8774.0 0.0001140 771.55902 8905.95410
7584.0 0.0001319 771.55902 7787.94092
7235.0 0.0001382 771.55902 7176.17334
6555.0 0.0001526 771.55902 6226.46045
5510.0 0.0001815 771.55902 5347.01123
4702.0 0.0002127 771.55902 4703.98926
4111.0 0.0002432 771.55902 4092.89307
3726.0 0.0002684 771.55902 3671.27612
3356.0 0.0002980 771.55902 3361.52466
3148.0 0.0003177 771.55902 3004.59766
2783.0 0.000359 771.55902 2705.14063
2611.0 0.000383 771.55902 2530.07642
2483.0 0.000403 771.55902 2441.97852
2406.0 0.000416 771.55902 2395.67456
2452.0 0.000408 771.55902 2318.07593
2424.0 0.000413 771.55902 2305.61230
2420.0 0.000413 771.55902 2298.88672
2470.0 0.000405 771.55902 2271.04761
2370.0 0.000422 771.55902 2274.75024
2390.0 0.000418 771.55902 2280.91138
2357.0 0.000424 771.55902 2289.95728
2319.0 0.000431 771.55902 2302.56860
2407.0 0.000415 771.55902 2324.32397
2440.0 0.000410 771.55902 2348.26294
2447.0 0.000409 771.55902 2370.06787
2405.0 0.000416 771.55902 2371.53125
2485.0 0.000402 771.55902 2351.34644
2438.0 0.000410 771.55902 2332.75024
2441.0 0.000410 771.55902 2326.25049
2351.0 0.000425 771.55902 2312.77515
2354.0 0.000425 771.55902 2298.49536
2373.0 0.000421 771.55902 2295.97461
2478.0 0.000404 771.55902 2298.99365
2396.0 0.000417 771.55902 2305.44653
2380.0 0.000420 771.55902 2315.86450
2455.0 0.000407 771.55902 2332.44336
2538.0 0.000394 771.55902 2356.55591
2419.0 0.000413 771.55902 2389.89600
2476.0 0.000404 771.55902 2433.25562
2580.0 0.000388 771.55902 2489.16797
2575.0 0.000388 771.55902 2558.86206
2625.0 0.000381 771.55902 2652.94556
2848.0 0.000351 771.55902 2778.02222
2957.0 0.0003382 771.55902 2951.97656
3125.0 0.0003200 771.55902 3161.01465
3210.0 0.0003115 771.55902 3301.14868
3074.0 0.0003253 771.55902 3211.05347
3002.0 0.0003331 771.55902 3007.32520
2815.0 0.000355 771.55902 2888.75513
2677.0 0.000374 771.55902 2787.55688
2599.0 0.000385 771.55902 2624.13403
2560.0 0.000391 771.55902 2486.95288
2487.0 0.000402 771.55902 2414.91724
2509.0 0.000399 771.55902 2404.33545
2379.0 0.000420 771.55902 2392.74487
2443.0 0.000409 771.55902 2387.69922
2421.0 0.000413 771.55902 2395.38623
2376.0 0.000421 771.55902 2396.87402
2318.0 0.000431 771.55902 2400.33472
2457.0 0.000407 771.55902 2405.56592
2376.0 0.000421 771.55902 2412.71631
2538.0 0.000394 771.55902 2422.14941
2491.0 0.000401 771.55902 2434.65234
2462.0 0.000406 771.55902 2451.91626
2563.0 0.000390 771.55902 2477.44189
2549.0 0.000392 771.55902 2517.32593
2645.0 0.000378 771.55902 2579.85474
2663.0 0.000376 771.55902 2672.39990
2692.0 0.000371 771.55902 2792.85767
2901.0 0.0003447 771.55902 2966.14282
3048.0 0.0003281 771.55902 3197.80542
3314.0 0.0003018 771.55902 3487.06934
3644.0 0.0002744 771.55902 3888.44922
4280.0 0.0002336 771.55902 4400.97559
5000.0 0.0002000 771.55902 5008.85449
5419.0 0.0001845 771.55902 5541.31250
5767.0 0.0001734 771.55902 5703.38916
5323.0 0.0001879 771.55902 5331.63916
4555.0 0.0002195 771.55902 4815.66162
4281.0 0.0002336 771.55902 4405.51807
3972.0 0.0002518 771.55902 3981.15796
3454.0 0.0002895 771.55902 3480.81689
3113.0 0.0003212 771.55902 3063.33276
2659.0 0.000376 771.55902 2800.54810
2520.0 0.000397 771.55902 2660.99561
2605.0 0.000384 771.55902 2593.28271
2659.0 0.000376 771.55902 2562.35693
2580.0 0.000388 771.55902 2551.33496
2688.0 0.000372 771.55902 2555.91748
2819.0 0.000355 771.55902 2569.43799
2724.0 0.000367 771.55902 2571.68652
2647.0 0.000378 771.55902 2541.08545
2709.0 0.000369 771.55902 2505.63501
2575.0 0.000388 771.55902 2487.69946
2632.0 0.000380 771.55902 2472.49951
2503.0 0.000400 771.55902 2446.63330
2450.0 0.000408 771.55902 2423.67163
2316.0 0.000432 771.55902 2410.62524
2315.0 0.000432 771.55902 2404.23193
2336.0 0.000428 771.55902 2385.56104
2395.0 0.000418 771.55902 2385.34863
2419.0 0.000413 771.55902 2386.54272
2286.0 0.000437 771.55902 2380.96143
2322.0 0.000431 771.55902 2385.84375
2367.0 0.000422 771.55902 2393.04150
2365.0 0.000423 771.55902 2402.34888
2445.0 0.000409 771.55902 2414.67627
2441.0 0.000410 771.55902 2429.69849
2437.0 0.000410 771.55902 2444.17017
2391.0 0.000418 771.55902 2452.19653
2358.0 0.000424 771.55902 2447.84766
2382.0 0.000420 771.55902 2435.10693
2475.0 0.000404 771.55902 2422.76025
2323.0 0.000430 771.55902 2411.60229
2447.0 0.000409 771.55902 2399.11230
2335.0 0.000428 771.55902 2385.99878
2363.0 0.000423 771.55902 2375.43066
2353.0 0.000425 771.55902 2368.59644
2440.0 0.000410 771.55902 2364.42896
2390.0 0.000418 771.55902 2361.82861
2472.0 0.000405 771.55902 2360.01416
2372.0 0.000422 771.55902 2358.57544
2409.0 0.000415 771.55902 2357.33667
2435.0 0.000411 771.55902 2356.21997
2378.0 0.000421 771.55902 2355.18506
2438.0 0.000410 771.55902 2354.20459
2344.0 0.000427 771.55902 2357.57886
2405.0 0.000416 771.55902 2357.07935
2295.0 0.000436 771.55902 2356.66528
2417.0 0.000414 771.55902 2356.33765
2380.0 0.000420 771.55902 2356.11572
2344.0 0.000427 771.55902 2358.34692
2477.0 0.000404 771.55902 2359.90161
2434.0 0.000411 771.55902 2360.64258
2453.0 0.000408 771.55902 2361.70972
2466.0 0.000406 771.55902 2363.20508
2461.0 0.000406 771.55902 2365.90332
2408.0 0.000415 771.55902 2368.92773
2384.0 0.000419 771.55902 2373.30420
2394.0 0.000418 771.55902 2380.13428
2452.0 0.000408 771.55902 2391.62134
2431.0 0.000411 771.55902 2411.21436
2554.0 0.000392 771.55902 2442.33813
2537.0 0.000394 771.55902 2487.39478
2586.0 0.000387 771.55902 2551.74561
2774.0 0.000360 771.55902 2638.62354
2900.0 0.0003448 771.55902 2762.33179
2947.0 0.0003393 771.55902 2932.68286
3145.0 0.0003180 771.55902 3150.30811
3548.0 0.0002818 771.55902 3356.79077
3540.0 0.0002825 771.55902 3425.04883
3225.0 0.0003101 771.55902 3302.88989
3151.0 0.0003174 771.55902 3172.99072
3203.0 0.0003122 771.55902 3141.38916
3050.0 0.0003279 771.55902 3115.41040
3043.0 0.0003286 771.55902 2996.69019
2709.0 0.000369 771.55902 2893.82129
2671.0 0.000374 771.55902 2761.43799
2666.0 0.000375 771.55902 2686.14795
2651.0 0.000377 771.55902 2645.80176
2642.0 0.000379 771.55902 2609.06030
2590.0 0.000386 771.55902 2611.34521
2659.0 0.000376 771.55902 2593.84570
2694.0 0.000371 771.55902 2594.44824
2817.0 0.000355 771.55902 2611.03149
2851.0 0.000351 771.55902 2641.52441
2891.0 0.0003459 771.55902 2686.67603
2869.0 0.0003486 771.55902 2750.96680
3035.0 0.0003295 771.55902 2843.88452
3287.0 0.0003042 771.55902 2983.22339
3318.0 0.0003014 771.55902 3201.57764
3705.0 0.0002699 771.55902 3554.90186
4083.0 0.0002449 771.55902 4105.78125
4716.0 0.0002120 771.55902 4890.05859
5943.0 0.0001683 771.55902 5996.50635
7281.0 0.0001373 771.55902 7474.38135
9288.0 0.0001077 771.55902 9401.52930
12269.0 0.0000815 771.55902 11876.34961
15356.0 0.0000651 771.55902 14725.98242
17874.0 0.0000559 771.55902 17115.01367
17081.0 0.0000585 771.55902 17355.17969
15034.0 0.0000665 771.55902 15075.64746
12789.0 0.0000782 771.55902 12615.64160
11140.0 0.0000898 771.55902 11237.70215
9939.0 0.0001006 771.55902 10141.07422
8350.0 0.0001198 771.55902 8266.63086
6500.0 0.0001538 771.55902 6130.43945
4724.0 0.0002117 771.55902 4581.41846
3699.0 0.0002703 771.55902 3709.32178
3129.0 0.0003196 771.55902 3274.77466
3012.0 0.0003320 771.55902 3051.63550
2768.0 0.000361 771.55902 2921.24414
2713.0 0.000369 771.55902 2838.66699
2815.0 0.000355 771.55902 2789.59863
2683.0 0.000373 771.55902 2771.68848
2742.0 0.000365 771.55902 2788.85425
2792.0 0.000358 771.55902 2847.76294
2886.0 0.0003465 771.55902 2953.48438
2931.0 0.0003412 771.55902 3122.06616
3177.0 0.0003148 771.55902 3369.96191
3468.0 0.0002884 771.55902 3710.04712
3881.0 0.0002577 771.55902 4139.21826
4308.0 0.0002321 771.55902 4492.92773
4632.0 0.0002159 771.55902 4732.73047
4271.0 0.0002341 771.55902 4603.77344
4191.0 0.0002386 771.55902 4242.59180
3694.0 0.0002707 771.55902 3941.37622
3491.0 0.0002865 771.55902 3717.14355
3385.0 0.0002954 771.55902 3505.58423
3216.0 0.0003109 771.55902 3194.86597
2909.0 0.0003438 771.55902 2885.14404
2663.0 0.000376 771.55902 2662.34106
2483.0 0.000403 771.55902 2529.77612
2437.0 0.000410 771.55902 2458.17676
2346.0 0.000426 771.55902 2418.80322
2439.0 0.000410 771.55902 2394.56763
2460.0 0.000407 771.55902 2377.78906
2335.0 0.000428 771.55902 2365.32910
2392.0 0.000418 771.55902 2361.48999
2344.0 0.000427 771.55902 2354.49829
2332.0 0.000429 771.55902 2349.09937
2348.0 0.000426 771.55902 2344.94531
2413.0 0.000414 771.55902 2344.48901
2340.0 0.000427 771.55902 2342.46338
2390.0 0.000418 771.55902 2341.24536
2337.0 0.000428 771.55902 2340.79980
2463.0 0.000406 771.55902 2328.64746
2333.0 0.000429 771.55902 2330.85889
2412.0 0.000415 771.55902 2333.99243
2400.0 0.000417 771.55902 2341.02783
2384.0 0.000419 771.55902 2344.43164
2414.0 0.000414 771.55902 2355.58521
2401.0 0.000416 771.55902 2376.95801
2367.0 0.000422 771.55902 2406.49292
2522.0 0.000397 771.55902 2455.72095
2546.0 0.000393 771.55902 2524.59229
2559.0 0.000391 771.55902 2622.89258
2820.0 0.000355 771.55902 2764.80005
2877.0 0.0003476 771.55902 2951.49512
3270.0 0.0003058 771.55902 3179.66626
3437.0 0.0002910 771.55902 3380.51831
3551.0 0.0002816 771.55902 3440.73926
3536.0 0.0002828 771.55902 3306.43188
3131.0 0.0003194 771.55902 3133.94580
3123.0 0.0003202 771.55902 3049.41235
3181.0 0.0003144 771.55902 3030.85791
3118.0 0.0003207 771.55902 2991.98120
2929.0 0.0003414 771.55902 2912.04150
3006.0 0.0003327 771.55902 2872.10962
2873.0 0.0003481 771.55902 2919.86206
3064.0 0.0003264 771.55902 3051.70166
3291.0 0.0003039 771.55902 3232.51709
3395.0 0.0002946 771.55902 3385.30127
3446.0 0.0002902 771.55902 3417.67065
3311.0 0.0003020 771.55902 3317.03711
3187.0 0.0003138 771.55902 3209.84351
3174.0 0.0003151 771.55902 3179.16748
3163.0 0.0003162 771.55902 3201.03198
3360.0 0.0002976 771.55902 3207.73340
3346.0 0.0002989 771.55902 3177.78027
3257.0 0.0003070 771.55902 3172.40771
3142.0 0.0003183 771.55902 3245.88062
3321.0 0.0003011 771.55902 3391.85669
3510.0 0.0002849 771.55902 3563.81372
3571.0 0.0002800 771.55902 3644.66406
3662.0 0.0002731 771.55902 3563.12158
3435.0 0.0002911 771.55902 3380.96753
3363.0 0.0002974 771.55902 3222.66797
3210.0 0.0003115 771.55902 3140.35742
3094.0 0.0003232 771.55902 3050.23657
2914.0 0.0003432 771.55902 2916.43994
2804.0 0.000357 771.55902 2760.71509
2847.0 0.000351 771.55902 2631.61890
2610.0 0.000383 771.55902 2553.38843
2611.0 0.000383 771.55902 2501.81812
2439.0 0.000410 771.55902 2468.92139
2423.0 0.000413 771.55902 2456.06323
2351.0 0.000425 771.55902 2451.92822
2464.0 0.000406 771.55902 2474.50903
2477.0 0.000404 771.55902 2484.37427
2496.0 0.000401 771.55902 2501.18970
2509.0 0.000399 771.55902 2527.82617
2520.0 0.000397 771.55902 2578.72974
2629.0 0.000380 771.55902 2655.72290
2714.0 0.000368 771.55902 2760.37500
2741.0 0.000365 771.55902 2916.65186
2905.0 0.0003442 771.55902 3135.93750
3365.0 0.0002972 771.55902 3424.44263
3664.0 0.0002729 771.55902 3810.31421
4167.0 0.0002400 771.55902 4262.04297
4950.0 0.0002020 771.55902 4686.17139
5414.0 0.0001847 771.55902 4958.33594
5439.0 0.0001839 771.55902 4960.07080
4938.0 0.0002025 771.55902 4772.96094
4619.0 0.0002165 771.55902 4628.99170
4594.0 0.0002177 771.55902 4647.88672
4691.0 0.0002132 771.55902 4814.67236
5151.0 0.0001941 771.55902 5089.93311
5623.0 0.0001778 771.55902 5484.26807
6027.0 0.0001659 771.55902 6062.77539
6797.0 0.0001471 771.55902 6685.83594
7154.0 0.0001398 771.55902 6979.68701
6803.0 0.0001470 771.55902 6734.28174
6495.0 0.0001540 771.55902 6376.91553
6300.0 0.0001587 771.55902 6358.84668
6320.0 0.0001582 771.55902 6554.16797
6319.0 0.0001583 771.55902 6479.64111
5881.0 0.0001700 771.55902 5845.43945
5020.0 0.0001992 771.55902 4989.05762
4337.0 0.0002306 771.55902 4321.15332
3851.0 0.0002597 771.55902 3952.58301
3546.0 0.0002820 771.55902 3720.17651
3150.0 0.0003175 771.55902 3448.52734
3023.0 0.0003308 771.55902 3152.91162
2646.0 0.000378 771.55902 2883.27295
2598.0 0.000385 771.55902 2731.45728
2476.0 0.000404 771.55902 2672.98218
2466.0 0.000406 771.55902 2671.37598
2534.0 0.000395 771.55902 2703.77148
2525.0 0.000396 771.55902 2753.04102
2747.0 0.000364 771.55902 2837.73340
2723.0 0.000367 771.55902 2931.27100
3006.0 0.0003327 771.55902 3008.57446
3022.0 0.0003309 771.55902 3043.16943
3009.0 0.0003323 771.55902 3005.71118
2978.0 0.0003358 771.55902 2976.13330
2897.0 0.0003452 771.55902 2952.29370
2738.0 0.000365 771.55902 2960.36377
2819.0 0.000355 771.55902 2991.02393
2937.0 0.0003405 771.55902 3043.88696
3068.0 0.0003259 771.55902 3130.27490
3043.0 0.0003286 771.55902 3200.19556
3001.0 0.0003332 771.55902 3195.03564
2988.0 0.0003347 771.55902 3072.06592
2785.0 0.000359 771.55902 2928.04712
2740.0 0.000365 771.55902 2862.18579
2644.0 0.000378 771.55902 2865.81763
2728.0 0.000367 771.55902 2882.39282
2654.0 0.000377 771.55902 2864.81201
2645.0 0.000378 771.55902 2837.97412
2721.0 0.000368 771.55902 2863.74854
2676.0 0.000374 771.55902 2965.24219
3100.0 0.0003226 771.55902 3137.99268
3323.0 0.0003009 771.55902 3366.63574
3528.0 0.0002834 771.55902 3634.79321
3858.0 0.0002592 771.55902 3947.42383
4394.0 0.0002276 771.55902 4286.89941
4569.0 0.0002189 771.55902 4600.35791
4639.0 0.0002156 771.55902 4736.63281
4477.0 0.0002234 771.55902 4589.14990
4248.0 0.0002354 771.55902 4284.59229
3858.0 0.0002592 771.55902 4026.83154
3663.0 0.0002730 771.55902 3894.23657
3773.0 0.0002650 771.55902 3824.44043
3511.0 0.0002848 771.55902 3704.49609
3211.0 0.0003114 771.55902 3484.91382
3116.0 0.0003209 771.55902 3240.43457
2855.0 0.0003503 771.55902 3029.16333
2725.0 0.000367 771.55902 2882.93140
2628.0 0.000381 771.55902 2805.06396
2516.0 0.000397 771.55902 2779.27295
2649.0 0.000378 771.55902 2773.91138
2800.0 0.000357 771.55902 2776.93359
2700.0 0.000370 771.55902 2781.47583
2752.0 0.000363 771.55902 2783.68970
2771.0 0.000361 771.55902 2779.34277
2875.0 0.0003478 771.55902 2769.09180
2849.0 0.000351 771.55902 2805.44434
2870.0 0.0003484 771.55902 2821.44336
2825.0 0.000354 771.55902 2831.36279
2833.0 0.000353 771.55902 2831.03955
2902.0 0.0003446 771.55902 2863.02954
2929.0 0.0003414 771.55902 2949.24072
3075.0 0.0003252 771.55902 3089.79028
3359.0 0.0002977 771.55902 3307.36548
3500.0 0.0002857 771.55902 3578.56494
3863.0 0.0002589 771.55902 3858.23242
4178.0 0.0002393 771.55902 4024.19678
4050.0 0.0002469 771.55902 3973.63037
3731.0 0.0002680 771.55902 3770.93555
3641.0 0.0002746 771.55902 3615.66675
3510.0 0.0002849 771.55902 3595.16797
3546.0 0.0002820 771.55902 3684.96265
3632.0 0.0002753 771.55902 3800.18042
3676.0 0.0002720 771.55902 3901.04517
3770.0 0.0002653 771.55902 4071.75488
4244.0 0.0002356 771.55902 4404.61523
4719.0 0.0002119 771.55902 4930.14160
5445.0 0.0001837 771.55902 5633.33350
6244.0 0.0001602 771.55902 6432.39941
6928.0 0.0001443 771.55902 7215.19775
7720.0 0.0001295 771.55902 7914.40039
8422.0 0.0001187 771.55902 8523.05469
9293.0 0.0001076 771.55902 9032.63965
9827.0 0.0001018 771.55902 9264.71484
9500.0 0.0001053 771.55902 8928.56055
8486.0 0.0001178 771.55902 8133.21338
7447.0 0.0001343 771.55902 7328.50098
6805.0 0.0001470 771.55902 6761.85791
6537.0 0.0001530 771.55902 6405.36768
6207.0 0.0001611 771.55902 6030.71875
5609.0 0.0001783 771.55902 5472.99072
4830.0 0.0002070 771.55902 4843.11768
4207.0 0.0002377 771.55902 4338.38330
3767.0 0.0002655 771.55902 3988.79199
3585.0 0.0002789 771.55902 3748.67456
3334.0 0.0002999 771.55902 3532.50122
3124.0 0.0003201 771.55902 3343.87598
2934.0 0.0003408 771.55902 3190.05884
2857.0 0.0003500 771.55902 3070.61816
2656.0 0.000377 771.55902 2971.58350
2650.0 0.000377 771.55902 2880.89771
2570.0 0.000389 771.55902 2785.53052
2501.0 0.000400 771.55902 2666.25391
2557.0 0.000391 771.55902 2599.92261
2397.0 0.000417 771.55902 2555.67407
2337.0 0.000428 771.55902 2534.94849
2311.0 0.000433 771.55902 2511.54346
2529.0 0.000395 771.55902 2544.07959
2545.0 0.000393 771.55902 2606.32983
2697.0 0.000371 771.55902 2695.18652
2834.0 0.000353 771.55902 2793.19629
2872.0 0.0003482 771.55902 2865.16016
2918.0 0.0003427 771.55902 2896.59082
2996.0 0.0003338 771.55902 2949.78516
2984.0 0.0003351 771.55902 3094.96777
3282.0 0.0003047 771.55902 3342.73340
3595.0 0.0002782 771.55902 3606.36401
3862.0 0.0002589 771.55902 3822.23608
4008.0 0.0002495 771.55902 3838.10376
3715.0 0.0002692 771.55902 3639.15356
3271.0 0.0003057 771.55902 3374.54663
3079.0 0.0003248 771.55902 3190.43408
2979.0 0.0003357 771.55902 3112.52515
2979.0 0.0003357 771.55902 3072.86182
2878.0 0.0003475 771.55902 2989.86108
2813.0 0.000355 771.55902 2831.24316
2740.0 0.000365 771.55902 2650.56567
2473.0 0.000404 771.55902 2503.37158
2383.0 0.000420 771.55902 2404.67773
2320.0 0.000431 771.55902 2345.31079
2260.0 0.000442 771.55902 2310.98853
2218.0 0.000451 771.55902 2286.13794
2220.0 0.000450 771.55902 2274.15601
2195.0 0.000456 771.55902 2263.34741
2196.0 0.000455 771.55902 2253.33984
2178.0 0.000459 771.55902 2246.11572
2198.0 0.000455 771.55902 2239.92139
2095.0 0.000477 771.55902 2234.53516
2186.0 0.000457 771.55902 2231.00879
2116.0 0.000473 771.55902 2226.99072
2288.0 0.000437 771.55902 2224.77271
2214.0 0.000452 771.55902 2213.41479
2105.0 0.000475 771.55902 2212.14453
2195.0 0.000456 771.55902 2211.70508
2237.0 0.000447 771.55902 2213.61938
2185.0 0.000458 771.55902 2216.29297
2163.0 0.000462 771.55902 2221.54248
2116.0 0.000473 771.55902 2231.34570
2165.0 0.000462 771.55902 2265.31787
2258.0 0.000443 771.55902 2287.48511
2290.0 0.000437 771.55902 2316.85986
2286.0 0.000437 771.55902 2351.12769
2221.0 0.000450 771.55902 2388.51123
2302.0 0.000434 771.55902 2421.95532
2357.0 0.000424 771.55902 2450.80078
2346.0 0.000426 771.55902 2476.18433
2372.0 0.000422 771.55902 2473.61206
2282.0 0.000438 771.55902 2460.67676
2231.0 0.000448 771.55902 2449.95898
2294.0 0.000436 771.55902 2448.88965
2323.0 0.000430 771.55902 2461.19727
2301.0 0.000435 771.55902 2486.20044
2372.0 0.000422 771.55902 2525.95459
2514.0 0.000398 771.55902 2591.88330
2577.0 0.000388 771.55902 2702.83765
2773.0 0.000361 771.55902 2879.20435
2997.0 0.0003337 771.55902 3138.08838
3313.0 0.0003018 771.55902 3487.88013
3754.0 0.0002664 771.55902 3918.69482
4375.0 0.0002286 771.55902 4399.40088
4840.0 0.0002066 771.55902 4859.55664
5241.0 0.0001908 771.55902 5162.46533
5215.0 0.0001918 771.55902 5174.23633
4847.0 0.0002063 771.55902 4890.37842
4508.0 0.0002218 771.55902 4502.14502
4002.0 0.0002499 771.55902 4194.41895
3706.0 0.0002698 771.55902 4048.14722
3739.0 0.0002675 771.55902 3936.41748
3711.0 0.0002695 771.55902 3778.17896
3741.0 0.0002673 771.55902 3517.02661
3261.0 0.0003067 771.55902 3202.47192
2869.0 0.0003486 771.55902 2927.36328
2813.0 0.000355 771.55902 2750.30615
2732.0 0.000366 771.55902 2651.99780
2792.0 0.000358 771.55902 2640.62305
2933.0 0.0003409 771.55902 2723.73291
3236.0 0.0003090 771.55902 2925.43018
3627.0 0.0002757 771.55902 3293.34619
4070.0 0.0002457 771.55902 3891.42896
5069.0 0.0001973 771.55902 4732.54785
5888.0 0.0001698 771.55902 5637.03027
6528.0 0.0001532 771.55902 6143.17139
6006.0 0.0001665 771.55902 5798.12695
5514.0 0.0001814 771.55902 4907.52588
4625.0 0.0002162 771.55902 4243.89795
4174.0 0.0002396 771.55902 4217.04785
4174.0 0.0002396 771.55902 4874.38525
4319.0 0.0002315 771.55902 4620.93164
4214.0 0.0002373 771.55902 4098.42188
3838.0 0.0002606 771.55902 3563.41333
3312.0 0.0003019 771.55902 3035.67529
2796.0 0.000358 771.55902 2726.52881
2547.0 0.000393 771.55902 2695.88257
2473.0 0.000404 771.55902 2872.92261
2351.0 0.000425 771.55902 2293.59204
2254.0 0.000444 771.55902 2243.41748
2314.0 0.000432 771.55902 2234.10767
2319.0 0.000431 771.55902 2236.67969
2307.0 0.000433 771.55902 2240.39795
2207.0 0.000453 771.55902 2240.02783
2307.0 0.000433 771.55902 2226.66406
2463.0 0.000406 771.55902 2228.56396
2356.0 0.000424 771.55902 2251.22192
2500.0 0.000400 771.55902 2309.75659
2424.0 0.000413 771.55902 2418.31421
2626.0 0.000381 771.55902 2583.70605
2892.0 0.0003458 771.55902 2793.04639
2978.0 0.0003358 771.55902 2990.91406
3001.0 0.0003332 771.55902 3092.63525
3027.0 0.0003304 771.55902 3004.45874
2840.0 0.000352 771.55902 2800.98047
2642.0 0.000379 771.55902 2635.80029
2587.0 0.000387 771.55902 2581.32178
2561.0 0.000390 771.55902 2623.93066
2610.0 0.000383 771.55902 2697.08691
2752.0 0.000363 771.55902 2726.39722
2707.0 0.000369 771.55902 2680.27930
2667.0 0.000375 771.55902 2610.03052
2612.0 0.000383 771.55902 2561.53540
2657.0 0.000376 771.55902 2538.23413
2804.0 0.000357 771.55902 2535.26465
2659.0 0.000376 771.55902 2547.62622
2788.0 0.000359 771.55902 2565.93726
2616.0 0.000382 771.55902 2580.67725
2743.0 0.000365 771.55902 2593.96631
2777.0 0.000360 771.55902 2618.46436
2735.0 0.000366 771.55902 2669.19336
2881.0 0.0003471 771.55902 2755.79712
3029.0 0.0003301 771.55902 2870.32764
2978.0 0.0003358 771.55902 2988.04614
3144.0 0.0003181 771.55902 3075.66089
3140.0 0.0003185 771.55902 3098.27344
3097.0 0.0003229 771.55902 3033.39966
3080.0 0.0003247 771.55902 2926.81030
2982.0 0.0003353 771.55902 2841.43140
2878.0 0.0003475 771.55902 2804.53638
2886.0 0.0003465 771.55902 2811.49365
2913.0 0.0003433 771.55902 2839.45654
2953.0 0.0003386 771.55902 2842.44141
2962.0 0.0003376 771.55902 2796.12500
2784.0 0.000359 771.55902 2698.65088
2865.0 0.0003490 771.55902 2569.08667
2632.0 0.000380 771.55902 2443.97998
2430.0 0.000412 771.55902 2349.23926
2428.0 0.000412 771.55902 2293.32788
2379.0 0.000420 771.55902 2263.13965
2311.0 0.000433 771.55902 2250.17700
2374.0 0.000421 771.55902 2247.28833
2439.0 0.000410 771.55902 2270.47290
2440.0 0.000410 771.55902 2356.55615
2554.0 0.000392 771.55902 2538.28003
2781.0 0.000360 771.55902 2812.19385
2859.0 0.0003498 771.55902 3076.08398
2957.0 0.0003382 771.55902 3132.97559
2671.0 0.000374 771.55902 2879.63281
2483.0 0.000403 771.55902 2534.19727
2325.0 0.000430 771.55902 2324.99561
2383.0 0.000420 771.55902 2302.02344
2420.0 0.000413 771.55902 2397.76367
2486.0 0.000402 771.55902 2498.15649
2449.0 0.000408 771.55902 2487.69580
2363.0 0.000423 771.55902 2326.50220
2227.0 0.000449 771.55902 2140.07397
2039.0 0.000490 771.55902 2004.43628
2166.0 0.000462 771.55902 1943.07178
2039.0 0.000490 771.55902 1918.15002
2014.0 0.000497 771.55902 1907.11987
1999.0 0.000500 771.55902 1903.92297
1988.0 0.000503 771.55902 1900.24048
1966.0 0.000509 771.55902 1894.27234
1932.0 0.000518 771.55902 1893.70239
1994.0 0.000502 771.55902 1894.45129
1875.0 0.000533 771.55902 1896.99194
1964.0 0.000509 771.55902 1902.11792
1927.0 0.000519 771.55902 1911.58325
2092.0 0.000478 771.55902 1928.56335
1963.0 0.000509 771.55902 1958.40515
2040.0 0.000490 771.55902 2008.90247
2075.0 0.000482 771.55902 2088.89526
2223.0 0.000450 771.55902 2203.60913
2439.0 0.000410 771.55902 2347.49097
2404.0 0.000416 771.55902 2499.58057
2564.0 0.000390 771.55902 2617.45947
2578.0 0.000388 771.55902 2649.06396
2558.0 0.000391 771.55902 2578.62378
2314.0 0.000432 771.55902 2458.55249
2419.0 0.000413 771.55902 2360.71729
2332.0 0.000429 771.55902 2318.58105
2236.0 0.000447 771.55902 2330.04053
2274.0 0.000440 771.55902 2363.24805
2315.0 0.000432 771.55902 2383.15356
2358.0 0.000424 771.55902 2370.05933
2234.0 0.000448 771.55902 2335.33203
2307.0 0.000433 771.55902 2309.57471
2269.0 0.000441 771.55902 2273.13672
2267.0 0.000441 771.55902 2225.70044
2228.0 0.000449 771.55902 2163.96997
2273.0 0.000440 771.55902 2106.88867
2075.0 0.000482 771.55902 2067.94360
2128.0 0.000470 771.55902 2048.26880
2106.0 0.000475 771.55902 2047.46240
2001.0 0.000500 771.55902 2043.30017
2036.0 0.000491 771.55902 2029.13647
2077.0 0.000481 771.55902 2003.77759
2003.0 0.000499 771.55902 1975.73108
2052.0 0.000487 771.55902 1955.08997
1994.0 0.000502 771.55902 1946.95850
1928.0 0.000519 771.55902 1954.54321
2028.0 0.000493 771.55902 1979.16675
2076.0 0.000482 771.55902 2024.15320
2045.0 0.000489 771.55902 2094.20752
2146.0 0.000466 771.55902 2190.14673
2256.0 0.000443 771.55902 2308.66626
2425.0 0.000412 771.55902 2443.32690
2641.0 0.000379 771.55902 2576.76831
2707.0 0.000369 771.55902 2689.31689
2829.0 0.000353 771.55902 2759.84619
2822.0 0.000354 771.55902 2776.61572
2842.0 0.000352 771.55902 2762.97534
2832.0 0.000353 771.55902 2726.11499
2627.0 0.000381 771.55902 2684.21582
2718.0 0.000368 771.55902 2637.44751
2595.0 0.000385 771.55902 2582.45679
2651.0 0.000377 771.55902 2520.50122
2615.0 0.000382 771.55902 2456.95044
2534.0 0.000395 771.55902 2384.26172
2288.0 0.000437 771.55902 2320.73975
2292.0 0.000436 771.55902 2269.43921
2150.0 0.000465 771.55902 2231.84082
2188.0 0.000457 771.55902 2208.29932
2172.0 0.000460 771.55902 2204.57129
2192.0 0.000456 771.55902 2213.63843
2134.0 0.000469 771.55902 2226.36157
2326.0 0.000430 771.55902 2235.24756
2440.0 0.000410 771.55902 2240.61670
2381.0 0.000420 771.55902 2247.33911
2514.0 0.000398 771.55902 2260.93848
2456.0 0.000407 771.55902 2290.83472
2406.0 0.000416 771.55902 2341.96826
2494.0 0.000401 771.55902 2420.47900
2535.0 0.000394 771.55902 2525.78442
2562.0 0.000390 771.55902 2648.22974
2868.0 0.0003487 771.55902 2786.14111
3007.0 0.0003326 771.55902 2932.57715
3079.0 0.0003248 771.55902 3088.69800
3127.0 0.0003198 771.55902 3264.71606
3246.0 0.0003081 771.55902 3450.33594
3376.0 0.0002962 771.55902 3635.87622
3602.0 0.0002776 771.55902 3803.34766
3890.0 0.0002571 771.55902 3933.39819
4062.0 0.0002462 771.55902 3993.01196
3972.0 0.0002518 771.55902 3941.14819
3879.0 0.0002578 771.55902 3776.28516
3541.0 0.0002824 771.55902 3558.61060
3166.0 0.0003159 771.55902 3351.58130
2924.0 0.0003420 771.55902 3186.61011
2793.0 0.000358 771.55902 3057.89307
2834.0 0.000353 771.55902 2956.12744
2766.0 0.000362 771.55902 2846.34351
2754.0 0.000363 771.55902 2707.01709
2592.0 0.000386 771.55902 2546.75488
2422.0 0.000413 771.55902 2398.28638
2205.0 0.000454 771.55902 2284.39624
2133.0 0.000469 771.55902 2212.55396
2216.0 0.000451 771.55902 2187.53857
2301.0 0.000435 771.55902 2209.66040
2271.0 0.000440 771.55902 2263.40869
2468.0 0.000405 771.55902 2332.67749
2536.0 0.000394 771.55902 2405.43237
2530.0 0.000395 771.55902 2446.06665
2644.0 0.000378 771.55902 2459.18921
2687.0 0.000372 771.55902 2464.27686
2479.0 0.000403 771.55902 2477.68823
2510.0 0.000398 771.55902 2509.93848
2541.0 0.000394 771.55902 2566.82544
2585.0 0.000387 771.55902 2648.15991
2691.0 0.000372 771.55902 2738.73535
2732.0 0.000366 771.55902 2798.85303
2719.0 0.000368 771.55902 2801.33423
2637.0 0.000379 771.55902 2728.85010
2574.0 0.000389 771.55902 2616.43945
2338.0 0.000428 771.55902 2493.54077
2190.0 0.000457 771.55902 2384.30591
2204.0 0.000454 771.55902 2326.39209
2203.0 0.000454 771.55902 2297.79785
2282.0 0.000438 771.55902 2279.26807
2079.0 0.000481 771.55902 2246.67065
2066.0 0.000484 771.55902 2191.41016
2048.0 0.000488 771.55902 2128.04321
2044.0 0.000489 771.55902 2064.94434
2036.0 0.000491 771.55902 2014.19641
1899.0 0.000527 771.55902 1989.61279
1916.0 0.000522 771.55902 1992.76880
1968.0 0.000508 771.55902 2024.29041
1942.0 0.000515 771.55902 2087.45508
2075.0 0.000482 771.55902 2183.66626
2210.0 0.000452 771.55902 2310.87891
2376.0 0.000421 771.55902 2460.53076
2660.0 0.000376 771.55902 2615.88623
2871.0 0.0003483 771.55902 2751.98047
3048.0 0.0003281 771.55902 2840.20313
2959.0 0.0003380 771.55902 2859.53931
2885.0 0.0003466 771.55902 2822.24951
2713.0 0.000369 771.55902 2762.76685
2529.0 0.000395 771.55902 2708.79810
2587.0 0.000387 771.55902 2689.50732
2528.0 0.000396 771.55902 2707.20483
2562.0 0.000390 771.55902 2751.76465
2725.0 0.000367 771.55902 2799.11890
2664.0 0.000375 771.55902 2824.73218
2857.0 0.0003500 771.55902 2814.79517
2671.0 0.000374 771.55902 2759.58887
2673.0 0.000374 771.55902 2672.05396
2542.0 0.000393 771.55902 2568.76636
2455.0 0.000407 771.55902 2476.91968
2350.0 0.000426 771.55902 2416.79883
2405.0 0.000416 771.55902 2398.62646
2371.0 0.000422 771.55902 2421.76636
2462.0 0.000406 771.55902 2475.79150
2376.0 0.000421 771.55902 2545.03027
2660.0 0.000376 771.55902 2612.53223
2557.0 0.000391 771.55902 2654.86304
2631.0 0.000380 771.55902 2661.81299
2551.0 0.000392 771.55902 2620.12329
2510.0 0.000398 771.55902 2543.00854
2478.0 0.000404 771.55902 2442.72412
2384.0 0.000419 771.55902 2351.06763
2187.0 0.000457 771.55902 2282.67310
2234.0 0.000448 771.55902 2241.51221
2131.0 0.000469 771.55902 2213.33960
2149.0 0.000465 771.55902 2184.16382
2055.0 0.000487 771.55902 2142.57813
2057.0 0.000486 771.55902 2080.05151
2064.0 0.000484 771.55902 2015.46997
1978.0 0.000506 771.55902 1957.12085
1931.0 0.000518 771.55902 1912.89514
1923.0 0.000520 771.55902 1887.36780
1891.0 0.000529 771.55902 1879.15002
1974.0 0.000507 771.55902 1886.99512
1974.0 0.000507 771.55902 1909.19067
1955.0 0.000512 771.55902 1938.26221
2037.0 0.000491 771.55902 1977.88416
2126.0 0.000470 771.55902 2022.10876
2127.0 0.000470 771.55902 2071.38037
2175.0 0.000460 771.55902 2118.59985
2211.0 0.000452 771.55902 2177.06470
2217.0 0.000451 771.55902 2248.49829
2192.0 0.000456 771.55902 2332.64624
2412.0 0.000415 771.55902 2421.53516
2478.0 0.000404 771.55902 2503.41504
2634.0 0.000380 771.55902 2573.12915
2802.0 0.000357 771.55902 2644.49048
2969.0 0.0003368 771.55902 2719.71704
3025.0 0.0003306 771.55902 2811.55078
3004.0 0.0003329 771.55902 2911.44409
3122.0 0.0003203 771.55902 2995.10425
3091.0 0.0003235 771.55902 3028.31519
3065.0 0.0003263 771.55902 2977.58008
2932.0 0.0003411 771.55902 2852.92773
2711.0 0.000369 771.55902 2700.54736
2778.0 0.000360 771.55902 2559.84741
2572.0 0.000389 771.55902 2454.13696
2478.0 0.000404 771.55902 2385.71143
2344.0 0.000427 771.55902 2344.90601
2188.0 0.000457 771.55902 2305.11914
2206.0 0.000453 771.55902 2249.36987
2163.0 0.000462 771.55902 2179.31226
2018.0 0.000496 771.55902 2107.29419
2103.0 0.000476 771.55902 2051.61304
1980.0 0.000505 771.55902 2020.46594
2037.0 0.000491 771.55902 2013.72351
2074.0 0.000482 771.55902 2027.38855
2048.0 0.000488 771.55902 2049.80029
2230.0 0.000448 771.55902 2076.43555
2387.0 0.000419 771.55902 2134.93628
2388.0 0.000419 771.55902 2258.21533
2449.0 0.000408 771.55902 2461.54443
2587.0 0.000387 771.55902 2752.56128
2617.0 0.000382 771.55902 2892.85352
2590.0 0.000386 771.55902 2707.20630
2563.0 0.000390 771.55902 2516.07056
2416.0 0.000414 771.55902 2287.47852
2158.0 0.000463 771.55902 2124.68677
2192.0 0.000456 771.55902 2055.32349
2186.0 0.000457 771.55902 2073.29053
2173.0 0.000460 771.55902 2159.75098
2092.0 0.000478 771.55902 2277.08716
2025.0 0.000494 771.55902 2123.39258
2012.0 0.000497 771.55902 2011.95642
1959.0 0.000510 771.55902 1882.69031
1822.0 0.000549 771.55902 1780.72180
1801.0 0.000555 771.55902 1722.93372
1651.0 0.000606 771.55902 1699.35913
1717.0 0.000582 771.55902 1699.08008
1755.0 0.000570 771.55902 1714.36633
1655.0 0.000604 771.55902 1740.92822
1704.0 0.000587 771.55902 1769.56421
1783.0 0.000561 771.55902 1802.51160
1752.0 0.000571 771.55902 1824.65710
1823.0 0.000549 771.55902 1829.76685
1783.0 0.000561 771.55902 1818.39636
1865.0 0.000536 771.55902 1800.03992
1862.0 0.000537 771.55902 1785.37415
1773.0 0.000564 771.55902 1781.26013
1725.0 0.000580 771.55902 1797.42761
1800.0 0.000556 771.55902 1819.18530
1848.0 0.000541 771.55902 1846.28381
1821.0 0.000549 771.55902 1871.13989
1857.0 0.000539 771.55902 1887.34265
1880.0 0.000532 771.55902 1895.19556
1950.0 0.000513 771.55902 1901.87769
1963.0 0.000509 771.55902 1913.63757
1942.0 0.000515 771.55902 1933.14648
2000.0 0.000500 771.55902 1947.95703
2016.0 0.000496 771.55902 1947.94604
2020.0 0.000495 771.55902 1934.25659
2061.0 0.000485 771.55902 1908.04968
1930.0 0.000518 771.55902 1877.94434
1836.0 0.000545 771.55902 1853.43738
1946.0 0.000514 771.55902 1843.51697
1884.0 0.000531 771.55902 1854.81848
1917.0 0.000522 771.55902 1897.17200
2009.0 0.000498 771.55902 1959.10217
2196.0 0.000455 771.55902 2041.88354
2281.0 0.000438 771.55902 2142.95190
2381.0 0.000420 771.55902 2246.23706
2515.0 0.000398 771.55902 2327.49316
2395.0 0.000418 771.55902 2349.05176
2451.0 0.000408 771.55902 2308.01318
2367.0 0.000422 771.55902 2220.11157
2201.0 0.000454 771.55902 2127.83398
2052.0 0.000487 771.55902 2056.88892
2034.0 0.000492 771.55902 2023.64978
1918.0 0.000521 771.55902 2025.03833
1947.0 0.000514 771.55902 2043.56494
2091.0 0.000478 771.55902 2049.02612
2157.0 0.000464 771.55902 2023.44812
1978.0 0.000506 771.55902 1961.51355
1820.0 0.000549 771.55902 1883.18152
1934.0 0.000517 771.55902 1803.99292
1804.0 0.000554 771.55902 1739.90063
1660.0 0.000602 771.55902 1697.04187
1596.0 0.000627 771.55902 1674.09851
1635.0 0.000612 771.55902 1667.57214
1581.0 0.000633 771.55902 1673.99084
1629.0 0.000614 771.55902 1693.23645
1611.0 0.000621 771.55902 1725.23804
1691.0 0.000591 771.55902 1783.19324
1780.0 0.000562 771.55902 1865.28613
1944.0 0.000514 771.55902 1975.96313
2046.0 0.000489 771.55902 2110.41870
2154.0 0.000464 771.55902 2253.01538
2378.0 0.000421 771.55902 2375.86987
2449.0 0.000408 771.55902 2445.00464
2368.0 0.000422 771.55902 2438.32495
2308.0 0.000433 771.55902 2367.70923
2235.0 0.000447 771.55902 2276.29077
2142.0 0.000467 771.55902 2201.33618
2214.0 0.000452 771.55902 2163.59326
2092.0 0.000478 771.55902 2165.32788
2156.0 0.000464 771.55902 2192.03027
2069.0 0.000483 771.55902 2216.68140
2097.0 0.000477 771.55902 2210.93042
2177.0 0.000459 771.55902 2164.98169
2056.0 0.000486 771.55902 2089.60522
2003.0 0.000499 771.55902 2010.62244
1966.0 0.000509 771.55902 1945.73828
1896.0 0.000527 771.55902 1901.60828
1842.0 0.000543 771.55902 1875.41687
1794.0 0.000557 771.55902 1857.64258
1797.0 0.000556 771.55902 1835.49487
1786.0 0.000560 771.55902 1802.49561
1818.0 0.000550 771.55902 1761.24084
1713.0 0.000584 771.55902 1717.31348
1749.0 0.000572 771.55902 1677.48657
1701.0 0.000588 771.55902 1645.02795
1599.0 0.000625 771.55902 1620.45557
1613.0 0.000620 771.55902 1603.11670
1602.0 0.000624 771.55902 1588.63147
1624.0 0.000616 771.55902 1573.56018
1624.0 0.000616 771.55902 1557.74768
1510.0 0.000662 771.55902 1542.31091
1570.0 0.000637 771.55902 1529.58887
1458.0 0.000686 771.55902 1520.86902
1524.0 0.000656 771.55902 1515.03210
1553.0 0.000644 771.55902 1512.78381
1580.0 0.000633 771.55902 1512.79297
1525.0 0.000656 771.55902 1517.63135
1483.0 0.000674 771.55902 1527.87415
1473.0 0.000679 771.55902 1544.75415
1547.0 0.000646 771.55902 1567.71021
1608.0 0.000622 771.55902 1593.30139
1600.0 0.000625 771.55902 1616.08508
1572.0 0.000636 771.55902 1626.18042
1657.0 0.000604 771.55902 1622.66040
1663.0 0.000601 771.55902 1607.26648
1675.0 0.000597 771.55902 1585.74536
1668.0 0.000600 771.55902 1566.02258
1584.0 0.000631 771.55902 1554.25073
1554.0 0.000644 771.55902 1551.40356
1576.0 0.000635 771.55902 1556.57703
1544.0 0.000648 771.55902 1567.34888
1647.0 0.000607 771.55902 1579.65186
1629.0 0.000614 771.55902 1593.07996
1638.0 0.000611 771.55902 1608.06128
1644.0 0.000608 771.55902 1625.82800
1644.0 0.000608 771.55902 1637.72424
1715.0 0.000583 771.55902 1657.15710
1688.0 0.000592 771.55902 1671.13208
1676.0 0.000597 771.55902 1677.18665
1732.0 0.000577 771.55902 1677.06641
1699.0 0.000589 771.55902 1673.75037
1705.0 0.000587 771.55902 1674.22144
1727.0 0.000579 771.55902 1678.78308
1624.0 0.000616 771.55902 1687.04419
1663.0 0.000601 771.55902 1697.56177
1718.0 0.000582 771.55902 1708.95740
1734.0 0.000577 771.55902 1720.39661
1747.0 0.000572 771.55902 1730.82031
1685.0 0.000593 771.55902 1739.24841
1704.0 0.000587 771.55902 1748.14722
1739.0 0.000575 771.55902 1756.44324
1694.0 0.000590 771.55902 1760.13855
1744.0 0.000573 771.55902 1751.87000
1745.0 0.000573 771.55902 1731.91736
1771.0 0.000565 771.55902 1700.46863
1688.0 0.000592 771.55902 1668.76624
1696.0 0.000590 771.55902 1639.68384
1689.0 0.000592 771.55902 1615.65369
1719.0 0.000582 771.55902 1594.19958
1642.0 0.000609 771.55902 1575.13293
1607.0 0.000622 771.55902 1560.71106
1638.0 0.000611 771.55902 1543.04651
1607.0 0.000622 771.55902 1523.18811
1618.0 0.000618 771.55902 1503.37048
1602.0 0.000624 771.55902 1483.26709
1610.0 0.000621 771.55902 1464.72900
1565.0 0.000639 771.55902 1448.15552
1625.0 0.000615 771.55902 1432.52124
1546.0 0.000647 771.55902 1417.35510
1578.0 0.000634 771.55902 1405.71924
1486.0 0.000673 771.55902 1395.11304
1479.0 0.000676 771.55902 1389.00183
1557.0 0.000642 771.55902 1387.31836
1532.0 0.000653 771.55902 1388.65100
1625.0 0.000615 771.55902 1394.22974
1521.0 0.000657 771.55902 1399.02112
1551.0 0.000645 771.55902 1405.58008
1523.0 0.000657 771.55902 1417.16382
1498.0 0.000668 771.55902 1432.72363
1513.0 0.000661 771.55902 1454.47449
1537.0 0.000651 771.55902 1481.43689
1668.0 0.000600 771.55902 1514.15625
1734.0 0.000577 771.55902 1552.63953
1801.0 0.000555 771.55902 1592.86108
1819.0 0.000550 771.55902 1633.56726
1878.0 0.000532 771.55902 1670.00964
1948.0 0.000513 771.55902 1716.09753
1906.0 0.000525 771.55902 1762.32361
1939.0 0.000516 771.55902 1815.67700
1951.0 0.000513 771.55902 1874.11426
1777.0 0.000563 771.55902 1926.31531
1927.0 0.000519 771.55902 1957.50464
1808.0 0.000553 771.55902 1954.18799
1933.0 0.000517 771.55902 1919.20947
1979.0 0.000505 771.55902 1863.35840
1917.0 0.000522 771.55902 1809.76501
1872.0 0.000534 771.55902 1765.74854
1772.0 0.000564 771.55902 1740.26074
1769.0 0.000565 771.55902 1736.36682
1804.0 0.000554 771.55902 1749.06641
1780.0 0.000562 771.55902 1774.25500
1762.0 0.000568 771.55902 1806.67773
1778.0 0.000562 771.55902 1844.07495
1874.0 0.000534 771.55902 1893.42908
1943.0 0.000515 771.55902 1957.84631
1965.0 0.000509 771.55902 2034.31738
1998.0 0.000501 771.55902 2108.55811
2059.0 0.000486 771.55902 2161.68286
2094.0 0.000478 771.55902 2179.71899
2154.0 0.000464 771.55902 2153.44849
2088.0 0.000479 771.55902 2092.87573
2010.0 0.000498 771.55902 2021.62903
2039.0 0.000490 771.55902 1963.14392
1875.0 0.000533 771.55902 1926.98254
1812.0 0.000552 771.55902 1912.46411
1823.0 0.000549 771.55902 1916.46692
1805.0 0.000554 771.55902 1928.79626
1845.0 0.000542 771.55902 1943.02478
1859.0 0.000538 771.55902 1951.33350
1946.0 0.000514 771.55902 1947.78357
1980.0 0.000505 771.55902 1934.26172
1868.0 0.000535 771.55902 1916.00415
1867.0 0.000536 771.55902 1897.06982
1828.0 0.000547 771.55902 1879.89307
1847.0 0.000541 771.55902 1873.69885
1801.0 0.000555 771.55902 1873.93542
1866.0 0.000536 771.55902 1884.60498
1943.0 0.000515 771.55902 1904.14624
1906.0 0.000525 771.55902 1925.50439
1954.0 0.000512 771.55902 1939.15149
1840.0 0.000543 771.55902 1932.45581
1946.0 0.000514 771.55902 1903.11987
2015.0 0.000496 771.55902 1860.48059
1928.0 0.000519 771.55902 1810.79785
1923.0 0.000520 771.55902 1765.21790
1787.0 0.000560 771.55902 1729.33276
1806.0 0.000554 771.55902 1705.84448
1764.0 0.000567 771.55902 1694.09570
1769.0 0.000565 771.55902 1691.34644
1807.0 0.000553 771.55902 1690.14526
1733.0 0.000577 771.55902 1687.28711
1812.0 0.000552 771.55902 1682.34680
1877.0 0.000533 771.55902 1679.39429
1870.0 0.000535 771.55902 1679.97388
1834.0 0.000545 771.55902 1682.81763
1867.0 0.000536 771.55902 1699.58875
1865.0 0.000536 771.55902 1719.71301
1824.0 0.000548 771.55902 1737.87891
1768.0 0.000566 771.55902 1750.19995
1793.0 0.000558 771.55902 1760.70605
1921.0 0.000521 771.55902 1777.90894
1946.0 0.000514 771.55902 1809.75171
1988.0 0.000503 771.55902 1853.02771
2104.0 0.000475 771.55902 1905.02515
2094.0 0.000478 771.55902 1960.16431
2204.0 0.000454 771.55902 2009.91345
2178.0 0.000459 771.55902 2042.54187
2222.0 0.000450 771.55902 2050.20752
2085.0 0.000480 771.55902 2031.84021
2096.0 0.000477 771.55902 1994.63928
1977.0 0.000506 771.55902 1949.03125
1959.0 0.000510 771.55902 1904.80334
1990.0 0.000503 771.55902 1865.67017
1854.0 0.000539 771.55902 1834.70459
1796.0 0.000557 771.55902 1809.19128
1820.0 0.000549 771.55902 1792.43994
1830.0 0.000546 771.55902 1778.26489
1760.0 0.000568 771.55902 1764.77197
1783.0 0.000561 771.55902 1750.24402
1670.0 0.000599 771.55902 1735.30212
1716.0 0.000583 771.55902 1720.21973
1699.0 0.000589 771.55902 1705.23230
1766.0 0.000566 771.55902 1693.93042
1702.0 0.000588 771.55902 1686.18689
1615.0 0.000619 771.55902 1682.18958
1706.0 0.000586 771.55902 1685.00488
1620.0 0.000617 771.55902 1690.44629
1700.0 0.000588 771.55902 1696.22815
1725.0 0.000580 771.55902 1700.52173
1691.0 0.000591 771.55902 1704.99817
1716.0 0.000583 771.55902 1711.34912
1648.0 0.000607 771.55902 1715.97803
1699.0 0.000589 771.55902 1716.55200
1674.0 0.000597 771.55902 1708.33057
1786.0 0.000560 771.55902 1693.32971
1729.0 0.000578 771.55902 1681.31689
1674.0 0.000597 771.55902 1686.45496
1602.0 0.000624 771.55902 1710.02600
1561.0 0.000641 771.55902 1705.39880
1615.0 0.000619 771.55902 1632.06934
1590.0 0.000629 771.55902 1550.11755
1519.0 0.000658 771.55902 1506.06934
1549.0 0.000646 771.55902 1487.24316
1527.0 0.000655 771.55902 1475.09253
1507.0 0.000664 771.55902 1465.46472
1528.0 0.000654 771.55902 1462.53259
1438.0 0.000695 771.55902 1472.76721
1458.0 0.000686 771.55902 1498.75464
1443.0 0.000693 771.55902 1516.93542
1503.0 0.000665 771.55902 1502.75439
1467.0 0.000682 771.55902 1480.50586
1385.0 0.000722 771.55902 1473.80481
1482.0 0.000675 771.55902 1477.90186
1458.0 0.000686 771.55902 1483.93713
1477.0 0.000677 771.55902 1490.20874
1474.0 0.000678 771.55902 1495.16968
1472.0 0.000679 771.55902 1498.76465
1457.0 0.000686 771.55902 1509.46838
1518.0 0.000659 771.55902 1519.43237
1553.0 0.000644 771.55902 1524.43274
1443.0 0.000693 771.55902 1519.21777
1426.0 0.000701 771.55902 1503.08423
1518.0 0.000659 771.55902 1480.28601
1486.0 0.000673 771.55902 1451.98950
1437.0 0.000696 771.55902 1429.22363
1476.0 0.000678 771.55902 1408.49353
1400.0 0.000714 771.55902 1392.94666
1511.0 0.000662 771.55902 1382.18103
1411.0 0.000709 771.55902 1374.39417
1375.0 0.000727 771.55902 1368.05688
1396.0 0.000716 771.55902 1359.84497
1404.0 0.000712 771.55902 1348.40698
1345.0 0.000743 771.55902 1336.17554
1419.0 0.000705 771.55902 1319.18689
1369.0 0.000730 771.55902 1308.16895
1344.0 0.000744 771.55902 1299.37769
1316.0 0.000760 771.55902 1295.61255
1337.0 0.000748 771.55902 1296.93701
1309.0 0.000764 771.55902 1302.98584
1339.0 0.000747 771.55902 1314.62378
1379.0 0.000725 771.55902 1333.32031
1388.0 0.000720 771.55902 1358.94739
1461.0 0.000684 771.55902 1394.89124
1420.0 0.000704 771.55902 1436.78040
1539.0 0.000650 771.55902 1484.78210
1571.0 0.000637 771.55902 1533.29016
1678.0 0.000596 771.55902 1576.48254
1756.0 0.000569 771.55902 1608.49524
1716.0 0.000583 771.55902 1625.30676
1738.0 0.000575 771.55902 1625.92725
1744.0 0.000573 771.55902 1616.28516
1706.0 0.000586 771.55902 1605.10986
1755.0 0.000570 771.55902 1601.56799
1662.0 0.000602 771.55902 1606.42822
1702.0 0.000588 771.55902 1620.56726
1808.0 0.000553 771.55902 1644.58325
1661.0 0.000602 771.55902 1675.46301
1751.0 0.000571 771.55902 1702.42163
1662.0 0.000602 771.55902 1716.10779
1709.0 0.000585 771.55902 1710.50220
1727.0 0.000579 771.55902 1688.81982
1710.0 0.000585 771.55902 1659.68079
1636.0 0.000611 771.55902 1629.28247
1563.0 0.000640 771.55902 1603.78650
1561.0 0.000641 771.55902 1581.07825
1637.0 0.000611 771.55902 1561.65881
1508.0 0.000663 771.55902 1546.12708
1517.0 0.000659 771.55902 1533.96155
1528.0 0.000654 771.55902 1521.47327
1531.0 0.000653 771.55902 1506.82031
1410.0 0.000709 771.55902 1490.08691
1396.0 0.000716 771.55902 1473.37305
1398.0 0.000715 771.55902 1460.45898
1437.0 0.000696 771.55902 1448.07117
1446.0 0.000692 771.55902 1439.21277
1381.0 0.000724 771.55902 1432.91797
1412.0 0.000708 771.55902 1428.38831
1382.0 0.000724 771.55902 1426.19299
1373.0 0.000728 771.55902 1427.29004
1351.0 0.000740 771.55902 1432.79871
1459.0 0.000685 771.55902 1443.71704
1489.0 0.000672 771.55902 1459.85059
1551.0 0.000645 771.55902 1481.65869
1569.0 0.000637 771.55902 1508.50049
1558.0 0.000642 771.55902 1537.89160
1651.0 0.000606 771.55902 1567.48560
1508.0 0.000663 771.55902 1592.88977
1590.0 0.000629 771.55902 1606.67761
1572.0 0.000636 771.55902 1601.11584
1499.0 0.000667 771.55902 1574.13989
1473.0 0.000679 771.55902 1534.90540
1395.0 0.000717 771.55902 1498.21021
1411.0 0.000709 771.55902 1468.14844
1433.0 0.000698 771.55902 1451.49426
1361.0 0.000735 771.55902 1446.26331
1433.0 0.000698 771.55902 1448.62244
1381.0 0.000724 771.55902 1454.71631
1395.0 0.000717 771.55902 1460.38513
1460.0 0.000685 771.55902 1460.84009
1433.0 0.000698 771.55902 1452.16162
1413.0 0.000708 771.55902 1433.56580
1341.0 0.000746 771.55902 1412.90125
1314.0 0.000761 771.55902 1391.96155
1440.0 0.000694 771.55902 1373.43335
1372.0 0.000729 771.55902 1358.80627
1305.0 0.000766 771.55902 1347.13818
1317.0 0.000759 771.55902 1336.84741
1301.0 0.000769 771.55902 1327.63782
1296.0 0.000772 771.55902 1319.19617
1260.0 0.000794 771.55902 1311.29089
1305.0 0.000766 771.55902 1305.91895
1302.0 0.000768 771.55902 1302.95740
1290.0 0.000775 771.55902 1302.45996
1287.0 0.000777 771.55902 1305.51587
1298.0 0.000770 771.55902 1310.31238
1312.0 0.000762 771.55902 1316.45569
1404.0 0.000712 771.55902 1325.20081
1319.0 0.000758 771.55902 1336.10999
1330.0 0.000752 771.55902 1349.13452
1413.0 0.000708 771.55902 1363.48474
1394.0 0.000717 771.55902 1377.24817
1372.0 0.000729 771.55902 1390.09863
1397.0 0.000716 771.55902 1399.11853
1495.0 0.000669 771.55902 1402.35486
1462.0 0.000684 771.55902 1400.73328
1417.0 0.000706 771.55902 1395.70837
1440.0 0.000694 771.55902 1389.47668
1437.0 0.000696 771.55902 1384.38818
1367.0 0.000732 771.55902 1380.63538
1387.0 0.000721 771.55902 1383.03503
1328.0 0.000753 771.55902 1390.76489
1350.0 0.000741 771.55902 1403.06946
1402.0 0.000713 771.55902 1417.81006
1431.0 0.000699 771.55902 1431.68982
1435.0 0.000697 771.55902 1441.20020
1371.0 0.000729 771.55902 1444.42969
1505.0 0.000664 771.55902 1441.68518
1432.0 0.000698 771.55902 1437.40198
1427.0 0.000701 771.55902 1436.75854
1427.0 0.000701 771.55902 1444.09326
1363.0 0.000734 771.55902 1460.31042
1404.0 0.000712 771.55902 1487.84631
1517.0 0.000659 771.55902 1522.47046
1489.0 0.000672 771.55902 1558.69629
1448.0 0.000691 771.55902 1588.85095
1529.0 0.000654 771.55902 1605.19299
1565.0 0.000639 771.55902 1603.91980
1557.0 0.000642 771.55902 1587.44360
1500.0 0.000667 771.55902 1560.11096
1437.0 0.000696 771.55902 1530.19299
1534.0 0.000652 771.55902 1504.20093
1546.0 0.000647 771.55902 1486.13171
1460.0 0.000685 771.55902 1478.03662
1385.0 0.000722 771.55902 1478.27283
1477.0 0.000677 771.55902 1483.37524
1497.0 0.000668 771.55902 1488.30884
1492.0 0.000670 771.55902 1488.13818
1476.0 0.000678 771.55902 1479.80127
1483.0 0.000674 771.55902 1464.81873
1509.0 0.000663 771.55902 1444.85461
1443.0 0.000693 771.55902 1422.29834
1363.0 0.000734 771.55902 1401.17395
1373.0 0.000728 771.55902 1384.35254
1414.0 0.000707 771.55902 1373.17334
1422.0 0.000703 771.55902 1369.21912
1377.0 0.000726 771.55902 1367.95654
1457.0 0.000686 771.55902 1368.66736
1376.0 0.000727 771.55902 1368.55310
1385.0 0.000722 771.55902 1365.57715
1392.0 0.000718 771.55902 1358.43042
1383.0 0.000723 771.55902 1349.72852
1379.0 0.000725 771.55902 1339.57068
1446.0 0.000692 771.55902 1330.39343
1400.0 0.000714 771.55902 1323.44031
1330.0 0.000752 771.55902 1320.00366
1354.0 0.000739 771.55902 1320.83716
1267.0 0.000789 771.55902 1324.68188
1325.0 0.000755 771.55902 1329.27551
1356.0 0.000737 771.55902 1333.68604
1378.0 0.000726 771.55902 1336.16992
1343.0 0.000745 771.55902 1336.02600
1319.0 0.000758 771.55902 1332.69348
1290.0 0.000775 771.55902 1328.65491
1207.0 0.000829 771.55902 1323.31177
1312.0 0.000762 771.55902 1318.17261
1293.0 0.000773 771.55902 1314.77979
1316.0 0.000760 771.55902 1314.72888
1285.0 0.000778 771.55902 1319.23828
1208.0 0.000828 771.55902 1328.40649
1324.0 0.000755 771.55902 1342.25745
1329.0 0.000752 771.55902 1360.05762
1280.0 0.000781 771.55902 1381.62646
1376.0 0.000727 771.55902 1405.87158
1338.0 0.000747 771.55902 1430.06396
1319.0 0.000758 771.55902 1451.31604
1303.0 0.000767 771.55902 1466.75696
1335.0 0.000749 771.55902 1472.97974
1401.0 0.000714 771.55902 1470.37769
1323.0 0.000756 771.55902 1462.19739
1337.0 0.000748 771.55902 1454.14478
1384.0 0.000723 771.55902 1447.95605
1397.0 0.000716 771.55902 1444.08789
1322.0 0.000756 771.55902 1442.12671
1385.0 0.000722 771.55902 1441.33020
1395.0 0.000717 771.55902 1440.26599
1346.0 0.000743 771.55902 1436.75317
1380.0 0.000725 771.55902 1430.20703
1248.0 0.000801 771.55902 1420.32703
1309.0 0.000764 771.55902 1412.78271
1340.0 0.000746 771.55902 1401.34839
1390.0 0.000719 771.55902 1392.16577
1367.0 0.000732 771.55902 1388.13623
1322.0 0.000756 771.55902 1388.13855
1344.0 0.000744 771.55902 1393.68274
1320.0 0.000758 771.55902 1408.51147
1346.0 0.000743 771.55902 1440.78101
1460.0 0.000685 771.55902 1515.46863
1478.0 0.000677 771.55902 1506.61182
1427.0 0.000701 771.55902 1458.94958
1463.0 0.000684 771.55902 1481.15320
1485.0 0.000673 771.55902 1522.96912
1521.0 0.000657 771.55902 1573.17700
1612.0 0.000620 771.55902 1624.52344
1573.0 0.000636 771.55902 1658.35046
1576.0 0.000635 771.55902 1662.88733
1569.0 0.000637 771.55902 1631.26233
1467.0 0.000682 771.55902 1583.21973
1464.0 0.000683 771.55902 1525.55017
1420.0 0.000704 771.55902 1515.59741
1369.0 0.000730 771.55902 1403.33582
1435.0 0.000697 771.55902 1372.33069
1347.0 0.000742 771.55902 1365.29883
1334.0 0.000750 771.55902 1372.81787
1400.0 0.000714 771.55902 1387.95264
1295.0 0.000772 771.55902 1402.48059
1334.0 0.000750 771.55902 1407.25732
1352.0 0.000740 771.55902 1394.94507
1305.0 0.000766 771.55902 1367.05420
1269.0 0.000788 771.55902 1333.45850
1346.0 0.000743 771.55902 1291.71680
1230.0 0.000813 771.55902 1261.97937
1223.0 0.000818 771.55902 1241.18652
1269.0 0.000788 771.55902 1228.08411
1191.0 0.000840 771.55902 1220.44702
1207.0 0.000829 771.55902 1216.19299
1187.0 0.000842 771.55902 1214.95984
1252.0 0.000799 771.55902 1214.13696
1234.0 0.000810 771.55902 1214.79700
1234.0 0.000810 771.55902 1215.00049
1195.0 0.000837 771.55902 1217.55481
1296.0 0.000772 771.55902 1220.63806
1214.0 0.000824 771.55902 1223.51294
1188.0 0.000842 771.55902 1226.01172
1249.0 0.000801 771.55902 1228.31519
1214.0 0.000824 771.55902 1231.10864
1158.0 0.000864 771.55902 1234.86658
1193.0 0.000838 771.55902 1240.46667
1240.0 0.000806 771.55902 1250.67603
1231.0 0.000812 771.55902 1260.47205
1254.0 0.000797 771.55902 1273.17749
1280.0 0.000781 771.55902 1287.87939
1355.0 0.000738 771.55902 1305.25195
1293.0 0.000773 771.55902 1324.46216
1270.0 0.000787 771.55902 1345.12256
1300.0 0.000769 771.55902 1365.31042
1338.0 0.000747 771.55902 1386.26221
1356.0 0.000737 771.55902 1405.69849
1287.0 0.000777 771.55902 1421.96936
1339.0 0.000747 771.55902 1432.99609
1327.0 0.000754 771.55902 1439.23865
1415.0 0.000707 771.55902 1450.53784
1393.0 0.000718 771.55902 1488.75659
1474.0 0.000678 771.55902 1610.75696
1377.0 0.000726 771.55902 1530.54724
1345.0 0.000743 771.55902 1417.96057
1433.0 0.000698 771.55902 1404.64465
1349.0 0.000741 771.55902 1401.29089
1361.0 0.000735 771.55902 1401.52905
1396.0 0.000716 771.55902 1402.42578
1410.0 0.000709 771.55902 1403.44470
1368.0 0.000731 771.55902 1404.87878
1380.0 0.000725 771.55902 1408.27917
1332.0 0.000751 771.55902 1421.55347
1355.0 0.000738 771.55902 1458.80750
1364.0 0.000733 771.55902 1547.79688
1373.0 0.000728 771.55902 1495.21973
1394.0 0.000717 771.55902 1477.21008
1396.0 0.000716 771.55902 1485.86938
1417.0 0.000706 771.55902 1487.98462
1284.0 0.000779 771.55902 1479.42432
1308.0 0.000765 771.55902 1461.88672
1373.0 0.000728 771.55902 1440.69617
1304.0 0.000767 771.55902 1420.88623
1246.0 0.000803 771.55902 1406.78528
1239.0 0.000807 771.55902 1400.21155
1262.0 0.000792 771.55902 1402.64380
1325.0 0.000755 771.55902 1410.95325
1268.0 0.000789 771.55902 1423.84729
1305.0 0.000766 771.55902 1436.01257
1382.0 0.000724 771.55902 1444.39209
1483.0 0.000674 771.55902 1445.26367
1363.0 0.000734 771.55902 1437.43066
1369.0 0.000730 771.55902 1422.04736
1386.0 0.000722 771.55902 1402.24683
1349.0 0.000741 771.55902 1381.70422
1347.0 0.000742 771.55902 1363.26184
1327.0 0.000754 771.55902 1349.16870
1360.0 0.000735 771.55902 1340.19885
1289.0 0.000776 771.55902 1336.49280
1290.0 0.000775 771.55902 1337.85352
1272.0 0.000786 771.55902 1342.76892
1285.0 0.000778 771.55902 1349.86682
1350.0 0.000741 771.55902 1358.00415
1344.0 0.000744 771.55902 1365.55896
1369.0 0.000730 771.55902 1371.36646
1312.0 0.000762 771.55902 1372.82764
1422.0 0.000703 771.55902 1368.37427
1353.0 0.000739 771.55902 1357.88062
1349.0 0.000741 771.55902 1342.78149
1309.0 0.000764 771.55902 1325.95581
1311.0 0.000763 771.55902 1310.29822
1259.0 0.000794 771.55902 1297.58447
1246.0 0.000803 771.55902 1289.57239
1232.0 0.000812 771.55902 1285.42200
1251.0 0.000799 771.55902 1287.69507
1278.0 0.000782 771.55902 1294.55042
1258.0 0.000795 771.55902 1304.71973
1304.0 0.000767 771.55902 1317.51685
1308.0 0.000765 771.55902 1327.37720
1231.0 0.000812 771.55902 1334.46582
1271.0 0.000787 771.55902 1336.78357
1269.0 0.000788 771.55902 1334.79456
1330.0 0.000752 771.55902 1329.36182
1212.0 0.000825 771.55902 1321.49829
1300.0 0.000769 771.55902 1312.26904
1306.0 0.000766 771.55902 1302.25562
1257.0 0.000796 771.55902 1295.04602
1192.0 0.000839 771.55902 1291.16638
1272.0 0.000786 771.55902 1289.27319
1176.0 0.000850 771.55902 1289.53882
1257.0 0.000796 771.55902 1290.49939
1256.0 0.000796 771.55902 1291.99976
1248.0 0.000801 771.55902 1291.59766
1284.0 0.000779 771.55902 1291.99487
1288.0 0.000776 771.55902 1291.23401
1304.0 0.000767 771.55902 1290.46460
1306.0 0.000766 771.55902 1289.03271
1201.0 0.000833 771.55902 1288.25842
1258.0 0.000795 771.55902 1289.70630
1265.0 0.000791 771.55902 1294.54797
1302.0 0.000768 771.55902 1301.95129
1249.0 0.000801 771.55902 1310.62915
1312.0 0.000762 771.55902 1317.99817
1247.0 0.000802 771.55902 1321.84607
1296.0 0.000772 771.55902 1322.30444
1305.0 0.000766 771.55902 1321.19812
1304.0 0.000767 771.55902 1320.64136
1236.0 0.000809 771.55902 1321.65674
1312.0 0.000762 771.55902 1323.29675
1375.0 0.000727 771.55902 1324.78857
1345.0 0.000743 771.55902 1326.11707
1350.0 0.000741 771.55902 1328.30994
1381.0 0.000724 771.55902 1332.43323
1337.0 0.000748 771.55902 1338.98401
1363.0 0.000734 771.55902 1347.34363
1319.0 0.000758 771.55902 1355.75330
1339.0 0.000747 771.55902 1362.80945
1286.0 0.000778 771.55902 1368.02136
1364.0 0.000733 771.55902 1370.17810
1315.0 0.000760 771.55902 1369.05786
1302.0 0.000768 771.55902 1364.21680
1344.0 0.000744 771.55902 1356.03223
1396.0 0.000716 771.55902 1342.71973
1250.0 0.000800 771.55902 1328.12463
1254.0 0.000797 771.55902 1312.81409
1301.0 0.000769 771.55902 1298.49548
1298.0 0.000770 771.55902 1286.68005
1299.0 0.000770 771.55902 1277.40039
1225.0 0.000816 771.55902 1270.79199
1278.0 0.000782 771.55902 1266.39514
1259.0 0.000794 771.55902 1263.67175
1258.0 0.000795 771.55902 1262.23450
1273.0 0.000786 771.55902 1260.58557
1268.0 0.000789 771.55902 1258.08960
1309.0 0.000764 771.55902 1255.07202
1228.0 0.000814 771.55902 1249.78345
1214.0 0.000824 771.55902 1243.82117
1215.0 0.000823 771.55902 1236.48083
1153.0 0.000867 771.55902 1227.69470
1151.0 0.000869 771.55902 1217.60815
1206.0 0.000829 771.55902 1207.14514
1157.0 0.000864 771.55902 1197.17810
1190.0 0.000840 771.55902 1188.56262
1215.0 0.000823 771.55902 1182.11670
1147.0 0.000872 771.55902 1177.93494
1129.0 0.000886 771.55902 1176.57263
1258.0 0.000795 771.55902 1177.46667
1147.0 0.000872 771.55902 1180.38635
1225.0 0.000816 771.55902 1185.23584
1097.0 0.000912 771.55902 1190.98157
1204.0 0.000831 771.55902 1198.19617
1201.0 0.000833 771.55902 1204.62207
1228.0 0.000814 771.55902 1211.05481
1183.0 0.000845 771.55902 1217.49878
1262.0 0.000792 771.55902 1224.26477
1269.0 0.000788 771.55902 1231.57019
1267.0 0.000789 771.55902 1239.61890
1220.0 0.000820 771.55902 1248.58301
1231.0 0.000812 771.55902 1258.06421
1244.0 0.000804 771.55902 1267.51416
1280.0 0.000781 771.55902 1276.08374
1257.0 0.000796 771.55902 1282.81567
1260.0 0.000794 771.55902 1288.18677
1258.0 0.000795 771.55902 1292.40173
1248.0 0.000801 771.55902 1292.63721
1278.0 0.000782 771.55902 1290.01904
1280.0 0.000781 771.55902 1284.46167
1214.0 0.000824 771.55902 1277.64673
1228.0 0.000814 771.55902 1271.89697
1246.0 0.000803 771.55902 1268.67358
1249.0 0.000801 771.55902 1268.60571
1318.0 0.000759 771.55902 1272.12439
1269.0 0.000788 771.55902 1278.52014
1276.0 0.000784 771.55902 1287.15771
1289.0 0.000776 771.55902 1294.71826
1251.0 0.000799 771.55902 1300.18372
1314.0 0.000761 771.55902 1302.00513
1363.0 0.000734 771.55902 1299.54968
1340.0 0.000746 771.55902 1290.95728
1369.0 0.000730 771.55902 1277.59509
1302.0 0.000768 771.55902 1260.25403
1284.0 0.000779 771.55902 1242.70972
1278.0 0.000782 771.55902 1226.86243
1200.0 0.000833 771.55902 1213.73376
1246.0 0.000803 771.55902 1204.53186
1176.0 0.000850 771.55902 1199.28284
1224.0 0.000817 771.55902 1198.09497
1138.0 0.000879 771.55902 1199.70703
1222.0 0.000818 771.55902 1205.95581
1301.0 0.000769 771.55902 1213.92004
1236.0 0.000809 771.55902 1224.66577
1216.0 0.000822 771.55902 1234.39319
1227.0 0.000815 771.55902 1234.65125
1243.0 0.000805 771.55902 1223.22925
1171.0 0.000854 771.55902 1206.97986
1173.0 0.000853 771.55902 1194.85535
1215.0 0.000823 771.55902 1189.56299
1163.0 0.000860 771.55902 1190.66467
1222.0 0.000818 771.55902 1196.80347
1159.0 0.000863 771.55902 1208.10864
1156.0 0.000865 771.55902 1223.73511
1221.0 0.000819 771.55902 1242.11096
1195.0 0.000837 771.55902 1261.24817
1302.0 0.000768 771.55902 1277.31104
1226.0 0.000816 771.55902 1287.14099
1251.0 0.000799 771.55902 1287.02209
1241.0 0.000806 771.55902 1276.64697
1275.0 0.000784 771.55902 1261.45056
1251.0 0.000799 771.55902 1247.98499
1186.0 0.000843 771.55902 1239.36877
1184.0 0.000845 771.55902 1236.54590
1273.0 0.000786 771.55902 1239.46826
1202.0 0.000832 771.55902 1249.09143
1209.0 0.000827 771.55902 1267.65576
1200.0 0.000833 771.55902 1288.99597
1219.0 0.000820 771.55902 1287.59485
1202.0 0.000832 771.55902 1297.85364
1318.0 0.000759 771.55902 1304.74597
1252.0 0.000799 771.55902 1306.47546
1323.0 0.000756 771.55902 1304.57654
1327.0 0.000754 771.55902 1297.77136
1278.0 0.000782 771.55902 1287.71252
1203.0 0.000831 771.55902 1275.43127
1235.0 0.000810 771.55902 1261.96729
1194.0 0.000838 771.55902 1248.64783
1221.0 0.000819 771.55902 1236.92493
1231.0 0.000812 771.55902 1228.77869
1199.0 0.000834 771.55902 1226.59521
1175.0 0.000851 771.55902 1210.32690
1199.0 0.000834 771.55902 1204.29968
1198.0 0.000835 771.55902 1200.81335
1197.0 0.000835 771.55902 1199.31909
1233.0 0.000811 771.55902 1197.99438
1188.0 0.000842 771.55902 1200.17188
1150.0 0.000870 771.55902 1202.57434
1224.0 0.000817 771.55902 1205.75745
1256.0 0.000796 771.55902 1209.04150
1253.0 0.000798 771.55902 1212.57495
1220.0 0.000820 771.55902 1217.95361
1217.0 0.000822 771.55902 1220.64490
1214.0 0.000824 771.55902 1222.98022
1284.0 0.000779 771.55902 1225.02942
1188.0 0.000842 771.55902 1226.70056
1222.0 0.000818 771.55902 1229.46960
1253.0 0.000798 771.55902 1234.18164
1221.0 0.000819 771.55902 1241.52063
1306.0 0.000766 771.55902 1252.03674
1212.0 0.000825 771.55902 1264.77991
1266.0 0.000790 771.55902 1278.37183
1240.0 0.000806 771.55902 1291.60486
1273.0 0.000786 771.55902 1301.81543
1271.0 0.000787 771.55902 1310.01282
1250.0 0.000800 771.55902 1313.37048
1307.0 0.000765 771.55902 1314.21960
1334.0 0.000750 771.55902 1314.62109
1199.0 0.000834 771.55902 1316.63562
1320.0 0.000758 771.55902 1321.51782
1317.0 0.000759 771.55902 1329.34534
1349.0 0.000741 771.55902 1339.01831
1303.0 0.000767 771.55902 1347.04956
1403.0 0.000713 771.55902 1350.43518
1360.0 0.000735 771.55902 1346.53235
1352.0 0.000740 771.55902 1334.90491
1370.0 0.000730 771.55902 1317.77844
1344.0 0.000744 771.55902 1297.73596
1372.0 0.000729 771.55902 1279.02490
1271.0 0.000787 771.55902 1278.11829
1363.0 0.000734 771.55902 1332.32813
1270.0 0.000787 771.55902 1451.14807
1263.0 0.000792 771.55902 1234.27112
1271.0 0.000787 771.55902 1214.14417
1293.0 0.000773 771.55902 1211.26233
1187.0 0.000842 771.55902 1213.13452
1221.0 0.000819 771.55902 1216.16089
1276.0 0.000784 771.55902 1218.26550
1206.0 0.000829 771.55902 1218.81958
1252.0 0.000799 771.55902 1216.09570
1295.0 0.000772 771.55902 1213.38904
1242.0 0.000805 771.55902 1210.57910
1249.0 0.000801 771.55902 1210.05432
1231.0 0.000812 771.55902 1225.78381
1177.0 0.000850 771.55902 1276.60034
1168.0 0.000856 771.55902 1225.58899
1211.0 0.000826 771.55902 1188.31995
1215.0 0.000823 771.55902 1178.10669
1197.0 0.000835 771.55902 1170.93616
1128.0 0.000887 771.55902 1166.29114
1153.0 0.000867 771.55902 1161.71912
1145.0 0.000873 771.55902 1158.58875
1179.0 0.000848 771.55902 1156.85291
1106.0 0.000904 771.55902 1156.24402
1226.0 0.000816 771.55902 1156.71021
1147.0 0.000872 771.55902 1157.82141
1203.0 0.000831 771.55902 1158.94714
1191.0 0.000840 771.55902 1158.77039
1154.0 0.000867 771.55902 1159.37097
1181.0 0.000847 771.55902 1159.25244
1195.0 0.000837 771.55902 1157.91187
1291.0 0.000775 771.55902 1155.94067
1235.0 0.000810 771.55902 1154.70459
1228.0 0.000814 771.55902 1160.78662
1236.0 0.000809 771.55902 1188.16870
1216.0 0.000822 771.55902 1274.18115
1267.0 0.000789 771.55902 1172.43250
1234.0 0.000810 771.55902 1160.79602
1249.0 0.000801 771.55902 1161.52625
1202.0 0.000832 771.55902 1164.61279
1200.0 0.000833 771.55902 1168.22314
1249.0 0.000801 771.55902 1170.67163
1185.0 0.000844 771.55902 1175.93713
1234.0 0.000810 771.55902 1182.01172
1218.0 0.000821 771.55902 1188.68359
1174.0 0.000852 771.55902 1195.77832
1217.0 0.000822 771.55902 1203.36035
1319.0 0.000758 771.55902 1214.71143
1190.0 0.000840 771.55902 1238.78308
1289.0 0.000776 771.55902 1278.42578
1299.0 0.000770 771.55902 1224.60400
1234.0 0.000810 771.55902 1220.09094
1269.0 0.000788 771.55902 1216.87903
1259.0 0.000794 771.55902 1213.31543
1205.0 0.000830 771.55902 1208.02698
1202.0 0.000832 771.55902 1201.93188
1236.0 0.000809 771.55902 1195.03735
1152.0 0.000868 771.55902 1188.28967
1178.0 0.000849 771.55902 1181.77417
1222.0 0.000818 771.55902 1175.99414
1223.0 0.000818 771.55902 1171.07776
1203.0 0.000831 771.55902 1166.95117
1194.0 0.000838 771.55902 1164.27454
1166.0 0.000858 771.55902 1161.07349
1240.0 0.000806 771.55902 1157.60681
1152.0 0.000868 771.55902 1153.67749
1236.0 0.000809 771.55902 1149.44885
1193.0 0.000838 771.55902 1145.27612
1157.0 0.000864 771.55902 1141.05566
1144.0 0.000874 771.55902 1138.21057
1177.0 0.000850 771.55902 1144.60754
1091.0 0.000917 771.55902 1182.58752
1203.0 0.000831 771.55902 1296.94263
1139.0 0.000878 771.55902 1134.61169
1228.0 0.000814 771.55902 1114.62488
1175.0 0.000851 771.55902 1108.08264
1174.0 0.000852 771.55902 1105.49634
1157.0 0.000864 771.55902 1105.43030
1152.0 0.000868 771.55902 1108.23694
1165.0 0.000858 771.55902 1114.55835
1216.0 0.000822 771.55902 1125.63843
1188.0 0.000842 771.55902 1140.54663
1175.0 0.000851 771.55902 1158.13696
1243.0 0.000805 771.55902 1176.77966
1210.0 0.000826 771.55902 1196.82959
1225.0 0.000816 771.55902 1225.84033
1230.0 0.000813 771.55902 1286.38025
1183.0 0.000845 771.55902 1204.29126
1223.0 0.000818 771.55902 1188.30432
1217.0 0.000822 771.55902 1177.75256
1129.0 0.000886 771.55902 1170.61414
1247.0 0.000802 771.55902 1166.20642
1195.0 0.000837 771.55902 1165.31592
1156.0 0.000865 771.55902 1168.21509
1296.0 0.000772 771.55902 1173.02576
1247.0 0.000802 771.55902 1178.45703
1253.0 0.000798 771.55902 1184.04077
1255.0 0.000797 771.55902 1187.99756
1166.0 0.000858 771.55902 1189.52161
1193.0 0.000838 771.55902 1187.79907
1267.0 0.000789 771.55902 1183.08716
1183.0 0.000845 771.55902 1176.53845
1169.0 0.000855 771.55902 1170.00659
1211.0 0.000826 771.55902 1165.12256
1228.0 0.000814 771.55902 1161.89771
1193.0 0.000838 771.55902 1161.07739
1140.0 0.000877 771.55902 1161.84180
1174.0 0.000852 771.55902 1163.18604
1220.0 0.000820 771.55902 1164.52820
1200.0 0.000833 771.55902 1164.85107
1234.0 0.000810 771.55902 1164.23535
1248.0 0.000801 771.55902 1161.32874
1145.0 0.000873 771.55902 1156.27771
1182.0 0.000846 771.55902 1148.59363
1208.0 0.000828 771.55902 1140.04126
1092.0 0.000916 771.55902 1131.10376
1123.0 0.000890 771.55902 1123.32117
1173.0 0.000853 771.55902 1117.19434
1093.0 0.000915 771.55902 1113.01294
1145.0 0.000873 771.55902 1111.03015
1143.0 0.000875 771.55902 1111.09619
1140.0 0.000877 771.55902 1113.59277
1129.0 0.000886 771.55902 1117.39282
1199.0 0.000834 771.55902 1122.70142
1151.0 0.000869 771.55902 1128.82129
1214.0 0.000824 771.55902 1134.52271
1250.0 0.000800 771.55902 1139.55786
1163.0 0.000860 771.55902 1142.97864
1315.0 0.000760 771.55902 1145.51672
1209.0 0.000827 771.55902 1146.78210
1186.0 0.000843 771.55902 1147.33630
1185.0 0.000844 771.55902 1147.17554
1221.0 0.000819 771.55902 1146.38660
1151.0 0.000869 771.55902 1145.68530
1212.0 0.000825 771.55902 1145.93140
1140.0 0.000877 771.55902 1148.48291
1225.0 0.000816 771.55902 1153.33618
1208.0 0.000828 771.55902 1160.34509
1219.0 0.000820 771.55902 1168.90454
1212.0 0.000825 771.55902 1177.98682
1225.0 0.000816 771.55902 1186.32117
1197.0 0.000835 771.55902 1192.93237
1197.0 0.000835 771.55902 1197.29370
1175.0 0.000851 771.55902 1198.20728
1176.0 0.000850 771.55902 1195.69641
1255.0 0.000797 771.55902 1188.84851
1215.0 0.000823 771.55902 1179.48584
1162.0 0.000861 771.55902 1168.39136
1172.0 0.000853 771.55902 1157.46533
1214.0 0.000824 771.55902 1148.42334
1154.0 0.000867 771.55902 1142.09253
1177.0 0.000850 771.55902 1139.31335
1192.0 0.000839 771.55902 1140.27783
1199.0 0.000834 771.55902 1144.70447
1158.0 0.000864 771.55902 1152.01917
1177.0 0.000850 771.55902 1161.47852
1174.0 0.000852 771.55902 1171.95032
1171.0 0.000854 771.55902 1182.62805
1201.0 0.000833 771.55902 1191.88977
1137.0 0.000880 771.55902 1197.78516
1161.0 0.000861 771.55902 1199.43994
1167.0 0.000857 771.55902 1194.76514
1215.0 0.000823 771.55902 1185.77661
1175.0 0.000851 771.55902 1172.40979
1214.0 0.000824 771.55902 1156.83093
1129.0 0.000886 771.55902 1141.25757
1171.0 0.000854 771.55902 1127.22937
1154.0 0.000867 771.55902 1116.24854
1086.0 0.000921 771.55902 1108.96948
1176.0 0.000850 771.55902 1105.45154
1153.0 0.000867 771.55902 1105.36267
1206.0 0.000829 771.55902 1108.04224
1107.0 0.000903 771.55902 1112.30310
1138.0 0.000879 771.55902 1116.73975
1098.0 0.000911 771.55902 1119.88684
1113.0 0.000898 771.55902 1120.97900
1185.0 0.000844 771.55902 1118.36902
1172.0 0.000853 771.55902 1112.78430
1173.0 0.000853 771.55902 1104.44080
1122.0 0.000891 771.55902 1094.50037
1101.0 0.000908 771.55902 1084.28674
1117.0 0.000895 771.55902 1074.65405
1135.0 0.000881 771.55902 1066.49792
1087.0 0.000920 771.55902 1060.24231
1073.0 0.000932 771.55902 1056.00452
1135.0 0.000881 771.55902 1053.51721
1114.0 0.000898 771.55902 1051.98206
1043.0 0.000959 771.55902 1051.94434
1089.0 0.000918 771.55902 1052.49780
1097.0 0.000912 771.55902 1053.64319
1060.0 0.000943 771.55902 1055.52820
1082.0 0.000924 771.55902 1059.04041
1082.0 0.000924 771.55902 1063.39905
1091.0 0.000917 771.55902 1068.97278
1118.0 0.000894 771.55902 1075.48889
1091.0 0.000917 771.55902 1082.34485
1113.0 0.000898 771.55902 1088.74158
1157.0 0.000864 771.55902 1093.63782
1102.0 0.000907 771.55902 1096.99060
1133.0 0.000883 771.55902 1096.57837
1063.0 0.000941 771.55902 1094.03149
1082.0 0.000924 771.55902 1088.98413
1137.0 0.000880 771.55902 1081.96777
1113.0 0.000898 771.55902 1073.93091
1059.0 0.000944 771.55902 1065.50977
1119.0 0.000894 771.55902 1057.81641
1076.0 0.000929 771.55902 1052.13403
1085.0 0.000922 771.55902 1047.81274
1091.0 0.000917 771.55902 1045.60339
1055.0 0.000948 771.55902 1045.23389
1041.0 0.000961 771.55902 1046.66040
1077.0 0.000929 771.55902 1049.17896
1076.0 0.000929 771.55902 1051.80176
1085.0 0.000922 771.55902 1054.23633
971.0 0.001030 771.55902 1055.57520
1049.0 0.000953 771.55902 1055.80823
1068.0 0.000936 771.55902 1056.16187
1105.0 0.000905 771.55902 1057.30078
1078.0 0.000928 771.55902 1051.92383
1064.0 0.000940 771.55902 1046.43567
1023.0 0.000978 771.55902 1042.67920
1046.0 0.000956 771.55902 1040.48828
1131.0 0.000884 771.55902 1039.68787
1093.0 0.000915 771.55902 1038.78381
1043.0 0.000959 771.55902 1039.10974
1128.0 0.000887 771.55902 1041.34204
1076.0 0.000929 771.55902 1045.53906
1070.0 0.000935 771.55902 1051.98401
1153.0 0.000867 771.55902 1059.61157
1107.0 0.000903 771.55902 1067.69531
1110.0 0.000901 771.55902 1074.53137
1079.0 0.000927 771.55902 1079.39551
1133.0 0.000883 771.55902 1084.74329
1005.0 0.000995 771.55902 1096.63403
1111.0 0.000900 771.55902 1118.91174
1061.0 0.000943 771.55902 1063.57104
1053.0 0.000950 771.55902 1054.15991
1089.0 0.000918 771.55902 1049.07263
1068.0 0.000936 771.55902 1046.03870
1106.0 0.000904 771.55902 1044.42664
1050.0 0.000952 771.55902 1043.75513
1048.0 0.000954 771.55902 1044.00769
1133.0 0.000883 771.55902 1044.50879
1074.0 0.000931 771.55902 1045.35083
1103.0 0.000907 771.55902 1046.58203
1085.0 0.000922 771.55902 1047.54077
1109.0 0.000902 771.55902 1048.58398
1030.0 0.000971 771.55902 1050.56836
1161.0 0.000861 771.55902 1058.29541
1115.0 0.000897 771.55902 1078.27441
1103.0 0.000907 771.55902 1053.65588
1090.0 0.000917 771.55902 1054.35229
1129.0 0.000886 771.55902 1059.83862
1111.0 0.000900 771.55902 1067.37573
1110.0 0.000901 771.55902 1076.53796
1138.0 0.000879 771.55902 1086.28625
1147.0 0.000872 771.55902 1095.16370
1156.0 0.000865 771.55902 1102.09021
1182.0 0.000846 771.55902 1105.49329
1169.0 0.000855 771.55902 1105.95642
1143.0 0.000875 771.55902 1102.36023
1123.0 0.000890 771.55902 1095.73181
1111.0 0.000900 771.55902 1086.47144
1129.0 0.000886 771.55902 1075.18555
1128.0 0.000887 771.55902 1063.44446
1086.0 0.000921 771.55902 1052.95813
1066.0 0.000938 771.55902 1044.41345
1050.0 0.000952 771.55902 1039.61499
1069.0 0.000935 771.55902 1038.27429
1078.0 0.000928 771.55902 1040.66882
1121.0 0.000892 771.55902 1046.08350
1119.0 0.000894 771.55902 1053.69275
1137.0 0.000880 771.55902 1062.22766
1100.0 0.000909 771.55902 1070.26123
1136.0 0.000880 771.55902 1077.28284
1121.0 0.000892 771.55902 1082.44238
1159.0 0.000863 771.55902 1085.60620
1179.0 0.000848 771.55902 1088.43420
1183.0 0.000845 771.55902 1103.68298
1114.0 0.000898 771.55902 1169.10425
1144.0 0.000874 771.55902 1111.19617
1097.0 0.000912 771.55902 1075.51965
1104.0 0.000906 771.55902 1067.95715
1085.0 0.000922 771.55902 1064.47876
1113.0 0.000898 771.55902 1062.97290
1128.0 0.000887 771.55902 1063.03259
1106.0 0.000904 771.55902 1064.26208
1092.0 0.000916 771.55902 1066.37573
1093.0 0.000915 771.55902 1068.87170
1070.0 0.000935 771.55902 1071.25574
1127.0 0.000887 771.55902 1073.00684
1156.0 0.000865 771.55902 1073.43286
1161.0 0.000861 771.55902 1073.03479
1092.0 0.000916 771.55902 1073.96936
1118.0 0.000894 771.55902 1088.53772
1165.0 0.000858 771.55902 1121.13696
1097.0 0.000912 771.55902 1060.22803
1122.0 0.000891 771.55902 1049.69434
1052.0 0.000951 771.55902 1042.72412
1110.0 0.000901 771.55902 1036.72278
1133.0 0.000883 771.55902 1031.56885
1101.0 0.000908 771.55902 1027.33887
1090.0 0.000917 771.55902 1023.94989
995.0 0.001005 771.55902 1021.43140
1052.0 0.000951 771.55902 1019.59601
979.0 0.001021 771.55902 1018.16705
1060.0 0.000943 771.55902 1016.64569
1023.0 0.000978 771.55902 1015.16211
1042.0 0.000960 771.55902 1012.82166
1047.0 0.000955 771.55902 1009.78369
1011.0 0.000989 771.55902 1006.33051
1079.0 0.000927 771.55902 1001.98938
1070.0 0.000935 771.55902 997.45764
1007.0 0.000993 771.55902 992.65930
1006.0 0.000994 771.55902 988.08746
977.0 0.001024 771.55902 984.30389
1032.0 0.000969 771.55902 981.27216
967.0 0.001034 771.55902 979.29492
984.0 0.001016 771.55902 979.28571
1045.0 0.000957 771.55902 980.94489
1018.0 0.000982 771.55902 983.12122
1014.0 0.000986 771.55902 986.33105
981.0 0.001019 771.55902 990.35193
1009.0 0.000991 771.55902 994.61530
1008.0 0.000992 771.55902 998.68359
1036.0 0.000965 771.55902 1001.77100
1059.0 0.000944 771.55902 1003.45496
1043.0 0.000959 771.55902 1003.54199
1060.0 0.000943 771.55902 1002.23193
1007.0 0.000993 771.55902 999.53510
1034.0 0.000967 771.55902 996.01874
1063.0 0.000941 771.55902 992.05487
982.0 0.001018 771.55902 988.10828
1056.0 0.000947 771.55902 984.02771
1088.0 0.000919 771.55902 980.59033
1026.0 0.000975 771.55902 977.86304
1050.0 0.000952 771.55902 975.61884
1006.0 0.000994 771.55902 974.63678
1009.0 0.000991 771.55902 974.67340
980.0 0.001020 771.55902 975.30933
1025.0 0.000976 771.55902 977.60229
1037.0 0.000964 771.55902 980.60736
1025.0 0.000976 771.55902 984.14606
1125.0 0.000889 771.55902 987.93750
1100.0 0.000909 771.55902 991.88116
1082.0 0.000924 771.55902 995.87488
1028.0 0.000973 771.55902 1000.00623
1009.0 0.000991 771.55902 1003.99707
1031.0 0.000970 771.55902 1007.80188
1112.0 0.000899 771.55902 1012.10205
1075.0 0.000930 771.55902 1022.42767
1112.0 0.000899 771.55902 1053.41113
1093.0 0.000915 771.55902 1103.00122
1010.0 0.000990 771.55902 1111.66809
1039.0 0.000962 771.55902 1056.69006
1102.0 0.000907 771.55902 1008.51312
988.0 0.001012 771.55902 989.43683
1109.0 0.000902 771.55902 980.84705
1038.0 0.000963 771.55902 974.77240
1018.0 0.000982 771.55902 970.04144
940.0 0.001064 771.55902 966.62915
1010.0 0.000990 771.55902 964.97052
997.0 0.001003 771.55902 964.59595
1049.0 0.000953 771.55902 965.70099
1031.0 0.000970 771.55902 967.90851
999.0 0.001001 771.55902 971.51123
1014.0 0.000986 771.55902 979.00067
1093.0 0.000915 771.55902 996.94324
1004.0 0.000996 771.55902 1023.73389
1010.0 0.000990 771.55902 1029.50256
1059.0 0.000944 771.55902 1003.80273
1066.0 0.000938 771.55902 980.47729
1048.0 0.000954 771.55902 969.47699
1011.0 0.000989 771.55902 962.81799
995.0 0.001005 771.55902 956.43170
994.0 0.001006 771.55902 950.24774
1046.0 0.000956 771.55902 944.11407
943.0 0.001060 771.55902 939.85858
994.0 0.001006 771.55902 935.08374
1034.0 0.000967 771.55902 931.15417
945.0 0.001058 771.55902 928.05347
969.0 0.001032 771.55902 925.74176
977.0 0.001024 771.55902 924.38196
963.0 0.001038 771.55902 923.78027
959.0 0.001043 771.55902 923.70972
926.0 0.001080 771.55902 923.52454
949.0 0.001054 771.55902 922.99371
1000.0 0.001000 771.55902 921.68201
1011.0 0.000989 771.55902 919.49475
989.0 0.001011 771.55902 916.74237
993.0 0.001007 771.55902 914.03284
1013.0 0.000987 771.55902 911.27515
1010.0 0.000990 771.55902 909.02454
958.0 0.001044 771.55902 907.66058
948.0 0.001055 771.55902 906.35199
979.0 0.001021 771.55902 905.67505
961.0 0.001041 771.55902 905.55658
1012.0 0.000988 771.55902 905.75677
949.0 0.001054 771.55902 906.43561
928.0 0.001078 771.55902 907.67615
923.0 0.001083 771.55902 908.91339
948.0 0.001055 771.55902 910.33331
964.0 0.001037 771.55902 911.73718
924.0 0.001082 771.55902 912.79150
1061.0 0.000943 771.55902 913.73975
998.0 0.001002 771.55902 914.85120
983.0 0.001017 771.55902 916.07349
1012.0 0.000988 771.55902 918.45990
956.0 0.001046 771.55902 921.28894
1007.0 0.000993 771.55902 924.84888
940.0 0.001064 771.55902 929.22406
1029.0 0.000972 771.55902 933.93066
915.0 0.001093 771.55902 938.92883
989.0 0.001011 771.55902 944.53125
943.0 0.001060 771.55902 949.75452
963.0 0.001038 771.55902 954.93427
1005.0 0.000995 771.55902 959.68488
983.0 0.001017 771.55902 963.80249
997.0 0.001003 771.55902 967.10425
995.0 0.001005 771.55902 969.06439
962.0 0.001040 771.55902 969.61182
1028.0 0.000973 771.55902 968.87036
1032.0 0.000969 771.55902 966.30243
985.0 0.001015 771.55902 963.49005
959.0 0.001043 771.55902 959.85419
940.0 0.001064 771.55902 955.96216
1012.0 0.000988 771.55902 952.13300
1006.0 0.000994 771.55902 948.37433
944.0 0.001059 771.55902 944.72644
969.0 0.001032 771.55902 942.14404
959.0 0.001043 771.55902 940.33069
952.0 0.001050 771.55902 939.34528
917.0 0.001091 771.55902 939.32861
933.0 0.001072 771.55902 940.13849
939.0 0.001065 771.55902 941.87799
989.0 0.001011 771.55902 944.72583
978.0 0.001022 771.55902 946.91003
1017.0 0.000983 771.55902 948.90479
1000.0 0.001000 771.55902 950.31189
974.0 0.001027 771.55902 950.98254
1026.0 0.000975 771.55902 950.72589
999.0 0.001001 771.55902 949.69751
1009.0 0.000991 771.55902 948.11926
969.0 0.001032 771.55902 946.14569
966.0 0.001035 771.55902 944.69708
971.0 0.001030 771.55902 943.29315
928.0 0.001078 771.55902 942.64594
968.0 0.001033 771.55902 943.02893
935.0 0.001070 771.55902 944.16547
929.0 0.001076 771.55902 946.39136
910.0 0.001099 771.55902 948.97974
997.0 0.001003 771.55902 952.21844
945.0 0.001058 771.55902 955.07416
947.0 0.001056 771.55902 957.50861
989.0 0.001011 771.55902 959.01007
994.0 0.001006 771.55902 959.91492
976.0 0.001025 771.55902 961.83099
1000.0 0.001000 771.55902 968.20325
968.0 0.001033 771.55902 959.78113
1014.0 0.000986 771.55902 948.20276
956.0 0.001046 771.55902 941.98584
961.0 0.001041 771.55902 936.01868
904.0 0.001106 771.55902 930.25995
936.0 0.001068 771.55902 925.10657
934.0 0.001071 771.55902 920.87317
949.0 0.001054 771.55902 917.51184
960.0 0.001042 771.55902 915.14825
1024.0 0.000977 771.55902 913.63971
978.0 0.001022 771.55902 912.88214
911.0 0.001098 771.55902 912.78455
949.0 0.001054 771.55902 913.33148
898.0 0.001114 771.55902 914.15411
943.0 0.001060 771.55902 915.70825
984.0 0.001016 771.55902 919.07178
925.0 0.001081 771.55902 924.32831
898.0 0.001114 771.55902 920.92230
944.0 0.001059 771.55902 919.96478
891.0 0.001122 771.55902 920.68793
967.0 0.001034 771.55902 921.93958
928.0 0.001078 771.55902 923.56647
971.0 0.001030 771.55902 925.76147
947.0 0.001056 771.55902 928.65485
946.0 0.001057 771.55902 932.43695
933.0 0.001072 771.55902 937.67133
960.0 0.001042 771.55902 940.32764
879.0 0.001138 771.55902 944.28040
973.0 0.001028 771.55902 948.06128
931.0 0.001074 771.55902 951.19110
955.0 0.001047 771.55902 953.33099
913.0 0.001095 771.55902 954.24982
941.0 0.001063 771.55902 953.81067
926.0 0.001080 771.55902 952.05212
944.0 0.001059 771.55902 949.06995
934.0 0.001071 771.55902 945.21234
964.0 0.001037 771.55902 940.96472
953.0 0.001049 771.55902 937.08356
916.0 0.001092 771.55902 933.50220
911.0 0.001098 771.55902 930.07410
948.0 0.001055 771.55902 927.70947
955.0 0.001047 771.55902 926.17047
896.0 0.001116 771.55902 925.68982
876.0 0.001142 771.55902 924.28430
955.0 0.001047 771.55902 923.94922
895.0 0.001117 771.55902 924.03497
865.0 0.001156 771.55902 924.11371
933.0 0.001072 771.55902 924.15729
972.0 0.001029 771.55902 924.07123
885.0 0.001130 771.55902 923.90021
942.0 0.001062 771.55902 923.29022
968.0 0.001033 771.55902 922.28296
955.0 0.001047 771.55902 920.90179
862.0 0.001160 771.55902 919.21973
907.0 0.001103 771.55902 917.06323
898.0 0.001114 771.55902 914.06726
932.0 0.001073 771.55902 910.69312
949.0 0.001054 771.55902 906.48798
937.0 0.001067 771.55902 901.79950
945.0 0.001058 771.55902 896.51575
941.0 0.001063 771.55902 890.97839
962.0 0.001040 771.55902 885.23987
915.0 0.001093 771.55902 879.92468
946.0 0.001057 771.55902 874.95502
881.0 0.001135 771.55902 870.60699
845.0 0.001183 771.55902 867.05078
916.0 0.001092 771.55902 864.21747
855.0 0.001170 771.55902 861.63635
895.0 0.001117 771.55902 860.03168
884.0 0.001131 771.55902 858.86304
890.0 0.001124 771.55902 857.95111
894.0 0.001119 771.55902 857.05096
898.0 0.001114 771.55902 856.12726
881.0 0.001135 771.55902 854.99640
826.0 0.001211 771.55902 853.69104
855.0 0.001170 771.55902 852.29926
843.0 0.001186 771.55902 851.81226
832.0 0.001202 771.55902 856.25037
888.0 0.001126 771.55902 851.77515
867.0 0.001153 771.55902 845.39893
884.0 0.001131 771.55902 843.71735
912.0 0.001096 771.55902 842.92657
943.0 0.001060 771.55902 842.63342
804.0 0.001244 771.55902 842.48700
826.0 0.001211 771.55902 843.33441
838.0 0.001193 771.55902 844.86249
895.0 0.001117 771.55902 848.16925
925.0 0.001081 771.55902 850.13971
909.0 0.001100 771.55902 850.08575
856.0 0.001168 771.55902 851.94678
865.0 0.001156 771.55902 853.88245
813.0 0.001230 771.55902 856.03076
855.0 0.001170 771.55902 858.40515
886.0 0.001129 771.55902 860.70905
827.0 0.001209 771.55902 864.99915
811.0 0.001233 771.55902 870.47797
899.0 0.001112 771.55902 867.31512
864.0 0.001157 771.55902 869.26477
859.0 0.001164 771.55902 871.73218
802.0 0.001247 771.55902 874.03571
843.0 0.001186 771.55902 875.40082
893.0 0.001120 771.55902 876.87091
904.0 0.001106 771.55902 877.77063
882.0 0.001134 771.55902 878.42523
911.0 0.001098 771.55902 879.80536
858.0 0.001166 771.55902 877.74487
850.0 0.001176 771.55902 877.44415
909.0 0.001100 771.55902 877.51666
874.0 0.001144 771.55902 877.97028
902.0 0.001109 771.55902 878.89520
878.0 0.001139 771.55902 879.77344
828.0 0.001208 771.55902 880.54602
860.0 0.001163 771.55902 881.41693
853.0 0.001172 771.55902 881.48041
899.0 0.001112 771.55902 881.02258
823.0 0.001215 771.55902 880.19470
919.0 0.001088 771.55902 878.75183
844.0 0.001185 771.55902 875.95709
861.0 0.001161 771.55902 873.19464
904.0 0.001106 771.55902 870.10400
885.0 0.001130 771.55902 866.44843
877.0 0.001140 771.55902 862.67957
887.0 0.001127 771.55902 859.14636
890.0 0.001124 771.55902 856.13910
811.0 0.001233 771.55902 853.86273
903.0 0.001107 771.55902 852.33191
879.0 0.001138 771.55902 851.66394
844.0 0.001185 771.55902 850.97339
838.0 0.001193 771.55902 851.60687
831.0 0.001203 771.55902 852.60455
851.0 0.001175 771.55902 853.77625
894.0 0.001119 771.55902 854.72498
835.0 0.001198 771.55902 855.37494
858.0 0.001166 771.55902 856.10901
819.0 0.001221 771.55902 855.93610
871.0 0.001148 771.55902 855.45624
839.0 0.001192 771.55902 854.77539
899.0 0.001112 771.55902 854.24188
885.0 0.001130 771.55902 853.73853
881.0 0.001135 771.55902 853.43939
882.0 0.001134 771.55902 853.30951
819.0 0.001221 771.55902 853.27527
868.0 0.001152 771.55902 853.18756
861.0 0.001161 771.55902 853.10419
837.0 0.001195 771.55902 853.07147
886.0 0.001129 771.55902 853.28748
801.0 0.001248 771.55902 853.87811
860.0 0.001163 771.55902 854.90656
817.0 0.001224 771.55902 856.40533
922.0 0.001085 771.55902 858.37177
883.0 0.001133 771.55902 860.53491
827.0 0.001209 771.55902 863.05975
867.0 0.001153 771.55902 865.20917
871.0 0.001148 771.55902 867.39417
891.0 0.001122 771.55902 869.11469
892.0 0.001121 771.55902 870.08154
888.0 0.001126 771.55902 870.19641
913.0 0.001095 771.55902 869.43762
886.0 0.001129 771.55902 867.91406
818.0 0.001222 771.55902 865.70642
877.0 0.001140 771.55902 863.12671
810.0 0.001235 771.55902 860.30536
845.0 0.001183 771.55902 857.51129
856.0 0.001168 771.55902 854.79626
855.0 0.001170 771.55902 852.26044
860.0 0.001163 771.55902 849.93542
886.0 0.001129 771.55902 847.87518
859.0 0.001164 771.55902 845.96814
816.0 0.001225 771.55902 844.18933
828.0 0.001208 771.55902 842.42157
833.0 0.001200 771.55902 841.08325
845.0 0.001183 771.55902 840.00458
806.0 0.001241 771.55902 839.08649
876.0 0.001142 771.55902 838.34924
822.0 0.001217 771.55902 837.85431
843.0 0.001186 771.55902 837.24811
806.0 0.001241 771.55902 836.79822
835.0 0.001198 771.55902 836.60114
816.0 0.001225 771.55902 836.64954
813.0 0.001230 771.55902 837.07117
851.0 0.001175 771.55902 837.81964
862.0 0.001160 771.55902 838.91968
800.0 0.001250 771.55902 840.21460
859.0 0.001164 771.55902 841.73022
797.0 0.001255 771.55902 843.26990
854.0 0.001171 771.55902 844.53516
830.0 0.001205 771.55902 845.12860
793.0 0.001261 771.55902 845.10065
820.0 0.001220 771.55902 844.33606
838.0 0.001193 771.55902 842.33643
867.0 0.001153 771.55902 840.08337
825.0 0.001212 771.55902 837.32629
778.0 0.001285 771.55902 834.28668
788.0 0.001269 771.55902 831.17188
817.0 0.001224 771.55902 828.14380
793.0 0.001261 771.55902 825.45099
842.0 0.001188 771.55902 823.18744
813.0 0.001230 771.55902 821.59552
819.0 0.001221 771.55902 820.77643
799.0 0.001252 771.55902 821.71796
784.0 0.001276 771.55902 833.38287
796.0 0.001256 771.55902 884.52124
788.0 0.001269 771.55902 831.19159
784.0 0.001276 771.55902 824.08411
837.0 0.001195 771.55902 823.97754
777.0 0.001287 771.55902 824.92047
831.0 0.001203 771.55902 825.79803
752.0 0.001330 771.55902 826.31720
803.0 0.001245 771.55902 826.66956
764.0 0.001309 771.55902 826.61243
846.0 0.001182 771.55902 826.07135
800.0 0.001250 771.55902 825.23645
802.0 0.001247 771.55902 824.11432
795.0 0.001258 771.55902 822.90332
817.0 0.001224 771.55902 821.61890
794.0 0.001259 771.55902 820.31329
811.0 0.001233 771.55902 819.14093
810.0 0.001235 771.55902 818.42096
819.0 0.001221 771.55902 821.09650
830.0 0.001205 771.55902 839.39740
750.0 0.001333 771.55902 822.73230
774.0 0.001292 771.55902 814.93176
796.0 0.001256 771.55902 813.47107
743.0 0.001346 771.55902 812.91241
854.0 0.001171 771.55902 812.68286
853.0 0.001172 771.55902 812.60974
807.0 0.001239 771.55902 812.66058
818.0 0.001222 771.55902 812.69684
741.0 0.001350 771.55902 812.68073
821.0 0.001218 771.55902 812.71155
833.0 0.001200 771.55902 812.77258
802.0 0.001247 771.55902 812.88477
809.0 0.001236 771.55902 813.10095
833.0 0.001200 771.55902 813.51929
810.0 0.001235 771.55902 814.07977
788.0 0.001269 771.55902 814.92505
797.0 0.001255 771.55902 815.84882
839.0 0.001192 771.55902 817.25879
802.0 0.001247 771.55902 819.00885
789.0 0.001267 771.55902 821.06555
803.0 0.001245 771.55902 823.32428
759.0 0.001318 771.55902 825.70465
844.0 0.001185 771.55902 828.02716
839.0 0.001192 771.55902 830.08954
783.0 0.001277 771.55902 831.81744
802.0 0.001247 771.55902 833.09735
831.0 0.001203 771.55902 833.82666
874.0 0.001144 771.55902 834.38873
786.0 0.001272 771.55902 834.63892
859.0 0.001164 771.55902 834.65570
789.0 0.001267 771.55902 834.39929
870.0 0.001149 771.55902 833.94440
861.0 0.001161 771.55902 833.12268
777.0 0.001287 771.55902 832.34344
800.0 0.001250 771.55902 831.48822
815.0 0.001227 771.55902 830.58990
826.0 0.001211 771.55902 829.68579
816.0 0.001225 771.55902 828.76459
754.0 0.001326 771.55902 827.92773
774.0 0.001292 771.55902 827.17957
796.0 0.001256 771.55902 826.60205
881.0 0.001135 771.55902 826.17413
878.0 0.001139 771.55902 826.02838
796.0 0.001256 771.55902 825.83734
828.0 0.001208 771.55902 825.57294
850.0 0.001176 771.55902 825.69891
810.0 0.001235 771.55902 825.89429
774.0 0.001292 771.55902 826.13330
821.0 0.001218 771.55902 826.29553
761.0 0.001314 771.55902 826.30774
773.0 0.001294 771.55902 826.11182
832.0 0.001202 771.55902 825.46796
856.0 0.001168 771.55902 825.43811
819.0 0.001221 771.55902 824.32715
807.0 0.001239 771.55902 822.91345
785.0 0.001274 771.55902 821.27289
786.0 0.001272 771.55902 819.41846
809.0 0.001236 771.55902 817.59576
780.0 0.001282 771.55902 815.78711
811.0 0.001233 771.55902 814.01862
803.0 0.001245 771.55902 812.24939
797.0 0.001255 771.55902 810.52460
766.0 0.001305 771.55902 808.72742
767.0 0.001304 771.55902 806.79895
811.0 0.001233 771.55902 805.16339
748.0 0.001337 771.55902 803.72827
815.0 0.001227 771.55902 802.57764
811.0 0.001233 771.55902 801.84546
817.0 0.001224 771.55902 801.16370
778.0 0.001285 771.55902 800.61682
787.0 0.001271 771.55902 800.46027
745.0 0.001342 771.55902 799.98529
822.0 0.001217 771.55902 799.67230
811.0 0.001233 771.55902 799.43683
812.0 0.001232 771.55902 799.40997
807.0 0.001239 771.55902 799.91455
814.0 0.001229 771.55902 800.94946
771.0 0.001297 771.55902 802.45978
787.0 0.001271 771.55902 804.11176
754.0 0.001326 771.55902 805.34241
818.0 0.001222 771.55902 805.66895
790.0 0.001266 771.55902 804.65509
822.0 0.001217 771.55902 802.80353
789.0 0.001267 771.55902 800.45471
780.0 0.001282 771.55902 798.14545
762.0 0.001312 771.55902 796.70544
800.0 0.001250 771.55902 795.76105
799.0 0.001252 771.55902 795.07007
761.0 0.001314 771.55902 794.69763
755.0 0.001325 771.55902 794.67365
732.0 0.001366 771.55902 794.81769
748.0 0.001337 771.55902 795.33331
747.0 0.001339 771.55902 795.93964
761.0 0.001314 771.55902 796.55640
747.0 0.001339 771.55902 797.25421
798.0 0.001253 771.55902 798.00153
746.0 0.001340 771.55902 800.04407
765.0 0.001307 771.55902 807.80695
750.0 0.001333 771.55902 799.06470
768.0 0.001302 771.55902 797.25305
703.0 0.001422 771.55902 796.02875
751.0 0.001332 771.55902 794.79114
773.0 0.001294 771.55902 793.79175
731.0 0.001368 771.55902 793.03015
758.0 0.001319 771.55902 792.79376
763.0 0.001311 771.55902 792.81915
790.0 0.001266 771.55902 792.90643
734.0 0.001362 771.55902 793.19666
762.0 0.001312 771.55902 793.64264
769.0 0.001300 771.55902 794.13562
741.0 0.001350 771.55902 794.69751
796.0 0.001256 771.55902 795.42212
783.0 0.001277 771.55902 796.29474
795.0 0.001258 771.55902 797.04559
732.0 0.001366 771.55902 798.19727
767.0 0.001304 771.55902 800.14270
778.0 0.001285 771.55902 805.13574
762.0 0.001312 771.55902 802.95837
806.0 0.001241 771.55902 804.15594
780.0 0.001282 771.55902 806.16888
737.0 0.001357 771.55902 808.39514
742.0 0.001348 771.55902 810.68066
778.0 0.001285 771.55902 812.91730
735.0 0.001361 771.55902 814.79987
747.0 0.001339 771.55902 816.27765
723.0 0.001383 771.55902 817.28699
813.0 0.001230 771.55902 818.01550
749.0 0.001335 771.55902 818.37793
749.0 0.001335 771.55902 818.28473
775.0 0.001290 771.55902 817.75018
780.0 0.001282 771.55902 816.96185
756.0 0.001323 771.55902 815.94360
795.0 0.001258 771.55902 814.68970
764.0 0.001309 771.55902 813.42395
749.0 0.001335 771.55902 812.12817
773.0 0.001294 771.55902 810.80945
801.0 0.001248 771.55902 809.56531
768.0 0.001302 771.55902 808.40253
748.0 0.001337 771.55902 807.28162
785.0 0.001274 771.55902 806.26660
757.0 0.001321 771.55902 805.43536
718.0 0.001393 771.55902 804.84613
730.0 0.001370 771.55902 805.86755
766.0 0.001305 771.55902 811.26776
732.0 0.001366 771.55902 803.60223
741.0 0.001350 771.55902 802.54492
795.0 0.001258 771.55902 802.36877
752.0 0.001330 771.55902 802.45367
770.0 0.001299 771.55902 802.74243
729.0 0.001372 771.55902 803.19708
782.0 0.001279 771.55902 803.94867
717.0 0.001395 771.55902 804.69037
746.0 0.001340 771.55902 805.44684
741.0 0.001350 771.55902 806.22083
693.0 0.001443 771.55902 806.97516
757.0 0.001321 771.55902 807.67902
761.0 0.001314 771.55902 808.29236
689.0 0.001451 771.55902 808.78180
699.0 0.001431 771.55902 809.11005
778.0 0.001285 771.55902 809.14240
746.0 0.001340 771.55902 808.83112
746.0 0.001340 771.55902 808.73126
753.0 0.001328 771.55902 810.31506
811.0 0.001233 771.55902 807.09338
718.0 0.001393 771.55902 804.86053
782.0 0.001279 771.55902 803.29712
766.0 0.001305 771.55902 801.92883
756.0 0.001323 771.55902 800.60608
812.0 0.001232 771.55902 799.45148
754.0 0.001326 771.55902 798.55560
729.0 0.001372 771.55902 797.90631
755.0 0.001325 771.55902 797.46368
763.0 0.001311 771.55902 797.23828
749.0 0.001335 771.55902 797.29462
725.0 0.001379 771.55902 797.59381
759.0 0.001318 771.55902 797.97797
765.0 0.001307 771.55902 798.55170
736.0 0.001359 771.55902 799.14417
734.0 0.001362 771.55902 799.66901
768.0 0.001302 771.55902 799.94611
773.0 0.001294 771.55902 800.03284
741.0 0.001350 771.55902 799.88812
756.0 0.001323 771.55902 799.39734
728.0 0.001374 771.55902 798.66321
791.0 0.001264 771.55902 797.76044
797.0 0.001255 771.55902 796.79248
759.0 0.001318 771.55902 795.84497
812.0 0.001232 771.55902 794.94891
748.0 0.001337 771.55902 794.19073
748.0 0.001337 771.55902 793.62292
773.0 0.001294 771.55902 793.26227
787.0 0.001271 771.55902 793.12579
743.0 0.001346 771.55902 793.21161
743.0 0.001346 771.55902 793.50311
699.0 0.001431 771.55902 793.98346
745.0 0.001342 771.55902 794.60596
733.0 0.001364 771.55902 795.33673
730.0 0.001370 771.55902 796.14600
749.0 0.001335 771.55902 796.99420
754.0 0.001326 771.55902 797.83722
728.0 0.001374 771.55902 798.61633
731.0 0.001368 771.55902 799.28687
785.0 0.001274 771.55902 799.80096
685.0 0.001460 771.55902 799.99457
767.0 0.001304 771.55902 799.86957
770.0 0.001299 771.55902 799.40747
783.0 0.001277 771.55902 798.63025
764.0 . . .
loop_
_refln_index_h
_refln_index_k
_refln_index_l
_pd_refln_wavelength_id
_refln_observed_status
_refln_F_squared_meas
_refln_F_squared_calc
_refln_phase_calc
_refln_d_spacing
_gsas_i100_meas
0 0 1 1 o 562.022 564.308 0.00 9.60652 57.17
0 0 1 2 o 554.809 564.308 0.00 9.60652 27.88
1 0 0 1 o 15.955 17.526 0.00 6.31044 0.62
0 1 0 1 o 139.380 133.694 180.00 6.29001 7.33
1 0 0 2 o 18.579 17.526 0.00 6.31044 0.36
0 1 0 2 o 136.698 133.694 180.00 6.29001 3.55
1 0 -1 1 o 9.698 34.996 180.00 6.02541 0.36
1 0 -1 2 o 0.436 34.996 180.00 6.02541 0.02
0 1 -1 1 o 227.182 231.670 180.00 5.42782 8.21
0 1 -1 2 o 245.249 231.670 180.00 5.42782 4.38
0 1 1 1 o 1583.723 1541.342 0.00 5.11111 50.62
0 1 1 2 o 1577.980 1541.342 0.00 5.11111 24.90
0 0 2 1 o 1936.990 1844.524 180.00 4.80326 47.76
0 0 2 2 o 1914.516 1844.524 180.00 4.80326 23.31
1 0 1 1 o 511.426 477.816 0.00 4.74836 12.18
1 -1 0 1 o 0.531 0.516 0.00 4.80835 0.01
1 0 1 2 o 531.622 477.816 0.00 4.74836 6.25
1 -1 0 2 o 0.520 0.516 0.00 4.80835 0.00
1 -1 -1 1 o 56.366 28.463 0.00 4.57138 1.24
1 -1 -1 2 o 64.633 28.463 0.00 4.57138 0.70
1 0 -2 1 o 331.117 295.559 180.00 4.40021 6.59
1 0 -2 2 o 307.225 295.559 180.00 4.40021 3.03
1 1 0 1 o 1062.490 1093.346 180.00 4.16947 22.14
1 1 -1 1 o 4.495 4.655 0.00 4.15995 0.11
1 1 0 2 o 1068.019 1093.346 180.00 4.16947 10.99
1 1 -1 2 o 4.513 4.655 0.00 4.15995 0.06
1 -1 1 1 o 69.881 44.924 0.00 4.07152 1.22
1 -1 1 2 o 74.614 44.924 0.00 4.07152 0.64
0 1 -2 1 o 31.588 36.184 0.00 3.94415 0.57
0 1 -2 2 o 51.970 36.184 0.00 3.94415 0.46
0 1 2 1 o 479.281 401.906 180.00 3.70228 7.63
0 1 2 2 o 421.892 401.906 180.00 3.70228 3.32
1 -1 -2 1 o 146.681 142.516 0.00 3.67297 2.10
1 -1 -2 2 o 145.361 142.516 0.00 3.67297 1.03
1 1 1 1 o 383.926 371.779 0.00 3.55940 5.79
1 1 -2 1 o 6954.923 6819.697 0.00 3.54170 100.00
1 1 1 2 o 378.109 371.779 0.00 3.55940 2.81
1 1 -2 2 o 6871.578 6819.697 0.00 3.54170 48.79
1 0 2 1 o 1207.445 1350.192 0.00 3.42466 15.22
1 0 2 2 o 1258.828 1350.192 0.00 3.42466 7.83
2 0 -1 1 o 784.800 706.585 180.00 3.25342 8.22
2 0 -1 2 o 799.217 706.585 180.00 3.25342 4.13
1 0 -3 1 o 321.631 309.414 180.00 3.20381 3.45
0 0 3 1 o 354.306 342.524 0.00 3.20217 3.87
2 0 0 1 o 825.625 810.133 180.00 3.15522 8.28
1 0 -3 2 o 321.366 309.414 180.00 3.20381 1.70
0 0 3 2 o 357.084 342.524 0.00 3.20217 1.93
1 -1 2 1 o 153.325 146.685 0.00 3.17713 1.64
2 0 0 2 o 882.517 810.133 180.00 3.15522 4.36
1 -1 2 2 o 149.088 146.685 0.00 3.17713 0.79
0 2 0 1 o 63.239 60.047 0.00 3.14500 0.80
0 2 0 2 o 68.354 60.047 0.00 3.14500 0.43
0 2 -1 1 o 1208.229 1192.585 180.00 3.04854 14.35
2 -1 -1 1 o 625.578 606.273 180.00 3.04786 5.74
0 2 -1 2 o 1203.103 1192.585 180.00 3.04854 7.06
2 -1 -1 2 o 611.189 606.273 180.00 3.04786 2.77
2 0 -2 1 o 2991.956 2975.320 180.00 3.01271 26.64
2 -1 0 1 o 1378.850 1414.225 0.00 2.99540 12.45
2 0 -2 2 o 2894.096 2975.320 180.00 3.01271 12.73
2 -1 0 2 o 1249.480 1414.225 0.00 2.99540 5.58
1 -2 0 1 o 137.073 140.015 0.00 2.98883 1.47
1 -2 0 2 o 110.804 140.015 0.00 2.98883 0.59
0 1 -3 1 o 227.571 281.668 180.00 2.93239 2.14
0 2 1 1 o 176.319 219.745 180.00 2.93264 1.95
0 1 -3 2 o 231.297 281.668 180.00 2.93239 1.07
0 2 1 2 o 179.682 219.745 180.00 2.93264 0.98
1 -2 -1 1 o 358.230 446.204 0.00 2.90237 3.61
1 -2 -1 2 o 308.777 446.204 0.00 2.90237 1.54
1 1 2 1 o 12.466 14.662 180.00 2.86286 0.11
1 -1 -3 1 o 286.286 336.580 180.00 2.86218 2.48
1 1 -3 1 o 1709.380 1835.198 180.00 2.84752 15.23
1 1 2 2 o 13.680 14.662 180.00 2.86286 0.06
1 -1 -3 2 o 312.190 336.580 180.00 2.86218 1.33
1 1 -3 2 o 1601.799 1835.198 180.00 2.84752 7.05
2 0 1 1 o 213.590 232.082 180.00 2.79408 1.72
2 -1 -2 1 o 268.135 323.519 180.00 2.82259 2.08
1 -2 1 1 o 0.131 0.188 0.00 2.80777 0.00
2 0 1 2 o 235.682 232.082 180.00 2.79408 0.93
2 -1 -2 2 o 254.991 323.519 180.00 2.82259 0.97
1 -2 1 2 o 0.187 0.188 0.00 2.80777 0.00
0 1 3 1 o 145.839 141.889 180.00 2.78095 1.28
0 1 3 2 o 142.120 141.889 180.00 2.78095 0.62
2 1 -1 1 o 1279.041 1273.450 180.00 2.75394 10.55
2 1 -1 2 o 1181.746 1273.450 180.00 2.75394 4.82
0 2 -2 1 o 3173.556 3303.972 180.00 2.71391 28.67
2 -1 1 1 o 4618.150 4558.630 0.00 2.70242 34.28
2 1 0 1 o 337.776 377.168 0.00 2.67267 2.68
0 2 -2 2 o 3331.886 3303.972 180.00 2.71391 14.85
1 2 -1 1 o 513.511 518.977 0.00 2.68628 4.66
2 -1 1 2 o 4549.287 4558.630 0.00 2.70242 16.68
2 1 0 2 o 265.166 377.168 0.00 2.67267 1.05
1 2 -1 2 o 450.586 518.977 0.00 2.68628 2.02
1 2 0 1 o 233.568 274.888 180.00 2.66801 2.12
1 2 0 2 o 188.287 274.888 180.00 2.66801 0.85
2 1 -2 1 o 309.895 331.883 180.00 2.62265 2.31
1 -2 -2 1 o 0.953 1.010 0.00 2.60685 0.01
2 1 -2 2 o 320.478 331.883 180.00 2.62265 1.18
2 0 -3 1 o 1592.530 1671.574 180.00 2.60336 10.69
1 0 3 1 o 0.005 0.006 180.00 2.60071 0.00
1 -2 -2 2 o 0.860 1.010 0.00 2.60685 0.00
2 0 -3 2 o 1438.871 1671.574 180.00 2.60336 4.78
1 0 3 2 o 0.003 0.006 180.00 2.60071 0.00
0 2 2 1 o 0.032 0.226 180.00 2.55556 0.00
0 2 2 2 o 0.032 0.226 180.00 2.55556 0.00
1 2 -2 1 o 15.039 43.834 180.00 2.51302 0.12
1 -1 3 1 o 148.109 307.173 0.00 2.50405 1.00
1 2 -2 2 o 21.819 43.834 180.00 2.51302 0.09
1 -1 3 2 o 182.128 307.173 0.00 2.50405 0.60
2 -1 -3 1 o 498.861 530.182 0.00 2.46140 3.05
1 -2 2 1 o 146.449 171.475 0.00 2.47369 1.03
1 2 1 1 o 326.199 365.357 0.00 2.46887 2.48
2 -1 -3 2 o 523.742 530.182 0.00 2.46140 1.58
1 0 -4 1 o 3151.334 3307.755 180.00 2.46279 19.76
1 -2 2 2 o 164.398 171.475 0.00 2.47369 0.57
1 2 1 2 o 350.983 365.357 0.00 2.46887 1.31
2 1 1 1 o 243.401 207.587 0.00 2.42674 1.59
1 0 -4 2 o 3255.150 3307.755 180.00 2.46279 10.07
2 1 1 2 o 227.334 207.587 0.00 2.42674 0.74
0 0 4 1 o 14.613 14.107 180.00 2.40163 0.09
2 -2 -1 1 o 4486.360 4023.581 0.00 2.41562 27.75
2 0 2 1 o 225.073 179.912 180.00 2.37418 1.33
0 0 4 2 o 14.861 14.107 180.00 2.40163 0.04
2 -2 0 1 o 462.460 500.786 0.00 2.40418 2.87
2 -2 -1 2 o 4114.051 4023.581 0.00 2.41562 12.58
2 0 2 2 o 215.148 179.912 180.00 2.37418 0.63
2 -2 0 2 o 403.786 500.786 0.00 2.40418 1.24
2 1 -3 1 o 1328.829 1258.210 0.00 2.35318 7.71
2 -1 2 1 o 403.911 359.143 0.00 2.33078 2.25
0 2 -3 1 o 677.452 572.121 180.00 2.32110 4.29
2 1 -3 2 o 1285.606 1258.210 0.00 2.35318 3.68
2 -1 2 2 o 421.884 359.143 0.00 2.33078 1.16
1 1 3 1 o 1.440 1.250 0.00 2.31395 0.01
0 2 -3 2 o 642.720 572.121 180.00 2.32110 2.01
1 1 3 2 o 1.374 1.250 0.00 2.31395 0.00
1 -1 -4 1 o 746.280 628.060 0.00 2.28405 4.10
1 1 -4 1 o 1673.005 1515.321 180.00 2.30260 9.48
0 1 -4 1 o 146.540 131.117 180.00 2.29429 0.81
1 -1 -4 2 o 787.416 628.060 0.00 2.28405 2.13
1 1 -4 2 o 1751.410 1515.321 180.00 2.30260 4.90
2 -2 -2 1 o 30.949 26.111 0.00 2.28569 0.17
0 1 -4 2 o 160.658 131.117 180.00 2.29429 0.44
2 -2 -2 2 o 33.062 26.111 0.00 2.28569 0.09
1 -2 -3 1 o 4.479 4.139 0.00 2.25151 0.03
1 -2 -3 2 o 7.279 4.139 0.00 2.25151 0.02
2 -2 1 1 o 1261.752 1315.312 0.00 2.25695 6.87
1 2 -3 1 o 13.480 7.712 0.00 2.23727 0.08
2 -2 1 2 o 1504.552 1315.312 0.00 2.25695 4.03
1 2 -3 2 o 18.237 7.712 0.00 2.23727 0.05
2 0 -4 1 o 68.994 61.473 0.00 2.20011 0.33
2 0 -4 2 o 60.217 61.473 0.00 2.20011 0.14
0 1 4 1 o 1283.535 1244.591 180.00 2.19621 6.75
3 0 -1 1 o 679.962 634.559 0.00 2.17375 3.12
1 2 2 1 o 13.707 13.857 0.00 2.18578 0.07
0 1 4 2 o 1191.124 1244.591 180.00 2.19621 3.10
3 0 -1 2 o 737.503 634.559 0.00 2.17375 1.67
0 2 3 1 o 0.047 0.045 180.00 2.17373 0.00
1 2 2 2 o 14.892 13.857 0.00 2.18578 0.04
0 2 3 2 o 0.051 0.045 180.00 2.17373 0.00
3 0 -2 1 o 86.574 84.522 0.00 2.13722 0.38
3 -1 -1 1 o 25.174 23.866 0.00 2.14339 0.11
2 1 2 1 o 551.109 516.870 0.00 2.12578 2.74
1 -2 3 1 o 98.998 92.400 180.00 2.12397 0.50
3 0 -2 2 o 90.620 84.522 0.00 2.13722 0.20
2 2 -1 1 o 1566.791 1498.875 0.00 2.13307 8.44
3 -1 -1 2 o 25.187 23.866 0.00 2.14339 0.06
2 1 2 2 o 537.163 516.870 0.00 2.12578 1.32
1 -2 3 2 o 95.360 92.400 180.00 2.12397 0.24
2 2 -1 2 o 1614.177 1498.875 0.00 2.13307 4.29
3 0 0 1 o 414.139 384.566 0.00 2.10348 1.80
2 -1 -4 1 o 0.869 0.776 0.00 2.10226 0.00
3 -1 -2 1 o 325.054 280.843 180.00 2.09826 1.36
3 0 0 2 o 423.952 384.566 0.00 2.10348 0.91
2 -1 -4 2 o 0.854 0.776 0.00 2.10226 0.00
3 -1 0 1 o 462.918 448.562 180.00 2.08570 1.92
3 -1 -2 2 o 288.976 280.843 180.00 2.09826 0.60
2 2 0 1 o 415.392 404.800 0.00 2.08474 2.15
0 3 0 1 o 92.521 81.162 180.00 2.09667 0.50
3 -1 0 2 o 434.916 448.562 180.00 2.08570 0.89
2 2 0 2 o 392.443 404.800 0.00 2.08474 1.00
2 -2 -3 1 o 3304.160 3406.926 180.00 2.07115 14.79
0 3 0 2 o 82.425 81.162 180.00 2.09667 0.22
2 2 -2 1 o 2.512 2.580 0.00 2.07998 0.02
0 3 -1 1 o 856.550 880.369 0.00 2.07699 4.69
1 0 4 1 o 103.880 107.827 0.00 2.07567 0.49
2 -2 -3 2 o 3249.736 3406.926 180.00 2.07115 7.18
2 2 -2 2 o 2.446 2.580 0.00 2.07998 0.01
1 -3 0 1 o 422.014 437.870 0.00 2.07979 2.22
0 3 -1 2 o 836.650 880.369 0.00 2.07699 2.26
1 0 4 2 o 101.213 107.827 0.00 2.07567 0.24
1 -3 0 2 o 416.769 437.870 0.00 2.07979 1.08
2 1 -4 1 o 27.241 27.600 0.00 2.05211 0.11
1 -1 4 1 o 895.265 851.203 180.00 2.03460 3.90
1 -3 -1 1 o 697.370 632.534 180.00 2.04072 3.45
2 1 -4 2 o 30.580 27.600 0.00 2.05211 0.06
1 -1 4 2 o 771.135 851.203 180.00 2.03460 1.66
2 -2 2 1 o 26.852 24.618 0.00 2.03576 0.12
1 -3 -1 2 o 612.138 632.534 180.00 2.04072 1.50
1 -3 1 1 o 906.895 975.963 0.00 2.02477 4.46
2 -2 2 2 o 22.329 24.618 0.00 2.03576 0.05
3 0 -3 1 o 72.656 85.472 180.00 2.00847 0.28
2 0 3 1 o 0.712 0.829 0.00 2.00645 0.00
0 3 1 1 o 375.579 418.748 0.00 2.02105 1.95
1 -3 1 2 o 822.370 975.963 0.00 2.02477 2.00
3 0 -3 2 o 74.122 85.472 180.00 2.00847 0.14
2 0 3 2 o 0.754 0.829 0.00 2.00645 0.00
0 3 1 2 o 355.882 418.748 0.00 2.02105 0.92
2 -1 3 1 o 2443.870 2525.550 180.00 1.98852 9.94
2 -1 3 2 o 2328.435 2525.550 180.00 1.98852 4.68
3 1 -1 1 o 51.238 56.061 180.00 1.97587 0.21
0 2 -4 1 o 121.525 130.248 0.00 1.97208 0.52
1 0 -5 1 o 457.727 476.350 180.00 1.98422 1.86
0 3 -2 1 o 1276.109 1355.543 0.00 1.96947 6.11
3 -1 -3 1 o 76.270 80.197 0.00 1.96772 0.28
3 1 -1 2 o 53.406 56.061 180.00 1.97587 0.11
0 2 -4 2 o 124.211 130.248 0.00 1.97208 0.26
1 0 -5 2 o 446.878 476.350 180.00 1.98422 0.90
0 3 -2 2 o 1292.797 1355.543 0.00 1.96947 3.05
3 0 1 2 o 1757.367 1801.564 180.00 1.95345 3.27
3 -1 -3 2 o 76.813 80.197 0.00 1.96772 0.14
3 0 1 1 o 1730.950 1801.564 180.00 1.95345 6.54
2 2 1 1 o 6.340 6.628 0.00 1.95340 0.03
1 2 -4 1 o 305.939 317.041 0.00 1.95033 1.32
3 -1 1 1 o 12.661 13.168 0.00 1.94714 0.05
3 1 -2 1 o 53.511 56.207 180.00 1.95638 0.21
2 2 1 2 o 6.438 6.628 0.00 1.95340 0.02
1 2 -4 2 o 315.082 317.041 0.00 1.95033 0.67
3 -1 1 2 o 13.847 13.168 0.00 1.94714 0.03
2 2 -3 1 o 0.117 0.120 180.00 1.94559 0.00
3 1 -2 2 o 53.475 56.207 180.00 1.95638 0.11
1 -2 -4 1 o 131.789 118.299 180.00 1.92789 0.52
2 2 -3 2 o 0.126 0.120 180.00 1.94559 0.00
1 -2 -4 2 o 122.912 118.299 180.00 1.92789 0.24
3 1 0 1 o 406.337 390.721 180.00 1.91499 1.56
1 1 4 1 o 616.776 590.912 180.00 1.91324 2.46
1 3 -1 1 o 33.290 30.148 180.00 1.92478 0.16
1 -3 -2 1 o 477.737 437.271 180.00 1.92190 2.09
0 0 5 1 o 22.145 20.416 180.00 1.92130 0.08
3 1 0 2 o 423.050 390.721 180.00 1.91499 0.80
1 2 3 1 o 2657.175 2458.559 180.00 1.90267 11.20
1 1 4 2 o 637.604 590.912 180.00 1.91324 1.25
1 3 -1 2 o 31.831 30.148 180.00 1.92478 0.08
1 3 0 1 o 296.069 278.619 0.00 1.91042 1.36
1 -3 -2 2 o 469.854 437.271 180.00 1.92190 1.01
0 0 5 2 o 21.999 20.416 180.00 1.92130 0.04
3 -2 -1 1 o 258.904 238.331 180.00 1.90950 0.95
1 -3 2 1 o 1.751 1.651 0.00 1.89550 0.01
1 1 -5 1 o 321.899 296.898 0.00 1.90499 1.21
1 2 3 2 o 2495.477 2458.559 180.00 1.90267 5.20
1 3 0 2 o 298.127 278.619 0.00 1.91042 0.68
3 -2 -1 2 o 256.497 238.331 180.00 1.90950 0.47
1 -3 2 2 o 1.710 1.651 0.00 1.89550 0.00
1 1 -5 2 o 306.885 296.898 0.00 1.90499 0.57
1 -1 -5 1 o 302.395 280.199 0.00 1.87987 1.12
1 -1 -5 2 o 290.589 280.199 0.00 1.87987 0.53
2 0 -5 1 o 53.587 51.013 0.00 1.86563 0.19
1 3 -2 1 o 60.233 57.691 180.00 1.86494 0.27
0 3 2 1 o 641.209 595.617 0.00 1.87702 2.77
0 1 -5 1 o 28.580 27.299 180.00 1.87208 0.10
3 -2 -2 1 o 566.696 551.146 180.00 1.87025 1.97
2 0 -5 2 o 52.945 51.013 0.00 1.86563 0.09
1 3 -2 2 o 59.299 57.691 180.00 1.86494 0.13
0 3 2 2 o 621.774 595.617 0.00 1.87702 1.33
3 -2 0 1 o 3.339 3.096 0.00 1.87548 0.01
0 2 4 1 o 8.734 8.631 180.00 1.85114 0.03
3 1 -3 1 o 37.227 35.132 180.00 1.86316 0.13
2 -3 0 1 o 155.609 170.781 180.00 1.87279 0.62
0 1 -5 2 o 28.340 27.299 180.00 1.87208 0.05
2 -3 -1 1 o 1100.135 1124.699 180.00 1.87104 4.29
3 -2 -2 2 o 567.966 551.146 180.00 1.87025 0.97
2 1 3 1 o 741.635 773.722 0.00 1.84288 2.71
3 -2 0 2 o 3.283 3.096 0.00 1.87548 0.01
0 2 4 2 o 8.506 8.631 180.00 1.85114 0.02
3 1 -3 2 o 36.202 35.132 180.00 1.86316 0.06
2 -3 0 2 o 156.887 170.781 180.00 1.87279 0.31
2 -2 -4 1 o 105.478 106.412 180.00 1.83649 0.38
2 -3 -1 2 o 1119.744 1124.699 180.00 1.87104 2.15
2 1 3 2 o 768.196 773.722 0.00 1.84288 1.39
3 0 -4 1 o 342.376 343.531 0.00 1.83021 1.11
2 -2 -4 2 o 112.041 106.412 180.00 1.83649 0.20
1 -2 4 1 o 1280.551 1166.289 180.00 1.82093 4.58
3 0 -4 2 o 387.620 343.531 0.00 1.83021 0.62
1 3 1 1 o 1.187 1.150 180.00 1.82653 0.00
1 -2 4 2 o 1312.681 1166.289 180.00 1.82093 2.32
0 3 -3 1 o 18.264 16.269 0.00 1.80927 0.07
3 1 1 1 o 89.723 88.273 0.00 1.79344 0.30
1 3 1 2 o 1.272 1.150 180.00 1.82653 0.00
2 -2 3 1 o 468.900 431.892 0.00 1.80203 1.61
0 3 -3 2 o 17.060 16.269 0.00 1.80927 0.03
2 -1 -5 1 o 1.297 1.219 0.00 1.79851 0.01
3 1 1 2 o 77.195 88.273 0.00 1.79344 0.13
0 1 5 1 o 2099.644 1870.722 180.00 1.80476 7.25
3 -1 -4 1 o 350.944 345.194 180.00 1.79293 1.08
2 -2 3 2 o 438.604 431.892 0.00 1.80203 0.74
2 -3 -2 1 o 2.361 2.190 0.00 1.80230 0.01
2 -1 -5 2 o 1.188 1.219 0.00 1.79851 0.00
2 -3 1 1 o 4.088 3.357 180.00 1.80700 0.02
3 0 2 1 o 40.547 43.217 180.00 1.76839 0.13
0 1 5 2 o 1905.871 1870.722 180.00 1.80476 3.25
3 -1 -4 2 o 300.266 345.194 180.00 1.79293 0.46
2 -3 -2 2 o 2.233 2.190 0.00 1.80230 0.00
2 2 2 1 o 7.134 8.362 180.00 1.77970 0.03
2 1 -5 1 o 80.212 96.314 180.00 1.77889 0.27
2 -3 1 2 o 3.029 3.357 180.00 1.80700 0.01
3 0 2 2 o 41.210 43.217 180.00 1.76839 0.07
2 2 -4 1 o 1815.319 1944.793 0.00 1.77085 6.28
3 -1 2 1 o 944.905 1011.315 0.00 1.76968 2.94
3 -2 -3 1 o 221.043 237.294 180.00 1.76999 0.69
2 2 2 2 o 7.840 8.362 180.00 1.77970 0.01
2 1 -5 2 o 90.984 96.314 180.00 1.77889 0.15
3 -2 1 1 o 1.649 2.067 180.00 1.77889 0.01
2 2 -4 2 o 1842.163 1944.793 0.00 1.77085 3.14
3 -1 2 2 o 959.276 1011.315 0.00 1.76968 1.47
1 -3 -3 1 o 610.235 645.301 180.00 1.75950 2.18
3 -2 -3 2 o 224.819 237.294 180.00 1.76999 0.35
3 -2 1 2 o 1.944 2.067 180.00 1.77889 0.00
1 3 -3 1 o 899.932 902.401 180.00 1.74930 3.34
1 -3 -3 2 o 645.121 645.301 180.00 1.75950 1.14
1 3 -3 2 o 961.574 902.401 180.00 1.74930 1.76
1 -3 3 1 o 203.040 197.305 0.00 1.72927 0.70
1 0 5 1 o 640.594 598.455 0.00 1.71997 1.97
1 -3 3 2 o 216.188 197.305 0.00 1.72927 0.37
2 0 4 1 o 64.360 57.963 180.00 1.71233 0.19
3 1 -4 1 o 159.573 161.718 180.00 1.72377 0.48
3 1 -4 2 o 179.994 161.718 180.00 1.72377 0.26
1 0 5 2 o 658.503 598.455 0.00 1.71997 1.00
2 -1 4 1 o 7.916 7.195 180.00 1.70651 0.03
0 3 3 1 o 611.639 564.969 0.00 1.70370 2.10
2 0 4 2 o 62.224 57.963 180.00 1.71233 0.09
1 -1 5 1 o 350.669 326.624 180.00 1.70170 1.05
1 3 2 1 o 180.850 171.705 0.00 1.69721 0.63
2 -1 4 2 o 7.530 7.195 180.00 1.70651 0.01
1 2 -5 1 o 427.449 409.639 0.00 1.69594 1.35
0 3 3 2 o 583.224 564.969 0.00 1.70370 0.99
1 -1 5 2 o 338.531 326.624 180.00 1.70170 0.50
0 2 -5 1 o 149.338 141.827 0.00 1.68954 0.46
3 2 -1 1 o 114.756 108.325 180.00 1.68740 0.36
1 3 2 2 o 188.219 171.705 0.00 1.69721 0.33
2 -3 -3 1 o 778.836 721.968 180.00 1.68614 2.38
1 2 -5 2 o 457.564 409.639 0.00 1.69594 0.71
2 -3 2 1 o 117.872 117.835 180.00 1.69257 0.37
3 2 -2 1 o 311.614 246.154 180.00 1.68034 0.95
0 2 -5 2 o 188.724 141.827 0.00 1.68954 0.28
3 2 -1 2 o 152.573 108.325 180.00 1.68740 0.23
2 -3 -3 2 o 1061.847 721.968 180.00 1.68614 1.60
2 -3 2 2 o 143.352 117.835 180.00 1.69257 0.22
2 3 -1 1 o 216.514 120.894 180.00 1.67071 0.72
3 2 -2 2 o 462.508 246.154 180.00 1.68034 0.69
1 -2 -5 1 o 137.834 65.824 0.00 1.66089 0.40
2 3 -1 2 o 239.260 120.894 180.00 1.67071 0.39
1 2 4 1 o 8.652 4.901 180.00 1.65561 0.03
3 1 2 1 o 427.146 373.386 0.00 1.64223 1.19
1 -2 -5 2 o 98.878 65.824 0.00 1.66089 0.14
2 3 -2 1 o 1422.214 980.451 180.00 1.64967 4.60
1 0 -6 1 o 0.158 0.056 180.00 1.65570 0.00
3 -2 2 1 o 62.964 52.725 0.00 1.64534 0.17
1 2 4 2 o 6.179 4.901 180.00 1.65561 0.01
3 2 0 1 o 265.484 220.473 0.00 1.64417 0.79
3 1 2 2 o 385.029 373.386 0.00 1.64223 0.53
3 0 -5 1 o 1588.427 1416.202 0.00 1.64211 4.11
2 3 0 1 o 74.521 63.898 0.00 1.64235 0.23
2 3 -2 2 o 1101.684 980.451 180.00 1.64967 1.77
1 0 -6 2 o 0.091 0.056 180.00 1.65570 0.00
3 -2 -4 1 o 89.699 83.842 0.00 1.63480 0.23
3 -2 2 2 o 56.748 52.725 0.00 1.64534 0.07
3 2 0 2 o 233.675 220.473 0.00 1.64417 0.34
0 3 -4 1 o 6.584 6.273 0.00 1.63336 0.02
3 0 -5 2 o 1443.072 1416.202 0.00 1.64211 1.85
2 3 0 2 o 65.988 63.898 0.00 1.64235 0.10
4 -1 -1 1 o 839.037 870.171 180.00 1.62668 2.09
4 0 -2 1 o 325.398 338.945 0.00 1.62671 0.82
3 -2 -4 2 o 80.836 83.842 0.00 1.63480 0.10
4 0 -1 1 o 35.809 37.345 0.00 1.62433 0.09
0 3 -4 2 o 6.057 6.273 0.00 1.63336 0.01
4 -1 -2 1 o 390.012 406.516 180.00 1.62441 0.97
3 -1 -5 1 o 1043.303 1078.411 180.00 1.61048 2.59
2 -2 -5 1 o 0.015 0.016 0.00 1.61891 0.00
1 1 5 1 o 386.207 407.378 180.00 1.61948 1.08
4 -1 -1 2 o 813.456 870.171 180.00 1.62668 1.00
4 0 -2 2 o 315.365 338.945 0.00 1.62671 0.39
3 2 -3 1 o 1599.830 1676.788 180.00 1.62479 4.53
4 0 -1 2 o 34.973 37.345 0.00 1.62433 0.04
2 1 4 1 o 523.165 501.275 0.00 1.60277 1.42
4 -1 -2 2 o 381.613 406.516 180.00 1.62441 0.47
1 1 -6 1 o 20.593 21.756 180.00 1.61336 0.06
3 -1 -5 2 o 1176.607 1078.411 180.00 1.61048 1.44
2 -2 -5 2 o 0.016 0.016 0.00 1.61891 0.00
1 1 5 2 o 393.236 407.378 180.00 1.61948 0.54
1 3 -4 1 o 716.070 711.951 180.00 1.60595 2.17
3 2 -3 2 o 1566.139 1676.788 180.00 1.62479 2.19
2 1 4 2 o 609.821 501.275 0.00 1.60277 0.81
1 1 -6 2 o 22.518 21.756 180.00 1.61336 0.03
2 0 -6 1 o 889.426 838.703 0.00 1.60191 2.26
3 -3 -1 1 o 36.666 40.234 180.00 1.61924 0.10
2 2 3 1 o 308.436 275.460 0.00 1.59913 0.87
3 -1 3 1 o 1.179 0.889 0.00 1.58804 0.00
1 3 -4 2 o 832.039 711.951 180.00 1.60595 1.24
3 0 3 1 o 30.549 25.407 0.00 1.58279 0.07
0 2 5 1 o 3.914 3.295 180.00 1.59377 0.01
0 0 6 1 o 109.439 101.273 180.00 1.60109 0.29
2 0 -6 2 o 1031.773 838.703 0.00 1.60191 1.29
3 -3 -1 2 o 38.177 40.234 180.00 1.61924 0.05
2 2 -5 1 o 119.167 95.832 180.00 1.59058 0.32
2 2 3 2 o 345.085 275.460 0.00 1.59913 0.48
2 -2 4 1 o 272.485 217.124 0.00 1.58857 0.71
3 -1 3 2 o 1.106 0.889 0.00 1.58804 0.00
1 -1 -6 1 o 0.086 0.058 0.00 1.58924 0.00
4 0 0 1 o 80.119 67.217 0.00 1.57761 0.19
1 -3 -4 1 o 44.907 35.532 180.00 1.58717 0.13
3 -3 0 1 o 0.335 0.356 180.00 1.60278 0.00
4 0 -3 1 o 1007.800 820.204 0.00 1.58418 2.35
4 -1 0 1 o 300.570 244.893 180.00 1.58406 0.71
2 3 -3 1 o 31.650 25.863 0.00 1.58447 0.09
3 0 3 2 o 28.649 25.407 0.00 1.58279 0.03
0 2 5 2 o 3.970 3.295 180.00 1.59377 0.00
0 0 6 2 o 126.223 101.273 180.00 1.60109 0.16
3 -3 -2 1 o 41.401 32.581 180.00 1.59071 0.11
2 2 -5 2 o 115.012 95.832 180.00 1.59058 0.15
2 -2 4 2 o 259.436 217.124 0.00 1.58857 0.34
1 -1 -6 2 o 0.080 0.058 0.00 1.58924 0.00
4 0 0 2 o 72.045 67.217 0.00 1.57761 0.09
4 -1 -3 1 o 125.094 104.697 180.00 1.57777 0.29
1 -3 -4 2 o 42.314 35.532 180.00 1.58717 0.06
3 -3 0 2 o 0.432 0.356 180.00 1.60278 0.00
1 -2 5 1 o 2392.906 2069.314 180.00 1.57489 6.23
4 0 -3 2 o 948.648 820.204 0.00 1.58418 1.09
4 -1 0 2 o 282.459 244.893 180.00 1.58406 0.33
2 3 -3 2 o 29.792 25.863 0.00 1.58447 0.04
0 4 0 1 o 148.367 131.666 0.00 1.57250 0.45
3 -3 -2 2 o 39.246 32.581 180.00 1.59071 0.05
3 2 1 1 o 513.560 504.775 0.00 1.56116 1.36
2 3 1 1 o 779.209 697.733 180.00 1.57157 2.31
1 -4 0 1 o 145.051 121.140 0.00 1.57921 0.42
4 -1 -3 2 o 112.549 104.697 180.00 1.57777 0.13
0 4 -1 1 o 23.605 21.854 0.00 1.56831 0.07
3 1 -5 1 o 38.480 36.203 0.00 1.56809 0.09
0 1 -6 1 o 423.329 359.071 0.00 1.57650 1.09
1 -2 5 2 o 2165.669 2069.314 180.00 1.57489 2.79
0 4 0 2 o 135.370 131.666 0.00 1.57250 0.20
2 3 1 2 o 713.850 697.733 180.00 1.57157 1.05
3 2 1 2 o 499.734 504.775 0.00 1.56116 0.65
1 -4 0 2 o 131.625 121.140 0.00 1.57921 0.19
0 4 -1 2 o 22.019 21.854 0.00 1.56831 0.03
1 -3 4 1 o 56.449 56.361 180.00 1.55765 0.15
3 1 -5 2 o 36.056 36.203 0.00 1.56809 0.04
0 1 -6 2 o 380.534 359.071 0.00 1.57650 0.49
2 -3 3 1 o 612.680 620.170 180.00 1.55503 1.59
2 -1 -6 1 o 47.938 48.428 0.00 1.55472 0.12
1 -4 1 1 o 57.847 57.744 180.00 1.55881 0.17
2 1 -6 1 o 358.915 363.798 180.00 1.55000 0.87
1 3 3 1 o 569.925 576.845 0.00 1.54997 1.62
1 -4 -1 1 o 129.638 130.040 180.00 1.55779 0.37
1 -3 4 2 o 55.769 56.361 180.00 1.55765 0.07
2 -3 -4 1 o 456.309 461.937 180.00 1.54805 1.16
2 -3 3 2 o 609.929 620.170 180.00 1.55503 0.78
2 -1 -6 2 o 47.939 48.428 0.00 1.55472 0.06
1 -4 1 2 o 56.880 57.744 180.00 1.55881 0.08
2 1 -6 2 o 378.416 363.798 180.00 1.55000 0.45
1 3 3 2 o 592.799 576.845 0.00 1.54997 0.83
1 -4 -1 2 o 128.310 130.040 180.00 1.55779 0.18
2 -3 -4 2 o 475.529 461.937 180.00 1.54805 0.60
4 1 -1 1 o 552.058 550.829 180.00 1.52382 1.26
0 3 4 1 o 109.330 116.019 0.00 1.53056 0.29
4 1 -2 1 o 0.504 0.552 0.00 1.52965 0.00
4 -2 -1 1 o 392.744 419.898 180.00 1.52967 0.87
3 -3 1 1 o 220.250 251.514 0.00 1.54522 0.53
0 4 1 1 o 57.512 58.007 180.00 1.53589 0.17
3 2 -4 1 o 244.733 262.375 180.00 1.53375 0.61
0 4 -2 1 o 58.462 57.460 0.00 1.52427 0.17
4 1 -1 2 o 725.929 550.829 180.00 1.52382 0.81
4 -2 -2 1 o 26.660 26.567 180.00 1.52393 0.06
3 -3 -3 1 o 215.314 214.588 0.00 1.52379 0.52
0 3 4 2 o 126.948 116.019 0.00 1.53056 0.17
4 1 -2 2 o 0.642 0.552 0.00 1.52965 0.00
4 -2 -1 2 o 473.272 419.898 180.00 1.52967 0.52
3 -3 1 2 o 222.883 251.514 0.00 1.54522 0.27
0 1 6 1 o 119.451 126.459 0.00 1.52786 0.29
0 4 1 2 o 56.921 58.007 180.00 1.53589 0.08
4 -1 1 1 o 14.106 10.760 0.00 1.50617 0.03
3 2 -4 2 o 257.267 262.375 180.00 1.53375 0.32
0 4 -2 2 o 74.303 57.460 0.00 1.52427 0.10
4 -2 -2 2 o 34.984 26.567 180.00 1.52393 0.04
3 -3 -3 2 o 284.526 214.588 0.00 1.52379 0.33
0 1 6 2 o 152.013 126.459 0.00 1.52786 0.18
4 0 1 1 o 173.153 140.264 0.00 1.49697 0.38
4 -1 1 2 o 13.340 10.760 0.00 1.50617 0.01
4 0 -4 1 o 26.761 20.385 180.00 1.50635 0.06
1 -4 2 1 o 0.564 0.464 0.00 1.50112 0.00
3 -2 3 1 o 946.769 765.928 0.00 1.50000 2.12
3 -2 -5 1 o 336.816 307.708 180.00 1.48935 0.72
4 1 -3 1 o 64.531 51.510 0.00 1.49775 0.14
4 -2 0 1 o 1067.897 858.759 180.00 1.49770 2.27
4 -1 -4 1 o 324.960 264.523 0.00 1.49719 0.66
4 0 1 2 o 149.185 140.264 0.00 1.49697 0.16
4 0 -4 2 o 25.389 20.385 180.00 1.50635 0.03
3 1 3 1 o 282.020 269.233 0.00 1.48683 0.63
1 -4 2 2 o 0.530 0.464 0.00 1.50112 0.00
2 0 5 1 o 88.407 90.284 180.00 1.48187 0.20
3 -2 3 2 o 862.200 765.928 0.00 1.50000 0.96
1 -4 -2 1 o 39.006 31.466 180.00 1.49930 0.10
4 1 0 1 o 2.575 2.637 0.00 1.48151 0.00
2 3 -4 1 o 352.366 322.413 180.00 1.48929 0.88
3 -2 -5 2 o 293.668 307.708 180.00 1.48935 0.31
4 1 -3 2 o 54.394 51.510 0.00 1.49775 0.06
4 -2 0 2 o 917.186 858.759 180.00 1.49770 0.97
1 4 -1 1 o 15.502 14.536 180.00 1.48771 0.04
4 -1 -4 2 o 281.692 264.523 0.00 1.49719 0.28
3 1 3 2 o 247.079 269.233 0.00 1.48683 0.27
1 2 -6 1 o 637.237 632.979 0.00 1.48391 1.50
2 0 5 2 o 82.325 90.284 180.00 1.48187 0.09
2 -1 5 1 o 3.160 3.254 180.00 1.48160 0.01
1 -4 -2 2 o 34.800 31.466 180.00 1.49930 0.05
4 -2 -3 1 o 24.657 25.322 180.00 1.48169 0.05
4 1 0 2 o 2.434 2.637 0.00 1.48151 0.00
2 3 -4 2 o 306.280 322.413 180.00 1.48929 0.38
2 -4 0 1 o 183.990 149.416 180.00 1.49442 0.46
1 4 -1 2 o 13.626 14.536 180.00 1.48771 0.02
1 4 0 1 o 174.121 188.035 0.00 1.47754 0.48
1 2 -6 2 o 572.901 632.979 0.00 1.48391 0.67
2 -4 -1 1 o 370.961 344.638 0.00 1.48993 0.93
0 3 -5 1 o 8.555 9.083 180.00 1.46513 0.02
2 3 2 1 o 199.308 217.969 180.00 1.47329 0.51
2 -1 5 2 o 2.964 3.254 180.00 1.48160 0.00
4 -2 -3 2 o 23.152 25.322 180.00 1.48169 0.02
2 -4 0 2 o 150.598 149.416 180.00 1.49442 0.19
1 4 0 2 o 179.218 188.035 0.00 1.47754 0.24
3 0 -6 1 o 162.807 165.313 0.00 1.46674 0.34
0 2 -6 1 o 612.526 639.652 180.00 1.46619 1.38
2 -4 -1 2 o 322.944 344.638 0.00 1.48993 0.40
0 4 2 1 o 67.041 69.928 180.00 1.46632 0.17
0 3 -5 2 o 7.709 9.083 180.00 1.46513 0.01
1 0 6 1 o 199.116 206.806 0.00 1.46548 0.44
2 3 2 2 o 202.672 217.969 180.00 1.47329 0.26
3 2 2 1 o 128.903 150.265 0.00 1.45500 0.30
1 4 -2 1 o 406.208 446.766 180.00 1.46294 1.06
1 3 -5 1 o 16.522 19.390 180.00 1.45811 0.04
1 -1 6 1 o 4.354 5.149 0.00 1.45747 0.01
3 0 -6 2 o 138.814 165.313 0.00 1.46674 0.14
0 2 -6 2 o 546.746 639.652 180.00 1.46619 0.61
0 4 2 2 o 59.610 69.928 180.00 1.46632 0.08
1 0 6 2 o 175.102 206.806 0.00 1.46548 0.19
3 2 2 2 o 134.220 150.265 0.00 1.45500 0.15
1 4 -2 2 o 388.233 446.766 180.00 1.46294 0.50
3 -3 2 1 o 29.021 35.103 0.00 1.45861 0.06
1 2 5 1 o 49.066 55.414 0.00 1.45082 0.11
0 4 -3 1 o 181.829 205.263 0.00 1.44957 0.46
2 -4 1 1 o 434.839 482.531 180.00 1.46373 1.04
3 -1 -6 1 o 13.940 14.170 0.00 1.44081 0.03
1 3 -5 2 o 17.155 19.390 180.00 1.45811 0.02
1 -1 6 2 o 4.552 5.149 0.00 1.45747 0.01
1 -2 -6 1 o 132.918 150.419 0.00 1.44694 0.29
2 -4 -2 1 o 58.425 66.198 0.00 1.45118 0.14
3 -3 2 2 o 31.319 35.103 0.00 1.45861 0.03
1 2 5 2 o 53.176 55.414 0.00 1.45082 0.06
0 4 -3 2 o 202.210 205.263 0.00 1.44957 0.25
2 -4 1 2 o 412.764 482.531 180.00 1.46373 0.49
3 -1 -6 2 o 14.976 14.170 0.00 1.44081 0.01
2 2 4 1 o 6.350 6.016 0.00 1.43143 0.01
2 -2 -6 1 o 152.560 145.342 0.00 1.43109 0.31
1 -2 -6 2 o 156.678 150.419 0.00 1.44694 0.17
4 -2 1 1 o 94.290 86.515 180.00 1.43455 0.19
4 1 -4 1 o 107.186 96.619 0.00 1.43467 0.21
2 -4 -2 2 o 62.718 66.198 0.00 1.45118 0.07
1 4 1 1 o 827.104 784.064 0.00 1.43448 2.08
3 -3 -4 1 o 123.740 116.066 0.00 1.43176 0.26
2 2 4 2 o 5.601 6.016 0.00 1.43143 0.01
2 -2 -6 2 o 134.086 145.342 0.00 1.43109 0.14
3 -1 4 1 o 7.129 7.852 180.00 1.42073 0.01
4 -2 1 2 o 81.686 86.515 180.00 1.43455 0.08
4 1 -4 2 o 90.525 96.619 0.00 1.43467 0.09
1 4 1 2 o 750.906 784.064 0.00 1.43448 0.94
1 -3 -5 1 o 240.410 255.045 180.00 1.42481 0.54
2 2 -6 1 o 130.178 138.868 180.00 1.42376 0.27
3 2 -5 1 o 249.570 265.735 0.00 1.42411 0.52
3 -3 -4 2 o 107.632 116.066 0.00 1.43176 0.11
3 0 4 1 o 503.704 552.586 180.00 1.41389 1.00
3 -1 4 2 o 7.386 7.852 180.00 1.42073 0.01
4 -2 -4 1 o 41.110 43.322 180.00 1.41129 0.08
4 1 1 1 o 3.321 3.470 0.00 1.41107 0.01
3 3 -1 1 o 30.689 34.347 180.00 1.41873 0.07
1 -4 3 1 o 0.979 1.132 180.00 1.41749 0.00
1 0 -7 1 o 96.336 109.740 180.00 1.41812 0.20
3 3 -2 1 o 168.093 190.046 0.00 1.41760 0.39
3 1 -6 1 o 606.621 697.098 0.00 1.41634 1.19
2 -3 -5 1 o 196.461 197.476 0.00 1.40789 0.40
1 -3 -5 2 o 225.087 255.045 180.00 1.42481 0.25
4 -1 2 1 o 0.133 0.133 0.00 1.40752 0.00
1 -4 -3 1 o 571.822 638.202 0.00 1.41519 1.29
2 2 -6 2 o 124.493 138.868 180.00 1.42376 0.13
2 -3 4 1 o 73.261 81.380 180.00 1.41464 0.15
3 2 -5 2 o 234.236 265.735 0.00 1.42411 0.24
2 1 5 1 o 37.787 36.977 180.00 1.40612 0.08
3 0 4 2 o 572.436 552.586 180.00 1.41389 0.56
4 -2 -4 2 o 46.487 43.322 180.00 1.41129 0.04
4 1 1 2 o 3.710 3.470 0.00 1.41107 0.00
3 3 -1 2 o 33.140 34.347 180.00 1.41873 0.04
1 -4 3 2 o 1.107 1.132 180.00 1.41749 0.00
1 0 -7 2 o 106.610 109.740 180.00 1.41812 0.11
3 3 -2 2 o 186.130 190.046 0.00 1.41760 0.21
1 4 -3 1 o 46.255 46.701 0.00 1.40810 0.11
4 0 -5 1 o 88.273 88.682 0.00 1.40774 0.16
3 1 -6 2 o 695.523 697.098 0.00 1.41634 0.67
2 -3 -5 2 o 222.338 197.476 0.00 1.40789 0.22
4 -1 2 2 o 0.159 0.133 0.00 1.40752 0.00
1 -3 5 1 o 50.335 44.639 0.00 1.39812 0.10
1 -4 -3 2 o 647.223 638.202 0.00 1.41519 0.72
2 -3 4 2 o 83.239 81.380 180.00 1.41464 0.09
2 -2 5 1 o 335.001 325.855 180.00 1.40544 0.66
2 1 5 2 o 42.554 36.977 180.00 1.40612 0.04
4 -1 -5 1 o 109.491 95.874 0.00 1.39729 0.19
2 -2 5 2 o 369.993 325.855 180.00 1.40544 0.36
4 0 2 1 o 382.912 334.280 0.00 1.39704 0.72
1 3 4 1 o 50.936 48.745 0.00 1.40440 0.12
1 4 -3 2 o 51.964 46.701 0.00 1.40810 0.06
4 0 -5 2 o 100.860 88.682 0.00 1.40774 0.09
1 1 6 1 o 265.176 231.640 180.00 1.39884 0.54
1 -3 5 2 o 43.373 44.639 0.00 1.39812 0.04
2 -4 2 1 o 6.953 6.531 180.00 1.40388 0.02
4 -1 -5 2 o 90.389 95.874 0.00 1.39729 0.08
4 0 2 2 o 311.743 334.280 0.00 1.39704 0.29
1 3 4 2 o 56.007 48.745 0.00 1.40440 0.06
2 0 -7 1 o 9.084 7.835 0.00 1.39515 0.02
1 1 -7 1 o 25.555 22.687 180.00 1.39417 0.05
0 2 6 1 o 5.043 4.966 180.00 1.39048 0.01
1 1 6 2 o 232.777 231.640 180.00 1.39884 0.24
3 3 0 1 o 416.640 423.079 180.00 1.38982 0.91
2 -4 2 2 o 7.825 6.531 180.00 1.40388 0.01
3 3 -3 1 o 205.925 237.147 0.00 1.38665 0.45
2 0 -7 2 o 6.716 7.835 0.00 1.39515 0.01
1 1 -7 2 o 19.016 22.687 180.00 1.39417 0.02
2 -4 -3 1 o 19.378 23.335 0.00 1.38556 0.04
0 2 6 2 o 3.783 4.966 180.00 1.39048 0.00
3 3 0 2 o 316.773 423.079 180.00 1.38982 0.34
2 3 -5 1 o 254.066 347.938 180.00 1.38004 0.53
1 -2 6 1 o 10.821 15.777 180.00 1.37824 0.02
3 3 -3 2 o 164.288 237.147 0.00 1.38665 0.18
4 2 -1 1 o 196.347 270.080 180.00 1.36992 0.39
2 -4 -3 2 o 15.910 23.335 0.00 1.38556 0.02
4 2 -2 1 o 419.604 619.764 180.00 1.37697 0.83
0 4 3 1 o 301.673 432.779 180.00 1.37627 0.68
1 -1 -7 1 o 341.819 483.141 0.00 1.37287 0.65
0 3 5 1 o 3.984 5.649 180.00 1.37244 0.01
2 3 -5 2 o 252.193 347.938 180.00 1.38004 0.26
2 3 3 1 o 142.201 177.877 180.00 1.36310 0.30
1 -2 6 2 o 11.214 15.777 180.00 1.37824 0.01
4 2 -1 2 o 221.815 270.080 180.00 1.36992 0.21
2 -1 -7 1 o 330.623 398.045 0.00 1.36090 0.60
4 2 -2 2 o 451.552 619.764 180.00 1.37697 0.44
0 4 3 2 o 321.603 432.779 180.00 1.37627 0.36
3 -2 4 1 o 294.585 348.985 0.00 1.35935 0.55
1 4 2 1 o 60.682 79.804 0.00 1.36646 0.14
0 0 7 1 o 57.031 79.739 0.00 1.37236 0.11
0 4 -4 1 o 5.185 6.107 0.00 1.35695 0.01
1 -1 -7 2 o 377.204 483.141 0.00 1.37287 0.35
4 -3 -1 1 o 102.735 159.519 0.00 1.37702 0.20
0 3 5 2 o 4.415 5.649 180.00 1.37244 0.00
2 1 -7 1 o 34.874 43.825 0.00 1.36320 0.06
4 -3 -2 1 o 162.118 223.704 180.00 1.37003 0.29
2 3 3 2 o 152.855 177.877 180.00 1.36310 0.16
2 -1 -7 2 o 346.007 398.045 0.00 1.36090 0.31
0 1 -7 1 o 218.468 259.712 0.00 1.35949 0.41
4 -2 2 1 o 112.870 129.131 0.00 1.35121 0.20
3 -2 4 2 o 303.406 348.985 0.00 1.35935 0.28
1 4 2 2 o 67.716 79.804 0.00 1.36646 0.08
3 -3 3 1 o 92.182 107.216 180.00 1.35717 0.17
0 0 7 2 o 63.212 79.739 0.00 1.37236 0.06
3 -2 -6 1 o 7.745 8.926 180.00 1.34945 0.01
0 4 -4 2 o 5.296 6.107 0.00 1.35695 0.01
4 2 -3 1 o 144.641 168.193 180.00 1.35626 0.27
4 -3 -1 2 o 114.379 159.519 0.00 1.37702 0.11
2 1 -7 2 o 37.692 43.825 0.00 1.36320 0.03
4 -3 -2 2 o 184.596 223.704 180.00 1.37003 0.16
2 4 -1 1 o 22.426 25.804 180.00 1.35173 0.05
4 1 -5 1 o 30.892 34.810 180.00 1.35137 0.05
0 1 -7 2 o 226.149 259.712 0.00 1.35949 0.21
4 -2 2 2 o 121.819 129.131 0.00 1.35121 0.10
3 1 4 1 o 151.630 157.298 180.00 1.34160 0.27
3 -3 3 2 o 92.374 107.216 180.00 1.35717 0.09
3 -2 -6 2 o 8.624 8.926 180.00 1.34945 0.01
3 2 3 1 o 0.958 0.993 0.00 1.34100 0.00
4 2 -3 2 o 144.049 168.193 180.00 1.35626 0.13
3 -4 -1 1 o 133.930 159.520 180.00 1.36198 0.26
4 -3 0 1 o 1547.824 1799.471 0.00 1.35625 2.76
4 2 0 1 o 20.017 21.144 180.00 1.33634 0.04
2 4 -1 2 o 23.940 25.804 180.00 1.35173 0.03
3 3 1 1 o 213.159 228.961 0.00 1.33600 0.42
2 4 -2 1 o 4.403 4.747 180.00 1.34314 0.01
4 1 -5 2 o 32.919 34.810 180.00 1.35137 0.03
3 1 4 2 o 135.337 157.298 180.00 1.34160 0.12
1 4 -4 1 o 0.931 1.097 0.00 1.33259 0.00
3 2 3 2 o 0.808 0.993 0.00 1.34100 0.00
4 1 2 1 o 633.671 818.600 180.00 1.32393 1.11
3 -4 0 1 o 9.144 11.749 0.00 1.35483 0.02
3 -4 -1 2 o 125.922 159.520 180.00 1.36198 0.12
4 -3 -3 1 o 85.118 88.667 180.00 1.33650 0.14
3 -3 -5 1 o 447.219 547.494 0.00 1.32846 0.79
4 -3 0 2 o 1515.822 1799.471 0.00 1.35625 1.33
4 2 0 2 o 17.113 21.144 180.00 1.33634 0.02
3 3 1 2 o 185.369 228.961 0.00 1.33600 0.18
2 4 -2 2 o 4.247 4.747 180.00 1.34314 0.00
2 4 0 1 o 52.481 59.329 0.00 1.33400 0.11
1 4 -4 2 o 0.844 1.097 0.00 1.33259 0.00
4 -2 -5 1 o 382.557 493.000 0.00 1.32417 0.63
3 3 -4 1 o 28.416 33.608 180.00 1.33131 0.05
4 1 2 2 o 646.998 818.600 180.00 1.32393 0.56
3 -4 -2 1 o 0.708 0.724 180.00 1.34224 0.00
3 -4 0 2 o 8.581 11.749 0.00 1.35483 0.01
1 -4 4 1 o 11.287 14.127 0.00 1.32074 0.02
4 -3 -3 2 o 72.502 88.667 180.00 1.33650 0.06
3 -3 -5 2 o 437.313 547.494 0.00 1.32846 0.38
1 3 -6 1 o 66.041 82.026 0.00 1.31918 0.12
2 4 0 2 o 47.092 59.329 0.00 1.33400 0.05
2 -4 3 1 o 258.647 337.631 0.00 1.32488 0.49
3 3 -4 2 o 26.317 33.608 180.00 1.33131 0.02
4 -2 -5 2 o 389.539 493.000 0.00 1.32417 0.32
0 1 7 1 o 142.250 185.643 0.00 1.32289 0.25
0 3 -6 1 o 11.717 15.333 180.00 1.31472 0.02
3 -4 -2 2 o 0.613 0.724 180.00 1.34224 0.00
1 -4 4 2 o 10.337 14.127 0.00 1.32074 0.01
3 0 -7 1 o 33.136 46.673 0.00 1.31251 0.06
5 -1 -2 1 o 67.827 96.000 180.00 1.31189 0.11
1 3 -6 2 o 57.804 82.026 0.00 1.31918 0.05
1 -4 -4 1 o 481.334 591.599 180.00 1.31827 0.93
2 -4 3 2 o 276.963 337.631 0.00 1.32488 0.26
0 1 7 2 o 143.004 185.643 0.00 1.32289 0.13
0 3 -6 2 o 10.431 15.333 180.00 1.31472 0.01
5 0 -2 1 o 179.918 263.560 180.00 1.30510 0.29
3 0 -7 2 o 32.563 46.673 0.00 1.31251 0.03
4 2 -4 1 o 163.659 238.598 180.00 1.31133 0.29
1 2 -7 1 o 201.230 293.368 0.00 1.31051 0.36
5 -1 -2 2 o 69.998 96.000 180.00 1.31189 0.05
5 -1 -1 1 o 33.078 45.547 180.00 1.30368 0.05
1 -4 -4 2 o 401.791 591.599 180.00 1.31827 0.39
3 2 -6 1 o 160.539 242.766 180.00 1.30999 0.29
2 -1 6 1 o 656.011 850.944 180.00 1.30257 1.11
2 4 -3 1 o 534.984 780.157 180.00 1.30967 1.10
4 0 -6 1 o 3.360 4.175 180.00 1.30168 0.01
4 -1 3 1 o 209.568 261.548 0.00 1.30146 0.34
2 0 6 1 o 135.486 163.337 180.00 1.30036 0.23
3 -4 1 1 o 222.071 316.204 0.00 1.32202 0.42
4 0 3 1 o 81.763 92.303 0.00 1.29082 0.13
4 -3 1 1 o 228.379 339.193 0.00 1.31126 0.39
5 0 -2 2 o 226.006 263.560 180.00 1.30510 0.18
2 -4 -4 1 o 6.816 9.339 0.00 1.30342 0.01
4 2 -4 2 o 179.248 238.598 180.00 1.31133 0.15
5 -1 -3 1 o 112.752 130.672 0.00 1.29601 0.17
1 2 -7 2 o 226.910 293.368 0.00 1.31051 0.20
5 -1 -1 2 o 39.223 45.547 180.00 1.30368 0.03
3 2 -6 2 o 194.003 242.766 180.00 1.30999 0.17
2 4 -3 2 o 618.445 780.157 180.00 1.30967 0.62
2 -1 6 2 o 743.832 850.944 180.00 1.30257 0.62
5 0 -1 1 o 17.968 20.503 0.00 1.29465 0.03
4 0 -6 2 o 3.708 4.175 180.00 1.30168 0.00
4 -1 3 2 o 231.151 261.548 0.00 1.30146 0.18
2 0 6 2 o 145.967 163.337 180.00 1.30036 0.12
3 -4 -3 1 o 6.015 6.990 180.00 1.29892 0.01
5 0 -3 1 o 632.447 701.194 180.00 1.29179 0.96
3 -1 -7 1 o 126.439 141.933 180.00 1.29149 0.20
3 -4 1 2 o 199.071 316.204 0.00 1.32202 0.18
4 -1 -6 1 o 0.076 0.087 180.00 1.29106 0.00
4 0 3 2 o 74.025 92.303 0.00 1.29082 0.06
4 -3 1 2 o 261.778 339.193 0.00 1.31126 0.22
2 -4 -4 2 o 8.040 9.339 0.00 1.30342 0.01
5 -1 -3 2 o 111.591 130.672 0.00 1.29601 0.08
5 0 -1 2 o 17.154 20.503 0.00 1.29465 0.01
2 4 1 1 o 497.506 565.955 0.00 1.29288 0.98
3 -4 -3 2 o 6.346 6.990 180.00 1.29892 0.01
2 2 5 1 o 20.173 25.291 180.00 1.28383 0.04
5 0 -3 2 o 563.301 701.194 180.00 1.29179 0.43
3 -1 -7 2 o 114.117 141.933 180.00 1.29149 0.09
2 -3 5 1 o 121.240 151.464 0.00 1.28297 0.21
4 -1 -6 2 o 0.067 0.087 180.00 1.29106 0.00
0 2 -7 1 o 0.126 0.141 180.00 1.28916 0.00
4 -3 -4 1 o 266.500 334.780 0.00 1.28186 0.42
4 2 1 1 o 132.855 165.441 0.00 1.28167 0.22
1 -3 -6 1 o 233.950 295.255 180.00 1.28049 0.41
2 4 1 2 o 466.901 565.955 0.00 1.29288 0.46
1 4 3 1 o 200.634 246.411 180.00 1.28372 0.38
2 -3 -6 1 o 236.304 291.490 180.00 1.27682 0.39
1 2 6 1 o 41.852 52.076 0.00 1.28350 0.07
2 2 5 2 o 20.523 25.291 180.00 1.28383 0.02
2 -3 5 2 o 125.943 151.464 0.00 1.28297 0.11
0 2 -7 2 o 0.119 0.141 180.00 1.28916 0.00
3 -1 5 1 o 16.826 19.958 180.00 1.27412 0.03
4 -3 -4 2 o 284.238 334.780 0.00 1.28186 0.22
4 2 1 2 o 141.468 165.441 0.00 1.28167 0.11
2 -2 -7 1 o 35.929 41.645 0.00 1.27342 0.05
5 -1 0 1 o 53.627 62.213 0.00 1.27267 0.08
1 -3 -6 2 o 254.551 295.255 180.00 1.28049 0.22
3 1 -7 1 o 5.354 6.968 0.00 1.27829 0.01
0 4 4 1 o 22.452 28.260 180.00 1.27778 0.04
2 2 -7 1 o 31.889 39.371 0.00 1.27719 0.05
1 4 3 2 o 203.532 246.411 180.00 1.28372 0.19
1 -2 -7 1 o 2.357 2.902 180.00 1.27574 0.00
2 -3 -6 2 o 255.731 291.490 180.00 1.27682 0.21
1 2 6 2 o 42.911 52.076 0.00 1.28350 0.04
1 0 7 1 o 164.887 198.264 180.00 1.27525 0.27
3 0 5 1 o 17.786 19.629 0.00 1.26697 0.03
3 -1 5 2 o 18.133 19.958 180.00 1.27412 0.01
1 -1 7 1 o 317.144 367.717 0.00 1.27219 0.51
2 -2 -7 2 o 38.587 41.645 0.00 1.27342 0.03
3 3 2 1 o 254.990 276.224 0.00 1.26544 0.45
5 -1 0 2 o 58.303 62.213 0.00 1.27267 0.04
1 3 5 1 o 0.034 0.047 0.00 1.27057 0.00
3 1 -7 2 o 5.943 6.968 0.00 1.27829 0.01
0 4 4 2 o 24.476 28.260 180.00 1.27778 0.02
2 2 -7 2 o 34.522 39.371 0.00 1.27719 0.03
2 3 -6 1 o 82.730 94.341 0.00 1.26903 0.14
1 -5 0 1 o 151.927 173.409 0.00 1.26865 0.29
5 0 0 1 o 55.912 58.405 180.00 1.26209 0.08
2 3 -6 2 o 89.347 94.341 0.00 1.26903 0.08
1 -2 -7 2 o 2.545 2.902 180.00 1.27574 0.00
1 0 7 2 o 176.923 198.264 180.00 1.27525 0.14
3 0 5 2 o 18.314 19.629 0.00 1.26697 0.01
4 -2 3 1 o 154.339 167.391 180.00 1.25871 0.24
5 -1 -4 1 o 415.909 451.023 0.00 1.25852 0.59
0 4 -5 1 o 7.037 7.647 0.00 1.25795 0.01
1 -1 7 2 o 345.926 367.717 0.00 1.27219 0.27
5 -2 -2 1 o 836.749 883.339 0.00 1.26438 1.21
1 -3 6 1 o 263.106 284.547 0.00 1.25722 0.43
3 3 2 2 o 255.220 276.224 0.00 1.26544 0.22
2 4 -4 1 o 302.451 326.708 180.00 1.25651 0.55
5 0 -4 1 o 106.934 117.042 180.00 1.25680 0.15
1 3 5 2 o 0.044 0.047 0.00 1.27057 0.00
1 -5 0 2 o 164.174 173.409 0.00 1.26865 0.15
5 0 0 2 o 54.679 58.405 180.00 1.26209 0.04
1 -5 1 1 o 110.528 117.732 0.00 1.26016 0.20
3 3 -5 1 o 4.063 4.360 0.00 1.25987 0.01
3 -3 4 1 o 64.389 67.567 180.00 1.25248 0.10
5 -2 -1 1 o 100.514 108.653 0.00 1.25918 0.15
2 3 4 1 o 44.491 46.869 180.00 1.25258 0.08
4 1 -6 1 o 6.713 7.295 180.00 1.25889 0.01
2 -2 6 1 o 5.106 5.383 180.00 1.25203 0.01
3 -4 2 1 o 164.653 192.702 0.00 1.26876 0.27
0 5 -1 1 o 110.990 119.877 180.00 1.25801 0.21
0 5 0 1 o 130.649 141.152 180.00 1.25800 0.25
4 -2 3 2 o 160.091 167.391 180.00 1.25871 0.12
5 -1 -4 2 o 430.660 451.023 0.00 1.25852 0.30
0 4 -5 2 o 7.176 7.647 0.00 1.25795 0.01
5 -2 -2 2 o 812.654 883.339 0.00 1.26438 0.58
1 -3 6 2 o 267.121 284.547 0.00 1.25722 0.22
1 -5 -1 1 o 115.554 124.365 0.00 1.25531 0.21
2 4 -4 2 o 304.274 326.708 180.00 1.25651 0.27
5 0 -4 2 o 110.444 117.042 180.00 1.25680 0.08
1 4 -5 1 o 414.249 454.914 180.00 1.24653 0.73
5 1 -2 1 o 105.688 119.208 180.00 1.24639 0.15
2 1 6 1 o 106.546 119.735 180.00 1.24616 0.17
1 -5 1 2 o 112.262 117.732 0.00 1.26016 0.10
3 3 -5 2 o 4.162 4.360 0.00 1.25987 0.00
3 -3 4 2 o 60.372 67.567 180.00 1.25248 0.05
5 -2 -1 2 o 104.391 108.653 0.00 1.25918 0.08
2 3 4 2 o 42.185 46.869 180.00 1.25258 0.04
4 1 -6 2 o 7.111 7.295 180.00 1.25889 0.00
2 -2 6 2 o 4.897 5.383 180.00 1.25203 0.00
3 -4 2 2 o 183.650 192.702 0.00 1.26876 0.15
0 5 -1 2 o 113.283 119.877 180.00 1.25801 0.11
0 5 0 2 o 133.349 141.152 180.00 1.25800 0.13
4 -3 2 1 o 36.480 38.454 180.00 1.24882 0.05
4 2 -5 1 o 16.072 16.887 180.00 1.24892 0.03
5 -2 -3 1 o 16.645 18.091 0.00 1.24803 0.02
1 -5 -1 2 o 113.832 124.365 0.00 1.25531 0.10
5 -2 -3 2 o 17.134 18.091 0.00 1.24803 0.01
1 4 -5 2 o 435.271 454.914 180.00 1.24653 0.38
5 1 -2 2 o 114.883 119.208 180.00 1.24639 0.08
2 1 6 2 o 115.506 119.735 180.00 1.24616 0.09
4 1 3 1 o 6.624 7.139 0.00 1.23046 0.01
0 5 -2 1 o 36.324 37.630 0.00 1.23698 0.06
2 -4 4 1 o 13.101 13.476 180.00 1.23685 0.02
5 1 -3 1 o 29.346 29.882 0.00 1.23682 0.04
5 1 -1 1 o 119.086 122.759 180.00 1.23523 0.17
4 -3 2 2 o 36.494 38.454 180.00 1.24882 0.03
4 2 -5 2 o 15.996 16.887 180.00 1.24892 0.01
5 -2 0 1 o 555.511 589.445 180.00 1.23321 0.76
1 0 -8 1 o 53.452 55.779 0.00 1.23903 0.08
3 -4 -4 1 o 45.658 47.364 180.00 1.23843 0.07
3 -2 5 1 o 55.395 59.803 0.00 1.23131 0.08
3 -4 -4 2 o 43.428 47.364 180.00 1.23843 0.03
0 5 1 1 o 287.923 298.304 0.00 1.23696 0.51
4 -2 -6 1 o 164.266 177.404 0.00 1.23070 0.23
4 1 3 2 o 7.549 7.139 0.00 1.23046 0.01
0 5 -2 2 o 35.289 37.630 0.00 1.23698 0.03
2 -4 4 2 o 12.365 13.476 180.00 1.23685 0.01
3 2 4 1 o 28.401 30.786 0.00 1.22953 0.05
5 1 -3 2 o 27.092 29.882 0.00 1.23682 0.02
3 2 4 2 o 33.277 30.786 0.00 1.22953 0.03
2 4 2 1 o 122.474 128.335 0.00 1.23443 0.22
0 3 6 1 o 11.458 11.987 180.00 1.23409 0.02
5 1 -1 2 o 115.713 122.759 180.00 1.23523 0.08
5 -2 0 2 o 584.228 589.445 180.00 1.23321 0.39
1 0 -8 2 o 51.442 55.779 0.00 1.23903 0.04
2 0 -8 1 o 211.225 228.746 180.00 1.23139 0.30
1 -5 2 1 o 228.006 247.157 180.00 1.23111 0.40
3 -3 -6 1 o 503.275 491.108 0.00 1.22432 0.74
3 -2 5 2 o 62.226 59.803 0.00 1.23131 0.05
5 -1 1 1 o 38.459 36.624 180.00 1.22344 0.05
0 5 1 2 o 279.308 298.304 0.00 1.23696 0.25
4 -2 -6 2 o 186.791 177.404 0.00 1.23070 0.13
0 2 7 1 o 10.462 11.446 0.00 1.22866 0.02
1 1 7 1 o 81.019 87.951 180.00 1.22860 0.12
3 -2 -7 1 o 1202.337 1127.737 0.00 1.22248 1.69
1 -4 5 1 o 27.360 25.470 0.00 1.22121 0.04
1 -2 7 1 o 37.613 34.958 180.00 1.22044 0.06
2 4 2 2 o 124.485 128.335 0.00 1.23443 0.11
0 3 6 2 o 11.606 11.987 180.00 1.23409 0.01
4 2 2 1 o 73.223 75.189 180.00 1.21337 0.11
3 1 5 1 o 23.266 24.449 180.00 1.21224 0.03
5 0 1 1 o 0.135 0.143 0.00 1.21209 0.00
1 1 -8 1 o 15.544 15.383 180.00 1.22495 0.02
1 -4 -5 1 o 16.103 15.074 180.00 1.21876 0.02
2 0 -8 2 o 238.688 228.746 180.00 1.23139 0.17
1 -5 2 2 o 259.419 247.157 180.00 1.23111 0.22
3 -3 -6 2 o 509.792 491.108 0.00 1.22432 0.37
1 -5 -2 1 o 36.124 33.622 180.00 1.22211 0.06
5 -1 1 2 o 37.551 36.624 180.00 1.22344 0.03
0 2 7 2 o 12.764 11.446 0.00 1.22866 0.01
1 1 7 2 o 97.233 87.951 180.00 1.22860 0.07
3 -2 -7 2 o 1134.860 1127.737 0.00 1.22248 0.79
2 -4 -5 1 o 34.333 34.392 0.00 1.21446 0.05
2 -5 0 1 o 263.914 293.264 0.00 1.23000 0.45
1 -4 5 2 o 24.970 25.470 0.00 1.22121 0.02
4 -3 -5 1 o 185.968 190.008 0.00 1.21358 0.26
1 -2 7 2 o 33.679 34.958 180.00 1.22044 0.03
4 2 2 2 o 66.081 75.189 180.00 1.21337 0.05
5 -2 -4 1 o 8.569 8.952 180.00 1.21251 0.01
5 1 0 1 o 15.704 18.029 0.00 1.20495 0.02
3 1 5 2 o 21.501 24.449 180.00 1.21224 0.01
1 1 -8 2 o 16.161 15.383 180.00 1.22495 0.01
5 0 1 2 o 0.124 0.143 0.00 1.21209 0.00
1 -4 -5 2 o 14.034 15.074 180.00 1.21876 0.01
2 -5 -1 1 o 0.798 0.804 180.00 1.22550 0.00
1 -5 -2 2 o 33.609 33.622 180.00 1.22211 0.03
4 3 -2 1 o 4.463 4.468 180.00 1.21447 0.01
4 3 -1 1 o 143.362 161.987 0.00 1.20771 0.22
2 -4 -5 2 o 30.257 34.392 0.00 1.21446 0.02
2 -5 0 2 o 325.996 293.264 0.00 1.23000 0.27
4 -3 -5 2 o 167.240 190.008 0.00 1.21358 0.11
2 -1 -8 1 o 0.173 0.206 180.00 1.20575 0.00
2 1 -8 1 o 73.778 79.618 0.00 1.21118 0.10
5 0 -5 1 o 15.435 17.730 180.00 1.20508 0.02
5 -2 -4 2 o 7.882 8.952 180.00 1.21251 0.00
5 -1 -5 1 o 92.507 106.099 0.00 1.20470 0.12
5 1 0 2 o 16.076 18.029 0.00 1.20495 0.01
4 -1 4 1 o 49.231 54.827 0.00 1.19720 0.07
2 -5 1 1 o 176.961 174.674 0.00 1.21466 0.29
1 5 -1 1 o 68.271 75.392 0.00 1.20890 0.12
2 -5 -1 2 o 0.854 0.804 180.00 1.22550 0.00
5 1 -4 1 o 150.248 172.302 0.00 1.20792 0.21
4 3 -2 2 o 3.979 4.468 180.00 1.21447 0.00
1 -1 -8 1 o 770.365 875.760 0.00 1.20660 1.10
5 1 -4 2 o 146.312 172.302 0.00 1.20792 0.10
4 3 -1 2 o 140.783 161.987 0.00 1.20771 0.11
2 -1 -8 2 o 0.176 0.206 180.00 1.20575 0.00
0 5 -3 1 o 427.805 478.567 180.00 1.19790 0.72
2 1 -8 2 o 69.034 79.618 0.00 1.21118 0.05
5 0 -5 2 o 15.766 17.730 180.00 1.20508 0.01
1 5 -2 1 o 55.403 61.586 0.00 1.19735 0.09
4 0 -7 1 o 254.626 284.537 180.00 1.19742 0.33
5 -1 -5 2 o 95.008 106.099 0.00 1.20470 0.06
4 -1 4 2 o 54.658 54.827 0.00 1.19720 0.04
3 4 -2 1 o 1.776 2.100 180.00 1.20246 0.00
3 -4 3 1 o 3.421 4.020 180.00 1.20218 0.00
4 3 -3 1 o 54.247 63.391 180.00 1.20207 0.08
2 -5 1 2 o 152.116 174.674 0.00 1.21466 0.12
1 5 0 1 o 63.900 73.140 0.00 1.20153 0.11
1 5 -1 2 o 65.814 75.392 0.00 1.20890 0.06
4 -4 -1 1 o 100.596 100.528 0.00 1.21453 0.14
3 4 -1 1 o 163.141 188.207 180.00 1.20126 0.27
0 0 8 1 o 72.126 83.468 0.00 1.20081 0.10
1 3 -7 1 o 8.926 9.662 0.00 1.19472 0.01
3 2 -7 1 o 266.821 311.045 180.00 1.20035 0.39
4 0 4 1 o 554.378 551.692 0.00 1.18709 0.74
1 -1 -8 2 o 767.675 875.760 0.00 1.20660 0.54
4 -4 -2 1 o 220.602 255.093 180.00 1.20781 0.31
0 5 2 1 o 426.068 477.142 180.00 1.19787 0.72
2 4 -5 1 o 1.205 1.223 0.00 1.19062 0.00
0 5 -3 2 o 470.672 478.567 180.00 1.19790 0.39
2 -5 -2 1 o 12.671 14.939 180.00 1.20178 0.02
1 5 -2 2 o 60.721 61.586 0.00 1.19735 0.05
5 -2 1 1 o 2.120 2.121 0.00 1.19008 0.00
4 0 -7 2 o 284.692 284.537 180.00 1.19742 0.18
1 4 4 1 o 204.455 223.531 180.00 1.19545 0.33
3 4 -2 2 o 1.904 2.100 180.00 1.20246 0.00
3 -4 3 2 o 3.683 4.020 180.00 1.20218 0.00
4 3 -3 2 o 58.315 63.391 180.00 1.20207 0.04
1 5 0 2 o 68.363 73.140 0.00 1.20153 0.06
0 1 -8 1 o 20.061 21.485 0.00 1.19401 0.03
4 -4 -1 2 o 88.271 100.528 0.00 1.21453 0.06
3 4 -1 2 o 176.122 188.207 180.00 1.20126 0.14
0 0 8 2 o 78.672 83.468 0.00 1.20081 0.05
1 3 -7 2 o 9.672 9.662 0.00 1.19472 0.01
4 -1 -7 1 o 357.974 355.530 180.00 1.18732 0.45
3 2 -7 2 o 294.722 311.045 180.00 1.20035 0.21
3 3 3 1 o 17.141 17.153 180.00 1.18647 0.03
4 0 4 2 o 525.643 551.692 0.00 1.18709 0.35
1 -5 3 1 o 308.135 310.055 180.00 1.18551 0.49
4 -4 -2 2 o 215.144 255.093 180.00 1.20781 0.15
0 5 2 2 o 470.937 477.142 180.00 1.19787 0.39
0 3 -7 1 o 150.825 153.893 180.00 1.18436 0.22
2 4 -5 2 o 1.190 1.223 0.00 1.19062 0.00
4 -4 0 1 o 18.904 26.548 0.00 1.20209 0.03
2 -5 -2 2 o 13.802 14.939 180.00 1.20178 0.01
5 -2 1 2 o 2.027 2.121 0.00 1.19008 0.00
4 3 0 1 o 167.368 174.317 0.00 1.18271 0.25
1 4 4 2 o 225.218 223.531 180.00 1.19545 0.18
3 4 0 1 o 2.267 2.356 0.00 1.18177 0.00
0 1 -8 2 o 21.577 21.485 0.00 1.19401 0.01
3 0 -8 1 o 10.076 10.710 0.00 1.18030 0.01
4 -1 -7 2 o 337.998 355.530 180.00 1.18732 0.21
3 4 -3 1 o 39.223 39.612 180.00 1.18519 0.06
3 3 3 2 o 16.479 17.153 180.00 1.18647 0.01
1 -5 3 2 o 301.866 310.055 180.00 1.18551 0.24
0 3 -7 2 o 153.918 153.893 180.00 1.18436 0.11
4 -4 -3 1 o 50.629 53.179 180.00 1.18285 0.07
4 -3 3 1 o 389.628 385.619 0.00 1.17647 0.51
4 -4 0 2 o 23.857 26.548 0.00 1.20209 0.02
2 -5 2 1 o 338.016 362.806 0.00 1.18159 0.52
4 3 0 2 o 180.131 174.317 0.00 1.18271 0.13
3 3 -6 1 o 1120.664 1188.787 0.00 1.18057 1.62
3 4 0 2 o 2.459 2.356 0.00 1.18177 0.00
0 4 5 1 o 37.783 39.577 0.00 1.17960 0.06
3 0 -8 2 o 11.496 10.710 0.00 1.18030 0.01
5 -3 -2 1 o 3.786 3.898 0.00 1.17805 0.00
3 4 -3 2 o 39.022 39.612 180.00 1.18519 0.03
4 2 -6 1 o 96.123 95.425 0.00 1.17659 0.13
1 5 1 1 o 301.527 296.561 180.00 1.17626 0.50
4 -4 -3 2 o 55.266 53.179 180.00 1.18285 0.04
4 -3 3 2 o 423.697 385.619 0.00 1.17647 0.27
2 -5 2 2 o 387.579 362.806 0.00 1.18159 0.29
1 5 -3 1 o 35.933 33.198 180.00 1.16845 0.06
5 -1 2 1 o 18.395 17.411 180.00 1.16213 0.02
3 -4 -5 1 o 200.955 183.761 180.00 1.16801 0.27
1 -5 -3 1 o 5.072 4.737 0.00 1.17350 0.01
3 3 -6 2 o 1272.654 1188.787 0.00 1.18057 0.90
0 4 5 2 o 42.531 39.577 0.00 1.17960 0.03
4 3 -4 1 o 165.194 153.114 0.00 1.17219 0.23
5 1 1 1 o 23.639 21.262 0.00 1.15952 0.03
2 4 3 1 o 3.087 2.859 0.00 1.16571 0.01
4 1 -7 1 o 216.479 203.308 0.00 1.16557 0.27
4 -2 4 1 o 104.557 97.989 180.00 1.16539 0.14
5 -3 -1 1 o 1358.807 1309.171 180.00 1.17560 1.71
5 -3 -2 2 o 4.215 3.898 0.00 1.17805 0.00
2 -3 6 1 o 13.559 12.736 0.00 1.16482 0.02
2 3 -7 1 o 430.414 408.581 0.00 1.16365 0.60
4 2 -6 2 o 105.374 95.425 0.00 1.17659 0.07
1 5 1 2 o 322.615 296.561 180.00 1.17626 0.26
1 2 -8 1 o 93.066 85.018 0.00 1.16876 0.13
3 -1 -8 1 o 204.363 195.018 180.00 1.16324 0.26
5 -2 -5 1 o 30.057 28.495 0.00 1.16245 0.04
1 5 -3 2 o 35.918 33.198 180.00 1.16845 0.03
5 -1 2 2 o 22.091 17.411 180.00 1.16213 0.01
0 4 -6 1 o 380.105 347.704 180.00 1.16055 0.54
3 -4 -5 2 o 197.291 183.761 180.00 1.16801 0.13
1 -5 -3 2 o 5.136 4.737 0.00 1.17350 0.00
0 1 8 1 o 304.951 286.154 0.00 1.16553 0.40
4 3 -4 2 o 161.446 153.114 0.00 1.17219 0.11
2 -3 -7 1 o 54.655 48.820 0.00 1.15938 0.07
2 -1 7 1 o 181.691 159.236 0.00 1.15865 0.23
5 1 1 2 o 26.735 21.262 0.00 1.15952 0.02
2 4 3 2 o 3.336 2.859 0.00 1.16571 0.00
4 1 -7 2 o 234.090 203.308 0.00 1.16557 0.14
4 -2 4 2 o 114.008 97.989 180.00 1.16539 0.07
1 4 -6 1 o 52.405 44.900 180.00 1.15803 0.08
5 -3 -1 2 o 1447.404 1309.171 180.00 1.17560 0.90
5 1 -5 1 o 51.493 50.190 0.00 1.16349 0.06
2 -3 6 2 o 15.093 12.736 0.00 1.16482 0.01
5 -3 -3 1 o 58.863 56.495 0.00 1.16308 0.07
3 1 -8 1 o 183.069 150.416 0.00 1.15690 0.23
2 2 6 1 o 44.176 36.394 180.00 1.15698 0.06
5 0 2 1 o 134.277 109.610 0.00 1.15073 0.16
2 3 -7 2 o 498.286 408.581 0.00 1.16365 0.34
2 -5 -3 1 o 12.853 12.284 0.00 1.16200 0.02
1 2 -8 2 o 91.149 85.018 0.00 1.16876 0.06
5 1 -5 2 o 63.022 50.190 0.00 1.16349 0.04
3 -1 -8 2 o 240.692 195.018 180.00 1.16324 0.15
1 -3 -7 1 o 19.779 15.718 180.00 1.15558 0.03
2 0 7 1 o 38.956 31.443 180.00 1.15542 0.05
5 -2 -5 2 o 35.428 28.495 0.00 1.16245 0.02
4 -4 1 1 o 256.206 315.380 180.00 1.17217 0.34
5 2 -2 1 o 169.538 132.313 0.00 1.15402 0.22
0 4 -6 2 o 432.940 347.704 180.00 1.16055 0.30
0 1 8 2 o 330.654 286.154 0.00 1.16553 0.22
2 -3 -7 2 o 61.729 48.820 0.00 1.15938 0.04
3 -3 5 1 o 757.022 606.131 180.00 1.15186 0.98
1 3 6 1 o 15.427 12.402 180.00 1.15198 0.02
2 -1 7 2 o 196.548 159.236 0.00 1.15865 0.12
1 4 -6 2 o 55.072 44.900 180.00 1.15803 0.04
5 -3 0 1 o 14.206 11.257 0.00 1.15605 0.02
5 -3 -3 2 o 70.124 56.495 0.00 1.16308 0.04
3 1 -8 2 o 181.296 150.416 0.00 1.15690 0.11
2 2 6 2 o 43.931 36.394 180.00 1.15698 0.03
5 0 2 2 o 124.117 109.610 0.00 1.15073 0.07
2 -5 -3 2 o 15.571 12.284 0.00 1.16200 0.01
3 -1 6 1 o 45.984 39.198 0.00 1.14841 0.06
1 -3 -7 2 o 18.426 15.718 180.00 1.15558 0.01
2 0 7 2 o 36.513 31.443 180.00 1.15542 0.02
2 3 5 1 o 19.069 16.244 180.00 1.14844 0.03
5 2 -3 1 o 74.883 64.900 180.00 1.14806 0.09
2 -4 5 1 o 456.310 393.146 180.00 1.14757 0.62
3 0 6 1 o 114.017 99.384 180.00 1.14155 0.15
4 -4 1 2 o 248.125 315.380 180.00 1.17217 0.16
5 2 -2 2 o 151.248 132.313 0.00 1.15402 0.10
3 4 1 1 o 5.999 5.154 180.00 1.14651 0.01
3 4 -4 1 o 0.465 0.387 180.00 1.15173 0.00
2 2 -8 1 o 113.555 91.494 180.00 1.15130 0.15
0 5 -4 1 o 751.585 656.489 180.00 1.14565 1.11
3 -3 5 2 o 687.304 606.131 180.00 1.15186 0.44
4 -3 -6 1 o 1.517 1.317 0.00 1.13881 0.00
1 3 6 2 o 13.923 12.402 180.00 1.15198 0.01
4 2 3 1 o 512.299 438.705 180.00 1.13860 0.65
4 -2 -7 1 o 36.656 31.205 0.00 1.13826 0.04
4 1 4 1 o 0.724 0.638 0.00 1.13804 0.00
5 -3 0 2 o 13.231 11.257 0.00 1.15605 0.01
5 2 -1 1 o 103.532 91.967 0.00 1.14352 0.13
4 -4 -4 1 o 157.401 139.339 180.00 1.14284 0.20
5 0 -6 1 o 54.266 48.237 0.00 1.14275 0.06
4 3 1 1 o 70.045 61.437 0.00 1.14269 0.10
0 2 -8 1 o 257.378 221.921 0.00 1.14715 0.34
2 -2 -8 1 o 19.879 17.586 0.00 1.14202 0.02
3 -1 6 2 o 44.937 39.198 0.00 1.14841 0.03
2 3 5 2 o 18.633 16.244 180.00 1.14844 0.01
1 2 7 1 o 2.300 2.029 180.00 1.14660 0.00
5 2 -3 2 o 74.376 64.900 180.00 1.14806 0.05
2 -4 5 2 o 455.058 393.146 180.00 1.14757 0.30
5 -1 -6 1 o 15.328 13.200 0.00 1.14080 0.02
3 0 6 2 o 120.418 99.384 180.00 1.14155 0.08
0 5 3 1 o 875.511 766.003 180.00 1.14562 1.29
3 -5 -1 1 o 31.444 24.129 180.00 1.15676 0.04
3 4 -4 2 o 0.431 0.387 180.00 1.15173 0.00
3 4 1 2 o 6.070 5.154 180.00 1.14651 0.00
2 2 -8 2 o 103.752 91.494 180.00 1.15130 0.07
0 5 -4 2 o 768.673 656.489 180.00 1.14565 0.56
4 -3 -6 2 o 1.606 1.317 0.00 1.13881 0.00
4 2 3 2 o 545.691 438.705 180.00 1.13860 0.34
1 -2 -8 1 o 82.998 70.688 180.00 1.13746 0.11
4 -2 -7 2 o 38.815 31.205 0.00 1.13826 0.02
3 -5 0 1 o 168.072 163.715 180.00 1.15404 0.23
4 1 4 2 o 0.759 0.638 0.00 1.13804 0.00
5 2 -1 2 o 107.730 91.967 0.00 1.14352 0.07
1 -3 7 1 o 3.405 2.916 180.00 1.13560 0.00
4 -4 -4 2 o 164.216 139.339 180.00 1.14284 0.10
5 0 -6 2 o 56.547 48.237 0.00 1.14275 0.03
4 3 1 2 o 73.302 61.437 0.00 1.14269 0.05
5 -2 2 1 o 61.688 51.724 180.00 1.13500 0.07
0 2 -8 2 o 258.253 221.921 0.00 1.14715 0.17
2 -2 -8 2 o 20.839 17.586 0.00 1.14202 0.01
1 2 7 2 o 2.359 2.029 180.00 1.14660 0.00
5 -1 -6 2 o 16.361 13.200 0.00 1.14080 0.01
0 5 3 2 o 895.641 766.003 180.00 1.14562 0.65
3 -5 -1 2 o 28.188 24.129 180.00 1.15676 0.02
5 -3 -4 1 o 457.081 365.649 180.00 1.13259 0.53
3 2 5 1 o 1.076 0.953 180.00 1.12611 0.00
3 -3 -7 1 o 25.678 22.085 0.00 1.12560 0.03
1 5 2 1 o 11.335 9.491 180.00 1.13628 0.02
1 -2 -8 2 o 87.784 70.688 180.00 1.13746 0.05
3 -5 0 2 o 168.778 163.715 180.00 1.15404 0.11
2 -5 3 1 o 256.537 215.589 0.00 1.13490 0.35
3 -5 -2 1 o 41.499 37.338 180.00 1.14297 0.06
1 -5 4 1 o 52.881 44.539 180.00 1.12871 0.07
1 -3 7 2 o 3.389 2.916 180.00 1.13560 0.00
5 -2 2 2 o 60.046 51.724 180.00 1.13500 0.03
1 5 -4 1 o 0.016 0.012 180.00 1.12576 0.00
1 -4 6 1 o 76.899 65.928 0.00 1.12548 0.10
2 -4 -6 1 o 69.522 60.031 0.00 1.12576 0.09
5 -3 -4 2 o 423.567 365.649 180.00 1.13259 0.24
3 2 5 2 o 1.086 0.953 180.00 1.12611 0.00
3 -3 -7 2 o 25.805 22.085 0.00 1.12560 0.02
2 -2 7 1 o 34.288 29.426 0.00 1.12419 0.04
3 -4 4 1 o 340.422 285.845 180.00 1.12915 0.43
1 5 2 2 o 11.474 9.491 180.00 1.13628 0.01
2 5 -2 1 o 0.484 0.423 180.00 1.12386 0.00
5 2 0 1 o 751.724 644.182 180.00 1.11786 0.91
4 3 -5 1 o 3.148 2.695 180.00 1.12853 0.00
1 -4 -6 1 o 1489.308 1262.469 0.00 1.12318 1.95
2 -5 3 2 o 247.960 215.589 0.00 1.13490 0.17
1 0 8 1 o 1.207 1.044 0.00 1.12806 0.00
1 -1 8 1 o 318.700 273.693 0.00 1.12749 0.39
3 -4 4 2 o 337.325 285.845 180.00 1.12915 0.21
3 -5 -2 2 o 42.874 37.338 180.00 1.14297 0.03
2 5 -1 1 o 178.255 151.429 0.00 1.12732 0.27
1 -5 4 2 o 52.439 44.539 180.00 1.12871 0.04
5 2 -4 1 o 248.614 219.971 0.00 1.12637 0.30
1 5 -4 2 o 0.016 0.012 180.00 1.12576 0.00
4 -4 2 1 o 711.366 636.816 0.00 1.12848 0.87
2 4 -6 1 o 53.889 46.293 0.00 1.11864 0.07
1 -4 6 2 o 77.124 65.928 0.00 1.12548 0.05
2 -4 -6 2 o 70.079 60.031 0.00 1.12576 0.04
3 -5 1 1 o 179.501 230.537 0.00 1.13514 0.24
3 -2 6 1 o 114.673 98.447 180.00 1.11828 0.13
2 -2 7 2 o 34.192 29.426 0.00 1.12419 0.02
2 5 -2 2 o 0.483 0.423 180.00 1.12386 0.00
5 -3 1 1 o 96.664 81.835 0.00 1.12183 0.11
5 2 0 2 o 777.532 644.182 180.00 1.11786 0.46
4 3 -5 2 o 3.173 2.695 180.00 1.12853 0.00
3 -2 -8 1 o 45.312 37.481 180.00 1.11056 0.05
1 -4 -6 2 o 1476.012 1262.469 0.00 1.12318 0.95
1 0 8 2 o 1.214 1.044 0.00 1.12806 0.00
1 -1 8 2 o 320.535 273.693 0.00 1.12749 0.19
2 1 7 1 o 3.420 2.909 0.00 1.11539 0.00
2 5 -1 2 o 177.713 151.429 0.00 1.12732 0.13
0 3 7 1 o 152.981 130.704 180.00 1.11526 0.20
5 2 -4 2 o 255.341 219.971 0.00 1.12637 0.15
4 -4 2 2 o 744.924 636.816 0.00 1.12848 0.45
2 4 -6 2 o 55.056 46.293 0.00 1.11864 0.04
3 -5 1 2 o 208.710 230.537 0.00 1.13514 0.14
3 -2 6 2 o 117.701 98.447 180.00 1.11828 0.07
3 3 4 1 o 506.384 408.639 180.00 1.10570 0.64
2 -5 -4 1 o 257.657 213.272 0.00 1.11077 0.33
2 5 0 1 o 385.674 328.982 0.00 1.11547 0.56
5 -3 1 2 o 95.447 81.835 0.00 1.12183 0.05
1 -5 -4 1 o 480.153 411.166 0.00 1.11494 0.65
5 1 2 1 o 422.831 352.528 0.00 1.10400 0.48
3 -2 -8 2 o 44.485 37.481 180.00 1.11056 0.02
3 -5 -3 1 o 259.372 222.947 180.00 1.11436 0.33
5 -2 -6 1 o 90.160 76.069 0.00 1.10328 0.10
2 1 7 2 o 3.720 2.909 0.00 1.11539 0.00
5 1 -6 1 o 245.245 189.629 180.00 1.10857 0.27
0 3 7 2 o 166.887 130.704 180.00 1.11526 0.10
1 4 5 1 o 164.647 130.364 180.00 1.10814 0.22
3 4 -5 1 o 1127.123 907.346 0.00 1.10600 1.46
2 5 -3 1 o 1.396 1.158 180.00 1.10549 0.00
4 -1 5 1 o 15.712 13.944 0.00 1.09986 0.02
3 1 6 1 o 1692.957 1515.449 0.00 1.09959 1.98
3 3 4 2 o 456.580 408.639 180.00 1.10570 0.29
2 -5 -4 2 o 255.212 213.272 0.00 1.11077 0.16
2 5 0 2 o 407.643 328.982 0.00 1.11547 0.29
1 -5 -4 2 o 518.399 411.166 0.00 1.11494 0.34
5 1 2 2 o 392.068 352.528 0.00 1.10400 0.22
3 -5 -3 2 o 289.444 222.947 180.00 1.11436 0.18
5 -2 -6 2 o 84.343 76.069 0.00 1.10328 0.05
5 1 -6 2 o 215.420 189.629 180.00 1.10857 0.12
1 4 5 2 o 148.725 130.364 180.00 1.10814 0.10
4 -3 4 1 o 1.670 1.489 0.00 1.10065 0.00
5 -1 3 1 o 92.931 85.478 180.00 1.09469 0.10
4 0 -8 1 o 1.147 1.058 0.00 1.10005 0.00
3 3 -7 1 o 0.722 0.645 0.00 1.09987 0.00
3 2 -8 1 o 142.765 127.961 180.00 1.09961 0.17
3 4 2 1 o 0.039 0.032 180.00 1.09953 0.00
3 4 -5 2 o 1014.764 907.346 0.00 1.10600 0.65
2 5 -3 2 o 1.286 1.158 180.00 1.10549 0.00
4 -1 5 2 o 14.976 13.944 0.00 1.09986 0.01
3 1 6 2 o 1611.557 1515.449 0.00 1.09959 0.93
4 3 2 1 o 581.823 540.944 0.00 1.09208 0.71
4 -1 -8 1 o 0.046 0.043 180.00 1.09080 0.00
4 0 5 1 o 21.317 19.510 0.00 1.09059 0.02
4 2 -7 1 o 443.766 398.345 0.00 1.10079 0.51
6 -1 -2 1 o 25.479 23.389 180.00 1.09545 0.02
2 0 -9 1 o 60.831 54.368 0.00 1.09970 0.07
1 0 -9 1 o 3.205 2.886 180.00 1.09951 0.00
4 -3 4 2 o 1.589 1.489 0.00 1.10065 0.00
3 -4 -6 1 o 6.909 6.461 0.00 1.09392 0.01
5 -1 3 2 o 98.322 85.478 180.00 1.09469 0.05
4 0 -8 2 o 1.104 1.058 0.00 1.10005 0.00
0 2 8 1 o 25.871 23.327 180.00 1.09811 0.03
3 3 -7 2 o 0.686 0.645 0.00 1.09987 0.00
2 0 -9 2 o 57.837 54.368 0.00 1.09970 0.03
3 2 -8 2 o 135.404 127.961 180.00 1.09961 0.08
2 4 4 1 o 415.573 387.282 180.00 1.09289 0.53
3 4 2 2 o 0.036 0.032 180.00 1.09953 0.00
1 -2 8 1 o 462.111 428.824 180.00 1.09240 0.53
6 0 -2 1 o 30.630 26.296 180.00 1.08688 0.03
4 -4 -5 1 o 32.640 30.585 180.00 1.09225 0.04
6 -1 -3 1 o 109.936 102.430 0.00 1.09158 0.12
4 3 2 2 o 641.426 540.944 0.00 1.09208 0.39
6 -1 -1 1 o 387.199 325.960 0.00 1.08524 0.40
5 -3 -5 1 o 68.363 61.714 180.00 1.09007 0.07
3 -5 2 1 o 133.584 116.873 0.00 1.10234 0.17
2 5 1 1 o 237.190 211.987 0.00 1.08968 0.32
4 -1 -8 2 o 0.049 0.043 180.00 1.09080 0.00
4 0 5 2 o 23.486 19.510 0.00 1.09059 0.01
5 0 3 1 o 418.355 345.397 0.00 1.08377 0.45
4 2 -7 2 o 421.697 398.345 0.00 1.10079 0.24
1 1 8 1 o 165.109 154.837 180.00 1.09396 0.19
6 -1 -2 2 o 26.338 23.389 180.00 1.09545 0.01
1 0 -9 2 o 3.055 2.886 180.00 1.09951 0.00
3 -4 -6 2 o 7.430 6.461 0.00 1.09392 0.00
0 4 6 1 o 35.017 30.024 180.00 1.08686 0.04
5 2 -5 1 o 649.691 622.067 0.00 1.09150 0.73
0 2 8 2 o 24.764 23.327 180.00 1.09811 0.01
1 1 -9 1 o 5.599 5.159 180.00 1.09103 0.01
2 4 4 2 o 453.496 387.282 180.00 1.09289 0.29
1 3 -8 1 o 285.328 242.533 180.00 1.08579 0.33
1 -2 8 2 o 505.653 428.824 180.00 1.09240 0.29
0 5 -5 1 o 265.694 225.187 180.00 1.08556 0.34
4 -4 -5 2 o 36.312 30.585 180.00 1.09225 0.02
6 0 -2 2 o 32.103 26.296 180.00 1.08688 0.02
5 2 1 1 o 114.453 93.928 180.00 1.07993 0.13
6 -1 -3 2 o 122.605 102.430 0.00 1.09158 0.06
6 0 -3 1 o 22.026 18.262 180.00 1.08447 0.02
6 -1 -1 2 o 389.664 325.960 0.00 1.08524 0.20
5 -3 -5 2 o 75.122 61.714 180.00 1.09007 0.04
3 -5 2 2 o 129.320 116.873 0.00 1.10234 0.08
2 5 1 2 o 256.014 211.987 0.00 1.08968 0.17
1 1 8 2 o 179.815 154.837 180.00 1.09396 0.10
5 0 3 2 o 406.297 345.397 0.00 1.08377 0.22
2 1 -9 1 o 46.123 39.482 180.00 1.08662 0.05
4 -2 5 1 o 32.217 27.517 180.00 1.07639 0.04
1 5 3 1 o 195.757 167.027 0.00 1.08597 0.26
6 0 -1 1 o 384.599 332.370 180.00 1.07555 0.39
0 5 4 1 o 3.701 3.130 0.00 1.08553 0.00
0 4 6 2 o 36.701 30.024 180.00 1.08686 0.02
5 2 -5 2 o 744.240 622.067 0.00 1.09150 0.41
2 -1 -9 1 o 476.324 390.105 180.00 1.07995 0.52
2 -5 4 1 o 70.610 58.384 0.00 1.07945 0.08
1 1 -9 2 o 6.229 5.159 180.00 1.09103 0.00
1 3 -8 2 o 290.989 242.533 180.00 1.08579 0.17
0 5 -5 2 o 269.604 225.187 180.00 1.08556 0.17
5 -2 3 1 o 3.932 3.423 180.00 1.07327 0.00
5 2 1 2 o 108.367 93.928 180.00 1.07993 0.06
5 -1 -7 1 o 537.942 466.471 0.00 1.07248 0.54
6 0 -3 2 o 21.712 18.262 180.00 1.08447 0.01
5 -3 2 1 o 16.309 14.096 180.00 1.07669 0.02
4 1 -8 1 o 8.768 7.551 0.00 1.07655 0.01
5 0 -7 1 o 60.604 52.396 180.00 1.07544 0.06
2 1 -9 2 o 48.131 39.482 180.00 1.08662 0.03
4 -2 5 2 o 31.317 27.517 180.00 1.07639 0.02
1 5 3 2 o 200.568 167.027 0.00 1.08597 0.13
2 5 -4 1 o 5.223 4.538 180.00 1.07430 0.01
3 -5 -4 1 o 312.926 272.044 180.00 1.07411 0.37
6 0 -1 2 o 373.435 332.370 180.00 1.07555 0.19
0 5 4 2 o 3.758 3.130 0.00 1.08553 0.00
1 5 -5 1 o 340.130 294.150 0.00 1.07375 0.43
6 -1 -4 1 o 367.996 319.768 0.00 1.07406 0.36
2 -1 -9 2 o 449.611 390.105 180.00 1.07995 0.24
2 -5 4 2 o 67.174 58.384 0.00 1.07945 0.04
0 3 -8 1 o 18.853 16.469 0.00 1.07277 0.02
1 4 -7 1 o 8.643 7.423 180.00 1.07243 0.01
5 -2 3 2 o 3.876 3.423 180.00 1.07327 0.00
6 -2 -2 1 o 123.313 107.081 0.00 1.07169 0.12
4 -4 3 1 o 186.303 161.636 0.00 1.07559 0.21
5 -1 -7 2 o 538.158 466.471 0.00 1.07248 0.27
4 3 -6 1 o 17.386 15.113 0.00 1.07567 0.02
1 -1 -9 1 o 321.871 278.213 0.00 1.07530 0.35
5 -3 2 2 o 15.933 14.096 180.00 1.07669 0.01
4 1 -8 2 o 8.551 7.551 0.00 1.07655 0.00
0 4 -7 1 o 16.566 14.591 0.00 1.06926 0.02
5 0 -7 2 o 58.717 52.396 180.00 1.07544 0.03
6 0 -4 1 o 84.791 76.027 180.00 1.06861 0.08
4 -3 -7 1 o 83.659 69.914 180.00 1.06309 0.09
4 2 4 1 o 560.663 467.913 0.00 1.06289 0.62
3 0 -9 1 o 2.101 1.899 0.00 1.06794 0.00
2 5 -4 2 o 5.141 4.538 180.00 1.07430 0.00
2 3 -8 1 o 355.744 314.177 0.00 1.06738 0.41
3 -5 -4 2 o 303.406 272.044 180.00 1.07411 0.18
1 5 -5 2 o 336.200 294.150 0.00 1.07375 0.21
6 -1 -4 2 o 359.077 319.768 0.00 1.07406 0.17
6 -1 0 1 o 12.162 10.144 180.00 1.06209 0.01
6 -2 -3 1 o 4.574 4.036 180.00 1.06675 0.00
4 4 -2 1 o 438.463 383.805 180.00 1.06653 0.53
0 3 -8 2 o 18.839 16.469 0.00 1.07277 0.01
1 -5 5 1 o 0.051 0.033 180.00 1.06599 0.00
1 4 -7 2 o 8.682 7.423 180.00 1.07243 0.01
6 -2 -2 2 o 125.228 107.081 0.00 1.07169 0.06
4 -4 3 2 o 179.439 161.636 0.00 1.07559 0.10
4 3 -6 2 o 16.835 15.113 0.00 1.07567 0.01
1 -1 -9 2 o 311.434 278.213 0.00 1.07530 0.17
6 -2 -1 1 o 14.987 12.481 0.00 1.06343 0.01
0 4 -7 2 o 17.285 14.591 0.00 1.06926 0.01
0 0 9 1 o 3.389 2.979 180.00 1.06739 0.00
5 -4 -2 1 o 20.097 17.617 180.00 1.07449 0.02
2 -4 6 1 o 0.018 0.009 180.00 1.06198 0.00
6 0 -4 2 o 91.212 76.027 180.00 1.06861 0.04
4 -3 -7 2 o 83.550 69.914 180.00 1.06309 0.04
4 2 4 2 o 559.553 467.913 0.00 1.06289 0.30
3 0 -9 2 o 2.210 1.899 0.00 1.06794 0.00
2 -3 7 1 o 0.417 0.354 180.00 1.06107 0.00
2 3 -8 2 o 369.038 314.177 0.00 1.06738 0.21
6 -1 0 2 o 12.352 10.144 180.00 1.06209 0.01
4 4 -1 1 o 45.766 39.141 180.00 1.06065 0.05
6 -2 -3 2 o 4.682 4.036 180.00 1.06675 0.00
4 4 -2 2 o 446.046 383.805 180.00 1.06653 0.26
1 -5 5 2 o 0.052 0.033 180.00 1.06599 0.00
0 1 -9 1 o 489.850 412.198 180.00 1.06391 0.52
3 -3 6 1 o 59.619 51.443 180.00 1.05904 0.06
5 -4 -1 1 o 80.187 70.671 180.00 1.07397 0.09
5 -4 -3 1 o 85.605 71.244 0.00 1.06180 0.09
6 -2 -1 2 o 14.726 12.481 0.00 1.06343 0.01
6 0 0 1 o 22.475 17.635 180.00 1.05174 0.02
0 0 9 2 o 3.555 2.979 180.00 1.06739 0.00
2 -3 -8 1 o 1155.972 966.938 0.00 1.05633 1.23
4 -2 -8 1 o 38.149 30.601 180.00 1.05113 0.04
4 1 5 1 o 146.279 116.984 180.00 1.05093 0.15
5 -4 -2 2 o 19.202 17.617 180.00 1.07449 0.01
2 -4 6 2 o 0.019 0.009 180.00 1.06198 0.00
3 -4 5 1 o 5.851 4.709 180.00 1.05504 0.01
4 4 -3 1 o 131.092 113.275 0.00 1.05939 0.15
3 -5 3 1 o 223.928 201.983 180.00 1.05911 0.25
2 -3 7 2 o 0.435 0.354 180.00 1.06107 0.00
1 -6 0 1 o 58.079 50.303 180.00 1.05868 0.07
4 4 -1 2 o 48.142 39.141 180.00 1.06065 0.03
5 1 3 1 o 7.645 6.147 180.00 1.04323 0.01
3 -1 -9 1 o 26.367 21.017 180.00 1.05398 0.03
2 3 6 1 o 32.336 26.060 180.00 1.05368 0.04
6 1 -2 1 o 7.123 5.750 180.00 1.04813 0.01
0 1 -9 2 o 484.297 412.198 180.00 1.06391 0.25
2 -5 -5 1 o 52.914 42.494 0.00 1.05289 0.06
5 -4 -1 2 o 76.122 70.671 180.00 1.07397 0.04
3 -3 6 2 o 64.389 51.443 180.00 1.05904 0.03
2 5 2 1 o 147.813 118.809 0.00 1.05273 0.19
3 4 -6 1 o 1.353 1.056 0.00 1.05245 0.00
1 2 -9 1 o 29.268 23.350 0.00 1.05203 0.03
4 -5 -1 1 o 13.411 11.173 0.00 1.06659 0.01
3 1 -9 1 o 0.732 0.572 0.00 1.05177 0.00
1 -5 -5 1 o 125.415 100.629 180.00 1.05152 0.14
5 -4 -3 2 o 87.470 71.244 0.00 1.06180 0.04
1 -6 1 1 o 88.092 71.984 0.00 1.05501 0.11
6 0 0 2 o 22.194 17.635 180.00 1.05174 0.01
2 -3 -8 2 o 1206.515 966.938 0.00 1.05633 0.63
0 6 -1 1 o 324.157 260.678 0.00 1.04959 0.40
4 -2 -8 2 o 37.880 30.601 180.00 1.05113 0.02
4 1 5 2 o 145.270 116.984 180.00 1.05093 0.07
6 -2 -4 1 o 454.542 365.773 0.00 1.04913 0.42
5 3 -2 1 o 114.503 91.857 180.00 1.04909 0.12
2 2 7 1 o 96.660 77.499 180.00 1.04882 0.11
3 -4 5 2 o 5.935 4.709 180.00 1.05504 0.00
1 3 7 1 o 1314.708 1057.894 0.00 1.04867 1.46
1 -3 -8 1 o 38.843 31.314 180.00 1.04857 0.04
4 4 -3 2 o 141.559 113.275 0.00 1.05939 0.08
3 -5 3 2 o 254.380 201.983 180.00 1.05911 0.14
5 1 -7 1 o 16.490 13.500 0.00 1.04806 0.02
1 -6 0 2 o 62.926 50.303 180.00 1.05868 0.04
3 -1 -9 2 o 26.285 21.017 180.00 1.05398 0.01
5 1 3 2 o 7.442 6.147 180.00 1.04323 0.00
2 3 6 2 o 32.072 26.060 180.00 1.05368 0.02
6 1 -3 1 o 35.000 28.439 0.00 1.04721 0.03
6 1 -2 2 o 7.161 5.750 180.00 1.04813 0.00
3 -1 7 1 o 234.036 189.050 180.00 1.04136 0.24
4 -5 -2 1 o 267.853 233.453 180.00 1.06073 0.29
2 -5 -5 2 o 52.317 42.494 0.00 1.05289 0.03
2 5 2 2 o 147.570 118.809 0.00 1.05273 0.09
3 4 -6 2 o 1.339 1.056 0.00 1.05245 0.00
5 -4 0 1 o 314.392 280.561 180.00 1.06029 0.33
2 4 -7 1 o 51.190 41.407 0.00 1.04569 0.06
5 3 -3 1 o 1.577 1.302 0.00 1.04584 0.00
4 -5 -1 2 o 11.269 11.173 0.00 1.06659 0.01
1 2 -9 2 o 29.016 23.350 0.00 1.05203 0.02
3 1 -9 2 o 0.721 0.572 0.00 1.05177 0.00
1 -6 -1 1 o 15.040 12.071 180.00 1.04964 0.02
3 4 3 1 o 103.229 83.457 0.00 1.04529 0.12
4 -5 0 1 o 81.327 90.870 180.00 1.05942 0.09
1 -5 -5 2 o 124.267 100.629 180.00 1.05152 0.07
5 -2 -7 1 o 33.922 27.788 180.00 1.03990 0.03
6 -1 -5 1 o 2.596 2.156 180.00 1.04478 0.00
5 -3 -6 1 o 41.406 33.691 180.00 1.03961 0.04
1 -6 1 2 o 89.346 71.984 0.00 1.05501 0.05
2 2 -9 1 o 4.551 3.631 180.00 1.04399 0.00
0 6 0 1 o 204.201 164.018 0.00 1.04833 0.26
0 6 -1 2 o 323.561 260.678 0.00 1.04959 0.20
6 -2 0 1 o 14.268 11.517 180.00 1.04285 0.01
5 2 -6 1 o 655.343 533.205 0.00 1.04702 0.66
6 -2 -4 2 o 455.155 365.773 0.00 1.04913 0.21
5 3 -2 2 o 114.887 91.857 180.00 1.04909 0.06
2 2 7 2 o 97.186 77.499 180.00 1.04882 0.05
4 4 0 1 o 18.680 15.050 0.00 1.04237 0.02
1 3 7 2 o 1321.908 1057.894 0.00 1.04867 0.72
1 -3 -8 2 o 39.022 31.314 180.00 1.04857 0.02
6 1 -1 1 o 34.446 28.513 180.00 1.03675 0.03
5 1 -7 2 o 16.630 13.500 0.00 1.04806 0.01
2 -1 8 1 o 171.841 139.358 0.00 1.04140 0.17
2 -4 -7 1 o 298.724 241.455 180.00 1.04156 0.31
6 0 -5 1 o 1.600 1.323 180.00 1.04098 0.00
6 1 -3 2 o 34.976 28.439 0.00 1.04721 0.02
4 -4 -6 1 o 5.083 4.203 0.00 1.03557 0.00
4 3 3 1 o 409.336 334.463 0.00 1.03541 0.44
3 -3 -8 1 o 97.761 80.125 0.00 1.03522 0.10
3 0 7 1 o 355.569 290.777 180.00 1.03503 0.35
4 -5 -2 2 o 296.653 233.453 180.00 1.06073 0.16
3 -1 7 2 o 231.699 189.050 180.00 1.04136 0.12
5 3 -1 1 o 1.737 1.350 180.00 1.03997 0.00
5 -4 0 2 o 357.972 280.561 180.00 1.06029 0.18
2 4 -7 2 o 50.342 41.407 0.00 1.04569 0.03
5 3 -3 2 o 1.551 1.302 0.00 1.04584 0.00
1 -6 2 1 o 411.008 337.986 0.00 1.03900 0.49
1 -6 -1 2 o 15.045 12.071 180.00 1.04964 0.01
4 -5 0 2 o 116.695 90.870 180.00 1.05942 0.06
3 4 3 2 o 101.332 83.457 0.00 1.04529 0.06
0 6 -2 1 o 1.516 1.257 180.00 1.03850 0.00
5 -2 -7 2 o 34.242 27.788 180.00 1.03990 0.02
5 2 2 1 o 71.844 58.538 0.00 1.03345 0.07
6 -1 -5 2 o 2.537 2.156 180.00 1.04478 0.00
5 -3 -6 2 o 41.966 33.691 180.00 1.03961 0.02
2 0 8 1 o 714.028 590.244 0.00 1.03784 0.72
3 2 6 1 o 353.518 285.091 180.00 1.03290 0.37
2 2 -9 2 o 4.423 3.631 180.00 1.04399 0.00
0 6 0 2 o 203.950 164.018 0.00 1.04833 0.13
5 -4 -4 1 o 21.078 17.386 0.00 1.03723 0.02
1 -4 7 1 o 167.135 136.747 0.00 1.03692 0.18
0 1 9 1 o 247.252 199.515 0.00 1.04116 0.25
6 -2 0 2 o 13.854 11.517 180.00 1.04285 0.01
5 2 -6 2 o 655.301 533.205 0.00 1.04702 0.33
4 4 0 2 o 18.337 15.050 0.00 1.04237 0.01
1 -4 7 2 o 168.774 136.747 0.00 1.03692 0.09
4 4 -4 1 o 465.828 380.777 0.00 1.03999 0.52
6 1 -1 2 o 34.960 28.513 180.00 1.03675 0.02
2 -1 8 2 o 170.116 139.358 0.00 1.04140 0.08
2 -4 -7 2 o 294.582 241.455 180.00 1.04156 0.15
1 -4 -7 1 o 416.244 338.876 0.00 1.03482 0.45
6 0 -5 2 o 1.590 1.323 180.00 1.04098 0.00
4 -5 -3 1 o 162.472 128.818 180.00 1.04247 0.17
4 -4 -6 2 o 5.062 4.203 0.00 1.03557 0.00
6 1 -4 1 o 62.644 50.632 180.00 1.03411 0.06
4 3 3 2 o 406.919 334.463 0.00 1.03541 0.22
3 -3 -8 2 o 96.939 80.125 0.00 1.03522 0.05
1 2 8 1 o 17.340 14.212 180.00 1.03367 0.02
2 5 -5 1 o 331.405 268.938 0.00 1.03344 0.39
3 0 7 2 o 351.616 290.777 180.00 1.03503 0.17
3 5 -2 1 o 6.726 5.434 180.00 1.03354 0.01
5 3 -1 2 o 1.760 1.350 180.00 1.03997 0.00
6 -1 1 1 o 95.805 79.383 180.00 1.02837 0.09
1 -6 2 2 o 419.252 337.986 0.00 1.03900 0.25
3 3 5 1 o 623.711 516.090 180.00 1.02750 0.67
0 6 -2 2 o 1.538 1.257 180.00 1.03850 0.00
2 -2 -9 1 o 23.046 18.529 0.00 1.03225 0.02
2 -6 0 1 o 3.838 3.087 180.00 1.03990 0.00
5 2 2 2 o 70.354 58.538 0.00 1.03345 0.03
1 -3 8 1 o 39.333 31.852 0.00 1.03149 0.04
0 2 -9 1 o 151.594 122.375 0.00 1.03154 0.15
3 5 -1 1 o 0.404 0.335 0.00 1.03158 0.00
2 0 8 2 o 731.426 590.244 0.00 1.03784 0.37
3 2 6 2 o 344.313 285.091 180.00 1.03290 0.18
5 -4 -4 2 o 21.578 17.386 0.00 1.03723 0.01
5 -1 4 1 o 0.344 0.289 0.00 1.02588 0.00
0 6 1 1 o 280.636 228.748 0.00 1.03486 0.34
0 1 9 2 o 244.688 199.515 0.00 1.04116 0.12
1 5 4 1 o 275.700 225.744 180.00 1.02976 0.32
4 4 -4 2 o 470.593 380.777 0.00 1.03999 0.26
1 -4 -7 2 o 410.122 338.876 0.00 1.03482 0.22
2 -6 -1 1 o 49.188 40.386 180.00 1.03596 0.06
4 -5 -3 2 o 155.617 128.818 180.00 1.04247 0.08
2 -6 1 1 o 41.066 32.885 180.00 1.03177 0.05
6 1 -4 2 o 61.015 50.632 180.00 1.03411 0.03
0 5 -6 1 o 119.771 97.320 0.00 1.02226 0.13
1 2 8 2 o 16.927 14.212 180.00 1.03367 0.01
2 5 -5 2 o 325.960 268.938 0.00 1.03344 0.19
3 5 -2 2 o 6.621 5.434 180.00 1.03354 0.00
6 -1 1 2 o 96.974 79.383 180.00 1.02837 0.04
4 -5 1 1 o 208.176 205.635 180.00 1.03999 0.22
5 3 -4 1 o 0.382 0.332 0.00 1.03056 0.00
4 2 -8 1 o 95.620 79.126 0.00 1.02606 0.09
4 -3 5 1 o 80.213 66.518 180.00 1.02592 0.08
3 -5 -5 1 o 47.432 39.314 0.00 1.02602 0.05
5 0 4 1 o 68.412 50.046 0.00 1.01574 0.06
3 3 5 2 o 642.148 516.090 180.00 1.02750 0.34
2 -2 -9 2 o 22.440 18.529 0.00 1.03225 0.01
2 -6 0 2 o 3.923 3.087 180.00 1.03990 0.00
1 4 6 1 o 92.724 76.485 180.00 1.02564 0.10
3 -4 -7 1 o 22.491 18.022 0.00 1.02063 0.02
1 -3 8 2 o 38.695 31.852 0.00 1.03149 0.02
0 2 -9 2 o 148.747 122.375 0.00 1.03154 0.07
3 5 -1 2 o 0.400 0.335 0.00 1.03158 0.00
3 -2 7 1 o 38.936 30.295 0.00 1.01988 0.04
5 -3 3 1 o 85.415 70.781 0.00 1.02473 0.08
1 -6 -2 1 o 119.564 98.515 0.00 1.02881 0.14
4 -3 5 2 o 85.243 66.518 180.00 1.02592 0.04
5 -1 4 2 o 0.365 0.289 0.00 1.02588 0.00
1 -2 -9 1 o 102.867 84.987 180.00 1.02433 0.10
0 6 1 2 o 278.707 228.748 0.00 1.03486 0.17
5 3 0 1 o 145.714 112.953 180.00 1.01940 0.15
5 -4 1 1 o 0.012 0.005 180.00 1.03490 0.00
3 5 -3 1 o 121.390 99.464 180.00 1.02367 0.14
1 5 4 2 o 275.072 225.744 180.00 1.02976 0.16
6 0 1 1 o 240.054 179.376 180.00 1.01782 0.22
0 5 5 1 o 72.392 58.795 0.00 1.02222 0.08
3 3 -8 1 o 73.598 59.995 180.00 1.02197 0.07
1 5 -6 1 o 291.876 217.587 0.00 1.01677 0.32
2 -6 -1 2 o 49.277 40.386 180.00 1.03596 0.03
2 -6 1 2 o 39.664 32.885 180.00 1.03177 0.02
0 5 -6 2 o 131.682 97.320 0.00 1.02226 0.07
6 -2 -5 1 o 3.920 3.185 0.00 1.02063 0.00
2 4 5 1 o 98.462 77.861 0.00 1.02049 0.11
4 -5 1 2 o 242.050 205.635 180.00 1.03999 0.13
2 -5 5 1 o 32.376 25.253 0.00 1.01971 0.03
5 3 -4 2 o 0.375 0.332 0.00 1.03056 0.00
4 2 -8 2 o 101.289 79.126 0.00 1.02606 0.05
3 -5 -5 2 o 50.317 39.314 0.00 1.02602 0.03
5 0 4 2 o 64.761 50.046 0.00 1.01574 0.03
1 4 6 2 o 99.167 76.485 180.00 1.02564 0.05
3 -4 -7 2 o 24.329 18.022 0.00 1.02063 0.01
6 -2 -5 2 o 4.218 3.185 0.00 1.02063 0.00
6 1 0 1 o 4.612 3.377 180.00 1.01424 0.00
3 -2 7 2 o 41.225 30.295 0.00 1.01988 0.02
5 -3 3 2 o 93.777 70.781 0.00 1.02473 0.04
1 -6 -2 2 o 120.455 98.515 0.00 1.02881 0.07
4 4 1 1 o 4.018 2.980 0.00 1.01353 0.00
4 -4 4 1 o 142.010 106.803 180.00 1.01788 0.13
4 3 -7 1 o 243.200 182.678 0.00 1.01797 0.24
3 5 0 1 o 64.283 48.872 180.00 1.01802 0.07
1 -2 -9 2 o 114.136 84.987 180.00 1.02433 0.06
3 -2 -9 1 o 49.095 36.763 180.00 1.01319 0.04
5 3 0 2 o 152.092 112.953 180.00 1.01940 0.08
5 -4 1 2 o 0.011 0.005 180.00 1.03490 0.00
2 -2 8 1 o 50.706 38.065 0.00 1.01730 0.05
3 5 -3 2 o 132.731 99.464 180.00 1.02367 0.07
6 -3 -2 1 o 356.392 288.377 180.00 1.02137 0.32
1 6 -1 1 o 78.660 59.287 0.00 1.01678 0.09
6 -2 1 1 o 11.856 8.889 0.00 1.01200 0.01
0 6 -3 1 o 29.268 21.788 180.00 1.01618 0.03
4 -1 6 1 o 0.032 0.022 0.00 1.01154 0.00
2 -6 -2 1 o 776.896 615.688 180.00 1.02036 0.86
6 0 1 2 o 235.605 179.376 180.00 1.01782 0.11
6 -3 -3 1 o 19.611 14.214 180.00 1.01595 0.02
0 5 5 2 o 80.244 58.795 0.00 1.02222 0.04
3 3 -8 2 o 82.056 59.995 180.00 1.02197 0.04
1 5 -6 2 o 283.479 217.587 0.00 1.01677 0.15
2 4 5 2 o 106.331 77.861 0.00 1.02049 0.06
5 -2 4 1 o 63.752 49.850 0.00 1.00930 0.06
0 3 8 1 o 18.680 13.594 180.00 1.01377 0.02
2 -5 5 2 o 34.219 25.253 0.00 1.01971 0.02
4 -5 -4 1 o 214.574 156.140 0.00 1.01365 0.21
6 1 0 2 o 4.392 3.377 180.00 1.01424 0.00
1 -6 3 1 o 3.800 2.954 180.00 1.01226 0.00
5 0 -8 1 o 155.818 119.044 180.00 1.00751 0.14
4 4 1 2 o 3.922 2.980 0.00 1.01353 0.00
1 -1 9 1 o 26.477 19.959 0.00 1.01166 0.03
4 -4 4 2 o 137.978 106.803 180.00 1.01788 0.06
4 3 -7 2 o 237.425 182.678 0.00 1.01797 0.11
4 0 -9 1 o 216.259 164.787 180.00 1.01172 0.20
3 5 0 2 o 64.223 48.872 180.00 1.01802 0.04
3 -2 -9 2 o 47.982 36.763 180.00 1.01319 0.02
1 6 0 1 o 18.033 13.670 180.00 1.01127 0.02
6 -3 -1 1 o 45.395 32.742 180.00 1.01535 0.04
2 -2 8 2 o 49.405 38.065 0.00 1.01730 0.02
1 6 -2 1 o 327.778 249.810 180.00 1.01100 0.38
6 -1 -6 1 o 59.394 45.107 180.00 1.00653 0.05
6 -3 -2 2 o 397.744 288.377 180.00 1.02137 0.18
1 6 -1 2 o 76.831 59.287 0.00 1.01678 0.04
6 -2 1 2 o 11.986 8.889 0.00 1.01200 0.01
0 6 -3 2 o 28.168 21.788 180.00 1.01618 0.02
6 1 -5 1 o 0.005 0.002 0.00 1.01012 0.00
4 -1 6 2 o 0.033 0.022 0.00 1.01154 0.00
2 -6 -2 2 o 846.902 615.688 180.00 1.02036 0.46
6 -3 -3 2 o 18.316 14.214 180.00 1.01595 0.01
3 -5 4 1 o 458.022 361.366 0.00 1.00927 0.46
3 2 -9 1 o 7.154 5.566 180.00 1.00928 0.01
5 -1 -8 1 o 6.582 4.696 0.00 1.00398 0.01
2 -6 2 1 o 12.402 9.360 180.00 1.01239 0.01
4 -1 -9 1 o 955.580 695.797 0.00 1.00341 0.84
2 5 3 1 o 33.894 25.988 0.00 1.00802 0.04
4 0 6 1 o 368.794 267.000 180.00 1.00322 0.34
5 -2 4 2 o 68.479 49.850 0.00 1.00930 0.03
0 3 8 2 o 17.811 13.594 180.00 1.01377 0.01
2 1 8 1 o 87.239 66.712 180.00 1.00743 0.08
4 -5 -4 2 o 204.680 156.140 0.00 1.01365 0.10
3 1 7 1 o 116.484 82.641 0.00 1.00235 0.11
1 0 9 1 o 909.490 703.805 0.00 1.01095 0.86
1 -5 6 1 o 488.467 341.755 180.00 1.00161 0.50
0 6 2 1 o 707.789 543.736 0.00 1.01052 0.80
1 -6 3 2 o 3.811 2.954 180.00 1.01226 0.00
4 4 -5 1 o 141.255 109.669 0.00 1.01025 0.15
5 0 -8 2 o 171.303 119.044 180.00 1.00751 0.07
1 -1 9 2 o 27.027 19.959 0.00 1.01166 0.01
4 0 -9 2 o 220.410 164.787 180.00 1.01172 0.10
1 6 0 2 o 18.560 13.670 180.00 1.01127 0.01
6 -3 -1 2 o 42.067 32.742 180.00 1.01535 0.02
1 6 -2 2 o 339.255 249.810 180.00 1.01100 0.19
6 -1 -6 2 o 65.644 45.107 180.00 1.00653 0.03
6 0 -6 1 o 131.053 97.421 0.00 1.00424 0.11
6 1 -5 2 o 0.007 0.002 0.00 1.01012 0.00
3 -5 4 2 o 497.029 361.366 0.00 1.00927 0.24
3 2 -9 2 o 7.726 5.566 180.00 1.00928 0.00
5 -4 -5 1 o 110.372 79.798 0.00 1.00318 0.10
3 5 -4 1 o 21.558 15.110 180.00 1.00297 0.02
5 -1 -8 2 o 7.577 4.696 0.00 1.00398 0.00
2 -6 2 2 o 12.350 9.360 180.00 1.01239 0.01
0 4 7 1 o 1.982 1.394 0.00 1.00196 0.00
4 -1 -9 2 o 1097.358 695.797 0.00 1.00341 0.47
2 5 3 2 o 36.778 25.988 0.00 1.00802 0.02
4 0 6 2 o 423.857 267.000 180.00 1.00322 0.19
2 1 8 2 o 95.874 66.712 180.00 1.00743 0.04
3 1 7 2 o 135.795 82.641 0.00 1.00235 0.06
1 0 9 2 o 946.948 703.805 0.00 1.01095 0.44
5 3 -5 1 o 21.686 16.156 180.00 1.00474 0.02
1 -5 6 2 o 558.616 341.755 180.00 1.00161 0.28
0 6 2 2 o 739.723 543.736 0.00 1.01052 0.41
4 4 -5 2 o 149.570 109.669 0.00 1.01025 0.08
4 -5 2 1 o 399.936 414.948 180.00 1.01022 0.40
6 -3 -4 1 o 48.922 33.157 0.00 0.99961 0.04
4 -2 6 1 o 82.261 49.945 180.00 0.99426 0.07
6 -3 0 1 o 233.132 153.251 180.00 0.99847 0.20
6 0 -6 2 o 149.203 97.421 0.00 1.00424 0.06
1 4 -8 1 o 12.359 7.510 180.00 0.99261 0.01
5 -4 -5 2 o 127.317 79.798 0.00 1.00318 0.06
3 5 -4 2 o 24.748 15.110 180.00 1.00297 0.01
5 2 -7 1 o 27.503 17.087 180.00 0.99666 0.02
5 -4 2 1 o 244.705 167.111 0.00 1.00023 0.22
0 4 7 2 o 2.315 1.394 0.00 1.00196 0.00
3 4 -7 1 o 17.174 10.743 180.00 0.99514 0.02
1 6 1 1 o 0.002 0.001 180.00 0.99499 0.00
1 6 -3 1 o 90.199 55.524 180.00 0.99449 0.10
5 3 -5 2 o 24.539 16.156 180.00 1.00474 0.01
4 -3 -8 1 o 15.007 10.015 0.00 0.99002 0.01
4 1 -9 1 o 30.432 18.329 180.00 0.99442 0.03
4 2 5 1 o 9.429 5.961 0.00 0.98984 0.01
1 -6 -3 1 o 69.726 45.602 180.00 0.99823 0.07
3 5 1 1 o 14.149 8.444 0.00 0.99415 0.02
5 3 1 1 o 416.930 277.463 180.00 0.98934 0.39
4 -5 2 2 o 473.933 414.948 180.00 1.01022 0.23
6 -3 -4 2 o 54.371 33.157 0.00 0.99961 0.02
4 -2 6 2 o 71.425 49.945 180.00 0.99426 0.03
2 -5 -6 1 o 256.498 157.565 180.00 0.99245 0.25
6 2 -2 1 o 32.785 22.826 0.00 0.98793 0.03
6 -3 0 2 o 250.238 153.251 180.00 0.99847 0.11
3 4 4 1 o 226.857 160.983 0.00 0.98775 0.23
2 0 -10 1 o 162.582 100.400 0.00 0.99211 0.14
6 1 1 1 o 275.082 227.973 0.00 0.98269 0.24
1 3 -9 1 o 75.520 47.824 0.00 0.99135 0.07
6 -1 2 1 o 101.325 74.732 0.00 0.98708 0.08
5 2 3 1 o 150.717 125.843 0.00 0.98207 0.13
1 4 -8 2 o 10.143 7.510 180.00 0.99261 0.01
2 5 -6 1 o 76.185 57.482 0.00 0.98635 0.08
0 4 -8 1 o 357.804 272.834 0.00 0.98604 0.34
2 -6 -3 1 o 262.958 156.478 180.00 0.99461 0.27
5 1 4 1 o 348.810 292.921 180.00 0.98111 0.30
5 2 -7 2 o 27.015 17.087 180.00 0.99666 0.01
6 -1 2 2 o 88.828 74.732 0.00 0.98708 0.04
5 -4 2 2 o 286.372 167.111 0.00 1.00023 0.13
5 -3 -7 1 o 80.073 63.297 180.00 0.98504 0.07
0 6 -4 1 o 112.532 88.997 180.00 0.98473 0.12
3 4 -7 2 o 15.563 10.743 180.00 0.99514 0.01
1 6 1 2 o 0.002 0.001 180.00 0.99499 0.00
1 6 -3 2 o 79.827 55.524 180.00 0.99449 0.04
4 -3 -8 2 o 12.147 10.015 0.00 0.99002 0.00
4 1 -9 2 o 26.287 18.329 180.00 0.99442 0.01
6 -2 -6 1 o 663.048 540.266 180.00 0.98386 0.54
1 -6 -3 2 o 73.132 45.602 180.00 0.99823 0.04
4 2 5 2 o 7.384 5.961 0.00 0.98984 0.00
6 2 -3 1 o 59.418 40.937 0.00 0.98821 0.05
3 5 1 2 o 12.265 8.444 0.00 0.99415 0.01
5 3 1 2 o 336.320 277.463 180.00 0.98934 0.16
2 -4 7 1 o 43.469 35.903 180.00 0.98263 0.04
1 -2 9 1 o 384.103 281.977 0.00 0.98712 0.34
0 2 9 1 o 361.618 226.591 0.00 0.99119 0.33
1 -5 -6 1 o 13.614 9.905 0.00 0.98723 0.01
2 -5 -6 2 o 206.729 157.565 180.00 0.99245 0.10
6 2 -2 2 o 27.227 22.826 0.00 0.98793 0.01
6 0 2 1 o 255.923 212.807 180.00 0.97673 0.21
2 0 -10 2 o 129.515 100.400 0.00 0.99211 0.06
3 4 4 2 o 192.853 160.983 0.00 0.98775 0.10
5 1 -8 1 o 45.463 35.876 180.00 0.98593 0.04
6 1 1 2 o 274.000 227.973 0.00 0.98269 0.12
1 3 -9 2 o 60.860 47.824 0.00 0.99135 0.03
5 2 3 2 o 149.061 125.843 0.00 0.98207 0.07
1 1 9 1 o 224.878 180.155 180.00 0.98514 0.21
0 2 9 2 o 280.528 226.591 0.00 0.99119 0.13
2 5 -6 2 o 68.719 57.482 0.00 0.98635 0.03
0 4 -8 2 o 326.193 272.834 0.00 0.98604 0.15
2 -6 -3 2 o 229.224 156.478 180.00 0.99461 0.12
3 -6 -1 1 o 283.108 176.224 180.00 0.99695 0.28
5 1 4 2 o 339.538 292.921 180.00 0.98111 0.15
1 0 -10 1 o 29.719 20.925 0.00 0.98789 0.03
3 -6 0 1 o 20.925 12.016 180.00 0.99628 0.02
2 -6 3 1 o 373.637 309.357 0.00 0.98359 0.37
2 1 -10 1 o 47.284 38.851 0.00 0.98350 0.04
3 -4 6 1 o 245.487 201.773 180.00 0.98337 0.23
5 -3 -7 2 o 75.878 63.297 180.00 0.98504 0.03
0 6 -4 2 o 106.944 88.997 180.00 0.98473 0.06
6 -2 -6 2 o 650.610 540.266 180.00 0.98386 0.26
6 2 -3 2 o 48.561 40.937 0.00 0.98821 0.02
6 2 -1 1 o 6.044 5.053 180.00 0.97738 0.00
2 3 -9 1 o 15.421 12.933 180.00 0.98123 0.01
2 -4 7 2 o 42.792 35.903 180.00 0.98263 0.02
1 -2 9 2 o 335.723 281.977 0.00 0.98712 0.15
1 -5 -6 2 o 11.784 9.905 0.00 0.98723 0.01
4 4 2 1 o 8.013 6.708 180.00 0.97670 0.01
4 -4 -7 1 o 281.985 235.642 0.00 0.97664 0.24
4 3 4 1 o 49.389 41.456 180.00 0.97648 0.05
5 -2 -8 1 o 81.771 68.866 180.00 0.97609 0.07
4 1 6 1 o 35.303 30.950 180.00 0.97110 0.03
3 -3 7 1 o 7.469 6.431 0.00 0.97535 0.01
6 0 2 2 o 244.447 212.807 180.00 0.97673 0.10
5 1 -8 2 o 42.138 35.876 180.00 0.98593 0.02
3 -6 -2 1 o 173.905 130.997 0.00 0.98704 0.17
1 1 9 2 o 215.003 180.155 180.00 0.98514 0.10
1 1 -10 1 o 144.246 119.795 180.00 0.98276 0.13
3 -6 -1 2 o 281.959 176.224 180.00 0.99695 0.14
6 -3 -5 1 o 190.502 168.592 0.00 0.97387 0.15
6 2 -4 1 o 115.869 95.243 0.00 0.97819 0.10
3 -5 -6 1 o 82.969 73.890 0.00 0.97370 0.08
1 0 -10 2 o 24.810 20.925 0.00 0.98789 0.01
6 -2 2 1 o 37.016 32.881 0.00 0.97357 0.03
3 -6 0 2 o 19.903 12.016 180.00 0.99628 0.01
2 -6 3 2 o 375.159 309.357 0.00 0.98359 0.18
0 3 -9 1 o 0.603 0.503 180.00 0.97746 0.00
0 6 3 1 o 169.786 142.619 180.00 0.97755 0.17
2 1 -10 2 o 46.917 38.851 0.00 0.98350 0.02
3 -4 6 2 o 243.005 201.773 180.00 0.98337 0.11
1 -6 4 1 o 2.727 2.313 180.00 0.97722 0.00
6 1 -6 1 o 92.410 75.324 0.00 0.97746 0.08
4 -5 -5 1 o 2.704 2.267 180.00 0.97683 0.00
2 -1 -10 1 o 446.651 372.688 180.00 0.97653 0.39
4 -2 -9 1 o 474.793 418.314 180.00 0.97128 0.39
6 2 -1 2 o 5.655 5.053 180.00 0.97738 0.00
2 -3 8 1 o 43.393 37.986 180.00 0.97081 0.04
2 4 -8 1 o 164.628 142.315 0.00 0.97516 0.15
2 3 -9 2 o 14.996 12.933 180.00 0.98123 0.01
3 -6 1 1 o 126.441 106.367 0.00 0.98508 0.12
4 4 2 2 o 7.699 6.708 180.00 0.97670 0.00
4 -4 -7 2 o 270.139 235.642 0.00 0.97664 0.12
4 3 4 2 o 47.554 41.456 180.00 0.97648 0.02
5 -2 -8 2 o 79.751 68.866 180.00 0.97609 0.03
4 1 6 2 o 35.981 30.950 180.00 0.97110 0.02
5 -3 4 1 o 230.173 196.865 0.00 0.96960 0.20
3 -3 7 2 o 7.483 6.431 0.00 0.97535 0.00
3 -6 -2 2 o 151.341 130.997 0.00 0.98704 0.07
2 4 -8 2 o 166.488 142.315 0.00 0.97516 0.08
3 5 -5 1 o 341.722 302.324 180.00 0.97333 0.35
1 6 -4 1 o 57.355 49.126 0.00 0.96875 0.06
1 1 -10 2 o 143.145 119.795 180.00 0.98276 0.06
4 4 -6 1 o 0.472 0.435 180.00 0.97279 0.00
3 0 -10 1 o 94.429 84.772 180.00 0.97244 0.08
6 -3 1 1 o 502.718 454.595 180.00 0.97228 0.41
6 -3 -5 2 o 201.442 168.592 0.00 0.97387 0.08
6 2 -4 2 o 104.861 95.243 0.00 0.97819 0.04
3 -5 -6 2 o 88.715 73.890 0.00 0.97370 0.04
6 -2 2 2 o 39.825 32.881 0.00 0.97357 0.02
0 3 -9 2 o 0.572 0.503 180.00 0.97746 0.00
0 6 3 2 o 161.179 142.619 180.00 0.97755 0.08
1 -6 4 2 o 2.595 2.313 180.00 0.97722 0.00
6 1 -6 2 o 84.116 75.324 0.00 0.97746 0.03
1 5 5 1 o 531.573 469.305 180.00 0.97138 0.53
2 -3 -9 1 o 64.162 53.235 0.00 0.96669 0.06
4 -5 -5 2 o 2.561 2.267 180.00 0.97683 0.00
2 -1 -10 2 o 427.169 372.688 180.00 0.97653 0.18
4 -2 -9 2 o 486.338 418.314 180.00 0.97128 0.20
1 6 2 1 o 114.285 98.359 0.00 0.96945 0.12
2 -3 8 2 o 43.443 37.986 180.00 0.97081 0.02
3 -6 1 2 o 125.722 106.367 0.00 0.98508 0.06
4 -5 3 1 o 6.399 5.970 180.00 0.97275 0.01
2 3 7 1 o 13.485 11.355 0.00 0.96905 0.01
2 -4 -8 1 o 1.000 0.884 0.00 0.96395 0.00
5 -3 4 2 o 219.671 196.865 0.00 0.96960 0.09
5 -1 5 1 o 137.727 137.498 0.00 0.95890 0.11
3 5 -5 2 o 359.224 302.324 180.00 0.97333 0.18
1 6 -4 2 o 53.448 49.126 0.00 0.96875 0.03
5 3 -6 1 o 166.154 145.991 180.00 0.97071 0.15
4 4 -6 2 o 0.503 0.435 180.00 0.97279 0.00
5 -4 -6 1 o 233.101 215.888 0.00 0.96246 0.19
6 -1 -7 1 o 36.130 33.447 180.00 0.96240 0.03
3 0 -10 2 o 101.677 84.772 180.00 0.97244 0.04
6 -3 1 2 o 547.044 454.595 180.00 0.97228 0.22
6 0 -7 1 o 44.899 43.193 0.00 0.96135 0.04
1 -1 -10 1 o 113.701 96.993 180.00 0.96923 0.10
1 5 5 2 o 545.609 469.305 180.00 0.97138 0.27
3 -1 -10 1 o 58.027 56.324 180.00 0.96090 0.05
2 -3 -9 2 o 54.517 53.235 0.00 0.96669 0.02
3 -6 -3 1 o 88.589 72.465 0.00 0.96746 0.08
2 -5 6 1 o 104.012 103.631 180.00 0.95920 0.09
0 5 -7 1 o 223.190 220.396 0.00 0.95917 0.21
2 6 -1 1 o 688.646 619.323 180.00 0.96359 0.71
1 6 2 2 o 108.995 98.359 0.00 0.96945 0.06
4 -5 3 2 o 7.511 5.970 180.00 0.97275 0.00
2 3 7 2 o 12.502 11.355 0.00 0.96905 0.01
1 5 -7 1 o 121.544 120.663 0.00 0.95830 0.12
2 6 -2 1 o 4.876 4.523 0.00 0.96239 0.00
2 -4 -8 2 o 0.877 0.884 0.00 0.96395 0.00
3 5 2 1 o 2.921 2.748 180.00 0.96208 0.00
5 -1 5 2 o 146.562 137.498 0.00 0.95890 0.06
6 2 0 1 o 219.981 221.529 0.00 0.95750 0.18
1 -4 8 1 o 42.059 41.831 0.00 0.95681 0.04
3 1 -10 1 o 43.924 42.490 180.00 0.96115 0.04
5 3 -6 2 o 168.130 145.991 180.00 0.97071 0.07
2 -6 -4 1 o 0.956 0.930 0.00 0.96095 0.00
5 -4 -6 2 o 215.472 215.888 0.00 0.96246 0.09
6 -1 -7 2 o 33.317 33.447 180.00 0.96240 0.01
1 -6 -4 1 o 824.720 807.202 180.00 0.96047 0.81
1 -1 -10 2 o 106.572 96.993 180.00 0.96923 0.04
6 0 -7 2 o 42.938 43.193 0.00 0.96135 0.02
4 -3 6 1 o 0.050 0.050 0.00 0.95502 0.00
5 -4 3 1 o 45.905 47.001 0.00 0.95912 0.04
1 3 8 1 o 345.495 350.005 0.00 0.95925 0.31
3 -1 -10 2 o 56.690 56.324 180.00 0.96090 0.02
0 5 6 1 o 4.105 4.110 0.00 0.95913 0.00
4 -4 5 1 o 5.873 5.942 0.00 0.95886 0.01
5 -5 -1 1 o 44.612 38.944 180.00 0.97085 0.04
4 3 -8 1 o 139.431 141.577 180.00 0.95896 0.12
2 5 4 1 o 3.266 3.251 0.00 0.95886 0.00
6 2 -5 1 o 132.632 136.565 0.00 0.95877 0.11
5 0 5 1 o 70.765 58.044 180.00 0.94967 0.06
5 -5 -2 1 o 47.990 41.591 0.00 0.97024 0.04
3 3 6 1 o 70.744 69.410 180.00 0.95429 0.07
3 -3 -9 1 o 0.128 0.124 0.00 0.95406 0.00
3 -6 -3 2 o 75.298 72.465 0.00 0.96746 0.03
2 -5 6 2 o 109.316 103.631 180.00 0.95920 0.05
2 6 -1 2 o 625.659 619.323 180.00 0.96359 0.32
0 5 -7 2 o 234.758 220.396 0.00 0.95917 0.11
3 -6 2 1 o 75.516 66.590 180.00 0.96438 0.07
0 0 10 1 o 126.646 124.087 180.00 0.96065 0.11
1 -3 -9 1 o 20.833 21.037 180.00 0.95703 0.02
1 5 -7 2 o 132.463 120.663 0.00 0.95830 0.06
2 2 8 1 o 2.114 2.132 0.00 0.95662 0.00
2 6 -2 2 o 4.581 4.523 0.00 0.96239 0.00
3 -5 5 1 o 226.392 228.009 0.00 0.95624 0.20
5 3 2 1 o 344.211 314.750 0.00 0.95229 0.30
3 5 2 2 o 2.773 2.748 180.00 0.96208 0.00
6 2 0 2 o 249.413 221.529 0.00 0.95750 0.10
0 1 -10 1 o 92.336 92.457 180.00 0.95906 0.08
1 -4 8 2 o 48.692 41.831 0.00 0.95681 0.02
3 1 -10 2 o 42.539 42.490 180.00 0.96115 0.02
2 6 0 1 o 308.316 300.631 180.00 0.95521 0.31
4 2 -9 1 o 90.728 91.242 180.00 0.95515 0.07
1 2 -10 1 o 50.222 49.488 0.00 0.95491 0.04
2 -6 -4 2 o 0.934 0.930 0.00 0.96095 0.00
3 -4 -8 1 o 396.399 340.277 180.00 0.95088 0.33
1 -4 -8 1 o 7.353 7.331 180.00 0.95492 0.01
1 -6 -4 2 o 823.145 807.202 180.00 0.96047 0.40
3 -1 8 1 o 755.742 628.860 180.00 0.95013 0.62
3 2 7 1 o 1.044 0.890 0.00 0.95013 0.00
4 -3 6 2 o 0.059 0.050 0.00 0.95502 0.00
5 -4 3 2 o 48.570 47.001 0.00 0.95912 0.02
6 1 2 1 o 179.644 142.881 0.00 0.94464 0.14
1 3 8 2 o 363.274 350.005 0.00 0.95925 0.16
5 -5 -1 2 o 42.814 38.944 180.00 0.97085 0.02
0 5 6 2 o 4.357 4.110 0.00 0.95913 0.00
4 -4 5 2 o 6.304 5.942 0.00 0.95886 0.00
4 3 -8 2 o 148.503 141.577 180.00 0.95896 0.06
5 -5 -3 1 o 5.188 5.309 0.00 0.95990 0.00
2 5 4 2 o 3.482 3.251 0.00 0.95886 0.00
6 2 -5 2 o 142.576 136.565 0.00 0.95877 0.06
2 2 -10 1 o 27.310 25.146 180.00 0.95249 0.02
5 -5 -2 2 o 46.959 41.591 0.00 0.97024 0.02
5 0 5 2 o 72.725 58.044 180.00 0.94967 0.03
3 3 6 2 o 88.569 69.410 180.00 0.95429 0.04
3 -3 -9 2 o 0.161 0.124 0.00 0.95406 0.00
2 6 -3 1 o 1.788 1.585 180.00 0.95171 0.00
3 -6 2 2 o 64.101 66.590 180.00 0.96438 0.03
2 4 6 1 o 180.198 158.298 0.00 0.95134 0.17
0 0 10 2 o 124.862 124.087 180.00 0.96065 0.05
1 -3 -9 2 o 24.130 21.037 180.00 0.95703 0.01
0 6 -5 1 o 58.141 46.256 180.00 0.94670 0.05
2 2 8 2 o 2.465 2.132 0.00 0.95662 0.00
3 -5 5 2 o 273.346 228.009 0.00 0.95624 0.12
5 -2 5 1 o 253.440 199.772 180.00 0.94624 0.20
5 3 2 2 o 397.774 314.750 0.00 0.95229 0.17
5 -5 0 1 o 3.474 3.447 0.00 0.96167 0.00
6 -1 3 1 o 50.920 40.823 180.00 0.94123 0.04
1 4 7 1 o 134.536 109.382 180.00 0.94977 0.12
0 1 -10 2 o 97.594 92.457 180.00 0.95906 0.04
2 6 0 2 o 364.949 300.631 180.00 0.95521 0.18
4 2 -9 2 o 114.847 91.242 180.00 0.95515 0.05
3 3 -9 1 o 5.779 4.719 0.00 0.94917 0.00
1 2 -10 2 o 61.187 49.488 0.00 0.95491 0.02
3 -4 -8 2 o 427.772 340.277 180.00 0.95088 0.18
1 -4 -8 2 o 9.035 7.331 180.00 0.95492 0.00
3 0 8 1 o 14.381 11.506 180.00 0.94440 0.01
3 -1 8 2 o 789.434 628.860 180.00 0.95013 0.32
3 2 7 2 o 1.076 0.890 0.00 0.95013 0.00
6 -4 -2 1 o 20.047 20.273 180.00 0.95475 0.02
2 -6 4 1 o 1.672 1.321 180.00 0.94775 0.00
6 1 2 2 o 158.148 142.881 0.00 0.94464 0.06
5 -5 -3 2 o 5.296 5.309 0.00 0.95990 0.00
2 2 -10 2 o 32.103 25.146 180.00 0.95249 0.01
5 4 -2 1 o 46.188 36.351 0.00 0.94624 0.04
2 6 -3 2 o 2.001 1.585 180.00 0.95171 0.00
5 0 -9 1 o 142.537 111.560 180.00 0.94183 0.11
6 -4 -3 1 o 39.880 31.453 0.00 0.94939 0.03
6 -2 -7 1 o 8.379 6.658 180.00 0.94161 0.01
2 4 6 2 o 199.814 158.298 0.00 0.95134 0.09
0 6 -5 2 o 56.140 46.256 180.00 0.94670 0.03
6 -3 -6 1 o 0.090 0.062 0.00 0.94086 0.00
5 4 -3 1 o 12.877 10.378 0.00 0.94476 0.01
2 -1 9 1 o 0.053 0.035 0.00 0.94452 0.00
5 -2 5 2 o 242.549 199.772 180.00 0.94624 0.10
5 -5 0 2 o 3.013 3.447 0.00 0.96167 0.00
6 -4 -1 1 o 106.501 90.418 180.00 0.95075 0.08
6 -1 3 2 o 40.047 40.823 180.00 0.94123 0.02
1 4 7 2 o 137.939 109.382 180.00 0.94977 0.06
5 2 -8 1 o 51.518 41.199 180.00 0.94369 0.04
3 3 -9 2 o 5.849 4.719 0.00 0.94917 0.00
7 -1 -3 1 o 70.267 61.337 180.00 0.93932 0.05
6 -3 2 1 o 3.631 3.253 180.00 0.93895 0.00
1 -5 7 1 o 321.346 293.446 180.00 0.93856 0.28
3 0 8 2 o 12.511 11.506 180.00 0.94440 0.00
1 -3 9 1 o 6.739 5.278 180.00 0.94240 0.01
5 4 -1 1 o 1.152 1.067 180.00 0.93863 0.00
7 -1 -2 1 o 122.009 114.385 180.00 0.93830 0.09
6 -4 -2 2 o 26.102 20.273 180.00 0.95475 0.01
2 -6 4 2 o 1.672 1.321 180.00 0.94775 0.00
5 -1 -9 1 o 0.167 0.158 180.00 0.93805 0.00
2 0 9 1 o 15.501 12.346 0.00 0.94096 0.01
1 -6 5 1 o 10.790 10.770 180.00 0.93655 0.01
5 -5 -4 1 o 14.614 11.374 0.00 0.94073 0.01
4 5 -2 1 o 5.858 4.832 180.00 0.94039 0.01
2 5 -7 1 o 6.305 6.293 180.00 0.93614 0.01
5 4 -2 2 o 44.248 36.351 0.00 0.94624 0.02
1 6 -5 1 o 126.510 126.037 180.00 0.93590 0.12
5 0 -9 2 o 108.354 111.560 180.00 0.94183 0.04
6 -4 -3 2 o 40.106 31.453 0.00 0.94939 0.02
2 -2 -10 1 o 15.094 12.638 180.00 0.93993 0.01
3 -6 -4 1 o 114.677 95.651 0.00 0.93987 0.10
6 0 3 1 o 0.535 0.539 180.00 0.93136 0.00
6 -2 -7 2 o 6.562 6.658 180.00 0.94161 0.00
1 2 9 1 o 63.337 53.839 0.00 0.93953 0.05
6 -3 -6 2 o 0.060 0.062 0.00 0.94086 0.00
5 4 -3 2 o 11.504 10.378 0.00 0.94476 0.00
2 -1 9 2 o 0.042 0.035 0.00 0.94452 0.00
3 -2 8 1 o 303.942 308.655 0.00 0.93462 0.24
4 -5 -6 1 o 1.936 1.983 0.00 0.93477 0.00
6 1 -7 1 o 9.372 8.627 180.00 0.93867 0.01
4 4 3 1 o 25.422 25.816 180.00 0.93464 0.02
0 6 4 1 o 36.374 33.435 180.00 0.93851 0.03
6 2 1 1 o 1.505 1.468 0.00 0.92994 0.00
6 -4 -1 2 o 113.163 90.418 180.00 0.95075 0.04
2 6 1 1 o 132.172 123.540 0.00 0.93797 0.13
5 2 -8 2 o 41.306 41.199 180.00 0.94369 0.02
7 -1 -3 2 o 60.089 61.337 180.00 0.93932 0.02
3 4 -8 1 o 252.779 249.031 0.00 0.93722 0.22
3 5 -6 1 o 32.036 31.342 180.00 0.93712 0.03
5 2 4 1 o 1.539 1.468 180.00 0.92886 0.00
6 -3 2 2 o 3.177 3.253 180.00 0.93895 0.00
0 1 10 1 o 1.592 1.221 0.00 0.94049 0.00
1 -5 7 2 o 289.840 293.446 180.00 0.93856 0.13
1 -3 9 2 o 5.335 5.278 180.00 0.94240 0.00
4 0 -10 1 o 3.157 3.225 180.00 0.93282 0.00
1 6 3 1 o 81.166 79.688 0.00 0.93675 0.08
5 4 -1 2 o 1.052 1.067 180.00 0.93863 0.00
4 -1 7 1 o 61.450 62.451 180.00 0.93266 0.05
2 6 -4 1 o 12.454 12.533 0.00 0.93247 0.01
4 5 -3 1 o 70.708 70.511 180.00 0.93637 0.07
7 -1 -2 2 o 112.016 114.385 180.00 0.93830 0.04
2 -5 -7 1 o 1.010 1.031 180.00 0.93243 0.00
0 2 -10 1 o 37.688 37.955 0.00 0.93604 0.03
5 -1 -9 2 o 0.155 0.158 180.00 0.93805 0.00
7 0 -3 1 o 678.964 694.743 0.00 0.93189 0.50
4 5 -1 1 o 146.052 147.108 180.00 0.93546 0.14
7 -1 -4 1 o 15.950 16.181 0.00 0.93147 0.01
2 0 9 2 o 12.045 12.346 0.00 0.94096 0.01
6 -4 -4 1 o 340.101 349.878 0.00 0.93512 0.26
1 -6 5 2 o 10.827 10.770 180.00 0.93655 0.00
5 -5 -4 2 o 11.008 11.374 0.00 0.94073 0.00
4 5 -2 2 o 4.761 4.832 180.00 0.94039 0.00
2 5 -7 2 o 6.390 6.293 180.00 0.93614 0.00
6 -2 3 1 o 321.118 317.669 0.00 0.93037 0.24
5 4 -4 1 o 76.328 78.143 180.00 0.93433 0.06
1 6 -5 2 o 128.514 126.037 180.00 0.93590 0.06
2 -2 -10 2 o 12.346 12.638 180.00 0.93993 0.00
3 -6 -4 2 o 93.377 95.651 0.00 0.93987 0.04
6 0 3 2 o 0.567 0.539 180.00 0.93136 0.00
7 0 -2 1 o 75.064 73.621 0.00 0.93001 0.06
3 4 5 1 o 3.255 3.179 0.00 0.92994 0.00
1 2 9 2 o 52.487 53.839 0.00 0.93953 0.02
4 0 7 1 o 42.847 40.831 180.00 0.92527 0.03
5 -3 -8 1 o 206.541 200.160 180.00 0.92942 0.15
3 -2 8 2 o 321.654 308.655 0.00 0.93462 0.13
4 -5 -6 2 o 2.080 1.983 0.00 0.93477 0.00
6 1 -7 2 o 8.338 8.627 180.00 0.93867 0.00
3 -2 -10 1 o 113.360 108.255 0.00 0.92882 0.09
4 4 3 2 o 26.912 25.816 180.00 0.93464 0.01
0 6 4 2 o 32.879 33.435 180.00 0.93851 0.01
3 -6 3 1 o 9.427 10.075 180.00 0.93592 0.01
5 -5 1 1 o 29.367 28.022 0.00 0.94351 0.02
6 2 1 2 o 1.547 1.468 0.00 0.92994 0.00
7 -1 -1 1 o 11.007 10.472 180.00 0.92848 0.01
2 6 1 2 o 122.432 123.540 0.00 0.93797 0.06
3 4 -8 2 o 245.930 249.031 0.00 0.93722 0.10
6 2 -6 1 o 1.698 1.787 0.00 0.93158 0.00
3 5 -6 2 o 31.123 31.342 180.00 0.93712 0.01
6 -4 0 1 o 0.061 0.062 0.00 0.93774 0.00
5 2 4 2 o 1.546 1.468 180.00 0.92886 0.00
0 1 10 2 o 1.174 1.221 0.00 0.94049 0.00
5 3 -7 1 o 36.354 37.339 180.00 0.93105 0.03
4 0 -10 2 o 3.394 3.225 180.00 0.93282 0.00
1 6 3 2 o 79.723 79.688 0.00 0.93675 0.04
4 -1 7 2 o 65.558 62.451 180.00 0.93266 0.02
2 6 -4 2 o 13.097 12.533 0.00 0.93247 0.01
4 5 -3 2 o 70.882 70.511 180.00 0.93637 0.03
2 -5 -7 2 o 1.085 1.031 180.00 0.93243 0.00
1 -2 -10 1 o 48.091 48.164 0.00 0.93054 0.04
4 -5 4 1 o 64.477 64.364 0.00 0.93031 0.05
4 4 -7 1 o 33.099 32.912 180.00 0.93037 0.03
0 2 -10 2 o 38.383 37.955 0.00 0.93604 0.02
7 -2 -3 1 o 31.326 29.928 0.00 0.92619 0.02
7 0 -3 2 o 727.344 694.743 0.00 0.93189 0.26
7 -2 -2 1 o 12.908 12.354 0.00 0.92606 0.01
4 2 6 1 o 115.273 111.171 180.00 0.92144 0.09
4 5 -1 2 o 150.423 147.108 180.00 0.93546 0.07
7 -1 -4 2 o 16.908 16.181 0.00 0.93147 0.01
4 -6 -1 1 o 13.695 7.991 180.00 0.94043 0.01
3 2 -10 1 o 12.715 12.253 180.00 0.92927 0.01
4 -1 -10 1 o 16.026 15.367 180.00 0.92543 0.01
6 -4 -4 2 o 362.977 349.878 0.00 0.93512 0.14
7 0 -4 1 o 2.411 2.329 180.00 0.92507 0.00
5 1 5 1 o 20.689 20.058 180.00 0.92034 0.02
6 -2 3 2 o 332.608 317.669 0.00 0.93037 0.12
5 4 -4 2 o 82.153 78.143 180.00 0.93433 0.03
3 5 3 1 o 238.601 228.278 0.00 0.92426 0.22
7 0 -2 2 o 77.258 73.621 0.00 0.93001 0.03
3 4 5 2 o 3.348 3.179 0.00 0.92994 0.00
4 0 7 2 o 42.038 40.831 180.00 0.92527 0.02
5 -3 -8 2 o 209.335 200.160 180.00 0.92942 0.08
2 -2 9 1 o 39.536 37.787 180.00 0.92729 0.03
0 3 9 1 o 5.037 4.781 180.00 0.92698 0.00
3 -2 -10 2 o 113.620 108.255 0.00 0.92882 0.04
3 -6 3 2 o 10.148 10.075 180.00 0.93592 0.00
5 -5 1 2 o 15.604 28.022 0.00 0.94351 0.01
7 -1 -1 2 o 10.971 10.472 180.00 0.92848 0.00
5 4 0 1 o 10.706 10.255 0.00 0.92257 0.01
4 3 5 1 o 0.451 0.439 180.00 0.91809 0.00
6 2 -6 2 o 1.847 1.787 0.00 0.93158 0.00
6 -4 0 2 o 0.058 0.062 0.00 0.93774 0.00
4 -6 0 1 o 0.794 1.193 180.00 0.93640 0.00
0 4 8 1 o 37.627 36.197 0.00 0.92557 0.03
4 -3 -9 1 o 18.544 17.892 180.00 0.92160 0.01
5 3 -7 2 o 38.648 37.339 180.00 0.93105 0.02
5 1 -9 1 o 286.179 275.157 180.00 0.92499 0.21
1 -2 -10 2 o 50.150 48.164 0.00 0.93054 0.02
4 -5 4 2 o 67.200 64.364 0.00 0.93031 0.03
1 -5 -7 1 o 171.784 164.899 0.00 0.92476 0.14
4 4 -7 2 o 34.314 32.912 180.00 0.93037 0.01
4 -6 -2 1 o 75.493 81.114 0.00 0.93552 0.06
7 -2 -3 2 o 30.766 29.928 0.00 0.92619 0.01
7 -2 -2 2 o 12.686 12.354 0.00 0.92606 0.00
3 -5 -7 1 o 55.129 53.652 180.00 0.92009 0.04
4 -2 7 1 o 5.273 5.144 180.00 0.91990 0.00
4 2 6 2 o 110.022 111.171 180.00 0.92144 0.04
1 4 -9 1 o 84.079 82.027 180.00 0.91977 0.07
4 -6 -1 2 o 9.445 7.991 180.00 0.94043 0.00
4 5 -4 1 o 18.017 17.297 0.00 0.92374 0.02
3 2 -10 2 o 12.869 12.253 180.00 0.92927 0.01
4 -1 -10 2 o 15.767 15.367 180.00 0.92543 0.01
7 0 -1 1 o 120.383 117.176 180.00 0.91960 0.08
7 0 -4 2 o 2.385 2.329 180.00 0.92507 0.00
5 1 5 2 o 19.487 20.058 180.00 0.92034 0.01
3 1 8 1 o 21.435 20.879 180.00 0.91854 0.02
3 5 3 2 o 232.885 228.278 0.00 0.92426 0.10
4 -4 -8 1 o 128.755 125.876 0.00 0.91824 0.10
7 0 -1 2 o 112.678 117.176 180.00 0.91960 0.04
4 5 0 1 o 366.035 352.829 180.00 0.92199 0.33
2 -6 -5 1 o 8.632 8.310 0.00 0.92188 0.01
2 -2 9 2 o 39.180 37.787 180.00 0.92729 0.02
5 -4 -7 1 o 0.740 0.726 180.00 0.91784 0.00
7 -2 -4 1 o 270.712 264.701 180.00 0.91781 0.19
7 -2 -1 1 o 232.880 228.259 180.00 0.91745 0.16
0 3 9 2 o 4.941 4.781 180.00 0.92698 0.00
6 3 -2 1 o 104.999 103.649 180.00 0.91692 0.08
5 4 0 2 o 10.318 10.255 0.00 0.92257 0.00
4 3 5 2 o 0.400 0.439 180.00 0.91809 0.00
3 -4 7 1 o 83.748 84.257 180.00 0.91611 0.07
4 1 -10 1 o 97.403 94.717 180.00 0.92004 0.07
4 -6 0 2 o 1.330 1.193 180.00 0.93640 0.00
0 4 8 2 o 37.217 36.197 0.00 0.92557 0.02
4 -3 -9 2 o 17.727 17.892 180.00 0.92160 0.01
5 1 -9 2 o 283.958 275.157 180.00 0.92499 0.10
7 -1 -5 1 o 25.170 25.574 180.00 0.91538 0.02
4 -6 -2 2 o 85.120 81.114 0.00 0.93552 0.04
1 -5 -7 2 o 169.448 164.899 0.00 0.92476 0.07
6 -1 -8 1 o 8.423 8.590 180.00 0.91518 0.01
6 0 -8 1 o 9.812 10.004 0.00 0.91511 0.01
5 3 3 1 o 79.295 88.957 0.00 0.91082 0.06
7 -1 0 1 o 2.726 3.101 0.00 0.91067 0.00
3 -5 -7 2 o 51.950 53.652 180.00 0.92009 0.02
1 -6 -5 1 o 135.243 132.204 180.00 0.91819 0.12
4 -2 7 2 o 4.964 5.144 180.00 0.91990 0.00
5 -2 -9 1 o 94.153 97.509 180.00 0.91435 0.07
1 4 -9 2 o 78.603 82.027 180.00 0.91977 0.03
4 5 -4 2 o 17.610 17.297 0.00 0.92374 0.01
5 -3 5 1 o 299.002 310.412 0.00 0.91412 0.22
6 3 -3 1 o 271.717 263.629 0.00 0.91798 0.21
2 1 9 1 o 4.296 4.212 180.00 0.91728 0.00
1 -1 10 1 o 289.259 286.572 0.00 0.91700 0.22
5 -2 -9 2 o 81.564 97.509 180.00 0.91435 0.03
3 1 8 2 o 19.687 20.879 180.00 0.91854 0.01
4 -4 -8 2 o 117.231 125.876 0.00 0.91824 0.04
4 5 0 2 o 350.884 352.829 180.00 0.92199 0.15
2 -6 -5 2 o 8.290 8.310 0.00 0.92188 0.00
5 -4 -7 2 o 0.672 0.726 180.00 0.91784 0.00
7 -2 -4 2 o 244.240 264.701 180.00 0.91781 0.08
4 -6 -3 1 o 251.861 238.812 0.00 0.92207 0.21
5 4 -5 1 o 7.995 8.062 180.00 0.91580 0.01
1 0 10 1 o 6.692 6.769 0.00 0.91564 0.00
7 -2 -1 2 o 208.715 228.259 180.00 0.91745 0.07
0 4 -9 1 o 23.070 25.486 180.00 0.91133 0.02
6 3 -2 2 o 93.500 103.649 180.00 0.91692 0.04
2 -4 8 1 o 14.228 16.171 0.00 0.91047 0.01
3 -4 7 2 o 74.267 84.257 180.00 0.91611 0.03
5 -4 4 1 o 24.926 25.713 0.00 0.91430 0.02
4 1 -10 2 o 91.788 94.717 180.00 0.92004 0.03
5 -5 -5 1 o 175.194 181.138 0.00 0.91428 0.13
7 0 -5 1 o 56.198 64.139 0.00 0.91013 0.04
6 -4 1 1 o 39.210 38.600 0.00 0.91678 0.03
1 5 6 1 o 45.339 47.787 180.00 0.91354 0.04
7 -1 -5 2 o 22.081 25.574 180.00 0.91538 0.01
2 6 2 1 o 0.128 0.135 0.00 0.91326 0.00
4 -6 1 1 o 0.008 0.006 180.00 0.92375 0.00
6 -1 -8 2 o 7.364 8.590 180.00 0.91518 0.00
6 0 -8 2 o 8.543 10.004 0.00 0.91511 0.00
6 -4 -5 1 o 0.011 0.012 180.00 0.91312 0.00
5 3 3 2 o 65.023 88.957 0.00 0.91082 0.03
7 -1 0 2 o 2.174 3.101 0.00 0.91067 0.00
2 4 -9 1 o 28.189 33.575 0.00 0.90897 0.02
1 -6 -5 2 o 122.604 132.204 180.00 0.91819 0.05
5 -3 5 2 o 257.044 310.412 0.00 0.91412 0.10
6 3 -3 2 o 244.541 263.629 0.00 0.91798 0.09
2 1 9 2 o 3.821 4.212 180.00 0.91728 0.00
1 -1 10 2 o 258.385 286.572 0.00 0.91700 0.10
2 -6 5 1 o 677.514 849.292 180.00 0.90736 0.56
6 3 -1 1 o 273.176 340.116 180.00 0.90765 0.21
6 3 -4 1 o 66.504 74.596 0.00 0.91075 0.05
6 1 3 1 o 3.332 4.932 180.00 0.90262 0.00
4 -6 -3 2 o 239.674 238.812 0.00 0.92207 0.10
5 4 -5 2 o 7.048 8.062 180.00 0.91580 0.00
2 6 -5 1 o 9.370 12.411 0.00 0.90618 0.01
1 0 10 2 o 5.913 6.769 0.00 0.91564 0.00
1 3 -10 1 o 23.867 27.875 0.00 0.90965 0.02
0 4 -9 2 o 19.279 25.486 180.00 0.91133 0.01
5 -5 2 1 o 22.756 20.778 0.00 0.91785 0.02
7 0 0 1 o 8.584 13.002 180.00 0.90149 0.01
7 1 -3 1 o 23.214 31.862 180.00 0.90527 0.02
2 -4 8 2 o 11.602 16.171 0.00 0.91047 0.00
5 -4 4 2 o 21.354 25.713 0.00 0.91430 0.01
5 -5 -5 2 o 150.461 181.138 0.00 0.91428 0.06
0 6 -6 1 o 7.219 9.879 0.00 0.90464 0.01
7 0 -5 2 o 44.866 64.139 0.00 0.91013 0.02
2 5 5 1 o 121.780 149.703 180.00 0.90803 0.11
6 -4 1 2 o 34.735 38.600 0.00 0.91678 0.01
1 5 6 2 o 38.450 47.787 180.00 0.91354 0.02
1 -7 0 1 o 0.244 0.285 0.00 0.90772 0.00
4 -6 1 2 o 0.007 0.006 180.00 0.92375 0.00
2 6 2 2 o 0.111 0.135 0.00 0.91326 0.00
6 -4 -5 2 o 0.010 0.012 180.00 0.91312 0.00
2 4 -9 2 o 22.703 33.575 0.00 0.90897 0.01
4 1 7 1 o 0.462 0.646 0.00 0.89909 0.00
3 -5 6 1 o 0.500 0.893 0.00 0.90271 0.00
6 -3 -7 1 o 45.388 66.807 180.00 0.90292 0.03
1 -7 1 1 o 97.650 128.156 0.00 0.90620 0.09
7 1 -2 1 o 19.393 28.851 0.00 0.90275 0.01
3 -6 -5 1 o 5.805 7.781 0.00 0.90633 0.01
2 -6 5 2 o 561.803 849.292 180.00 0.90736 0.23
6 3 -1 2 o 222.022 340.116 180.00 0.90765 0.09
7 -2 -5 1 o 3.953 6.023 180.00 0.90162 0.00
2 3 -10 1 o 95.074 131.641 180.00 0.90491 0.07
6 3 -4 2 o 53.793 74.596 0.00 0.91075 0.02
4 -4 6 1 o 10.575 16.224 0.00 0.90102 0.01
6 1 3 2 o 3.789 4.932 180.00 0.90262 0.00
1 5 -8 1 o 1.049 1.484 180.00 0.90086 0.00
7 -2 0 1 o 2.723 4.305 180.00 0.90105 0.00
4 5 1 1 o 121.714 179.677 180.00 0.90106 0.11
3 -3 8 1 o 4.993 7.356 180.00 0.90078 0.00
6 -3 3 1 o 5.805 8.645 0.00 0.90081 0.00
6 2 2 1 o 78.295 100.855 180.00 0.89672 0.06
2 6 -5 2 o 8.417 12.411 0.00 0.90618 0.00
2 -5 7 1 o 15.602 23.117 180.00 0.90032 0.01
1 3 -10 2 o 19.208 27.875 0.00 0.90965 0.01
5 -5 2 2 o 19.259 20.778 0.00 0.91785 0.01
7 0 0 2 o 10.433 13.002 180.00 0.90149 0.00
4 5 -5 1 o 0.531 0.858 0.00 0.90351 0.00
5 -1 6 1 o 33.678 41.599 0.00 0.89565 0.02
7 1 -4 1 o 97.253 142.418 0.00 0.89981 0.07
7 1 -3 2 o 21.974 31.862 180.00 0.90527 0.01
0 6 -6 2 o 7.167 9.879 0.00 0.90464 0.00
2 0 -11 1 o 0.019 0.035 0.00 0.90288 0.00
5 4 1 1 o 6.612 9.036 180.00 0.89932 0.00
4 -2 -10 1 o 5.904 8.452 180.00 0.89925 0.00
0 5 -8 1 o 4.579 6.415 0.00 0.89852 0.00
0 2 10 1 o 2.661 4.105 0.00 0.90238 0.00
2 5 5 2 o 99.843 149.703 180.00 0.90803 0.04
1 -7 0 2 o 0.214 0.285 0.00 0.90772 0.00
1 6 -6 1 o 24.682 33.767 180.00 0.89823 0.02
3 -6 4 1 o 1.894 3.311 180.00 0.90179 0.00
4 1 7 2 o 0.544 0.646 0.00 0.89909 0.00
3 6 -2 1 o 5.428 7.928 180.00 0.90121 0.00
4 3 -9 1 o 61.294 94.206 180.00 0.90111 0.05
4 -6 -4 1 o 43.734 67.537 0.00 0.90115 0.03
6 -1 4 1 o 2.152 2.549 0.00 0.89339 0.00
3 -5 6 2 o 0.611 0.893 0.00 0.90271 0.00
6 -3 -7 2 o 50.538 66.807 180.00 0.90292 0.02
1 -7 1 2 o 87.012 128.156 0.00 0.90620 0.04
3 -6 -5 2 o 5.001 7.781 0.00 0.90633 0.00
7 1 -2 2 o 22.105 28.851 0.00 0.90275 0.01
3 5 -7 1 o 21.632 27.884 0.00 0.89676 0.02
0 7 -1 1 o 9.315 13.336 180.00 0.90015 0.01
7 1 -1 1 o 2.710 3.340 180.00 0.89245 0.00
6 -2 -8 1 o 10.438 13.206 0.00 0.89647 0.01
7 -2 -5 2 o 4.785 6.023 180.00 0.90162 0.00
1 -2 10 1 o 0.548 0.763 0.00 0.89940 0.00
2 3 -10 2 o 92.735 131.641 180.00 0.90491 0.03
4 -4 6 2 o 13.139 16.224 0.00 0.90102 0.01
1 5 -8 2 o 1.221 1.484 180.00 0.90086 0.00
3 6 -1 1 o 11.340 16.059 0.00 0.89913 0.01
1 6 4 1 o 20.718 29.638 0.00 0.89916 0.02
7 -2 0 2 o 3.452 4.305 180.00 0.90105 0.00
4 5 1 2 o 144.283 179.677 180.00 0.90106 0.06
3 -3 8 2 o 5.997 7.356 180.00 0.90078 0.00
6 -3 3 2 o 7.196 8.645 0.00 0.90081 0.00
6 2 2 2 o 82.549 100.855 180.00 0.89672 0.03
0 7 0 1 o 175.255 243.182 0.00 0.89857 0.16
2 -5 7 2 o 18.915 23.117 180.00 0.90032 0.01
6 2 -7 1 o 29.182 41.441 180.00 0.89861 0.02
0 5 7 1 o 0.977 1.350 180.00 0.89848 0.00
1 -7 -1 1 o 2.961 4.634 180.00 0.90120 0.00
4 5 -5 2 o 0.585 0.858 0.00 0.90351 0.00
5 -1 6 2 o 34.103 41.599 0.00 0.89565 0.01
7 1 -4 2 o 121.654 142.418 0.00 0.89981 0.04
2 3 8 1 o 54.674 64.495 0.00 0.89416 0.04
2 0 -11 2 o 0.023 0.035 0.00 0.90288 0.00
5 4 1 2 o 7.647 9.036 180.00 0.89932 0.00
4 -2 -10 2 o 7.031 8.452 180.00 0.89925 0.00
2 1 -11 1 o 44.333 59.024 0.00 0.89716 0.03
2 -4 -9 1 o 7.781 9.172 0.00 0.89361 0.01
1 -7 2 1 o 0.034 0.055 180.00 0.89678 0.00
0 5 -8 2 o 5.241 6.415 0.00 0.89852 0.00
0 2 10 2 o 3.161 4.105 0.00 0.90238 0.00
1 -6 6 1 o 14.866 18.040 180.00 0.89276 0.01
1 6 -6 2 o 27.729 33.767 180.00 0.89823 0.01
3 -6 4 2 o 2.518 3.311 180.00 0.90179 0.00
2 -3 9 1 o 50.539 61.730 0.00 0.89245 0.04
6 1 -8 1 o 2.113 2.625 0.00 0.89626 0.00
0 3 -10 1 o 36.014 45.126 180.00 0.89585 0.03
0 6 5 1 o 4.003 4.962 0.00 0.89591 0.00
7 -1 -6 1 o 0.532 0.608 0.00 0.89230 0.00
6 3 -5 1 o 76.228 92.556 180.00 0.89579 0.05
1 -7 -1 2 o 3.668 4.634 180.00 0.90120 0.00
3 6 -2 2 o 6.321 7.928 180.00 0.90121 0.00
4 3 -9 2 o 77.118 94.206 180.00 0.90111 0.03
4 -6 -4 2 o 55.975 67.537 0.00 0.90115 0.02
1 1 10 1 o 4.257 5.095 0.00 0.89556 0.00
7 -3 -2 1 o 66.640 81.606 0.00 0.89557 0.04
6 -1 4 2 o 2.114 2.549 0.00 0.89339 0.00
3 6 -3 1 o 0.846 1.093 0.00 0.89543 0.00
2 -7 0 1 o 87.571 122.526 0.00 0.89837 0.07
5 0 6 1 o 18.205 22.606 0.00 0.88735 0.01
3 5 -7 2 o 22.820 27.884 0.00 0.89676 0.01
7 -3 -3 1 o 7.740 9.333 0.00 0.89490 0.01
0 7 -1 2 o 10.962 13.336 180.00 0.90015 0.00
6 -2 -8 2 o 10.852 13.206 0.00 0.89647 0.00
7 1 -1 2 o 2.657 3.340 180.00 0.89245 0.00
6 3 0 1 o 204.252 252.080 180.00 0.89089 0.15
6 1 -8 2 o 2.144 2.625 0.00 0.89626 0.00
0 7 -2 1 o 39.127 47.226 180.00 0.89390 0.03
1 -2 10 2 o 0.639 0.763 0.00 0.89940 0.00
7 -1 1 1 o 69.860 86.282 0.00 0.88620 0.05
5 -2 6 1 o 10.916 13.701 180.00 0.88605 0.01
1 1 -11 1 o 157.079 188.977 180.00 0.89358 0.11
3 6 -1 2 o 13.066 16.059 0.00 0.89913 0.01
1 6 4 2 o 24.240 29.638 0.00 0.89916 0.01
1 0 -11 1 o 2.369 3.016 180.00 0.89665 0.00
4 -5 -7 1 o 1.702 2.023 180.00 0.88998 0.00
4 -6 2 1 o 48.156 140.566 0.00 0.90350 0.04
4 4 4 1 o 6.862 8.273 0.00 0.88985 0.00
0 7 0 2 o 199.703 243.182 0.00 0.89857 0.09
4 -3 7 1 o 67.612 82.941 180.00 0.88932 0.05
6 2 -7 2 o 35.089 41.441 180.00 0.89861 0.01
0 5 7 2 o 1.125 1.350 180.00 0.89848 0.00
6 3 0 2 o 204.197 252.080 180.00 0.89089 0.08
6 -2 4 1 o 83.842 103.426 0.00 0.88484 0.06
2 -3 -10 1 o 19.614 23.619 180.00 0.88887 0.01
2 3 8 2 o 53.338 64.495 0.00 0.89416 0.02
2 -7 -1 1 o 0.131 0.170 180.00 0.89505 0.00
6 0 4 1 o 0.022 0.028 0.00 0.88419 0.00
2 1 -11 2 o 47.873 59.024 0.00 0.89716 0.02
7 0 -6 1 o 224.435 271.860 0.00 0.88819 0.14
2 -4 -9 2 o 7.613 9.172 0.00 0.89361 0.00
1 -7 2 2 o 0.038 0.055 180.00 0.89678 0.00
1 -6 6 2 o 14.611 18.040 180.00 0.89276 0.01
3 0 -11 1 o 3.158 4.006 180.00 0.89093 0.00
2 -7 1 1 o 8.217 9.701 180.00 0.89389 0.01
2 -3 9 2 o 49.744 61.730 0.00 0.89245 0.02
3 3 7 1 o 111.155 137.291 180.00 0.88712 0.09
5 2 -9 1 o 172.588 213.254 0.00 0.89060 0.12
5 4 -6 1 o 39.656 48.670 0.00 0.89057 0.03
0 3 -10 2 o 36.856 45.126 180.00 0.89585 0.01
2 4 7 1 o 140.007 172.174 180.00 0.88691 0.11
0 6 5 2 o 4.090 4.962 0.00 0.89591 0.00
2 -1 -11 1 o 191.707 235.774 180.00 0.89032 0.14
7 -1 -6 2 o 0.527 0.608 0.00 0.89230 0.00
7 1 -5 1 o 101.146 124.727 0.00 0.88679 0.07
6 3 -5 2 o 75.745 92.556 180.00 0.89579 0.03
1 1 10 2 o 4.254 5.095 0.00 0.89556 0.00
7 -3 -2 2 o 66.705 81.606 0.00 0.89557 0.02
3 6 -3 2 o 0.865 1.093 0.00 0.89543 0.00
2 -7 0 2 o 102.076 122.526 0.00 0.89837 0.04
3 -4 -9 1 o 57.233 70.942 180.00 0.88608 0.04
6 -4 2 1 o 43.143 51.985 180.00 0.88945 0.03
4 2 -10 1 o 52.747 64.261 0.00 0.88944 0.04
5 0 6 2 o 16.802 22.606 0.00 0.88735 0.01
0 7 1 1 o 108.665 133.428 0.00 0.88928 0.09
3 6 0 1 o 30.938 38.354 0.00 0.88934 0.03
7 -3 -3 2 o 7.655 9.333 0.00 0.89490 0.00
2 5 -8 1 o 0.287 0.340 0.00 0.88527 0.00
1 -4 9 1 o 27.128 33.950 0.00 0.88518 0.02
0 7 -2 2 o 38.846 47.226 180.00 0.89390 0.02
7 -3 -1 1 o 179.399 217.125 0.00 0.88853 0.12
6 -4 -6 1 o 13.073 16.030 180.00 0.88499 0.01
5 3 -8 1 o 14.604 17.727 0.00 0.88819 0.01
7 -1 1 2 o 63.390 86.282 0.00 0.88620 0.02
1 1 -11 2 o 154.306 188.977 180.00 0.89358 0.06
5 -2 6 2 o 9.832 13.701 180.00 0.88605 0.00
4 -6 2 2 o 93.563 140.566 0.00 0.90350 0.04
1 0 -11 2 o 2.487 3.016 180.00 0.89665 0.00
4 -5 -7 2 o 1.684 2.023 180.00 0.88998 0.00
4 4 4 2 o 6.744 8.273 0.00 0.88985 0.00
4 -3 7 2 o 65.395 82.941 180.00 0.88932 0.02
1 -7 -2 1 o 17.755 22.016 180.00 0.88716 0.02
1 -4 -9 1 o 13.550 17.029 180.00 0.88350 0.01
6 -2 4 2 o 75.768 103.426 0.00 0.88484 0.03
2 -3 -10 2 o 18.768 23.619 180.00 0.88887 0.01
7 -3 -4 1 o 47.746 59.305 0.00 0.88658 0.03
2 -7 -1 2 o 0.129 0.170 180.00 0.89505 0.00
3 5 4 1 o 177.577 229.449 0.00 0.88302 0.14
6 0 4 2 o 0.019 0.028 0.00 0.88419 0.00
7 0 -6 2 o 210.147 271.860 0.00 0.88819 0.07
5 -5 -6 1 o 96.157 125.640 0.00 0.88239 0.07
4 -5 5 1 o 20.271 24.802 180.00 0.88536 0.01
4 4 -8 1 o 1.869 2.281 0.00 0.88543 0.00
3 0 -11 2 o 3.168 4.006 180.00 0.89093 0.00
2 -7 1 2 o 8.018 9.701 180.00 0.89389 0.00
3 -3 -10 1 o 26.530 35.246 0.00 0.88189 0.02
5 2 -9 2 o 176.421 213.254 0.00 0.89060 0.06
3 3 7 2 o 102.233 137.291 180.00 0.88712 0.04
5 4 -6 2 o 39.982 48.670 0.00 0.89057 0.01
2 4 7 2 o 128.659 172.174 180.00 0.88691 0.05
2 -1 -11 2 o 191.339 235.774 180.00 0.89032 0.07
3 -1 -11 1 o 43.184 58.008 180.00 0.88129 0.03
7 1 -5 2 o 92.795 124.727 0.00 0.88679 0.03
3 4 -9 1 o 95.619 130.317 0.00 0.88087 0.07
7 0 1 1 o 35.327 45.899 180.00 0.87701 0.02
3 -4 -9 2 o 51.653 70.942 180.00 0.88608 0.02
6 -4 2 2 o 42.165 51.985 180.00 0.88945 0.01
4 2 -10 2 o 51.380 64.261 0.00 0.88944 0.02
0 7 -3 1 o 34.470 46.819 0.00 0.88029 0.03
0 7 1 2 o 104.792 133.428 0.00 0.88928 0.05
3 6 0 2 o 29.829 38.354 0.00 0.88934 0.01
5 -5 3 1 o 2.662 3.390 180.00 0.88653 0.00
5 0 -10 1 o 0.024 0.044 0.00 0.88004 0.00
2 5 -8 2 o 0.268 0.340 0.00 0.88527 0.00
1 -4 9 2 o 24.754 33.950 0.00 0.88518 0.01
5 2 5 1 o 37.741 48.765 180.00 0.87607 0.03
2 -6 -6 1 o 33.383 45.901 0.00 0.87975 0.03
3 1 -11 1 o 38.800 50.191 0.00 0.88297 0.03
7 -3 -1 2 o 169.049 217.125 0.00 0.88853 0.05
6 -4 -6 2 o 11.825 16.030 180.00 0.88499 0.00
2 6 3 1 o 68.058 88.713 180.00 0.88286 0.06
5 3 -8 2 o 13.515 17.727 0.00 0.88819 0.01
3 3 -10 1 o 17.240 22.707 180.00 0.88246 0.01
7 1 0 1 o 79.185 104.241 180.00 0.87514 0.05
1 -5 8 1 o 13.865 18.566 0.00 0.87864 0.01
3 6 -4 1 o 41.115 54.207 0.00 0.88222 0.03
5 -3 -9 1 o 15.720 21.368 180.00 0.87493 0.01
7 -2 -6 1 o 29.887 40.536 0.00 0.87880 0.02
2 -7 2 1 o 0.035 0.082 180.00 0.88194 0.00
1 -1 -11 1 o 5.116 6.746 0.00 0.88188 0.00
1 3 9 1 o 165.289 219.348 180.00 0.88186 0.12
1 -7 -2 2 o 16.307 22.016 180.00 0.88716 0.01
7 -2 1 1 o 14.043 18.557 0.00 0.87806 0.01
1 -4 -9 2 o 12.914 17.029 180.00 0.88350 0.00
2 -7 -2 1 o 25.033 30.990 180.00 0.88418 0.02
2 2 9 1 o 0.449 0.577 180.00 0.87770 0.00
7 -3 -4 2 o 43.312 59.305 0.00 0.88658 0.01
1 4 8 1 o 23.073 30.739 0.00 0.88107 0.02
3 5 4 2 o 172.495 229.449 0.00 0.88302 0.07
3 2 8 1 o 28.054 35.970 0.00 0.87712 0.02
5 -5 -6 2 o 97.565 125.640 0.00 0.88239 0.03
1 -7 3 1 o 22.152 30.125 180.00 0.88016 0.02
4 -5 5 2 o 17.791 24.802 180.00 0.88536 0.01
4 4 -8 2 o 1.671 2.281 0.00 0.88543 0.00
3 -3 -10 2 o 27.317 35.246 0.00 0.88189 0.01
5 -1 -10 1 o 31.909 41.002 0.00 0.87622 0.02
3 -1 -11 2 o 45.265 58.008 180.00 0.88129 0.02
3 4 -9 2 o 98.142 130.317 0.00 0.88087 0.04
5 -4 -8 1 o 35.830 80.432 0.00 0.87163 0.03
7 0 1 2 o 19.981 45.899 180.00 0.87701 0.01
0 7 -3 2 o 33.125 46.819 0.00 0.88029 0.01
1 -3 -10 1 o 16.429 22.386 180.00 0.87848 0.01
2 6 -6 1 o 5.646 8.457 0.00 0.87465 0.01
2 -5 -8 1 o 3.202 4.404 180.00 0.87479 0.00
5 -5 3 2 o 2.421 3.390 180.00 0.88653 0.00
5 0 -10 2 o 0.025 0.044 0.00 0.88004 0.00
5 2 5 2 o 16.896 48.765 180.00 0.87607 0.01
7 -3 0 1 o 0.393 0.547 180.00 0.87433 0.00
2 -6 -6 2 o 32.499 45.901 0.00 0.87975 0.01
5 4 2 1 o 45.229 126.516 180.00 0.87051 0.03
3 1 -11 2 o 38.122 50.191 0.00 0.88297 0.01
4 5 2 1 o 12.010 17.977 0.00 0.87416 0.01
2 6 3 2 o 65.855 88.713 180.00 0.88286 0.03
3 4 6 1 o 32.956 48.606 180.00 0.87389 0.02
4 5 -6 1 o 12.093 15.711 180.00 0.87715 0.01
3 3 -10 2 o 17.346 22.707 180.00 0.88246 0.01
7 1 0 2 o 27.892 104.241 180.00 0.87514 0.01
1 -5 8 2 o 11.341 18.566 0.00 0.87864 0.00
1 7 -1 1 o 26.638 36.486 0.00 0.87679 0.02
3 6 -4 2 o 40.246 54.207 0.00 0.88222 0.02
5 -3 -9 2 o 6.230 21.368 180.00 0.87493 0.00
7 -2 -6 2 o 25.582 40.536 0.00 0.87880 0.01
2 -7 2 2 o 0.042 0.082 180.00 0.88194 0.00
1 -1 -11 2 o 5.336 6.746 0.00 0.88188 0.00
1 3 9 2 o 174.940 219.348 180.00 0.88186 0.06
7 -2 1 2 o 10.609 18.557 0.00 0.87806 0.00
2 -7 -2 2 o 22.821 30.990 180.00 0.88418 0.01
2 2 9 2 o 0.318 0.577 180.00 0.87770 0.00
1 4 8 2 o 24.403 30.739 0.00 0.88107 0.01
3 -1 9 1 o 3.751 8.087 180.00 0.87205 0.00
3 2 8 2 o 16.429 35.970 0.00 0.87712 0.01
6 3 1 1 o 0.286 1.758 180.00 0.86786 0.00
1 -7 3 2 o 21.816 30.125 180.00 0.88016 0.01
7 -3 -5 1 o 30.850 80.250 0.00 0.87124 0.02
5 3 4 1 o 11.261 52.118 0.00 0.86718 0.01
2 2 -11 1 o 35.732 52.562 180.00 0.87415 0.03
4 -6 -5 1 o 1.540 2.084 180.00 0.87426 0.00
5 -1 -10 2 o 14.865 41.002 0.00 0.87622 0.00
6 3 -6 1 o 0.600 0.892 0.00 0.87422 0.00
1 7 -2 1 o 21.705 33.723 180.00 0.87379 0.02
1 -6 -6 1 o 3.573 5.654 180.00 0.87372 0.00
5 -4 -8 2 o 21.114 80.432 0.00 0.87163 0.01
1 2 -11 1 o 46.270 76.147 180.00 0.87321 0.03
1 -3 -10 2 o 13.624 22.386 180.00 0.87848 0.01
0 7 2 1 o 9.265 16.491 180.00 0.87297 0.01
0 1 -11 1 o 33.731 57.727 0.00 0.87285 0.02
2 6 -6 2 o 1.891 8.457 0.00 0.87465 0.00
2 -5 -8 2 o 0.939 4.404 180.00 0.87479 0.00
1 7 0 1 o 118.811 224.984 0.00 0.87252 0.10
3 6 1 1 o 4.110 7.654 180.00 0.87257 0.00
3 -6 -6 1 o 8.643 44.095 0.00 0.86895 0.01
7 -3 0 2 o 0.102 0.547 180.00 0.87433 0.00
5 4 2 2 o 38.551 126.516 180.00 0.87051 0.01
6 -5 -2 1 o 8.559 11.435 180.00 0.88181 0.01
4 5 2 2 o 4.557 17.977 0.00 0.87416 0.00
3 4 6 2 o 11.164 48.606 180.00 0.87389 0.00
4 5 -6 2 o 7.435 15.711 180.00 0.87715 0.00
4 -6 3 1 o 46.058 56.275 0.00 0.87713 0.03
5 -4 5 1 o 0.530 2.467 180.00 0.86805 0.00
1 7 -1 2 o 14.696 36.486 0.00 0.87679 0.01
6 -5 -3 1 o 7.774 9.619 180.00 0.87684 0.00
6 0 -9 1 o 10.795 55.606 0.00 0.86779 0.01
3 -5 -8 1 o 8.112 32.366 180.00 0.86730 0.01
7 1 -6 1 o 28.703 131.715 180.00 0.86717 0.02
6 -1 -9 1 o 2.138 10.320 180.00 0.86714 0.00
0 0 11 1 o 34.515 55.280 180.00 0.87332 0.02
5 1 -10 1 o 0.008 0.024 0.00 0.86696 0.00
3 0 9 1 o 0.777 2.638 180.00 0.86690 0.00
3 -1 9 2 o 1.727 8.087 180.00 0.87205 0.00
6 1 4 1 o 0.752 5.987 0.00 0.85880 0.00
4 -1 8 1 o 0.760 2.057 180.00 0.86271 0.00
6 -5 -1 1 o 106.706 155.026 0.00 0.87939 0.07
5 1 6 1 o 24.511 99.295 180.00 0.86259 0.02
6 3 1 2 o 0.337 1.758 180.00 0.86786 0.00
1 -3 10 1 o 6.388 23.543 180.00 0.86588 0.00
4 -4 -9 1 o 1.706 7.375 180.00 0.86217 0.00
6 -3 -8 1 o 2.553 9.001 180.00 0.86219 0.00
7 -3 -5 2 o 20.566 80.250 0.00 0.87124 0.01
4 3 6 1 o 2.104 8.262 180.00 0.86203 0.00
1 -5 -8 1 o 0.432 1.633 0.00 0.86570 0.00
2 2 -11 2 o 10.779 52.562 180.00 0.87415 0.00
4 -6 -5 2 o 0.495 2.084 180.00 0.87426 0.00
5 3 4 2 o 11.081 52.118 0.00 0.86718 0.01
6 3 -6 2 o -0.085 0.892 0.00 0.87422 0.00
1 7 -2 2 o 9.568 33.723 180.00 0.87379 0.00
1 -6 -6 2 o 0.936 5.654 180.00 0.87372 0.00
2 -6 6 1 o 8.800 30.297 0.00 0.86464 0.01
1 2 -11 2 o 17.345 76.147 180.00 0.87321 0.01
0 7 2 2 o 3.551 16.491 180.00 0.87297 0.00
0 1 -11 2 o 13.905 57.727 0.00 0.87285 0.00
7 2 -3 1 o 0.030 0.124 180.00 0.86403 0.00
1 7 -3 1 o 8.749 36.000 180.00 0.86376 0.01
1 7 0 2 o 56.341 224.984 0.00 0.87252 0.03
3 6 1 2 o 1.971 7.654 180.00 0.87257 0.00
7 -1 -7 1 o 37.756 138.212 180.00 0.86382 0.03
3 -6 -6 2 o 11.541 44.095 0.00 0.86895 0.01
6 -5 -2 2 o 9.665 11.435 180.00 0.88181 0.00
6 2 3 1 o 23.846 105.157 0.00 0.85985 0.02
1 -7 -3 1 o 6.243 26.814 180.00 0.86662 0.01
2 -7 -3 1 o 26.449 100.652 180.00 0.86656 0.02
3 -7 -1 1 o 22.160 50.056 0.00 0.87189 0.02
4 -6 3 2 o 23.993 56.275 0.00 0.87713 0.01
4 0 -11 1 o 25.114 87.505 0.00 0.86285 0.02
5 -4 5 2 o 0.663 2.467 180.00 0.86805 0.00
3 6 -5 1 o 5.744 24.167 0.00 0.86254 0.01
6 -5 -3 2 o 3.979 9.619 180.00 0.87684 0.00
5 -6 -1 1 o 0.001 0.000 0.00 0.87521 0.00
4 -3 -10 1 o 141.151 702.863 180.00 0.85871 0.11
6 0 -9 2 o 13.251 55.606 0.00 0.86779 0.00
4 2 7 1 o 0.134 0.754 0.00 0.85856 0.00
3 -5 -8 2 o 8.318 32.366 180.00 0.86730 0.00
7 1 -6 2 o 29.852 131.715 180.00 0.86717 0.01
0 0 11 2 o 10.667 55.280 180.00 0.87332 0.00
6 -1 -9 2 o 2.122 10.320 180.00 0.86714 0.00
2 -2 -11 1 o 7.985 31.998 180.00 0.86163 0.01
5 1 -10 2 o 0.008 0.024 0.00 0.86696 0.00
3 0 9 2 o 0.744 2.638 180.00 0.86690 0.00
6 -5 -4 1 o 0.360 1.734 180.00 0.86487 0.00
5 -6 -2 1 o 70.378 90.818 180.00 0.87404 0.05
6 -5 -1 2 o 118.592 155.026 0.00 0.87939 0.04
3 -7 0 1 o 0.590 1.296 0.00 0.87215 0.00
6 1 4 2 o -0.632 5.987 0.00 0.85880 0.00
4 -1 8 2 o 0.565 2.057 180.00 0.86271 0.00
7 2 -2 1 o 1.124 4.469 0.00 0.86114 0.00
0 6 -7 1 o 27.203 111.692 0.00 0.86073 0.02
5 1 6 2 o 13.227 99.295 180.00 0.86259 0.01
3 -6 5 1 o 2.088 6.782 0.00 0.86406 0.00
3 -2 9 1 o 17.323 78.752 0.00 0.86070 0.01
1 -3 10 2 o 5.178 23.543 180.00 0.86588 0.00
7 0 -7 1 o 0.101 0.200 180.00 0.86077 0.00
4 -4 -9 2 o 0.793 7.375 180.00 0.86217 0.00
6 -3 -8 2 o 1.507 9.001 180.00 0.86219 0.00
0 7 -4 1 o 9.862 49.225 0.00 0.86030 0.01
7 -1 2 1 o 0.284 2.912 180.00 0.85671 0.00
4 3 6 2 o 1.105 8.262 180.00 0.86203 0.00
5 -3 6 1 o 1.060 5.517 180.00 0.86021 0.00
1 -5 -8 2 o 0.326 1.633 0.00 0.86570 0.00
2 -7 3 1 o 1.049 5.079 180.00 0.86340 0.00
2 -1 10 1 o 16.248 59.475 0.00 0.86340 0.01
6 -3 4 1 o 0.130 0.704 0.00 0.85999 0.00
4 0 8 1 o -0.073 0.246 180.00 0.85617 0.00
7 2 -4 1 o 4.801 25.302 180.00 0.85996 0.00
5 -2 -10 1 o 1.323 6.783 0.00 0.85614 0.00
2 -6 6 2 o 6.207 30.297 0.00 0.86464 0.00
7 2 -3 2 o 0.017 0.124 180.00 0.86403 0.00
1 7 -3 2 o 5.171 36.000 180.00 0.86376 0.00
6 2 -8 1 o 60.895 302.929 180.00 0.86189 0.05
7 -1 -7 2 o 24.148 138.212 180.00 0.86382 0.01
6 2 3 2 o 3.160 105.157 0.00 0.85985 0.00
1 6 -7 1 o 3.894 27.632 0.00 0.85784 0.00
1 7 1 1 o 43.201 179.851 180.00 0.86131 0.04
1 -7 -3 2 o 5.483 26.814 180.00 0.86662 0.00
1 5 7 1 o 6.023 33.783 0.00 0.85801 0.01
2 -7 -3 2 o 23.381 100.652 180.00 0.86656 0.01
3 -7 -1 2 o 10.225 50.056 0.00 0.87189 0.01
1 -7 4 1 o -0.057 0.183 0.00 0.85751 0.00
2 5 6 1 o 0.484 7.642 180.00 0.85759 0.00
4 0 -11 2 o 16.062 87.505 0.00 0.86285 0.01
5 -6 -1 2 o 0.000 0.000 0.00 0.87521 0.00
6 -5 0 1 o 21.923 166.234 0.00 0.86978 0.02
3 6 -5 2 o 2.802 24.167 0.00 0.86254 0.00
5 -6 -3 1 o 15.284 53.660 180.00 0.86576 0.01
5 4 -7 1 o 69.393 320.407 180.00 0.86034 0.05
4 -2 8 1 o -0.204 10.949 0.00 0.85325 0.00
4 -3 -10 2 o -4.795 702.863 180.00 0.85871 0.01
4 2 7 2 o -0.039 0.754 0.00 0.85856 0.00
1 2 10 1 o 6.130 28.375 0.00 0.86019 0.00
5 -6 0 1 o 4.849 23.851 180.00 0.86918 0.00
3 -7 1 1 o 12.086 37.724 180.00 0.86531 0.01
2 0 10 1 o 0.157 0.358 180.00 0.85999 0.00
4 -1 -11 1 o 0.458 8.461 0.00 0.85631 0.00
2 -2 -11 2 o 3.852 31.998 180.00 0.86163 0.00
6 -5 -4 2 o 0.176 1.734 180.00 0.86487 0.00
5 -6 -2 2 o 2.387 90.818 180.00 0.87404 0.00
3 -7 0 2 o 0.163 1.296 0.00 0.87215 0.00
3 -7 -2 1 o 0.104 0.477 0.00 0.86453 0.00
7 2 -2 2 o 0.486 4.469 0.00 0.86114 0.00
3 -6 5 2 o 1.447 6.782 0.00 0.86406 0.00
3 -2 -11 1 o 0.721 4.394 180.00 0.85566 0.00
0 6 -7 2 o 9.780 111.692 0.00 0.86073 0.00
7 1 1 1 o 0.028 61.007 180.00 0.85202 0.00
3 2 -11 1 o 11.978 59.201 180.00 0.85875 0.01
3 -2 9 2 o 4.264 78.752 0.00 0.86070 0.00
1 6 5 1 o 0.213 2.299 0.00 0.85882 0.00
7 0 -7 2 o 0.080 0.200 180.00 0.86077 0.00
0 7 -4 2 o 1.288 49.225 0.00 0.86030 0.00
7 2 -1 1 o 1.639 47.082 0.00 0.85152 0.00
7 -1 2 2 o 0.058 2.912 180.00 0.85671 0.00
5 -3 6 2 o -0.002 5.517 180.00 0.86021 0.00
2 -7 3 2 o 0.504 5.079 180.00 0.86340 0.00
2 -1 10 2 o 10.441 59.475 0.00 0.86340 0.00
6 -3 4 2 o -0.018 0.704 0.00 0.85999 0.00
4 0 8 2 o -0.081 0.246 180.00 0.85617 0.00
7 2 -4 2 o -1.071 25.302 180.00 0.85996 0.00
3 5 -8 1 o 1.239 92.760 180.00 0.85436 0.00
5 -2 -10 2 o 1.207 6.783 0.00 0.85614 0.00
3 -4 8 1 o 1.137 36.740 0.00 0.85417 0.00
6 -4 3 1 o 1.522 9.966 180.00 0.85750 0.00
1 4 -10 1 o 0.141 0.511 0.00 0.85408 0.00
0 1 11 1 o 2.474 20.403 0.00 0.85740 0.00
0 4 9 1 o 6.828 47.680 0.00 0.85743 0.01
6 -2 -9 1 o 0.222 1.611 0.00 0.85050 0.00
7 -3 1 1 o -1.150 105.113 180.00 0.85396 0.00
7 -2 2 1 o 1.396 16.234 0.00 0.85002 0.00
4 1 -11 1 o -8.202 177.275 180.00 0.85338 0.00
6 2 -8 2 o 28.039 302.929 180.00 0.86189 0.01
0 2 -11 1 o 0.222 1.044 180.00 0.85606 0.00
1 7 1 2 o 19.095 179.851 180.00 0.86131 0.01
1 6 -7 2 o -0.058 27.632 0.00 0.85784 0.00
1 5 7 2 o -0.338 33.783 0.00 0.85801 0.00
6 -4 -7 1 o -0.329 25.977 0.00 0.85252 0.00
1 -7 4 2 o -0.096 0.183 0.00 0.85751 0.00
6 1 -9 1 o -0.150 14.151 180.00 0.85234 0.00
2 5 6 2 o -0.782 7.642 180.00 0.85759 0.00
6 -5 0 2 o 65.657 166.234 0.00 0.86978 0.02
5 -6 -3 2 o 10.726 53.660 180.00 0.86576 0.00
5 4 -7 2 o 9.364 320.407 180.00 0.86034 0.01
4 -2 8 2 o 1.260 10.949 0.00 0.85325 0.00
1 2 10 2 o 0.503 28.375 0.00 0.86019 0.00
5 -6 0 2 o 10.777 23.851 180.00 0.86918 0.00
3 -7 1 2 o 8.742 37.724 180.00 0.86531 0.00
2 0 10 2 o 0.107 0.358 180.00 0.85999 0.00
7 0 2 1 o 3.740 23.987 0.00 0.84774 0.00
4 -1 -11 2 o 0.191 8.461 0.00 0.85631 0.00
2 -2 10 1 o 8.577 151.402 180.00 0.85085 0.01
7 -2 -7 1 o 1.408 25.992 0.00 0.85088 0.00
3 -5 7 1 o 5.478 72.607 0.00 0.85051 0.01
3 -7 -2 2 o 0.057 0.477 0.00 0.86453 0.00
3 -2 -11 2 o 0.850 4.394 180.00 0.85566 0.00
7 1 1 2 o 8.387 61.007 180.00 0.85202 0.00
3 2 -11 2 o -1.093 59.201 180.00 0.85875 0.00
1 6 5 2 o -0.272 2.299 0.00 0.85882 0.00
3 6 2 1 o 2.519 24.844 180.00 0.84998 0.00
7 -3 -6 1 o 11.772 126.000 0.00 0.84994 0.01
7 2 -1 2 o 7.662 47.082 0.00 0.85152 0.00
5 5 -2 1 o 0.655 42.672 0.00 0.85259 0.00
3 5 -8 2 o 10.508 92.760 180.00 0.85436 0.01
0 3 10 1 o 0.335 4.209 0.00 0.85245 0.00
6 -1 5 1 o 4.999 26.235 0.00 0.84556 0.00
7 2 -5 1 o 12.897 95.986 180.00 0.84924 0.01
3 -4 8 2 o 4.997 36.740 0.00 0.85417 0.00
6 -4 3 2 o -0.409 9.966 180.00 0.85750 0.00
1 4 -10 2 o 0.179 0.511 0.00 0.85408 0.00
5 5 -3 1 o -0.785 43.335 0.00 0.85218 0.00
0 1 11 2 o -0.942 20.403 0.00 0.85740 0.00
0 4 9 2 o -1.234 47.680 0.00 0.85743 0.00
6 -2 -9 2 o 0.349 1.611 0.00 0.85050 0.00
7 -3 1 2 o 14.265 105.113 180.00 0.85396 0.01
0 6 6 1 o 1.180 37.806 180.00 0.85185 0.00
1 -2 -11 1 o 0.000 0.120 0.00 0.85176 0.00
5 -5 4 1 o 3.723 156.022 180.00 0.85144 0.01
7 -2 2 2 o 2.547 16.234 0.00 0.85002 0.00
4 1 -11 2 o 19.864 177.275 180.00 0.85338 0.01
1 -6 7 1 o 2.083 14.705 0.00 0.84790 0.00
2 4 -10 1 o 8.620 59.191 180.00 0.84797 0.01
4 -5 -8 1 o 0.415 4.213 0.00 0.84447 0.00
4 4 5 1 o 0.173 3.179 180.00 0.84434 0.00
0 2 -11 2 o 0.208 1.044 180.00 0.85606 0.00
0 7 3 1 o -0.141 2.501 180.00 0.85078 0.00
1 7 -4 1 o 14.293 117.260 180.00 0.84740 0.02
7 -4 -3 1 o 14.177 142.648 0.00 0.85059 0.01
6 -4 -7 2 o 3.233 25.977 0.00 0.85252 0.00
6 1 -9 2 o 2.139 14.151 180.00 0.85234 0.00
5 -5 -7 1 o -0.004 0.021 180.00 0.84696 0.00
5 5 -1 1 o 0.315 2.316 180.00 0.84635 0.00
1 5 -9 1 o 29.414 182.152 0.00 0.84601 0.02
3 1 9 1 o 14.342 91.208 0.00 0.84611 0.01
4 -4 7 1 o 2.028 13.559 0.00 0.84588 0.00
7 0 2 2 o 1.865 23.987 0.00 0.84774 0.00
3 -7 2 1 o -0.747 17.505 0.00 0.85185 0.00
7 -4 -2 1 o -0.481 199.732 0.00 0.85183 0.01
2 -4 9 1 o 10.294 68.145 0.00 0.84555 0.01
2 -2 10 2 o 22.698 151.402 180.00 0.85085 0.01
7 -2 -7 2 o 4.020 25.992 0.00 0.85088 0.00
3 -5 7 2 o 11.770 72.607 0.00 0.85051 0.01
2 6 4 1 o 1.781 30.123 180.00 0.84861 0.00
6 4 -3 1 o 7.907 34.680 0.00 0.84518 0.00
0 4 -10 1 o 2.420 22.509 180.00 0.84477 0.00
5 -6 -4 1 o 0.613 10.549 180.00 0.85095 0.00
2 -5 8 1 o 5.259 38.849 180.00 0.84449 0.00
3 6 2 2 o 3.769 24.844 180.00 0.84998 0.00
3 -7 -3 1 o 5.169 50.263 180.00 0.85061 0.00
7 -3 -6 2 o 19.607 126.000 0.00 0.84994 0.01
5 -6 1 1 o 1.294 18.572 0.00 0.85639 0.00
6 3 -7 1 o -0.020 1.136 0.00 0.84746 0.00
5 5 -2 2 o 6.230 42.672 0.00 0.85259 0.00
0 3 10 2 o 0.947 4.209 0.00 0.85245 0.00
7 2 -5 2 o 17.539 95.986 180.00 0.84924 0.01
6 -1 5 2 o 0.687 26.235 0.00 0.84556 0.00
5 5 -3 2 o 5.074 43.335 0.00 0.85218 0.00
6 4 -2 1 o 0.884 10.159 180.00 0.84370 0.00
6 -5 -5 1 o 5.807 35.962 0.00 0.84671 0.00
6 3 2 1 o 0.000 36.341 180.00 0.84003 0.00
7 -4 -2 2 o 29.576 199.732 0.00 0.85183 0.01
0 6 6 2 o 5.891 37.806 180.00 0.85185 0.00
1 -2 -11 2 o 0.017 0.120 0.00 0.85176 0.00
4 -6 4 1 o 0.523 2.207 0.00 0.84629 0.00
6 -5 1 1 o -0.051 0.177 0.00 0.85365 0.00
4 5 -7 1 o 12.176 77.339 0.00 0.84632 0.01
5 -5 4 2 o 25.756 156.022 180.00 0.85144 0.01
4 -6 -6 1 o 4.151 43.028 180.00 0.84307 0.00
1 -6 7 2 o 1.197 14.705 0.00 0.84790 0.00
4 5 3 1 o 3.380 53.902 0.00 0.84297 0.00
2 4 -10 2 o 5.215 59.191 180.00 0.84797 0.00
4 3 -10 1 o 9.236 56.116 180.00 0.84598 0.01
0 7 3 2 o 0.106 2.501 180.00 0.85078 0.00
1 7 -4 2 o 4.626 117.260 180.00 0.84740 0.00
7 1 -7 1 o 1.203 83.623 180.00 0.84224 0.00
7 -4 -3 2 o 28.561 142.648 0.00 0.85059 0.01
5 5 -4 1 o 0.833 3.190 180.00 0.84516 0.00
0 5 -9 1 o -0.136 49.759 0.00 0.84155 0.00
5 -5 -7 2 o -0.008 0.021 180.00 0.84696 0.00
0 5 8 1 o -1.731 83.730 0.00 0.84152 0.00
2 1 10 1 o -0.709 13.402 180.00 0.84115 0.00
5 5 -1 2 o -0.017 2.316 180.00 0.84635 0.00
5 3 -9 1 o 0.630 3.204 0.00 0.84416 0.00
1 5 -9 2 o 4.409 182.152 0.00 0.84601 0.00
3 1 9 2 o -2.570 91.208 0.00 0.84611 0.00
4 -4 7 2 o -0.322 13.559 0.00 0.84588 0.00
3 -7 2 2 o 2.176 17.505 0.00 0.85185 0.00
1 7 2 1 o 0.198 0.586 180.00 0.84393 0.00
2 -4 9 2 o 0.033 68.145 0.00 0.84555 0.00
7 -4 -1 1 o 2.789 15.738 180.00 0.84643 0.00
3 5 5 1 o 0.855 21.645 180.00 0.84034 0.00
2 -7 -4 1 o 5.874 42.554 180.00 0.84338 0.00
2 6 4 2 o 1.231 30.123 180.00 0.84861 0.00
4 -5 6 1 o 0.307 49.571 180.00 0.83986 0.00
6 4 -3 2 o 1.706 34.680 0.00 0.84518 0.00
2 6 -7 1 o -0.207 16.570 0.00 0.83971 0.00
2 7 -2 1 o 0.151 88.974 180.00 0.83971 0.00
5 -6 -4 2 o 1.953 10.549 180.00 0.85095 0.00
0 4 -10 2 o -0.739 22.509 180.00 0.84477 0.00
2 -7 4 1 o 6.731 383.964 180.00 0.83949 0.02
7 -4 -4 1 o 5.822 91.648 180.00 0.84279 0.01
3 -7 -3 2 o 10.575 50.263 180.00 0.85061 0.00
5 -6 1 2 o 3.892 18.572 0.00 0.85639 0.00
6 3 -7 2 o -0.195 1.136 0.00 0.84746 0.00
6 -5 -5 2 o 0.032 35.962 0.00 0.84671 0.00
6 -5 1 2 o -0.017 0.177 0.00 0.85365 0.00
4 -6 4 2 o 0.107 2.207 0.00 0.84629 0.00
4 5 -7 2 o 0.124 77.339 0.00 0.84632 0.00
1 -7 -4 1 o -0.184 15.721 0.00 0.84092 0.00
4 3 -10 2 o -1.682 56.116 180.00 0.84598 0.00
6 4 -4 1 o 0.002 0.004 180.00 0.84017 0.00
4 4 -9 1 o -0.358 320.374 180.00 0.83993 0.01
5 5 -4 2 o 0.370 3.190 180.00 0.84516 0.00
2 7 -1 1 o 1.187 44.543 180.00 0.83987 0.00
7 -4 -1 2 o -0.289 15.738 180.00 0.84643 0.00
loop_
_publcif_info_datablock.id
_publcif_info_datablock.publ_exptl
_publcif_info_datablock.publ_geom
_publcif_info_datablock.structure
{ad0b0c3f-1930-4201-8fb7-98c66b649f4f} y y y
loop_
_publcif_info_cif.paper_type
CE
loop_
_publcif_info_tables.block_id
_publcif_info_tables.reference_item
{ad0b0c3f-1930-4201-8fb7-98c66b649f4f} '_publcif_info_datablock.publ_exptl'
