#------------------------------------------------------------------------------
#$Date: 2019-12-27 19:49:49 +0200 (Fri, 27 Dec 2019) $
#$Revision: 246236 $
#$URL: file:///home/coder/svn-repositories/cod/cif/2/31/19/2311996.cif $
#------------------------------------------------------------------------------
#
# This file is available in the Crystallography Open Database (COD),
# http://www.crystallography.net/. The original data for this entry
# were provided by IUCr Journals, http://journals.iucr.org/.
#
# The file may be used within the scientific community so long as
# proper attribution is given to the journal article from which the
# data were obtained.
#
data_2311996
loop_
_publ_author_name
'Cigler, Andrew J.'
'Kaduk, James A.'
_publ_section_title
;
 Dilithium (citrate) crystals and their relatives.
;
_journal_issue                   'Pt 10'
_journal_name_full
'Acta crystallographica. Section C, Structural chemistry'
_journal_page_first              1160
_journal_page_last               1170
_journal_paper_doi               10.1107/S2053229618012597
_journal_volume                  74
_journal_year                    2018
_chemical_formula_analytical     'C6 H6 K Li O7'
_chemical_formula_moiety         'Li K H C6 H5 O7'
_chemical_formula_structural     'Li K H C6 H5 O7'
_chemical_formula_sum            'C6 H6 K Li O7'
_chemical_formula_weight         236.15
_chemical_name_common            'lithium potassium hydrogen citrate'
_chemical_name_systematic        'lithium potassium hydrogen citrate'
_space_group_IT_number           2
_space_group_name_Hall           '-P 1'
_space_group_name_H-M_alt        'P -1'
_symmetry_cell_setting           triclinic
_symmetry_space_group_name_Hall  '-P 1'
_symmetry_space_group_name_H-M   'P -1'
_audit_creation_date             2017-04-21T12:56
_audit_creation_method           'from EXP file using GSAS2CIF'
_audit_update_record
;
2017-04-21T12:56  Initial CIF as created by GSAS2CIF

2017-05-11 # Formatted by publCIF
;
_cell_angle_alpha                93.054(7)
_cell_angle_beta                 102.747(8)
_cell_angle_gamma                96.054(4)
_cell_formula_units_Z            2
_cell_length_a                   6.2771(6)
_cell_length_b                   6.3166(6)
_cell_length_c                   10.8323(6)
_cell_measurement_temperature    300
_cell_volume                     415.28(6)
_computing_structure_refinement  GSAS
_computing_structure_solution    FOX
_diffrn_ambient_temperature      300
_diffrn_detector                 'Si strip'
_diffrn_detector_type            Xcelerator
_diffrn_measurement_device_type  'Panalytical Empyrean'
_diffrn_radiation_polarisn_ratio 0.5
_diffrn_radiation_probe          x-ray
_diffrn_source                   'sealed X-ray tube'
_diffrn_source_target            Mo
_diffrn_source_type              'PANalytical Empyrean'
_exptl_absorpt_coefficient_mu    0.287
_exptl_absorpt_correction_T_max  1.00000
_exptl_absorpt_correction_T_min  1.00000
_exptl_absorpt_process_details
;   GSAS Absorption/surface roughness correction: function number 0
 No correction is applied.
;
_exptl_crystal_density_diffrn    1.889
_pd_block_id                     2017-04-21T12:56|KADU1672|James_A._Kaduk|nccpan
_pd_calc_method                  'Rietveld Refinement'
_pd_char_colour                  white
_pd_meas_2theta_range_inc        0.01671
_pd_meas_2theta_range_max        49.98834
_pd_meas_2theta_range_min        1.0084
_pd_meas_number_of_points        2932
_pd_meas_scan_method             step
_pd_phase_name                   'Li K H (C6 H5 O7)'
_pd_prep_temperature             448
_pd_proc_2theta_range_inc        0.01671
_pd_proc_2theta_range_max        49.98834
_pd_proc_2theta_range_min        1.0084
_pd_proc_info_datetime           2017-04-21T12:56:47
_pd_proc_ls_background_function
;   GSAS Background function number 1 with  2 terms.
 Shifted Chebyshev function of 1st kind
      1:    2068.24     2:   -920.710    
;
_pd_proc_ls_peak_cutoff          0.01000
_pd_proc_ls_profile_function
;
 CW Profile function number 4 with  27 terms
 Pseudovoigt profile coefficients as parameterized in
 P. Thompson, D.E. Cox & J.B. Hastings (1987). J. Appl. Cryst.,20,79-83.
 Asymmetry correction of L.W. Finger, D.E. Cox & A. P. Jephcoat (1994).
 J. Appl. Cryst.,27,892-900.
 Microstrain broadening by P.W. Stephens,  (1999). J. Appl. Cryst.,32,281-289.
 #1(GU)   =  186.900 #2(GV)   =    0.000 #3(GW)   =    0.100
 #4(GP)   =    0.000 #5(LX)   =    2.749 #6(ptec) =     0.00
 #7(trns) =     0.00 #8(shft) =   0.0000 #9(sfec) =     0.00
 #10(S/L) =   0.0157 #11(H/L) =   0.0160 #12(eta) =   1.0000
 Peak tails are ignored  where the intensity is below 0.0100 times the peak
   Aniso. broadening axis   0.0   0.0   1.0
;
_pd_proc_ls_prof_R_factor        0.0313
_pd_proc_ls_prof_wR_expected     0.0180
_pd_proc_ls_prof_wR_factor       0.0419
_pd_proc_number_of_points        2932
_pd_spec_mounting                'glass capillary'
_pd_spec_mount_mode              transmission
_pd_spec_shape                   cylinder
_pd_spec_size_axial              12
_pd_spec_size_equat              1
_pd_spec_size_thick              1
_refine_ls_goodness_of_fit_all   2.36
_refine_ls_hydrogen_treatment    refU
_refine_ls_matrix_type           full
_refine_ls_number_parameters     64
_refine_ls_number_restraints     29
_refine_ls_R_Fsqd_factor         0.07603
_refine_ls_shift/su_max          0.03
_refine_ls_shift/su_mean         0.01
_refine_ls_weighting_scheme      sigma
_reflns_d_resolution_high        0.840
_reflns_d_resolution_low         10.532
_reflns_limit_h_max              7
_reflns_limit_h_min              0
_reflns_limit_k_max              7
_reflns_limit_k_min              -7
_reflns_limit_l_max              12
_reflns_limit_l_min              -12
_reflns_number_total             2915
_cod_data_source_file            ov3116sup6.cif
_cod_data_source_block           KADU1672_publ
_cod_original_cell_volume        415.276(28)
_cod_database_code               2311996
_publcif_datablock.id            {c2128fc3-3fdb-45db-93d6-8eabde42106f}
_gsas_exptl_extinct_corr_t_min   1.00000
_gsas_exptl_extinct_corr_t_max   1.00000
_publcif_info_exptl_table_max_cols 4
_publcif_info_exptl_table_use_headnotes n
loop_
_symmetry_equiv_pos_site_id
_symmetry_equiv_pos_as_xyz
1 +x,+y,+z
-1 -x,-y,-z
loop_
_atom_site_type_symbol
_atom_site_label
_atom_site_fract_x
_atom_site_fract_y
_atom_site_fract_z
_atom_site_occupancy
_atom_site_thermal_displace_type
_atom_site_U_iso_or_equiv
_atom_site_symmetry_multiplicity
C C1 1.147(4) 0.5246(30) 0.2953(12) 1.0 Uiso 0.0314(18) 2
C C2 1.0136(32) 0.6731(35) 0.3511(15) 1.0 Uiso 0.03 2
C C3 0.8182(28) 0.7611(27) 0.2655(14) 1.0 Uiso 0.03 2
C C4 0.7594(33) 0.9418(29) 0.3484(17) 1.0 Uiso 0.03 2
C C5 0.5484(33) 1.0361(29) 0.2995(13) 1.0 Uiso 0.0314(18) 2
C C6 0.8622(32) 0.8384(32) 0.1391(15) 1.0 Uiso 0.0314(18) 2
H H7 1.13190 0.81560 0.40313 1.0 Uiso 0.039 2
H H8 0.93721 0.58925 0.42437 1.0 Uiso 0.039 2
H H9 0.90080 1.07689 0.36696 1.0 Uiso 0.039 2
H H10 0.74378 0.88156 0.44373 1.0 Uiso 0.039 2
O O11 1.2366(24) 0.4012(21) 0.3730(12) 1.0 Uiso 0.0314(18) 2
O O12 1.1229(21) 0.4585(24) 0.1807(12) 1.0 Uiso 0.0314(18) 2
O O13 0.5356(23) 1.1983(20) 0.3698(13) 1.0 Uiso 0.0314(18) 2
O O14 0.4907(22) 1.0730(23) 0.1836(13) 1.0 Uiso 0.0314(18) 2
O O15 0.9946(22) 1.0102(21) 0.1513(12) 1.0 Uiso 0.0314(18) 2
O O16 0.7394(21) 0.7476(23) 0.0415(12) 1.0 Uiso 0.0314(18) 2
O O17 0.6521(23) 0.5852(20) 0.2194(11) 1.0 Uiso 0.0314(18) 2
H H18 0.63366 0.47917 0.30029 1.0 Uiso 0.0408(24) 2
K K19 0.2984(10) 0.7117(10) 0.0046(6) 1.0 Uiso 0.0428(20) 2
Li Li20 1.240(7) 1.193(6) 0.122(4) 1.0 Uiso 0.04 2
H H21 1.34037 0.31342 0.37103 1.0 Uiso 0.025 2
loop_
_atom_type_symbol
_atom_type_number_in_cell
_atom_type_scat_dispersion_real
_atom_type_scat_dispersion_imag
_atom_type_scat_Cromer_Mann_a1
_atom_type_scat_Cromer_Mann_a2
_atom_type_scat_Cromer_Mann_a3
_atom_type_scat_Cromer_Mann_a4
_atom_type_scat_Cromer_Mann_b1
_atom_type_scat_Cromer_Mann_b2
_atom_type_scat_Cromer_Mann_b3
_atom_type_scat_Cromer_Mann_b4
_atom_type_scat_Cromer_Mann_c
_atom_type_scat_source
C 12.0 0.000 0.000 2.31000 20.8439 1.02000 10.2075 1.58860 0.56870 0.86500
51.6512 0.21560 International_Tables_Vol_C
H 12.0 0.000 0.000 0.49300 10.5109 0.32291 26.1257 0.14019 3.14236 0.04081
57.7997 0.00304 International_Tables_Vol_C
O 14.0 0.000 0.000 3.04850 13.2771 2.28680 5.70110 1.54630 0.32390 0.86700
32.9089 0.25080 International_Tables_Vol_C
K 2.0 0.000 0.000 8.21860 12.7949 7.43980 0.77480 1.05190 213.187 0.86590
41.6841 1.42280 International_Tables_Vol_C
Si 0.0 0.000 0.000 6.29150 2.43860 3.03530 32.3337 1.98910 0.67850 1.54100
81.6937 1.14070 International_Tables_Vol_C
Li 2.0 0.000 0.000 1.12820 3.95460 0.75080 1.05240 0.61750 85.3905 0.46530
168.261 0.03770 International_Tables_Vol_C
loop_
_diffrn_radiation_wavelength
_diffrn_radiation_wavelength_wt
_diffrn_radiation_type
_diffrn_radiation_wavelength_id
0.709237 1.000 K\a~1~ 1
0.713647 0.500 K\a~2~ 2
loop_
_geom_angle_atom_site_label_1
_geom_angle_atom_site_label_2
_geom_angle_atom_site_label_3
_geom_angle
_geom_angle_site_symmetry_1
_geom_angle_site_symmetry_3
_geom_angle_publ_flag
C2 C1 O11 113.4(15) 1_555 1_555 n
C2 C1 O12 127.9(13) 1_555 1_555 n
O11 C1 O12 114.0(15) 1_555 1_555 n
C1 C2 C3 120.6(15) 1_555 1_555 n
C2 C3 C4 105.2(12) 1_555 1_555 n
C2 C3 C6 114.8(16) 1_555 1_555 n
C2 C3 O17 107.3(15) 1_555 1_555 n
C4 C3 C6 112.0(15) 1_555 1_555 n
C4 C3 O17 117.1(15) 1_555 1_555 n
C6 C3 O17 100.8(10) 1_555 1_555 n
C3 C4 C5 118.2(14) 1_555 1_555 n
C4 C5 O13 110.9(15) 1_555 1_555 n
C4 C5 O14 120.6(16) 1_555 1_555 n
O13 C5 O14 110.0(17) 1_555 1_555 n
C3 C6 O15 114.5(11) 1_555 1_555 n
C3 C6 O16 115.7(12) 1_555 1_555 n
O15 C6 O16 128.6(16) 1_555 1_555 n
C1 O11 H21 132.8(16) 1_555 1_555 n
C1 O12 K19 121.7(16) 1_555 1_655 n
C1 O12 K19 127.6(15) 1_555 -1_665 n
C1 O12 Li20 124.4(16) 1_555 -1_766 n
K19 O12 K19 95.3(5) 1_655 -1_665 n
K19 O12 Li20 92.3(14) 1_655 -1_766 n
K19 O12 Li20 85.3(13) -1_665 -1_766 n
C5 O13 H21 128.3(16) 1_555 1_465 n
C5 O14 K19 117.0(13) 1_555 1_555 n
C5 O14 K19 136.4(15) 1_555 -1_675 n
C5 O14 Li20 121.9(19) 1_555 -1_676 n
K19 O14 K19 92.3(5) 1_555 -1_675 n
K19 O14 Li20 86.4(13) 1_555 -1_676 n
K19 O14 Li20 89.4(16) -1_675 -1_676 n
C6 O15 K19 99.9(13) 1_555 -1_675 n
C6 O15 Li20 155.7(15) 1_555 -1_776 n
K19 O15 Li20 87.4(15) -1_675 -1_776 n
C6 O16 K19 122.0(16) 1_555 1_555 n
C6 O16 K19 120.4(15) 1_555 -1_665 n
C6 O16 Li20 124.2(15) 1_555 1_554 n
K19 O16 K19 88.0(4) 1_555 -1_665 n
K19 O16 Li20 98.2(16) 1_555 1_554 n
K19 O16 Li20 95.7(15) -1_665 1_554 n
C3 O17 H18 110.0(12) 1_555 1_555 n
C3 O17 K19 110.5(10) 1_555 1_555 n
C3 O17 K19 118.3(11) 1_555 -1_665 n
H18 O17 K19 129.2(9) 1_555 1_555 n
H18 O17 K19 106.9(8) 1_555 -1_665 n
K19 O17 K19 78.73(30) 1_555 -1_665 n
O12 K19 O12 84.7(5) 1_455 -1_665 n
O12 K19 O14 96.3(5) 1_455 1_555 n
O12 K19 O14 172.8(4) 1_455 -1_675 n
O12 K19 O15 118.2(4) 1_455 -1_675 n
O12 K19 O16 114.5(5) 1_455 1_555 n
O12 K19 O16 62.8(4) 1_455 -1_665 n
O12 K19 O17 66.7(4) 1_455 1_555 n
O12 K19 O17 108.9(4) 1_455 -1_665 n
O12 K19 O14 141.09(22) -1_665 1_555 n
O12 K19 O14 95.9(5) -1_665 -1_675 n
O12 K19 O15 56.6(4) -1_665 -1_675 n
O12 K19 O16 143.4(4) -1_665 1_555 n
O12 K19 O16 68.5(4) -1_665 -1_665 n
O12 K19 O17 142.7(4) -1_665 1_555 n
O12 K19 O17 64.6(4) -1_665 -1_665 n
O14 K19 O14 87.7(5) 1_555 -1_675 n
O14 K19 O15 90.0(4) 1_555 -1_675 n
O14 K19 O16 70.6(5) 1_555 1_555 n
O14 K19 O16 145.1(4) 1_555 -1_665 n
O14 K19 O17 68.9(5) 1_555 1_555 n
O14 K19 O17 146.9(4) 1_555 -1_665 n
O14 K19 O15 67.58(32) -1_675 -1_675 n
O14 K19 O16 61.3(4) -1_675 1_555 n
O14 K19 O16 110.7(4) -1_675 -1_665 n
O14 K19 O17 109.5(4) -1_675 1_555 n
O14 K19 O17 65.2(4) -1_675 -1_665 n
O15 K19 O16 125.4(5) -1_675 1_555 n
O15 K19 O16 124.0(5) -1_675 -1_665 n
O15 K19 O17 158.9(4) -1_675 1_555 n
O15 K19 O17 96.2(4) -1_675 -1_665 n
O16 K19 O16 92.0(4) 1_555 -1_665 n
O16 K19 O17 48.35(31) 1_555 1_555 n
O16 K19 O17 79.4(4) 1_555 -1_665 n
O16 K19 O17 76.9(4) -1_665 1_555 n
O16 K19 O17 46.69(30) -1_665 -1_665 n
O17 K19 O17 101.27(30) 1_555 -1_665 n
O12 Li20 O14 132.0(20) -1_766 -1_676 n
O12 Li20 O15 92.1(22) -1_766 -1_776 n
O12 Li20 O16 101.5(23) -1_766 1_556 n
O14 Li20 O15 108.1(21) -1_676 -1_776 n
O14 Li20 O16 103.7(26) -1_676 1_556 n
O15 Li20 O16 121.3(22) -1_776 1_556 n
O11 H21 O13 171.3(11) 1_555 1_645 n
loop_
_geom_bond_atom_site_label_1
_geom_bond_atom_site_label_2
_geom_bond_distance
_geom_bond_site_symmetry_2
_geom_bond_publ_flag
C1 C2 1.5098(23) 1_555 n
C1 O11 1.258(7) 1_555 n
C1 O12 1.260(7) 1_555 n
C2 C1 1.5098(23) 1_555 n
C2 C3 1.5396(23) 1_555 n
C3 C2 1.5396(23) 1_555 n
C3 C4 1.5396(23) 1_555 n
C3 C6 1.5492(23) 1_555 n
C3 O17 1.427(7) 1_555 n
C4 C3 1.5396(23) 1_555 n
C4 C5 1.5098(23) 1_555 n
C5 C4 1.5098(23) 1_555 n
C5 H9 2.089(19) 1_555 n
C5 O13 1.264(7) 1_555 n
C5 O14 1.268(7) 1_555 n
C6 C3 1.5492(23) 1_555 n
C6 O15 1.277(6) 1_555 n
C6 O16 1.234(10) 1_555 n
O11 C1 1.258(7) 1_555 n
O11 O12 2.111(17) 1_555 n
O11 H21 0.902(12) 1_555 n
O12 C1 1.260(7) 1_555 n
O12 O11 2.111(17) 1_555 n
O12 K19 2.880(14) 1_655 n
O12 K19 3.001(13) -1_665 n
O12 Li20 2.03(4) -1_766 n
O13 C5 1.264(7) 1_555 n
O13 O14 2.074(21) 1_555 n
O13 H21 1.492(13) 1_465 n
O14 C5 1.268(7) 1_555 n
O14 O13 2.074(21) 1_555 n
O14 K19 2.888(12) 1_555 n
O14 K19 2.978(14) -1_675 n
O14 Li20 1.83(4) -1_676 n
O15 C6 1.277(6) 1_555 n
O15 K19 3.391(11) 1_655 n
O15 K19 2.991(14) -1_675 n
O15 Li20 1.92(4) -1_776 n
O16 C6 1.234(10) 1_555 n
O16 K19 2.691(13) 1_555 n
O16 K19 3.647(13) 1_655 n
O16 K19 2.893(16) -1_665 n
O16 K19 3.503(14) -1_675 n
O16 Li20 1.86(4) 1_554 n
O17 C3 1.427(7) 1_555 n
O17 H18 1.150(10) 1_555 n
O17 K19 3.045(14) 1_555 n
O17 K19 3.077(13) -1_665 n
H18 O17 1.150(10) 1_555 n
K19 O12 2.880(14) 1_455 n
K19 O12 3.001(13) -1_665 n
K19 O14 2.888(12) 1_555 n
K19 O14 2.978(14) -1_675 n
K19 O15 3.391(11) 1_455 n
K19 O15 2.991(14) -1_675 n
K19 O16 3.647(13) 1_455 n
K19 O16 2.691(13) 1_555 n
K19 O16 2.893(16) -1_665 n
K19 O16 3.503(14) -1_675 n
K19 O17 3.045(14) 1_555 n
K19 O17 3.077(13) -1_665 n
Li20 O12 2.03(4) -1_766 n
Li20 O14 1.83(4) -1_676 n
Li20 O15 1.92(4) -1_776 n
Li20 O16 1.86(4) 1_556 n
H21 O11 0.902(12) 1_555 n
H21 O13 1.492(13) 1_645 n
loop_
_pd_meas_counts_total
_pd_proc_ls_weight
_pd_proc_intensity_bkg_calc
_pd_calc_intensity_total
2781.0 . . .
2869.0 . . .
2800.0 . . .
2944.0 . . .
2871.0 . . .
2882.0 . . .
3052.0 . . .
2997.0 . . .
2961.0 . . .
3046.0 . . .
2974.0 . . .
2953.0 . . .
3023.0 . . .
3058.0 . . .
3022.0 . . .
2984.0 . . .
2964.0 . . .
2896.0 . . .
2858.0 . . .
2849.0 . . .
2857.0 . . .
2838.0 . . .
2780.0 . . .
2802.0 . . .
2763.0 . . .
2801.0 . . .
2786.0 . . .
2777.0 . . .
2708.0 . . .
2664.0 . . .
2670.0 . . .
2712.0 . . .
2558.0 . . .
2657.0 . . .
2472.0 . . .
2538.0 . . .
2530.0 . . .
2489.0 . . .
2442.0 . . .
2555.0 . . .
2514.0 . . .
2583.0 . . .
2490.0 . . .
2403.0 . . .
2529.0 . . .
2414.0 . . .
2350.0 . . .
2310.0 . . .
2465.0 . . .
2483.0 . . .
2411.0 . . .
2315.0 . . .
2394.0 . . .
2314.0 . . .
2348.0 . . .
2322.0 . . .
2276.0 . . .
2268.0 . . .
2376.0 . . .
2245.0 . . .
2382.0 0.000420 2988.94995 2256.19580
2332.0 0.000429 2988.30835 2257.01855
2245.0 0.000445 2987.66675 2257.81104
2334.0 0.000428 2987.02515 2258.57300
2286.0 0.000437 2986.38354 2259.30591
2294.0 0.000436 2985.74194 2260.00854
2326.0 0.000430 2985.10034 2260.67725
2237.0 0.000447 2984.45874 2261.31543
2236.0 0.000447 2983.81714 2261.91772
2281.0 0.000438 2983.17554 2262.49097
2315.0 0.000432 2982.53394 2263.03003
2282.0 0.000438 2981.89233 2263.53442
2384.0 0.000419 2981.25073 2264.00586
2260.0 0.000442 2980.60913 2264.44043
2284.0 0.000438 2979.96753 2264.84473
2238.0 0.000447 2979.32593 2265.20996
2325.0 0.000430 2978.68433 2265.54175
2322.0 0.000431 2978.04272 2265.83667
2278.0 0.000439 2977.40112 2266.09692
2202.0 0.000454 2976.75952 2266.31885
2189.0 0.000457 2976.11792 2266.50513
2259.0 0.000443 2975.47632 2266.65283
2151.0 0.000465 2974.83447 2266.76660
2223.0 0.000450 2974.19312 2266.84546
2289.0 0.000437 2973.55151 2266.87988
2136.0 0.000468 2972.90967 2266.87842
2158.0 0.000463 2972.26807 2266.84277
2149.0 0.000465 2971.62646 2266.76489
2190.0 0.000457 2970.98486 2266.64990
2139.0 0.000468 2970.34326 2266.49878
2212.0 0.000452 2969.70166 2266.30664
2199.0 0.000455 2969.06006 2266.07593
2234.0 0.000448 2968.41846 2265.80713
2107.0 0.000475 2967.77686 2265.49976
2238.0 0.000447 2967.13525 2265.15527
2227.0 0.000449 2966.49365 2264.77051
2213.0 0.000452 2965.85205 2264.34595
2204.0 0.000454 2965.21045 2263.88379
2145.0 0.000466 2964.56885 2263.38330
2154.0 0.000464 2963.92725 2262.84351
2196.0 0.000455 2963.28564 2262.26416
2225.0 0.000449 2962.64404 2261.64624
2211.0 0.000452 2962.00244 2260.99292
2209.0 0.000453 2961.36084 2260.29810
2093.0 0.000478 2960.71924 2259.56592
2237.0 0.000447 2960.07764 2258.79785
2158.0 0.000463 2959.43604 2257.98804
2160.0 0.000463 2958.79443 2257.14233
2191.0 0.000456 2958.15283 2256.26025
2248.0 0.000445 2957.51123 2255.33789
2220.0 0.000450 2956.86963 2254.37915
2180.0 0.000459 2956.22803 2253.38550
2112.0 0.000473 2955.58618 2252.34985
2153.0 0.000464 2954.94482 2251.28149
2160.0 0.000463 2954.30298 2250.17822
2248.0 0.000445 2953.66138 2249.03638
2164.0 0.000462 2953.01978 2247.85986
2186.0 0.000457 2952.37817 2246.64795
2199.0 0.000455 2951.73657 2245.40332
2182.0 0.000458 2951.09497 2244.12207
2236.0 0.000447 2950.45337 2242.80640
2230.0 0.000448 2949.81177 2241.45557
2372.0 0.000422 2949.17017 2240.07324
2242.0 0.000446 2948.52856 2238.65649
2295.0 0.000436 2947.88696 2237.20850
2238.0 0.000447 2947.24536 2235.72754
2293.0 0.000436 2946.60376 2234.21582
2274.0 0.000440 2945.96216 2232.67212
2249.0 0.000445 2945.32056 2231.09741
2290.0 0.000437 2944.67896 2229.49316
2342.0 0.000427 2944.03735 2227.85620
2395.0 0.000418 2943.39575 2226.19385
2431.0 0.000411 2942.75415 2224.50244
2444.0 0.000409 2942.11255 2222.78076
2519.0 0.000397 2941.47095 2221.03247
2523.0 0.000396 2940.82935 2219.25854
2603.0 0.000384 2940.18774 2217.45483
2646.0 0.000378 2939.54614 2215.62988
2631.0 0.000380 2938.90454 2307.55054
2671.0 0.000374 2938.26294 2316.07715
2753.0 0.000363 2937.62134 2375.83228
2912.0 0.0003434 2936.97949 2396.73755
2927.0 0.0003416 2936.33813 2427.06592
3113.0 0.0003212 2935.69629 2480.41675
3136.0 0.0003189 2935.05469 2583.72290
3235.0 0.0003091 2934.41309 2715.65063
3276.0 0.0003053 2933.77148 2936.67188
3713.0 0.0002693 2933.12988 3135.91431
3770.0 0.0002653 2932.48828 3394.77124
3773.0 0.0002650 2931.84668 3706.69800
4088.0 0.0002446 2931.20508 3916.09277
4318.0 0.0002316 2930.56348 4355.16602
4653.0 0.0002149 2929.92188 4614.12305
4943.0 0.0002023 2929.28027 4988.49414
5213.0 0.0001918 2928.63867 5525.11768
5624.0 0.0001778 2927.99707 5808.53662
6050.0 0.0001653 2927.35547 6393.93457
6382.0 0.0001567 2926.71387 7037.65625
7116.0 0.0001405 2926.07227 7477.30518
7898.0 0.0001266 2925.43066 8227.79590
8805.0 0.0001136 2924.78906 9152.12500
9715.0 0.0001029 2924.14746 9969.82031
10512.0 0.0000951 2923.50586 10936.32129
12124.0 0.0000825 2922.86426 12218.76953
13863.0 0.0000721 2922.22266 13773.61328
15804.0 0.0000633 2921.58105 15640.14355
18408.0 0.0000543 2920.93945 18001.34766
22192.0 0.0000451 2920.29785 21163.12500
27613.0 0.0000362 2919.65625 25691.75000
35804.0 0.0000279 2919.01465 32536.23242
39028.0 0.0000256 2918.37305 39821.30469
32214.0 0.0000310 2917.73120 33263.04688
21112.0 0.0000474 2917.08984 21366.40430
11159.0 0.0000896 2916.44800 10780.75586
5694.0 0.0001756 2915.80640 6364.36621
3936.0 0.0002541 2915.16479 4712.85156
3204.0 0.0003121 2914.52319 3904.69629
3021.0 0.0003310 2913.88159 3433.80469
2702.0 0.000370 2913.23999 3132.10010
2586.0 0.000387 2912.59839 2925.70264
2471.0 0.000405 2911.95679 2777.42139
2294.0 0.000436 2911.31519 2666.76782
2246.0 0.000445 2910.67358 2581.64600
2206.0 0.000453 2910.03198 2514.50610
2191.0 0.000456 2909.39038 2460.42358
2182.0 0.000458 2908.74878 2416.07422
2208.0 0.000453 2908.10718 2209.06250
2121.0 0.000471 2907.46558 2107.09570
2128.0 0.000470 2906.82397 2104.93652
2091.0 0.000478 2906.18237 2102.79150
2182.0 0.000458 2905.54077 2100.66235
2122.0 0.000471 2904.89917 2098.55054
2151.0 0.000465 2904.25757 2096.45410
2047.0 0.000489 2903.61597 2094.37744
2137.0 0.000468 2902.97437 2092.32080
2086.0 0.000479 2902.33276 2090.28271
2120.0 0.000472 2901.69116 2088.26733
2150.0 0.000465 2901.04956 2086.27246
2074.0 0.000482 2900.40796 2084.29980
2036.0 0.000491 2899.76636 2082.35229
2073.0 0.000482 2899.12476 2080.42676
2162.0 0.000463 2898.48315 2078.52734
2104.0 0.000475 2897.84131 2076.65186
2061.0 0.000485 2897.19971 2074.80566
1945.0 0.000514 2896.55811 2072.98584
2040.0 0.000490 2895.91650 2071.19263
2064.0 0.000484 2895.27490 2069.42993
2020.0 0.000495 2894.63330 2067.69653
2022.0 0.000495 2893.99170 2065.99341
1988.0 0.000503 2893.35010 2064.32056
2080.0 0.000481 2892.70850 2062.67969
2092.0 0.000478 2892.06689 2061.07202
2069.0 0.000483 2891.42529 2059.49731
2048.0 0.000488 2890.78369 2057.95703
2004.0 0.000499 2890.14209 2056.45020
1991.0 0.000502 2889.50049 2054.97998
2028.0 0.000493 2888.85889 2053.54614
2089.0 0.000479 2888.21729 2052.14795
2187.0 0.000457 2887.57568 2050.78687
2077.0 0.000481 2886.93408 2049.46558
2033.0 0.000492 2886.29248 2048.18286
2057.0 0.000486 2885.65088 2046.93860
2055.0 0.000487 2885.00928 2045.73438
2018.0 0.000496 2884.36768 2044.57178
2057.0 0.000486 2883.72607 2043.44934
2063.0 0.000485 2883.08447 2042.36938
1988.0 0.000503 2882.44287 2041.33191
2015.0 0.000496 2881.80127 2040.33740
2086.0 0.000479 2881.15967 2039.38550
2025.0 0.000494 2880.51807 2038.47827
2036.0 0.000491 2879.87622 2037.61719
2068.0 0.000484 2879.23486 2036.79993
2037.0 0.000491 2878.59302 2036.02783
1973.0 0.000507 2877.95142 2035.30225
2010.0 0.000498 2877.30981 2034.62415
1988.0 0.000503 2876.66821 2033.99341
2101.0 0.000476 2876.02661 2033.40979
2025.0 0.000494 2875.38501 2032.87439
2028.0 0.000493 2874.74341 2032.38867
2085.0 0.000480 2874.10181 2031.95129
2035.0 0.000491 2873.46021 2031.56299
2159.0 0.000463 2872.81860 2031.22461
2037.0 0.000491 2872.17700 2030.93652
2008.0 0.000498 2871.53540 2030.69922
2045.0 0.000489 2870.89380 2030.51343
2029.0 0.000493 2870.25220 2030.37781
2121.0 0.000471 2869.61060 2030.29541
1982.0 0.000505 2868.96899 2030.26416
2065.0 0.000484 2868.32739 2030.28564
2056.0 0.000486 2867.68579 2030.36011
2005.0 0.000499 2867.04419 2030.48779
2050.0 0.000488 2866.40259 2030.66785
2051.0 0.000488 2865.76099 2030.90186
2107.0 0.000475 2865.11938 2031.18945
2010.0 0.000498 2864.47778 2031.53125
2050.0 0.000488 2863.83618 2031.92737
2056.0 0.000486 2863.19458 2032.37817
2141.0 0.000467 2862.55298 2032.88367
2039.0 0.000490 2861.91113 2033.44421
2108.0 0.000474 2861.26953 2034.05872
2055.0 0.000487 2860.62817 2034.72998
2086.0 0.000479 2859.98633 2035.45581
2030.0 0.000493 2859.34473 2036.23694
2051.0 0.000488 2858.70313 2037.07446
2135.0 0.000468 2858.06152 2037.96753
2138.0 0.000468 2857.41992 2038.91565
2077.0 0.000481 2856.77832 2039.92017
2084.0 0.000480 2856.13672 2040.98108
2057.0 0.000486 2855.49512 2042.09717
1956.0 0.000511 2854.85352 2043.27002
2035.0 0.000491 2854.21191 2044.49854
2073.0 0.000482 2853.57031 2045.78345
2063.0 0.000485 2852.92871 2047.12402
2024.0 0.000494 2852.28711 2048.52124
2106.0 0.000475 2851.64551 2049.97412
1985.0 0.000504 2851.00391 2051.48364
2055.0 0.000487 2850.36230 2053.04858
2133.0 0.000469 2849.72070 2054.66919
2108.0 0.000474 2849.07910 2056.34717
2121.0 0.000471 2848.43750 2058.07959
2072.0 0.000483 2847.79590 2059.86768
2137.0 0.000468 2847.15430 2061.71191
2101.0 0.000476 2846.51270 2063.61133
2131.0 0.000469 2845.87109 2065.56592
2084.0 0.000480 2845.22949 2067.57642
2051.0 0.000488 2844.58789 2069.64087
2126.0 0.000470 2843.94629 2071.76074
2151.0 0.000465 2843.30469 2073.93433
2067.0 0.000484 2842.66284 2076.16309
2105.0 0.000475 2842.02124 2078.44678
2154.0 0.000464 2841.37988 2080.78345
2012.0 0.000497 2840.73804 2083.17383
2107.0 0.000475 2840.09644 2085.61890
2017.0 0.000496 2839.45508 2088.11597
2030.0 0.000493 2838.81323 2090.66650
2100.0 0.000476 2838.17163 2093.45703
2138.0 0.000468 2837.53003 2096.12573
2109.0 0.000474 2836.88843 2098.84961
2090.0 0.000478 2836.24683 2101.72241
2095.0 0.000477 2835.60522 2104.55981
2112.0 0.000473 2834.96362 2107.45239
2114.0 0.000473 2834.32202 2110.39941
2176.0 0.000460 2833.68042 2113.40210
2170.0 0.000461 2833.03882 2116.46045
2153.0 0.000464 2832.39722 2119.57617
2096.0 0.000477 2831.75562 2122.74951
2101.0 0.000476 2831.11401 2125.98364
2021.0 0.000495 2830.47241 2129.68188
2135.0 0.000468 2829.83081 2133.07593
2068.0 0.000484 2829.18921 2136.55005
2144.0 0.000466 2828.54761 2140.32153
2221.0 0.000450 2827.90601 2144.02148
2158.0 0.000463 2827.26440 2147.89331
2107.0 0.000475 2826.62280 2152.01855
2083.0 0.000480 2825.98120 2156.41650
2118.0 0.000472 2825.33936 2160.88135
2081.0 0.000481 2824.69800 2165.70313
2103.0 0.000476 2824.05640 2171.24585
2152.0 0.000465 2823.41455 2176.67871
2183.0 0.000458 2822.77319 2182.14087
2194.0 0.000456 2822.13159 2189.04956
2043.0 0.000489 2821.48975 2203.57666
2135.0 0.000468 2820.84814 2210.95532
2091.0 0.000478 2820.20654 2224.55322
2110.0 0.000474 2819.56494 2234.59668
2229.0 0.000449 2818.92334 2246.90820
2278.0 0.000439 2818.28174 2261.36133
2306.0 0.000434 2817.64014 2274.95020
2296.0 0.000436 2816.99854 2282.77734
2338.0 0.000428 2816.35693 2282.55908
2286.0 0.000437 2815.71533 2283.05347
2321.0 0.000431 2815.07373 2284.09839
2258.0 0.000443 2814.43213 2288.45801
2299.0 0.000435 2813.79053 2295.10767
2336.0 0.000428 2813.14893 2307.02612
2340.0 0.000427 2812.50732 2323.18555
2304.0 0.000434 2811.86572 2339.96655
2375.0 0.000421 2811.22412 2361.55200
2328.0 0.000430 2810.58252 2387.19751
2455.0 0.000407 2809.94092 2412.68311
2443.0 0.000409 2809.29932 2437.56958
2359.0 0.000424 2808.65771 2461.29688
2562.0 0.000390 2808.01611 2485.06763
2621.0 0.000382 2807.37451 2515.26709
2610.0 0.000383 2806.73291 2563.96484
2656.0 0.000377 2806.09131 2629.28955
2701.0 0.000370 2805.44971 2695.20337
2750.0 0.000364 2804.80786 2770.20825
2881.0 0.0003471 2804.16626 2880.40234
3077.0 0.0003250 2803.52490 3007.94116
3155.0 0.0003170 2802.88306 3132.89844
3351.0 0.0002984 2802.24146 3289.19458
3418.0 0.0002926 2801.59985 3438.62817
3589.0 0.0002786 2800.95825 3494.27148
3368.0 0.0002969 2800.31665 3427.02026
3248.0 0.0003079 2799.67505 3269.01099
3095.0 0.0003231 2799.03345 3087.00000
2857.0 0.0003500 2798.39185 2901.73779
2792.0 0.000358 2797.75024 2748.05615
2649.0 0.000378 2797.10864 2645.17383
2597.0 0.000385 2796.46704 2583.02661
2493.0 0.000401 2795.82544 2547.87427
2471.0 0.000405 2795.18384 2530.45410
2497.0 0.000400 2794.54224 2525.37085
2519.0 0.000397 2793.90063 2528.78516
2521.0 0.000397 2793.25903 2537.26196
2480.0 0.000403 2792.61743 2550.84595
2564.0 0.000390 2791.97583 2572.87646
2624.0 0.000381 2791.33423 2604.27002
2640.0 0.000379 2790.69263 2641.09741
2669.0 0.000375 2790.05103 2678.84448
2865.0 0.0003490 2789.40942 2723.59668
2794.0 0.000358 2788.76782 2781.08032
2960.0 0.0003378 2788.12622 2837.92969
3003.0 0.0003330 2787.48462 2886.82129
3084.0 0.0003243 2786.84302 2907.29810
2943.0 0.0003398 2786.20142 2887.81689
2911.0 0.0003435 2785.55957 2839.53662
2785.0 0.000359 2784.91821 2796.71606
2754.0 0.000363 2784.27661 2736.16113
2801.0 0.000357 2783.63477 2683.27002
2573.0 0.000389 2782.99316 2654.56128
2566.0 0.000390 2782.35156 2632.71875
2590.0 0.000386 2781.70996 2622.11499
2733.0 0.000366 2781.06836 2619.73999
2684.0 0.000373 2780.42676 2617.87842
2741.0 0.000365 2779.78516 2628.22803
2831.0 0.000353 2779.14355 2642.58740
2844.0 0.000352 2778.50195 2672.39258
2820.0 0.000355 2777.86035 2725.17920
2870.0 0.0003484 2777.21875 2803.06958
3059.0 0.0003269 2776.57715 2915.22339
3178.0 0.0003147 2775.93555 3056.40405
3283.0 0.0003046 2775.29395 3243.44482
3545.0 0.0002821 2774.65234 3456.88330
3824.0 0.0002615 2774.01074 3745.28589
3955.0 0.0002528 2773.36914 4082.46606
4473.0 0.0002236 2772.72754 4499.42188
5170.0 0.0001934 2772.08594 5072.00098
6139.0 0.0001629 2771.44434 5859.08496
7128.0 0.0001403 2770.80273 6975.89795
7991.0 0.0001251 2770.16113 8036.77783
7427.0 0.0001346 2769.51953 7592.54004
6375.0 0.0001569 2768.87793 6452.27832
6087.0 0.0001643 2768.23633 6076.14941
5414.0 0.0001847 2767.59473 5373.59912
4638.0 0.0002156 2766.95313 4519.82910
4157.0 0.0002406 2766.31128 4080.20239
3785.0 0.0002642 2765.66992 3802.38135
3442.0 0.0002905 2765.02832 3576.48364
3281.0 0.0003048 2764.38647 3379.60840
3131.0 0.0003194 2763.74487 3197.24023
2973.0 0.0003364 2763.10327 3053.58325
2937.0 0.0003405 2762.46167 2955.33154
2690.0 0.000372 2761.82007 2891.22168
2714.0 0.000368 2761.17847 2849.43018
2683.0 0.000373 2760.53687 2821.79053
2780.0 0.000360 2759.89526 2803.25635
2671.0 0.000374 2759.25366 2790.81250
2792.0 0.000358 2758.61206 2782.65796
2598.0 0.000385 2757.97046 2776.78442
2642.0 0.000379 2757.32886 2774.26807
2646.0 0.000378 2756.68726 2773.70142
2640.0 0.000379 2756.04565 2774.76392
2719.0 0.000368 2755.40405 2777.25317
2618.0 0.000382 2754.76245 2781.05835
2615.0 0.000382 2754.12085 2786.14844
2629.0 0.000380 2753.47925 2792.57495
2729.0 0.000366 2752.83765 2800.47974
2693.0 0.000371 2752.19604 2810.12476
2741.0 0.000365 2751.55444 2821.93677
2829.0 0.000353 2750.91284 2836.55298
2788.0 0.000359 2750.27124 2854.89917
2804.0 0.000357 2749.62964 2878.22412
2808.0 0.000356 2748.98804 2912.46411
2913.0 0.0003433 2748.34644 2949.57495
3042.0 0.0003287 2747.70459 2992.74438
2954.0 0.0003385 2747.06323 3042.17725
3032.0 0.0003298 2746.42163 3090.75952
3117.0 0.0003208 2745.77979 3159.84448
3080.0 0.0003247 2745.13818 3246.04175
3119.0 0.0003206 2744.49658 3330.89355
3293.0 0.0003037 2743.85498 3421.09082
3434.0 0.0002912 2743.21338 3501.87354
3680.0 0.0002717 2742.57178 3565.73853
3675.0 0.0002721 2741.93018 3581.99438
3755.0 0.0002663 2741.28857 3537.15796
3622.0 0.0002761 2740.64697 3459.99731
3399.0 0.0002942 2740.00537 3372.24878
3374.0 0.0002964 2739.36377 3278.09497
3318.0 0.0003014 2738.72217 3188.65942
3194.0 0.0003131 2738.08057 3116.10620
3165.0 0.0003160 2737.43896 3063.24854
3035.0 0.0003295 2736.79736 3026.95605
2963.0 0.0003375 2736.15576 3003.16528
3059.0 0.0003269 2735.51416 2988.26294
3068.0 0.0003259 2734.87256 2980.11597
3026.0 0.0003305 2734.23096 2976.79224
2943.0 0.0003398 2733.58936 2977.67944
3012.0 0.0003320 2732.94775 2982.36646
3075.0 0.0003252 2732.30615 2990.86694
2941.0 0.0003400 2731.66455 3004.41919
3069.0 0.0003258 2731.02295 3022.05640
3059.0 0.0003269 2730.38135 3034.05127
3044.0 0.0003285 2729.73975 3036.77734
3083.0 0.0003244 2729.09814 3049.93311
3091.0 0.0003235 2728.45630 3072.72412
2977.0 0.0003359 2727.81470 3097.63794
3139.0 0.0003186 2727.17310 3132.87427
3135.0 0.0003190 2726.53149 3181.09814
3242.0 0.0003085 2725.88989 3235.80908
3309.0 0.0003022 2725.24829 3289.82471
3330.0 0.0003003 2724.60669 3344.94238
3513.0 0.0002847 2723.96509 3411.41333
3679.0 0.0002718 2723.32349 3493.74561
3857.0 0.0002593 2722.68188 3581.16040
4100.0 0.0002439 2722.04028 3651.40527
3985.0 0.0002509 2721.39868 3664.13892
3844.0 0.0002601 2720.75708 3629.70337
3770.0 0.0002653 2720.11548 3575.54688
3679.0 0.0002718 2719.47388 3504.43921
3521.0 0.0002840 2718.83228 3421.65747
3510.0 0.0002849 2718.19067 3340.24707
3268.0 0.0003060 2717.54907 3272.60596
3154.0 0.0003171 2716.90747 3221.81226
3144.0 0.0003181 2716.26587 3185.46924
3070.0 0.0003257 2715.62427 3159.64795
3130.0 0.0003195 2714.98267 3136.51099
3120.0 0.0003205 2714.34106 3122.30273
3096.0 0.0003230 2713.69946 3111.93359
3119.0 0.0003206 2713.05786 3102.43262
3161.0 0.0003164 2712.41626 3097.20752
3042.0 0.0003287 2711.77466 3093.93726
3020.0 0.0003311 2711.13306 3092.49219
3043.0 0.0003286 2710.49146 3092.63477
2996.0 0.0003338 2709.84985 3094.10938
3058.0 0.0003270 2709.20801 3096.72168
3068.0 0.0003259 2708.56665 3121.36011
3089.0 0.0003237 2707.92505 3127.35376
2978.0 0.0003358 2707.28320 3134.45142
3088.0 0.0003238 2706.64160 3142.72827
3105.0 0.0003221 2706.00000 3162.99170
3246.0 0.0003081 2705.35840 3174.86011
3098.0 0.0003228 2704.71680 3188.67505
3186.0 0.0003139 2704.07520 3223.58130
3207.0 0.0003118 2703.43359 3244.83984
3347.0 0.0002988 2702.79199 3270.55151
3205.0 0.0003120 2702.15039 3302.22681
3255.0 0.0003072 2701.50879 3351.45264
3395.0 0.0002946 2700.86719 3402.86694
3358.0 0.0002978 2700.22559 3468.21338
3468.0 0.0002884 2699.58398 3549.51709
3521.0 0.0002840 2698.94238 3644.79224
3547.0 0.0002819 2698.30078 3747.42725
3686.0 0.0002713 2697.65918 3856.54492
3861.0 0.0002590 2697.01758 3986.06079
4060.0 0.0002463 2696.37598 4150.27588
4405.0 0.0002270 2695.73438 4343.97510
4556.0 0.0002195 2695.09277 4540.00732
4721.0 0.0002118 2694.45117 4710.76074
4884.0 0.0002048 2693.80957 4879.01367
5039.0 0.0001985 2693.16797 5125.57227
5422.0 0.0001844 2692.52637 5490.66992
5831.0 0.0001715 2691.88477 5915.16846
6394.0 0.0001564 2691.24316 6565.69385
7236.0 0.0001382 2690.60132 7478.28125
8367.0 0.0001195 2689.95996 8525.12793
9680.0 0.0001033 2689.31812 9701.66992
10830.0 0.0000923 2688.67651 10533.50391
11422.0 0.0000876 2688.03516 10976.80664
11004.0 0.0000909 2687.39331 10918.77246
9638.0 0.0001038 2686.75171 9999.35059
8624.0 0.0001160 2686.11011 8745.56348
7710.0 0.0001297 2685.46851 7646.50684
6810.0 0.0001468 2684.82690 6676.07764
5653.0 0.0001769 2684.18530 5639.96533
4828.0 0.0002071 2683.54370 4812.87988
4167.0 0.0002400 2682.90210 4293.53564
3877.0 0.0002579 2682.26050 3988.42749
3847.0 0.0002599 2681.61890 3806.98706
3630.0 0.0002755 2680.97729 3687.22437
3710.0 0.0002695 2680.33569 3603.37305
3536.0 0.0002828 2679.69409 3541.96606
3608.0 0.0002772 2679.05249 3497.07837
3506.0 0.0002852 2678.41089 3461.77734
3435.0 0.0002911 2677.76929 3434.41479
3447.0 0.0002901 2677.12769 3413.04102
3474.0 0.0002879 2676.48608 3396.29980
3496.0 0.0002860 2675.84448 3383.24194
3432.0 0.0002914 2675.20288 3373.20288
3481.0 0.0002873 2674.56128 3365.72412
3401.0 0.0002940 2673.91968 3360.51172
3380.0 0.0002959 2673.27808 3357.42212
3459.0 0.0002891 2672.63647 3356.46118
3484.0 0.0002870 2671.99487 3357.81250
3440.0 0.0002907 2671.35327 3361.87720
3538.0 0.0002826 2670.71167 3369.31519
3528.0 0.0002834 2670.06982 3381.06372
3452.0 0.0002897 2669.42847 3398.16699
3498.0 0.0002859 2668.78687 3421.04688
3479.0 0.0002874 2668.14502 3447.98145
3423.0 0.0002921 2667.50342 3470.36523
3531.0 0.0002832 2666.86206 3500.00049
3577.0 0.0002796 2666.22021 3537.36938
3550.0 0.0002817 2665.57861 3579.82837
3519.0 0.0002842 2664.93701 3618.10181
3614.0 0.0002767 2664.29541 3628.20996
3567.0 0.0002803 2663.65381 3609.59839
3469.0 0.0002883 2663.01221 3581.95654
3632.0 0.0002753 2662.37061 3555.08594
3569.0 0.0002802 2661.72900 3523.74658
3576.0 0.0002796 2661.08740 3486.61206
3469.0 0.0002883 2660.44580 3451.37061
3505.0 0.0002853 2659.80420 3423.71924
3630.0 0.0002755 2659.16260 3404.29858
3611.0 0.0002769 2658.52100 3391.62085
3640.0 0.0002747 2657.87939 3384.00293
3644.0 0.0002744 2657.23779 3379.98560
3634.0 0.0002752 2656.59619 3488.94873
3678.0 0.0002719 2655.95459 3497.71924
3535.0 0.0002829 2655.31299 3509.30469
3610.0 0.0002770 2654.67139 3507.05786
3661.0 0.0002731 2654.02979 3579.07959
3666.0 0.0002728 2653.38818 3604.46973
3767.0 0.0002655 2652.74634 3722.47729
3584.0 0.0002790 2652.10498 3763.73340
3754.0 0.0002664 2651.46313 3812.16113
3706.0 0.0002698 2650.82178 3869.15918
3924.0 0.0002548 2650.18018 3979.23315
4037.0 0.0002477 2649.53833 4060.52075
4040.0 0.0002475 2648.89673 4153.80078
4077.0 0.0002453 2648.25537 4257.46436
4064.0 0.0002461 2647.61353 4367.26563
4244.0 0.0002356 2646.97192 4477.74805
4399.0 0.0002273 2646.33032 4586.71191
4506.0 0.0002219 2645.68872 4698.90967
4882.0 0.0002048 2645.04712 4824.88330
5002.0 0.0001999 2644.40552 4977.85059
5029.0 0.0001988 2643.76392 5175.40039
5465.0 0.0001830 2643.12231 5446.88379
6021.0 0.0001661 2642.48071 5843.73340
6542.0 0.0001529 2641.83911 6440.40088
7297.0 0.0001370 2641.19751 7338.47559
8370.0 0.0001195 2640.55591 8618.02246
9897.0 0.0001010 2639.91431 10196.23926
11704.0 0.0000854 2639.27271 12018.76465
14718.0 0.0000679 2638.63110 14704.00684
18274.0 0.0000547 2637.98950 18682.83203
23380.0 0.0000428 2637.34790 22970.08789
27506.0 0.0000364 2636.70630 26523.85352
29009.0 0.0000345 2636.06470 29104.56250
27995.0 0.0000357 2635.42310 29083.99219
27640.0 0.0000362 2634.78149 27700.89258
28352.0 0.0000353 2634.13965 27348.37891
29171.0 0.0000343 2633.49829 28288.30469
28526.0 0.0000351 2632.85669 28402.43359
27517.0 0.0000363 2632.21509 27169.91992
25341.0 0.0000395 2631.57349 25082.11328
22425.0 0.0000446 2630.93164 21924.78125
19029.0 0.0000526 2630.29004 18853.06641
16066.0 0.0000622 2629.64844 16542.20313
14161.0 0.0000706 2629.00708 14621.76563
12519.0 0.0000799 2628.36523 12311.37500
10264.0 0.0000974 2627.72363 9995.18457
7922.0 0.0001262 2627.08203 8257.45020
6921.0 0.0001445 2626.44043 7145.38428
6285.0 0.0001591 2625.79883 6514.02100
6236.0 0.0001604 2625.15723 6226.66943
6101.0 0.0001639 2624.51563 6196.14453
6503.0 0.0001538 2623.87402 6395.20898
6997.0 0.0001429 2623.23242 6862.46533
7955.0 0.0001257 2622.59082 7672.22705
8945.0 0.0001118 2621.94922 8660.12988
9095.0 0.0001100 2621.30762 9048.19531
8317.0 0.0001202 2620.66602 8065.66895
7269.0 0.0001376 2620.02441 6903.81543
6613.0 0.0001512 2619.38281 6500.32178
6477.0 0.0001544 2618.74121 6435.74365
6095.0 0.0001641 2618.09961 5910.63477
5394.0 0.0001854 2617.45801 5035.50732
4658.0 0.0002147 2616.81641 4437.50684
4246.0 0.0002355 2616.17480 4151.24316
3955.0 0.0002528 2615.53320 4017.93188
3859.0 0.0002591 2614.89160 3941.07520
3887.0 0.0002573 2614.25000 3888.64673
3671.0 0.0002724 2613.60840 3851.03467
3759.0 0.0002660 2612.96655 3824.40698
3761.0 0.0002659 2612.32520 3807.01465
3681.0 0.0002717 2611.68359 3795.69922
3715.0 0.0002692 2611.04175 3795.72461
3730.0 0.0002681 2610.40039 3804.77075
3710.0 0.0002695 2609.75879 3822.58960
3628.0 0.0002756 2609.11694 3845.45557
3686.0 0.0002713 2608.47534 3869.25684
3621.0 0.0002762 2607.83374 3882.52490
3631.0 0.0002754 2607.19214 3878.78662
3695.0 0.0002706 2606.55054 3861.50586
3604.0 0.0002775 2605.90894 3838.77124
3675.0 0.0002721 2605.26733 3814.28076
3696.0 0.0002706 2604.62573 3786.83276
3726.0 0.0002684 2603.98413 3756.25610
3630.0 0.0002755 2603.34253 3726.02222
3649.0 0.0002740 2602.70093 3700.25317
3782.0 0.0002644 2602.05933 3681.18579
3926.0 0.0002547 2601.41772 3670.83228
3890.0 0.0002571 2600.77612 3666.28613
3700.0 0.0002703 2600.13452 3668.82861
3758.0 0.0002661 2599.49292 3679.27246
3679.0 0.0002718 2598.85132 3696.75806
3895.0 0.0002567 2598.20972 3722.44165
3743.0 0.0002672 2597.56812 3756.51367
3697.0 0.0002705 2596.92651 3797.97046
3695.0 0.0002706 2596.28491 3843.24170
3862.0 0.0002589 2595.64331 3885.16724
3842.0 0.0002603 2595.00171 3835.13745
3841.0 0.0002603 2594.35986 3847.40991
3812.0 0.0002623 2593.71851 3840.45020
3908.0 0.0002559 2593.07690 3819.99194
3929.0 0.0002545 2592.43506 3791.12402
3805.0 0.0002628 2591.79346 3755.61060
3909.0 0.0002558 2591.15210 3714.28198
3739.0 0.0002675 2590.51025 3669.81909
3825.0 0.0002614 2589.86865 3626.23389
3654.0 0.0002737 2589.22705 3586.77515
3671.0 0.0002724 2588.58545 3552.95435
3750.0 0.0002667 2587.94385 3525.47681
3663.0 0.0002730 2587.30225 3502.62915
3531.0 0.0002832 2586.66064 3484.13916
3597.0 0.0002780 2586.01904 3469.21387
3630.0 0.0002755 2585.37744 3464.57031
3490.0 0.0002865 2584.73584 3457.51514
3548.0 0.0002818 2584.09424 3450.09717
3555.0 0.0002813 2583.45264 3444.33716
3613.0 0.0002768 2582.81104 3440.05054
3444.0 0.0002904 2582.16943 3440.81567
3446.0 0.0002902 2581.52783 3440.50513
3611.0 0.0002769 2580.88623 3440.73901
3423.0 0.0002921 2580.24463 3442.78931
3529.0 0.0002834 2579.60303 3447.05957
3488.0 0.0002867 2578.96143 3460.16162
3443.0 0.0002904 2578.31982 3470.86279
3510.0 0.0002849 2577.67822 3485.32983
3513.0 0.0002847 2577.03662 3503.24414
3480.0 0.0002874 2576.39502 3523.47632
3545.0 0.0002821 2575.75342 3548.15503
3589.0 0.0002786 2575.11157 3571.16089
3575.0 0.0002797 2574.47021 3592.70508
3594.0 0.0002782 2573.82861 3605.95947
3531.0 0.0002832 2573.18677 3605.87769
3630.0 0.0002755 2572.54541 3594.85986
3482.0 0.0002872 2571.90356 3583.69336
3543.0 0.0002822 2571.26196 3575.30200
3542.0 0.0002823 2570.62036 3568.23022
3458.0 0.0002892 2569.97876 3559.03076
3501.0 0.0002856 2569.33716 3550.10864
3638.0 0.0002749 2568.69556 3546.06299
3433.0 0.0002913 2568.05396 3548.21973
3438.0 0.0002909 2567.41235 3548.27393
3551.0 0.0002816 2566.77075 3541.80542
3536.0 0.0002828 2566.12915 3528.48682
3456.0 0.0002894 2565.48755 3521.30957
3500.0 0.0002857 2564.84595 3520.55591
3534.0 0.0002830 2564.20435 3521.69556
3579.0 0.0002794 2563.56274 3523.70850
3551.0 0.0002816 2562.92114 3527.43164
3540.0 0.0002825 2562.27954 3574.32227
3682.0 0.0002716 2561.63794 3597.65112
3562.0 0.0002807 2560.99634 3631.25928
3618.0 0.0002764 2560.35474 3675.20532
3750.0 0.0002667 2559.71313 3728.52002
3868.0 0.0002585 2559.07153 3800.83643
3859.0 0.0002591 2558.42993 3876.93359
3982.0 0.0002511 2557.78833 3954.34814
4150.0 0.0002410 2557.14673 4028.18799
4201.0 0.0002380 2556.50513 4092.11108
4329.0 0.0002310 2555.86353 4157.94092
4254.0 0.0002351 2555.22192 4233.68115
4390.0 0.0002278 2554.58032 4322.46289
4491.0 0.0002227 2553.93848 4416.72119
4542.0 0.0002202 2553.29688 4509.24268
4646.0 0.0002152 2552.65527 4581.88672
4680.0 0.0002137 2552.01367 4604.62842
4629.0 0.0002160 2551.37207 4567.73486
4522.0 0.0002211 2550.73047 4504.31299
4416.0 0.0002264 2550.08887 4455.76172
4373.0 0.0002287 2549.44727 4425.98242
4508.0 0.0002218 2548.80566 4441.63721
4306.0 0.0002322 2548.16406 4414.65723
4289.0 0.0002332 2547.52246 4406.24561
4295.0 0.0002328 2546.88086 4420.36328
4329.0 0.0002310 2546.23926 4472.18359
4354.0 0.0002297 2545.59766 4583.35303
4400.0 0.0002273 2544.95605 4750.74854
4581.0 0.0002183 2544.31445 4908.81787
4684.0 0.0002135 2543.67285 5086.01758
5138.0 0.0001946 2543.03125 5284.68164
5211.0 0.0001919 2542.38965 5523.19092
5514.0 0.0001814 2541.74805 5769.03662
5978.0 0.0001673 2541.10645 6001.73193
6337.0 0.0001578 2540.46484 6255.45801
6667.0 0.0001500 2539.82324 6560.22705
6869.0 0.0001456 2539.18164 6922.37988
7292.0 0.0001371 2538.54004 7366.92725
7925.0 0.0001262 2537.89844 7897.38232
8294.0 0.0001206 2537.25659 8530.33008
9028.0 0.0001108 2536.61523 9200.22656
9565.0 0.0001045 2535.97363 9797.88281
10216.0 0.0000979 2535.33179 10234.99316
10661.0 0.0000938 2534.69019 10396.06543
10624.0 0.0000941 2534.04883 10276.98438
10003.0 0.0001000 2533.40698 9993.73047
9431.0 0.0001060 2532.76538 9609.56641
8996.0 0.0001112 2532.12378 9117.47559
8852.0 0.0001130 2531.48218 8607.12402
8381.0 0.0001193 2530.84058 8116.96777
7847.0 0.0001274 2530.19897 7684.68115
7649.0 0.0001307 2529.55737 7338.09912
7016.0 0.0001425 2528.91577 7052.32373
6876.0 0.0001454 2528.27417 6854.15869
6940.0 0.0001441 2527.63257 6822.67920
7122.0 0.0001404 2526.99097 7020.18408
7506.0 0.0001332 2526.34937 7477.30273
7963.0 0.0001256 2525.70776 8198.60059
8628.0 0.0001159 2525.06616 9126.65234
9866.0 0.0001014 2524.42456 10172.07129
11310.0 0.0000884 2523.78296 11340.41504
12678.0 0.0000789 2523.14136 12624.57520
13924.0 0.0000718 2522.49976 13674.38379
13907.0 0.0000719 2521.85815 14052.03223
13606.0 0.0000735 2521.21655 13950.25391
12873.0 0.0000777 2520.57495 13887.12207
13421.0 0.0000745 2519.93335 14107.94629
14489.0 0.0000690 2519.29175 14494.56543
15512.0 0.0000645 2518.65015 14679.98633
15538.0 0.0000644 2518.00854 14332.33496
13798.0 0.0000725 2517.36694 13422.16602
12332.0 0.0000811 2516.72534 12236.75195
10785.0 0.0000927 2516.08374 11142.91016
10107.0 0.0000989 2515.44189 10313.94141
9710.0 0.0001030 2514.80054 9673.27637
9416.0 0.0001062 2514.15869 9027.00684
8673.0 0.0001153 2513.51709 8316.38379
7681.0 0.0001302 2512.87549 7658.02832
7043.0 0.0001420 2512.23389 7204.00049
6655.0 0.0001503 2511.59229 6926.19824
6590.0 0.0001517 2510.95068 6831.34717
6557.0 0.0001525 2510.30908 6909.34619
6706.0 0.0001491 2509.66748 7152.82422
7101.0 0.0001408 2509.02588 7528.12842
7532.0 0.0001328 2508.38428 7952.13623
8319.0 0.0001202 2507.74268 8368.45410
8791.0 0.0001138 2507.10107 8672.65723
9304.0 0.0001075 2506.45947 8838.26953
9169.0 0.0001091 2505.81787 8906.49121
9062.0 0.0001104 2505.17627 8921.47559
8923.0 0.0001121 2504.53467 8910.93945
8661.0 0.0001155 2503.89307 8879.01367
8593.0 0.0001164 2503.25146 8830.50781
8632.0 0.0001158 2502.60986 8792.07129
8394.0 0.0001191 2501.96826 8775.42871
8255.0 0.0001211 2501.32666 8749.76660
8292.0 0.0001206 2500.68506 8654.29492
7994.0 0.0001251 2500.04346 8449.09277
8374.0 0.0001194 2499.40186 8161.78662
8213.0 0.0001218 2498.76025 7857.68945
7773.0 0.0001287 2498.11865 7570.89746
7515.0 0.0001331 2497.47705 7314.58252
7087.0 0.0001411 2496.83545 7045.36670
6833.0 0.0001463 2496.19385 6736.88916
6407.0 0.0001561 2495.55200 6397.10889
6225.0 0.0001606 2494.91040 5987.68164
5861.0 0.0001706 2494.26880 5682.04102
5680.0 0.0001761 2493.62720 5450.83496
5372.0 0.0001862 2492.98560 5235.11621
5265.0 0.0001899 2492.34399 5056.12500
4937.0 0.0002026 2491.70239 4908.78174
4931.0 0.0002028 2491.06079 4773.76758
4924.0 0.0002031 2490.41919 4651.68652
4764.0 0.0002099 2489.77759 4616.69971
4872.0 0.0002053 2489.13599 4603.78760
4798.0 0.0002084 2488.49438 4631.14795
5038.0 0.0001985 2487.85278 4705.13867
5313.0 0.0001882 2487.21118 4833.85938
5629.0 0.0001777 2486.56958 5022.76123
5744.0 0.0001741 2485.92798 5264.04053
6177.0 0.0001619 2485.28638 5549.65430
6448.0 0.0001551 2484.64478 5889.67236
6878.0 0.0001454 2484.00317 6255.47803
6817.0 0.0001467 2483.36157 6567.45996
6796.0 0.0001471 2482.71997 6850.59863
7060.0 0.0001416 2482.07837 7211.31787
7041.0 0.0001420 2481.43677 7725.06836
7574.0 0.0001320 2480.79517 8406.33105
8068.0 0.0001239 2480.15356 9187.96973
8557.0 0.0001169 2479.51172 9948.47656
9132.0 0.0001095 2478.87036 10585.21875
9889.0 0.0001011 2478.22852 11001.13672
10962.0 0.0000912 2477.58716 11127.99805
11546.0 0.0000866 2476.94531 10995.16895
11792.0 0.0000848 2476.30371 10727.53125
11311.0 0.0000884 2475.66211 10431.97461
10676.0 0.0000937 2475.02051 10137.25098
10087.0 0.0000991 2474.37891 9823.46289
9848.0 0.0001015 2473.73730 9473.01367
9832.0 0.0001017 2473.09570 9117.61035
9419.0 0.0001062 2472.45410 8796.22168
9088.0 0.0001100 2471.81250 8633.14648
8701.0 0.0001149 2471.17090 8636.93262
8564.0 0.0001168 2470.52930 8839.44238
8654.0 0.0001156 2469.88770 9231.79785
9193.0 0.0001088 2469.24609 9782.57813
9770.0 0.0001024 2468.60449 10420.31641
10146.0 0.0000986 2467.96289 11077.16699
10459.0 0.0000956 2467.32129 11614.39355
10929.0 0.0000915 2466.67969 11927.31934
11462.0 0.0000872 2466.03809 11923.48438
12141.0 0.0000824 2465.39648 11624.93750
12147.0 0.0000823 2464.75488 11218.91699
11802.0 0.0000847 2464.11328 10807.25684
10587.0 0.0000945 2463.47168 10419.44141
9800.0 0.0001020 2462.83008 9996.13770
9204.0 0.0001086 2462.18848 9424.04590
8706.0 0.0001149 2461.54688 8654.48926
8335.0 0.0001200 2460.90527 7799.38037
7667.0 0.0001304 2460.26367 7024.77539
6669.0 0.0001499 2459.62207 6398.82715
5977.0 0.0001673 2458.98047 5926.77686
5510.0 0.0001815 2458.33862 5540.41846
5122.0 0.0001952 2457.69702 5162.68848
4739.0 0.0002110 2457.05542 4809.28760
4484.0 0.0002230 2456.41382 4524.94971
4145.0 0.0002413 2455.77222 4314.16797
4224.0 0.0002367 2455.13062 4161.06104
4125.0 0.0002424 2454.48901 4049.60840
3970.0 0.0002519 2453.84741 3963.22144
3799.0 0.0002632 2453.20581 3885.86597
3840.0 0.0002604 2452.56421 3814.43579
3811.0 0.0002624 2451.92261 3753.06909
3758.0 0.0002661 2451.28101 3706.26636
3711.0 0.0002695 2450.63940 3672.64380
3720.0 0.0002688 2449.99780 3650.19116
3692.0 0.0002709 2449.35620 3633.55176
3591.0 0.0002785 2448.71460 3622.26611
3631.0 0.0002754 2448.07300 3617.58569
3645.0 0.0002743 2447.43140 3621.82397
3578.0 0.0002795 2446.78979 3636.34619
3689.0 0.0002711 2446.14819 3665.23853
3701.0 0.0002702 2445.50659 3714.33276
3659.0 0.0002733 2444.86499 3795.63867
3762.0 0.0002658 2444.22339 3905.07935
3848.0 0.0002599 2443.58179 4050.51050
3927.0 0.0002546 2442.93994 4226.54736
4044.0 0.0002473 2442.29858 4409.54834
4310.0 0.0002320 2441.65698 4550.94727
4468.0 0.0002238 2441.01538 4598.93799
4586.0 0.0002181 2440.37354 4550.47119
4669.0 0.0002142 2439.73218 4449.27930
4567.0 0.0002190 2439.09033 4352.44873
4389.0 0.0002278 2438.44873 4281.88574
4303.0 0.0002324 2437.80713 4224.49316
4195.0 0.0002384 2437.16553 4151.93799
4160.0 0.0002404 2436.52393 4051.73413
4128.0 0.0002422 2435.88232 3939.34570
4080.0 0.0002451 2435.24072 3835.05103
3967.0 0.0002521 2434.59912 3762.72632
3943.0 0.0002536 2433.95752 3722.32153
3916.0 0.0002554 2433.31592 3713.97510
3926.0 0.0002547 2432.67432 3735.47266
3816.0 0.0002621 2432.03271 3784.65845
3869.0 0.0002585 2431.39111 3836.78320
4057.0 0.0002465 2430.74951 3937.61182
4035.0 0.0002478 2430.10791 4062.10303
4207.0 0.0002377 2429.46631 4216.56250
4263.0 0.0002346 2428.82471 4412.19336
4508.0 0.0002218 2428.18311 4659.23877
4635.0 0.0002157 2427.54150 4964.67188
4954.0 0.0002019 2426.89990 5327.36670
5185.0 0.0001929 2426.25830 5728.42285
5694.0 0.0001756 2425.61670 6125.59375
6254.0 0.0001599 2424.97510 6466.13916
6639.0 0.0001506 2424.33325 6681.54639
7086.0 0.0001411 2423.69165 6742.03467
7187.0 0.0001391 2423.05029 6637.26025
6601.0 0.0001515 2422.40869 6440.30811
6433.0 0.0001554 2421.76685 6269.22998
5931.0 0.0001686 2421.12549 6123.31348
5725.0 0.0001747 2420.48364 5977.70264
5820.0 0.0001718 2419.84204 5808.47900
5790.0 0.0001727 2419.20044 5583.21680
5447.0 0.0001836 2418.55908 5307.76709
4945.0 0.0002022 2417.91724 5055.71387
4757.0 0.0002102 2417.27563 4820.38330
4544.0 0.0002201 2416.63403 4607.91309
4338.0 0.0002305 2415.99243 4415.80078
4157.0 0.0002406 2415.35083 4242.06982
4018.0 0.0002489 2414.70923 4102.61719
3881.0 0.0002577 2414.06763 3962.93091
3756.0 0.0002662 2413.42603 3838.08667
3776.0 0.0002648 2412.78442 3721.15698
3645.0 0.0002743 2412.14282 3612.31641
3527.0 0.0002835 2411.50122 3512.63965
3431.0 0.0002915 2410.85962 3422.74048
3408.0 0.0002934 2410.21802 3354.87964
3320.0 0.0003012 2409.57642 3292.92993
3230.0 0.0003096 2408.93481 3245.39917
3237.0 0.0003089 2408.29321 3210.63062
3261.0 0.0003067 2407.65161 3186.39648
3215.0 0.0003110 2407.01001 3169.90405
3019.0 0.0003312 2406.36841 3159.58276
3093.0 0.0003233 2405.72656 3149.88354
3168.0 0.0003157 2405.08496 3141.23608
3016.0 0.0003316 2404.44360 3140.08130
3126.0 0.0003199 2403.80200 3146.14063
3108.0 0.0003218 2403.16016 3154.33691
3080.0 0.0003247 2402.51855 3167.02832
3167.0 0.0003158 2401.87720 3214.66357
3186.0 0.0003139 2401.23535 3228.18433
3108.0 0.0003218 2400.59375 3244.80908
3207.0 0.0003118 2399.95239 3271.14722
3259.0 0.0003068 2399.31055 3315.18164
3281.0 0.0003048 2398.66895 3391.00317
3168.0 0.0003157 2398.02734 3527.93799
3544.0 0.0002822 2397.38574 3722.35498
3876.0 0.0002580 2396.74414 4021.86426
4522.0 0.0002211 2396.10254 4466.11572
5453.0 0.0001834 2395.46094 5090.25342
6761.0 0.0001479 2394.81934 5941.31152
8201.0 0.0001219 2394.17773 6961.97070
8722.0 0.0001147 2393.53613 7885.11670
7932.0 0.0001261 2392.89453 8180.70703
6486.0 0.0001542 2392.25293 7471.23779
5312.0 0.0001883 2391.61133 6336.58643
4945.0 0.0002022 2390.96973 5572.50439
5248.0 0.0001905 2390.32813 5309.69922
5722.0 0.0001748 2389.68652 5329.65479
5802.0 0.0001724 2389.04492 5371.30615
5066.0 0.0001974 2388.40332 5112.23438
4431.0 0.0002257 2387.76172 4459.12451
3611.0 0.0002769 2387.12012 3786.43701
3215.0 0.0003110 2386.47852 3345.02954
3065.0 0.0003263 2385.83691 3117.92578
3048.0 0.0003281 2385.19531 3008.77710
2899.0 0.0003449 2384.55347 2950.65405
2864.0 0.0003492 2383.91211 2915.94897
2910.0 0.0003436 2383.27051 2895.33032
2952.0 0.0003388 2382.62866 2885.29834
2840.0 0.000352 2381.98706 2884.31055
2880.0 0.0003472 2381.34570 2891.75781
2920.0 0.0003425 2380.70386 2907.60742
2955.0 0.0003384 2380.06226 2932.21338
2940.0 0.0003401 2379.42065 2966.18823
2972.0 0.0003365 2378.77905 3010.24194
3054.0 0.0003274 2378.13745 3064.89185
2993.0 0.0003341 2377.49585 3130.01904
3188.0 0.0003137 2376.85425 3204.20288
3295.0 0.0003035 2376.21265 3284.19897
3500.0 0.0002857 2375.57104 3365.18164
3458.0 0.0002892 2374.92944 3441.25146
3550.0 0.0002817 2374.28784 3512.80078
3709.0 0.0002696 2373.64624 3578.06396
3608.0 0.0002772 2373.00464 3639.49438
3607.0 0.0002772 2372.36304 3698.33618
3571.0 0.0002800 2371.72144 3740.44067
3766.0 0.0002655 2371.07983 3760.15820
3836.0 0.0002607 2370.43823 3755.84692
3811.0 0.0002624 2369.79663 3737.97070
3772.0 0.0002651 2369.15503 3719.60742
3546.0 0.0002820 2368.51343 3712.24023
3565.0 0.0002805 2367.87183 3721.53247
3468.0 0.0002884 2367.23022 3742.81738
3423.0 0.0002921 2366.58862 3776.62085
3598.0 0.0002779 2365.94678 3824.72461
3648.0 0.0002741 2365.30542 3901.72192
3703.0 0.0002701 2364.66382 4013.19458
3947.0 0.0002534 2364.02222 4158.31885
4298.0 0.0002327 2363.38062 4328.10986
4733.0 0.0002113 2362.73901 4512.01318
5148.0 0.0001943 2362.09717 4690.08740
5472.0 0.0001827 2361.45557 4812.65479
5581.0 0.0001792 2360.81396 4873.45508
5453.0 0.0001834 2360.17236 4835.89014
5208.0 0.0001920 2359.53076 4720.60742
4802.0 0.0002082 2358.88916 4575.41699
4443.0 0.0002251 2358.24756 4434.26953
4222.0 0.0002369 2357.60596 4309.88770
4326.0 0.0002312 2356.96436 4192.05225
4207.0 0.0002377 2356.32275 4060.09521
4080.0 0.0002451 2355.68115 3905.09644
3875.0 0.0002581 2355.03955 3730.02344
3513.0 0.0002847 2354.39795 3557.84399
3259.0 0.0003068 2353.75635 3404.50415
3051.0 0.0003278 2353.11475 3276.54761
2952.0 0.0003388 2352.47314 3174.36108
2929.0 0.0003414 2351.83154 3094.62354
2822.0 0.000354 2351.18994 3029.29150
2946.0 0.0003394 2350.54834 2976.52026
2910.0 0.0003436 2349.90674 2929.57349
2913.0 0.0003433 2349.26514 2887.93799
2906.0 0.0003441 2348.62354 2851.19824
2963.0 0.0003375 2347.98193 2820.92627
2921.0 0.0003423 2347.34009 2794.46533
2904.0 0.0003444 2346.69873 2773.46289
2857.0 0.0003500 2346.05713 2755.47070
2894.0 0.0003455 2345.41553 2741.07739
2797.0 0.000358 2344.77368 2730.78638
2870.0 0.0003484 2344.13232 2725.85156
2765.0 0.000362 2343.49048 2728.75537
2935.0 0.0003407 2342.84888 2784.85669
2854.0 0.0003504 2342.20728 2808.79419
2853.0 0.0003505 2341.56567 2843.93091
2936.0 0.0003406 2340.92407 2889.93994
2870.0 0.0003484 2340.28247 2946.38623
2941.0 0.0003400 2339.64087 3005.13916
2931.0 0.0003412 2338.99927 3060.79150
2947.0 0.0003393 2338.35767 3132.24878
3108.0 0.0003218 2337.71606 3157.27612
3278.0 0.0003051 2337.07446 3166.43091
3234.0 0.0003092 2336.43286 3151.91382
3217.0 0.0003108 2335.79126 3134.77979
3172.0 0.0003153 2335.14966 3116.52271
3149.0 0.0003176 2334.50806 3102.44849
3127.0 0.0003198 2333.86646 3094.93896
3169.0 0.0003156 2333.22485 3084.48730
3144.0 0.0003181 2332.58325 3075.46021
3207.0 0.0003118 2331.94165 3070.33765
3179.0 0.0003146 2331.30005 3066.80249
3046.0 0.0003283 2330.65845 3073.87305
3034.0 0.0003296 2330.01685 3099.31006
3264.0 0.0003064 2329.37524 3150.14380
3248.0 0.0003079 2328.73340 3230.80371
3383.0 0.0002956 2328.09180 3355.82788
3534.0 0.0002830 2327.45044 3549.02222
3958.0 0.0002527 2326.80884 3858.63062
4570.0 0.0002188 2326.16699 4329.70605
5263.0 0.0001900 2325.52563 5073.69287
6287.0 0.0001591 2324.88379 6169.40625
7929.0 0.0001261 2324.24219 7626.34521
9644.0 0.0001037 2323.60059 9290.14063
11251.0 0.0000889 2322.95898 10814.88184
11742.0 0.0000852 2322.31738 11687.37695
11178.0 0.0000895 2321.67578 11345.76758
9792.0 0.0001021 2321.03418 10081.44824
8397.0 0.0001191 2320.39258 8808.14258
7849.0 0.0001274 2319.75098 8062.51318
7601.0 0.0001316 2319.10938 7885.50146
7923.0 0.0001262 2318.46777 8053.74170
8281.0 0.0001208 2317.82617 8222.56836
8046.0 0.0001243 2317.18457 7982.84619
7325.0 0.0001365 2316.54297 7241.92188
6206.0 0.0001611 2315.90137 6351.99072
5430.0 0.0001842 2315.25977 5619.47021
5126.0 0.0001951 2314.61816 5124.17676
4839.0 0.0002067 2313.97656 4827.81396
4755.0 0.0002103 2313.33496 4655.20361
4671.0 0.0002141 2312.69336 4541.53662
4518.0 0.0002213 2312.05176 4464.11670
4555.0 0.0002195 2311.41016 4422.04150
4600.0 0.0002174 2310.76855 4424.99561
4502.0 0.0002221 2310.12695 4477.88477
4526.0 0.0002209 2309.48535 4581.46094
4726.0 0.0002116 2308.84375 4725.82080
4850.0 0.0002062 2308.20215 4903.69482
5050.0 0.0001980 2307.56030 5132.98486
5094.0 0.0001963 2306.91895 5432.02051
5351.0 0.0001869 2306.27734 5786.93848
5626.0 0.0001777 2305.63550 6164.72412
5893.0 0.0001697 2304.99390 6518.01123
6397.0 0.0001563 2304.35229 6774.80762
6625.0 0.0001509 2303.71069 6881.21338
6747.0 0.0001482 2303.06909 6854.31006
7031.0 0.0001422 2302.42749 6756.07617
7132.0 0.0001402 2301.78589 6655.41699
7014.0 0.0001426 2301.14429 6579.68701
6801.0 0.0001470 2300.50269 6524.79590
6563.0 0.0001524 2299.86108 6458.60938
6435.0 0.0001554 2299.21948 6347.50879
6267.0 0.0001596 2298.57788 6173.66943
6347.0 0.0001576 2297.93628 5933.00977
5904.0 0.0001694 2297.29468 5623.09277
5462.0 0.0001831 2296.65308 5264.94531
5038.0 0.0001985 2296.01147 4899.59424
4703.0 0.0002126 2295.36987 4570.65967
4589.0 0.0002179 2294.72827 4299.21143
4097.0 0.0002441 2294.08667 4086.81079
4002.0 0.0002499 2293.44507 3918.73462
3796.0 0.0002634 2292.80347 3775.55078
3512.0 0.0002847 2292.16187 3635.77515
3468.0 0.0002884 2291.52026 3496.84961
3339.0 0.0002995 2290.87866 3376.06299
3259.0 0.0003068 2290.23706 3286.82617
3260.0 0.0003067 2289.59546 3229.59375
3395.0 0.0002946 2288.95361 3195.23584
3423.0 0.0002921 2288.31226 3166.93091
3390.0 0.0002950 2287.67065 3139.51782
3291.0 0.0003039 2287.02881 3117.12598
3353.0 0.0002982 2286.38721 3106.21118
3325.0 0.0003008 2285.74561 3111.65308
3299.0 0.0003031 2285.10400 3133.79956
3276.0 0.0003053 2284.46240 3169.81104
3282.0 0.0003047 2283.82080 3208.06445
3370.0 0.0002967 2283.17920 3235.72607
3391.0 0.0002949 2282.53760 3242.82886
3290.0 0.0003040 2281.89600 3227.78003
3299.0 0.0003031 2281.25439 3194.42383
3323.0 0.0003009 2280.61279 3147.77954
3098.0 0.0003228 2279.97119 3094.69971
3063.0 0.0003265 2279.32959 3041.97925
2993.0 0.0003341 2278.68799 2992.24902
2827.0 0.000354 2278.04639 2944.80200
2769.0 0.000361 2277.40479 2896.80371
2769.0 0.000361 2276.76318 2846.52197
2753.0 0.000363 2276.12158 2794.87183
2700.0 0.000370 2275.47998 2740.98071
2579.0 0.000388 2274.83838 2688.39136
2486.0 0.000402 2274.19678 2640.04272
2592.0 0.000386 2273.55518 2601.25024
2488.0 0.000402 2272.91333 2568.29468
2441.0 0.000410 2272.27197 2544.10498
2501.0 0.000400 2271.63037 2526.64844
2488.0 0.000402 2270.98877 2520.91431
2404.0 0.000416 2270.34717 2517.79883
2502.0 0.000400 2269.70557 2514.30127
2431.0 0.000411 2269.06372 2506.75317
2526.0 0.000396 2268.42236 2497.77466
2553.0 0.000392 2267.78076 2488.10400
2600.0 0.000385 2267.13916 2479.94067
2448.0 0.000408 2266.49731 2478.68506
2570.0 0.000389 2265.85596 2483.53589
2437.0 0.000410 2265.21411 2491.49268
2412.0 0.000415 2264.57251 2500.20508
2529.0 0.000395 2263.93115 2507.03857
2485.0 0.000402 2263.28931 2511.27832
2537.0 0.000394 2262.64795 2513.13013
2503.0 0.000400 2262.00610 2514.02734
2506.0 0.000399 2261.36450 2513.79224
2337.0 0.000428 2260.72290 2514.30591
2450.0 0.000408 2260.08130 2515.78125
2511.0 0.000398 2259.43970 2517.22778
2507.0 0.000399 2258.79810 2518.24536
2560.0 0.000391 2258.15649 2515.93604
2675.0 0.000374 2257.51514 2512.03076
2636.0 0.000379 2256.87329 2508.48511
2615.0 0.000382 2256.23169 2507.64478
2417.0 0.000414 2255.59009 2510.07178
2581.0 0.000387 2254.94849 2517.50928
2485.0 0.000402 2254.30664 2530.26904
2523.0 0.000396 2253.66528 2548.73560
2469.0 0.000405 2253.02368 2571.49658
2562.0 0.000390 2252.38208 2598.16748
2674.0 0.000374 2251.74048 2627.13892
2633.0 0.000380 2251.09888 2658.64478
2690.0 0.000372 2250.45703 2695.66162
2791.0 0.000358 2249.81567 2744.76709
2812.0 0.000356 2249.17383 2810.84521
2879.0 0.0003473 2248.53247 2894.15674
2946.0 0.0003394 2247.89063 2987.45313
3087.0 0.0003239 2247.24927 3074.06885
3186.0 0.0003139 2246.60742 3136.06836
3151.0 0.0003174 2245.96582 3167.42627
3158.0 0.0003167 2245.32446 3183.00928
3108.0 0.0003218 2244.68262 3199.19604
3131.0 0.0003194 2244.04126 3219.05737
3172.0 0.0003153 2243.39941 3232.42578
3132.0 0.0003193 2242.75781 3229.69727
3059.0 0.0003269 2242.11621 3210.10645
3109.0 0.0003216 2241.47461 3173.33179
3066.0 0.0003262 2240.83301 3120.85522
2970.0 0.0003367 2240.19141 3059.04980
3053.0 0.0003275 2239.54980 2996.85522
2953.0 0.0003386 2238.90845 2937.73169
2832.0 0.000353 2238.26660 2877.58423
2848.0 0.000351 2237.62500 2816.90918
2780.0 0.000360 2236.98340 2756.80713
2756.0 0.000363 2236.34180 2701.13062
2774.0 0.000360 2235.69995 2651.09399
2635.0 0.000380 2235.05859 2605.43726
2549.0 0.000392 2234.41699 2565.89307
2516.0 0.000397 2233.77539 2522.63892
2540.0 0.000394 2233.13379 2492.33081
2469.0 0.000405 2232.49219 2470.51538
2480.0 0.000403 2231.85034 2454.29248
2454.0 0.000407 2231.20898 2447.11450
2509.0 0.000399 2230.56738 2441.80713
2576.0 0.000388 2229.92578 2442.77539
2501.0 0.000400 2229.28394 2451.92969
2401.0 0.000416 2228.64233 2465.31592
2516.0 0.000397 2228.00098 2484.12402
2490.0 0.000402 2227.35913 2510.79541
2585.0 0.000387 2226.71777 2543.28442
2676.0 0.000374 2226.07593 2580.63208
2522.0 0.000397 2225.43457 2622.14575
2730.0 0.000366 2224.79272 2659.82642
2703.0 0.000370 2224.15112 2689.49023
2838.0 0.000352 2223.50952 2707.67261
2806.0 0.000356 2222.86792 2707.40479
2707.0 0.000369 2222.22632 2705.92261
2745.0 0.000364 2221.58472 2699.25488
2783.0 0.000359 2220.94312 2697.44287
2843.0 0.000352 2220.30176 2694.63696
2839.0 0.000352 2219.65991 2693.94824
2971.0 0.0003366 2219.01831 2694.35425
2917.0 0.0003428 2218.37671 2690.61938
2845.0 0.000351 2217.73511 2682.80396
2830.0 0.000353 2217.09326 2672.75684
2814.0 0.000355 2216.45190 2660.43872
2733.0 0.000366 2215.81030 2649.72046
2763.0 0.000362 2215.16870 2640.30762
2697.0 0.000371 2214.52710 2630.06152
2905.0 0.0003442 2213.88550 2621.42627
2689.0 0.000372 2213.24390 2616.44019
2698.0 0.000371 2212.60229 2615.96973
2765.0 0.000362 2211.96069 2623.54175
2790.0 0.000358 2211.31909 2642.22876
2626.0 0.000381 2210.67725 2675.61133
2628.0 0.000381 2210.03564 2723.92554
2786.0 0.000359 2209.39429 2790.73975
2836.0 0.000353 2208.75244 2882.25024
2894.0 0.0003455 2208.11108 2991.16504
3060.0 0.0003268 2207.46924 3139.87695
3144.0 0.0003181 2206.82788 3307.44141
3161.0 0.0003164 2206.18604 3280.18555
3236.0 0.0003090 2205.54443 3164.76660
3329.0 0.0003004 2204.90283 3156.68018
3311.0 0.0003020 2204.26123 3173.92725
3324.0 0.0003008 2203.61963 3197.86353
3402.0 0.0002939 2202.97803 3234.30029
3265.0 0.0003063 2202.33643 3286.62280
3224.0 0.0003102 2201.69507 3338.44727
3179.0 0.0003146 2201.05322 3357.83179
3126.0 0.0003199 2200.41162 3251.00903
3148.0 0.0003177 2199.77002 3208.63721
3128.0 0.0003197 2199.12842 3214.11499
3267.0 0.0003061 2198.48682 3249.28271
3131.0 0.0003194 2197.84521 3308.82617
3143.0 0.0003182 2197.20361 3385.24585
3246.0 0.0003081 2196.56201 3457.37671
3185.0 0.0003140 2195.92041 3505.22339
3301.0 0.0003029 2195.27881 3526.46045
3233.0 0.0003093 2194.63721 3535.28394
3344.0 0.0002990 2193.99561 3536.69531
3228.0 0.0003098 2193.35400 3521.25513
3382.0 0.0002957 2192.71240 3477.93579
3340.0 0.0002994 2192.07056 3410.89429
3317.0 0.0003015 2191.42896 3333.93701
3250.0 0.0003077 2190.78760 3255.29175
3190.0 0.0003135 2190.14575 3178.57886
3170.0 0.0003155 2189.50439 3108.34521
2887.0 0.0003464 2188.86255 3048.27173
2860.0 0.0003497 2188.22095 2991.49561
2804.0 0.000357 2187.57959 2930.59375
2900.0 0.0003448 2186.93774 2859.84033
2755.0 0.000363 2186.29614 2789.24170
2700.0 0.000370 2185.65454 2717.76514
2719.0 0.000368 2185.01294 2655.62061
2720.0 0.000368 2184.37134 2605.21851
2737.0 0.000365 2183.72974 2567.64941
2491.0 0.000401 2183.08838 2541.51318
2518.0 0.000397 2182.44653 2525.43848
2572.0 0.000389 2181.80493 2518.32813
2581.0 0.000387 2181.16333 2519.23120
2598.0 0.000385 2180.52173 2532.08081
2560.0 0.000391 2179.88013 2545.98608
2674.0 0.000374 2179.23853 2565.85400
2696.0 0.000371 2178.59692 2589.92847
2695.0 0.000371 2177.95532 2618.18042
2811.0 0.000356 2177.31372 2648.96851
2833.0 0.000353 2176.67212 2681.00708
2967.0 0.0003370 2176.03052 2716.42139
3006.0 0.0003327 2175.38892 2763.31079
3076.0 0.0003251 2174.74707 2839.32471
3034.0 0.0003296 2174.10571 2961.42676
3269.0 0.0003059 2173.46387 3139.37549
3348.0 0.0002987 2172.82251 3348.20239
3408.0 0.0002934 2172.18091 3521.99829
3361.0 0.0002975 2171.53906 3566.91846
3346.0 0.0002989 2170.89771 3437.59741
3283.0 0.0003046 2170.25586 3209.46533
3050.0 0.0003279 2169.61426 2994.85229
3003.0 0.0003330 2168.97290 2856.44385
2903.0 0.0003445 2168.33105 2808.89868
2843.0 0.000352 2167.68945 2836.25415
2810.0 0.000356 2167.04785 2902.90747
2882.0 0.0003470 2166.40625 2960.10254
2747.0 0.000364 2165.76465 2957.72803
2705.0 0.000370 2165.12305 2884.44385
2702.0 0.000370 2164.48169 2785.21948
2624.0 0.000381 2163.83984 2707.81421
2519.0 0.000397 2163.19824 2671.16797
2406.0 0.000416 2162.55664 2670.62866
2463.0 0.000406 2161.91504 2687.91895
2426.0 0.000412 2161.27344 2711.93555
2492.0 0.000401 2160.63184 2733.33447
2518.0 0.000397 2159.99023 2744.96973
2588.0 0.000386 2159.34863 2739.28540
2557.0 0.000391 2158.70679 2719.92188
2596.0 0.000385 2158.06543 2697.07129
2505.0 0.000399 2157.42383 2681.87769
2412.0 0.000415 2156.78223 2677.50513
2634.0 0.000380 2156.14063 2681.43140
2582.0 0.000387 2155.49902 2688.00732
2641.0 0.000379 2154.85718 2693.53638
2577.0 0.000388 2154.21582 2690.29541
2660.0 0.000376 2153.57422 2672.95459
2600.0 0.000385 2152.93237 2643.79321
2589.0 0.000386 2152.29102 2609.97217
2507.0 0.000399 2151.64917 2578.25317
2480.0 0.000403 2151.00757 2551.37598
2504.0 0.000399 2150.36621 2529.40112
2625.0 0.000381 2149.72437 2513.28369
2515.0 0.000398 2149.08276 2499.35474
2460.0 0.000407 2148.44116 2485.81177
2384.0 0.000419 2147.79956 2471.42065
2486.0 0.000402 2147.15796 2456.14624
2476.0 0.000404 2146.51636 2440.58789
2372.0 0.000422 2145.87500 2425.40723
2517.0 0.000397 2145.23315 2408.89136
2433.0 0.000411 2144.59155 2395.69751
2368.0 0.000422 2143.94995 2383.87793
2367.0 0.000422 2143.30835 2373.65405
2305.0 0.000434 2142.66675 2364.96973
2386.0 0.000419 2142.02515 2357.72510
2304.0 0.000434 2141.38354 2351.91870
2249.0 0.000445 2140.74194 2347.51147
2338.0 0.000428 2140.10034 2344.52148
2323.0 0.000430 2139.45874 2343.52515
2381.0 0.000420 2138.81714 2343.39990
2404.0 0.000416 2138.17554 2344.33154
2337.0 0.000428 2137.53394 2345.77539
2388.0 0.000419 2136.89233 2346.89575
2483.0 0.000403 2136.25049 2347.03149
2368.0 0.000422 2135.60913 2345.61768
2320.0 0.000431 2134.96753 2342.76538
2317.0 0.000432 2134.32568 2339.34106
2262.0 0.000442 2133.68433 2336.21704
2305.0 0.000434 2133.04248 2335.06104
2336.0 0.000428 2132.40088 2338.20142
2180.0 0.000459 2131.75952 2342.05054
2342.0 0.000427 2131.11768 2348.75317
2236.0 0.000447 2130.47607 2358.31104
2206.0 0.000453 2129.83447 2369.41357
2365.0 0.000423 2129.19287 2381.45874
2157.0 0.000464 2128.55151 2393.23657
2305.0 0.000434 2127.90967 2403.64136
2312.0 0.000433 2127.26831 2411.71899
2348.0 0.000426 2126.62646 2418.03247
2350.0 0.000426 2125.98486 2425.62402
2382.0 0.000420 2125.34326 2433.01953
2418.0 0.000414 2124.70166 2443.04199
2442.0 0.000410 2124.06006 2456.14551
2415.0 0.000414 2123.41846 2471.74194
2467.0 0.000405 2122.77686 2488.45435
2367.0 0.000422 2122.13525 2504.52832
2476.0 0.000404 2121.49341 2517.22559
2486.0 0.000402 2120.85205 2524.96729
2444.0 0.000409 2120.21045 2527.17993
2558.0 0.000391 2119.56885 2524.61035
2618.0 0.000382 2118.92725 2517.85815
2639.0 0.000379 2118.28540 2509.79468
2704.0 0.000370 2117.64404 2501.79053
2711.0 0.000369 2117.00244 2494.97656
2615.0 0.000382 2116.36084 2490.19629
2658.0 0.000376 2115.71899 2485.32568
2640.0 0.000379 2115.07764 2478.71216
2631.0 0.000380 2114.43579 2468.21216
2571.0 0.000389 2113.79443 2452.43433
2618.0 0.000382 2113.15283 2432.26709
2579.0 0.000388 2112.51099 2410.52930
2605.0 0.000384 2111.86938 2389.74976
2525.0 0.000396 2111.22778 2371.27856
2481.0 0.000403 2110.58618 2356.01758
2451.0 0.000408 2109.94482 2345.16138
2337.0 0.000428 2109.30298 2335.95898
2357.0 0.000424 2108.66162 2328.50073
2420.0 0.000413 2108.01978 2320.32397
2362.0 0.000423 2107.37817 2315.10132
2402.0 0.000416 2106.73657 2311.91504
2443.0 0.000409 2106.09497 2312.39404
2530.0 0.000395 2105.45337 2315.46777
2331.0 0.000429 2104.81177 2321.29614
2278.0 0.000439 2104.17017 2328.93164
2349.0 0.000426 2103.52856 2336.16919
2272.0 0.000440 2102.88696 2338.62109
2320.0 0.000431 2102.24536 2337.59937
2388.0 0.000419 2101.60376 2333.79468
2216.0 0.000451 2100.96216 2331.18237
2274.0 0.000440 2100.32056 2331.42236
2304.0 0.000434 2099.67871 2336.34888
2299.0 0.000435 2099.03735 2344.84302
2274.0 0.000440 2098.39575 2357.00049
2337.0 0.000428 2097.75415 2370.67993
2343.0 0.000427 2097.11230 2384.60840
2373.0 0.000421 2096.47095 2397.21631
2407.0 0.000415 2095.82910 2406.73145
2409.0 0.000415 2095.18774 2413.19775
2448.0 0.000408 2094.54614 2421.90015
2487.0 0.000402 2093.90430 2433.05371
2469.0 0.000405 2093.26270 2446.69775
2505.0 0.000399 2092.62109 2466.47070
2544.0 0.000393 2091.97949 2488.11108
2563.0 0.000390 2091.33813 2514.25171
2560.0 0.000391 2090.69629 2543.00049
2536.0 0.000394 2090.05493 2569.17944
2641.0 0.000379 2089.41309 2584.67798
2615.0 0.000382 2088.77148 2585.09546
2501.0 0.000400 2088.13013 2575.20947
2415.0 0.000414 2087.48828 2562.38916
2440.0 0.000410 2086.84668 2552.05103
2565.0 0.000390 2086.20508 2550.87207
2542.0 0.000393 2085.56348 2553.27783
2549.0 0.000392 2084.92188 2562.00391
2573.0 0.000389 2084.28027 2577.67285
2571.0 0.000389 2083.63867 2593.62598
2571.0 0.000389 2082.99707 2606.48486
2571.0 0.000389 2082.35547 2613.22949
2576.0 0.000388 2081.71387 2613.64673
2509.0 0.000399 2081.07202 2607.17285
2494.0 0.000401 2080.43066 2595.09912
2543.0 0.000393 2079.78906 2581.14014
2395.0 0.000418 2079.14746 2568.78149
2319.0 0.000431 2078.50562 2559.62939
2522.0 0.000397 2077.86426 2556.00000
2362.0 0.000423 2077.22241 2561.38110
2384.0 0.000419 2076.58105 2570.09424
2494.0 0.000401 2075.93945 2584.80664
2370.0 0.000422 2075.29761 2603.00220
2496.0 0.000401 2074.65601 2622.67798
2474.0 0.000404 2074.01440 2644.11182
2477.0 0.000404 2073.37280 2664.12769
2524.0 0.000396 2072.73145 2682.06470
2584.0 0.000387 2072.08960 2697.23047
2667.0 0.000375 2071.44824 2709.66870
2804.0 0.000357 2070.80640 2722.45068
2901.0 0.0003447 2070.16479 2734.29370
2877.0 0.0003476 2069.52344 2745.19336
2851.0 0.000351 2068.88159 2756.28491
3007.0 0.0003326 2068.23999 2767.21704
2936.0 0.0003406 2067.59839 2779.64453
2992.0 0.0003342 2066.95679 2793.92310
2919.0 0.0003426 2066.31519 2809.33374
2796.0 0.000358 2065.67358 2827.77173
2935.0 0.0003407 2065.03198 2850.28931
2994.0 0.0003340 2064.39038 2877.53662
3051.0 0.0003278 2063.74878 2909.12695
3126.0 0.0003199 2063.10718 2943.52319
3075.0 0.0003252 2062.46533 2977.76367
3178.0 0.0003147 2061.82397 3011.50879
3219.0 0.0003107 2061.18237 3047.66992
3318.0 0.0003014 2060.54077 3092.13159
3365.0 0.0002972 2059.89893 3153.83472
3308.0 0.0003023 2059.25732 3216.40356
3352.0 0.0002983 2058.61597 3268.84741
3569.0 0.0002802 2057.97437 3281.92090
3525.0 0.0002837 2057.33276 3240.40918
3492.0 0.0002864 2056.69092 3165.55347
3384.0 0.0002955 2056.04956 3091.76636
3320.0 0.0003012 2055.40771 3044.41626
3287.0 0.0003042 2054.76611 3038.92358
3393.0 0.0002947 2054.12476 3087.33301
3440.0 0.0002907 2053.48291 3200.56128
3558.0 0.0002811 2052.84155 3367.97559
3862.0 0.0002589 2052.19971 3559.69653
3978.0 0.0002514 2051.55811 3710.31055
3939.0 0.0002539 2050.91675 3743.62036
3866.0 0.0002587 2050.27490 3634.86963
3682.0 0.0002716 2049.63330 3438.98438
3431.0 0.0002915 2048.99170 3238.68115
3223.0 0.0003103 2048.35010 3084.43579
3134.0 0.0003191 2047.70862 2993.48657
3126.0 0.0003199 2047.06689 2963.83521
3147.0 0.0003178 2046.42529 2985.53540
3184.0 0.0003141 2045.78357 3040.68604
3307.0 0.0003024 2045.14209 3100.38574
3118.0 0.0003207 2044.50037 3128.90503
3118.0 0.0003207 2043.85889 3104.06372
3067.0 0.0003261 2043.21729 3041.15332
2902.0 0.0003446 2042.57568 2967.50977
2881.0 0.0003471 2041.93408 2902.62134
2780.0 0.000360 2041.29236 2854.75195
2854.0 0.0003504 2040.65076 2824.01855
2810.0 0.000356 2040.00928 2806.16040
2713.0 0.000369 2039.36755 2796.94849
2724.0 0.000367 2038.72607 2791.84961
2861.0 0.0003495 2038.08435 2789.40845
2742.0 0.000365 2037.44275 2788.29102
2825.0 0.000354 2036.80103 2787.18945
2866.0 0.0003489 2036.15955 2784.16919
2831.0 0.000353 2035.51794 2778.60571
2746.0 0.000364 2034.87622 2771.85303
2745.0 0.000364 2034.23474 2766.08643
2777.0 0.000360 2033.59302 2764.03564
2771.0 0.000361 2032.95142 2767.59888
2739.0 0.000365 2032.30994 2774.96313
2774.0 0.000360 2031.66821 2784.34644
2752.0 0.000363 2031.02673 2793.44995
2764.0 0.000362 2030.38501 2802.96704
2879.0 0.0003473 2029.74329 2804.48608
2759.0 0.000362 2029.10193 2799.10962
2788.0 0.000359 2028.46021 2788.69360
2716.0 0.000368 2027.81860 2776.32324
2730.0 0.000366 2027.17688 2763.98804
2797.0 0.000358 2026.53540 2754.76294
2693.0 0.000371 2025.89368 2749.34644
2770.0 0.000361 2025.25220 2748.33325
2652.0 0.000377 2024.61060 2752.31177
2658.0 0.000376 2023.96899 2760.48047
2668.0 0.000375 2023.32739 2772.11792
2632.0 0.000380 2022.68567 2780.83984
2782.0 0.000359 2022.04407 2784.44507
2646.0 0.000378 2021.40259 2778.91943
2664.0 0.000375 2020.76086 2763.33691
2704.0 0.000370 2020.11938 2740.98022
2751.0 0.000364 2019.47766 2713.48853
2731.0 0.000366 2018.83594 2685.82202
2668.0 0.000375 2018.19458 2663.41748
2700.0 0.000370 2017.55286 2648.97290
2650.0 0.000377 2016.91125 2643.12036
2721.0 0.000368 2016.26953 2642.96216
2652.0 0.000377 2015.62805 2643.04663
2603.0 0.000384 2014.98633 2637.53467
2735.0 0.000366 2014.34473 2622.12329
2587.0 0.000387 2013.70325 2602.85962
2511.0 0.000398 2013.06152 2579.56421
2621.0 0.000382 2012.42004 2557.48877
2638.0 0.000379 2011.77832 2540.70288
2580.0 0.000388 2011.13660 2531.04834
2651.0 0.000377 2010.49524 2531.38013
2581.0 0.000387 2009.85352 2540.85913
2571.0 0.000389 2009.21191 2558.37915
2547.0 0.000393 2008.57019 2582.59424
2519.0 0.000397 2007.92871 2612.53174
2560.0 0.000391 2007.28699 2647.86206
2555.0 0.000391 2006.64551 2690.18262
2585.0 0.000387 2006.00391 2735.03149
2682.0 0.000373 2005.36230 2778.54883
2680.0 0.000373 2004.72070 2813.30493
2707.0 0.000369 2004.07898 2837.01733
2750.0 0.000364 2003.43738 2850.79712
2829.0 0.000353 2002.79590 2859.41235
2900.0 0.0003448 2002.15417 2871.22729
2882.0 0.0003470 2001.51270 2891.68579
2812.0 0.000356 2000.87097 2924.56665
2957.0 0.0003382 2000.22925 2970.15967
3030.0 0.0003300 1999.58789 3027.04761
3088.0 0.0003238 1998.94617 3088.94824
3136.0 0.0003189 1998.30457 3146.69482
3314.0 0.0003018 1997.66284 3189.95581
3396.0 0.0002945 1997.02136 3211.06836
3321.0 0.0003011 1996.37964 3209.08521
3465.0 0.0002886 1995.73804 3185.52979
3333.0 0.0003000 1995.09656 3146.27393
3265.0 0.0003063 1994.45483 3099.25977
3202.0 0.0003123 1993.81335 3052.26367
3254.0 0.0003073 1993.17163 3011.84058
3181.0 0.0003144 1992.52991 2981.34570
3186.0 0.0003139 1991.88855 2960.98901
3021.0 0.0003310 1991.24683 2948.53735
3091.0 0.0003235 1990.60522 2941.10938
3082.0 0.0003245 1989.96350 2935.72241
3097.0 0.0003229 1989.32202 2930.83789
2943.0 0.0003398 1988.68054 2924.18750
2904.0 0.0003444 1988.03882 2915.31421
2961.0 0.0003377 1987.39722 2902.07593
2898.0 0.0003451 1986.75562 2882.28369
2843.0 0.000352 1986.11401 2854.60645
2805.0 0.000357 1985.47229 2820.86157
2805.0 0.000357 1984.83069 2784.53589
2700.0 0.000370 1984.18921 2748.64673
2668.0 0.000375 1983.54749 2715.36475
2674.0 0.000374 1982.90601 2684.61646
2778.0 0.000360 1982.26428 2660.51172
2595.0 0.000385 1981.62256 2642.16748
2544.0 0.000393 1980.98120 2629.18872
2660.0 0.000376 1980.33948 2619.91162
2531.0 0.000395 1979.69800 2612.02783
2542.0 0.000393 1979.05615 2603.64624
2584.0 0.000387 1978.41455 2594.11548
2511.0 0.000398 1977.77307 2582.66382
2635.0 0.000380 1977.13135 2568.54761
2574.0 0.000389 1976.48987 2549.91626
2541.0 0.000394 1975.84814 2530.39307
2509.0 0.000399 1975.20667 2513.25757
2638.0 0.000379 1974.56494 2500.28589
2634.0 0.000380 1973.92346 2494.82690
2500.0 0.000400 1973.28186 2498.37549
2548.0 0.000392 1972.64014 2510.48730
2664.0 0.000375 1971.99854 2530.75464
2637.0 0.000379 1971.35681 2554.79956
2671.0 0.000374 1970.71533 2579.23169
2798.0 0.000357 1970.07385 2598.28906
2688.0 0.000372 1969.43213 2611.85059
2652.0 0.000377 1968.79053 2616.81396
2664.0 0.000375 1968.14893 2610.35059
2714.0 0.000368 1967.50732 2590.60986
2619.0 0.000382 1966.86560 2560.00903
2582.0 0.000387 1966.22400 2525.31592
2496.0 0.000401 1965.58252 2493.89478
2530.0 0.000395 1964.94080 2469.19849
2585.0 0.000387 1964.29932 2453.04663
2546.0 0.000393 1963.65759 2443.62354
2465.0 0.000406 1963.01599 2439.23608
2409.0 0.000415 1962.37451 2437.58643
2556.0 0.000391 1961.73279 2435.79346
2562.0 0.000390 1961.09131 2430.91650
2378.0 0.000421 1960.44946 2419.98145
2395.0 0.000418 1959.80786 2402.95825
2368.0 0.000422 1959.16638 2382.30542
2367.0 0.000422 1958.52466 2361.02124
2265.0 0.000442 1957.88318 2341.78760
2335.0 0.000428 1957.24146 2325.33936
2307.0 0.000433 1956.59998 2312.82568
2369.0 0.000422 1955.95825 2304.21289
2376.0 0.000421 1955.31677 2298.80103
2208.0 0.000453 1954.67517 2295.26929
2344.0 0.000427 1954.03345 2292.24268
2266.0 0.000441 1953.39185 2288.52563
2348.0 0.000426 1952.75012 2283.28711
2242.0 0.000446 1952.10864 2276.28418
2303.0 0.000434 1951.46716 2267.77661
2216.0 0.000451 1950.82544 2258.55835
2237.0 0.000447 1950.18384 2251.38208
2102.0 0.000476 1949.54224 2243.28418
2251.0 0.000444 1948.90051 2236.65723
2209.0 0.000453 1948.25916 2231.08008
2169.0 0.000461 1947.61731 2226.92456
2177.0 0.000459 1946.97583 2223.33423
2218.0 0.000451 1946.33411 2219.52954
2224.0 0.000450 1945.69263 2216.86670
2209.0 0.000453 1945.05090 2213.51465
2130.0 0.000469 1944.40930 2210.60498
2203.0 0.000454 1943.76782 2209.00952
2150.0 0.000465 1943.12610 2210.36157
2168.0 0.000461 1942.48450 2213.04297
2193.0 0.000456 1941.84277 2217.91479
2202.0 0.000454 1941.20117 2224.49219
2146.0 0.000466 1940.55969 2231.90430
2265.0 0.000442 1939.91797 2239.20215
2244.0 0.000446 1939.27649 2245.76709
2227.0 0.000449 1938.63477 2251.90283
2195.0 0.000456 1937.99329 2259.46362
2265.0 0.000442 1937.35156 2269.81738
2298.0 0.000435 1936.71008 2281.29785
2182.0 0.000458 1936.06848 2295.16455
2230.0 0.000448 1935.42676 2311.58594
2296.0 0.000436 1934.78516 2329.96460
2328.0 0.000430 1934.14343 2349.56494
2251.0 0.000444 1933.50195 2368.50366
2258.0 0.000443 1932.86047 2385.35596
2353.0 0.000425 1932.21875 2398.39575
2343.0 0.000427 1931.57715 2406.91724
2384.0 0.000419 1930.93555 2411.17993
2329.0 0.000429 1930.29382 2412.49170
2277.0 0.000439 1929.65234 2413.69263
2482.0 0.000403 1929.01062 2416.02441
2573.0 0.000389 1928.36914 2421.95508
2494.0 0.000401 1927.72742 2433.79834
2485.0 0.000402 1927.08594 2453.09497
2468.0 0.000405 1926.44421 2480.92480
2618.0 0.000382 1925.80261 2517.00073
2564.0 0.000390 1925.16113 2559.90649
2533.0 0.000395 1924.51941 2606.33472
2651.0 0.000377 1923.87793 2646.88721
2659.0 0.000376 1923.23621 2671.68506
2737.0 0.000365 1922.59448 2672.68774
2586.0 0.000387 1921.95300 2652.53149
2582.0 0.000387 1921.31128 2621.67432
2540.0 0.000394 1920.66980 2592.72339
2488.0 0.000402 1920.02808 2571.81030
2684.0 0.000373 1919.38647 2560.69702
2689.0 0.000372 1918.74512 2556.51660
2619.0 0.000382 1918.10339 2555.28247
2658.0 0.000376 1917.46179 2552.01489
2648.0 0.000378 1916.82007 2543.37964
2596.0 0.000385 1916.17847 2528.53589
2645.0 0.000378 1915.53674 2505.18237
2550.0 0.000392 1914.89526 2474.00562
2482.0 0.000403 1914.25378 2440.20630
2517.0 0.000397 1913.61206 2408.76880
2452.0 0.000408 1912.97046 2383.37109
2436.0 0.000411 1912.32886 2364.09277
2510.0 0.000398 1911.68713 2350.01953
2487.0 0.000402 1911.04578 2338.92822
2375.0 0.000421 1910.40393 2327.44824
2449.0 0.000408 1909.76245 2315.07080
2411.0 0.000415 1909.12073 2301.46533
2352.0 0.000425 1908.47913 2291.52148
2325.0 0.000430 1907.83765 2285.09277
2244.0 0.000446 1907.19592 2283.57153
2209.0 0.000453 1906.55444 2286.45850
2291.0 0.000436 1905.91272 2294.27539
2326.0 0.000430 1905.27124 2305.57080
2292.0 0.000436 1904.62939 2319.09180
2417.0 0.000414 1903.98792 2332.42480
2405.0 0.000416 1903.34631 2342.50342
2401.0 0.000416 1902.70459 2345.79272
2397.0 0.000417 1902.06311 2336.49756
2290.0 0.000437 1901.42139 2323.94971
2263.0 0.000442 1900.77979 2306.73242
2219.0 0.000451 1900.13843 2289.37012
2302.0 0.000434 1899.49670 2274.49780
2220.0 0.000450 1898.85510 2263.46899
2225.0 0.000449 1898.21338 2257.81274
2285.0 0.000438 1897.57178 2257.79102
2186.0 0.000457 1896.93005 2259.91455
2275.0 0.000440 1896.28857 2264.50708
2288.0 0.000437 1895.64709 2269.72119
2183.0 0.000458 1895.00537 2273.67114
2254.0 0.000444 1894.36377 2275.63721
2189.0 0.000457 1893.72217 2276.36938
2242.0 0.000446 1893.08057 2277.44360
2190.0 0.000457 1892.43896 2280.44360
2129.0 0.000470 1891.79724 2286.55347
2190.0 0.000457 1891.15576 2295.84888
2293.0 0.000436 1890.51404 2309.00732
2171.0 0.000461 1889.87244 2321.41260
2232.0 0.000448 1889.23096 2332.45410
2258.0 0.000443 1888.58923 2342.29956
2392.0 0.000418 1887.94775 2351.96606
2317.0 0.000432 1887.30603 2362.53101
2285.0 0.000438 1886.66455 2374.56152
2362.0 0.000423 1886.02283 2387.18604
2411.0 0.000415 1885.38123 2399.48535
2511.0 0.000398 1884.73962 2410.76563
2601.0 0.000384 1884.09790 2421.38550
2465.0 0.000406 1883.45642 2431.48169
2636.0 0.000379 1882.81470 2442.37378
2543.0 0.000393 1882.17310 2455.88647
2556.0 0.000391 1881.53174 2469.06567
2620.0 0.000382 1880.89001 2484.87891
2660.0 0.000376 1880.24841 2505.01367
2597.0 0.000385 1879.60669 2529.35327
2557.0 0.000391 1878.96509 2555.98926
2628.0 0.000381 1878.32361 2579.48047
2648.0 0.000378 1877.68188 2592.59839
2600.0 0.000385 1877.04041 2589.87036
2664.0 0.000375 1876.39868 2574.49829
2642.0 0.000379 1875.75708 2554.62256
2720.0 0.000368 1875.11548 2539.58057
2628.0 0.000381 1874.47388 2537.52197
2634.0 0.000380 1873.83240 2549.20581
2580.0 0.000388 1873.19067 2574.79639
2526.0 0.000396 1872.54907 2609.27856
2711.0 0.000369 1871.90735 2642.01123
2678.0 0.000373 1871.26575 2660.13477
2546.0 0.000393 1870.62427 2655.19189
2688.0 0.000372 1869.98254 2629.17773
2649.0 0.000378 1869.34106 2593.16943
2554.0 0.000392 1868.69934 2563.22754
2552.0 0.000392 1868.05786 2540.51782
2574.0 0.000389 1867.41602 2508.34326
2486.0 0.000402 1866.77454 2464.83447
2408.0 0.000415 1866.13293 2442.91064
2386.0 0.000419 1865.49121 2429.76587
2475.0 0.000404 1864.84973 2422.22803
2423.0 0.000413 1864.20801 2416.88770
2340.0 0.000427 1863.56653 2409.17847
2338.0 0.000428 1862.92505 2397.68164
2386.0 0.000419 1862.28333 2385.58130
2391.0 0.000418 1861.64172 2380.41113
2422.0 0.000413 1861.00000 2387.36035
2448.0 0.000408 1860.35840 2406.51489
2500.0 0.000400 1859.71692 2422.14795
2569.0 0.000389 1859.07520 2438.08179
2523.0 0.000396 1858.43372 2464.36035
2739.0 0.000365 1857.79199 2491.55615
2686.0 0.000372 1857.15039 2512.12598
2834.0 0.000353 1856.50879 2520.76587
2746.0 0.000364 1855.86719 2514.68506
2742.0 0.000365 1855.22571 2496.39404
2616.0 0.000382 1854.58386 2471.13574
2583.0 0.000387 1853.94238 2444.97681
2478.0 0.000404 1853.30066 2420.68408
2468.0 0.000405 1852.65906 2401.46729
2422.0 0.000413 1852.01758 2388.35645
2251.0 0.000444 1851.37585 2381.41748
2387.0 0.000419 1850.73438 2379.84937
2459.0 0.000407 1850.09265 2381.90869
2524.0 0.000396 1849.45105 2384.51343
2506.0 0.000399 1848.80957 2384.58960
2589.0 0.000386 1848.16785 2380.45825
2481.0 0.000403 1847.52625 2372.69824
2457.0 0.000407 1846.88452 2362.12012
2457.0 0.000407 1846.24304 2350.03516
2342.0 0.000427 1845.60132 2336.62720
2327.0 0.000430 1844.95984 2322.19849
2296.0 0.000436 1844.31836 2307.63940
2241.0 0.000446 1843.67664 2292.69775
2178.0 0.000459 1843.03503 2276.50781
2288.0 0.000437 1842.39331 2256.72241
2065.0 0.000484 1841.75171 2235.51465
2150.0 0.000465 1841.11023 2214.72388
2167.0 0.000461 1840.46851 2196.55518
2217.0 0.000451 1839.82703 2182.30371
2067.0 0.000484 1839.18530 2171.90088
2145.0 0.000466 1838.54358 2164.41406
2039.0 0.000490 1837.90222 2158.93628
2097.0 0.000477 1837.26050 2154.42749
2003.0 0.000499 1836.61902 2149.92529
2089.0 0.000479 1835.97729 2145.16431
2103.0 0.000476 1835.33569 2138.59033
2116.0 0.000473 1834.69397 2131.90918
2038.0 0.000491 1834.05249 2124.54565
2176.0 0.000460 1833.41101 2117.93140
2076.0 0.000482 1832.76917 2113.44678
2126.0 0.000470 1832.12769 2111.79761
2085.0 0.000480 1831.48596 2113.60742
2050.0 0.000488 1830.84436 2119.14014
2154.0 0.000464 1830.20288 2127.78882
2114.0 0.000473 1829.56116 2139.41357
2135.0 0.000468 1828.91968 2153.37207
2134.0 0.000469 1828.27783 2168.59277
2155.0 0.000464 1827.63635 2184.09644
2189.0 0.000457 1826.99475 2198.63916
2229.0 0.000449 1826.35303 2209.98389
2107.0 0.000475 1825.71155 2218.21362
2286.0 0.000437 1825.06995 2222.03735
2206.0 0.000453 1824.42834 2221.69897
2155.0 0.000464 1823.78662 2218.31909
2288.0 0.000437 1823.14514 2213.62036
2107.0 0.000475 1822.50354 2208.87817
2202.0 0.000454 1821.86182 2205.38721
2188.0 0.000457 1821.22021 2203.62183
2168.0 0.000461 1820.57861 2203.28491
2129.0 0.000470 1819.93689 2203.86865
2190.0 0.000457 1819.29553 2203.13989
2110.0 0.000474 1818.65381 2202.09839
2184.0 0.000458 1818.01221 2199.24780
2171.0 0.000461 1817.37061 2192.90503
2152.0 0.000465 1816.72900 2184.13281
2182.0 0.000458 1816.08728 2173.69116
1996.0 0.000501 1815.44580 2162.94824
2124.0 0.000471 1814.80432 2153.34619
2081.0 0.000481 1814.16248 2144.82007
2028.0 0.000493 1813.52100 2138.44458
2195.0 0.000456 1812.87927 2134.26245
2102.0 0.000476 1812.23767 2132.21045
2128.0 0.000470 1811.59619 2132.11890
2093.0 0.000478 1810.95447 2133.70679
2076.0 0.000482 1810.31299 2136.80420
2162.0 0.000463 1809.67114 2140.61353
2027.0 0.000493 1809.02954 2145.26636
2193.0 0.000456 1808.38818 2150.67725
2203.0 0.000454 1807.74634 2156.64307
2157.0 0.000464 1807.10486 2163.10034
2163.0 0.000462 1806.46326 2170.06934
2153.0 0.000464 1805.82166 2177.30469
2138.0 0.000468 1805.17993 2184.39990
2160.0 0.000463 1804.53833 2191.17847
2142.0 0.000467 1803.89685 2197.96118
2153.0 0.000464 1803.25513 2204.93237
2054.0 0.000487 1802.61353 2212.28735
2211.0 0.000452 1801.97192 2220.04004
2138.0 0.000468 1801.33032 2227.84473
2166.0 0.000462 1800.68884 2235.50024
2270.0 0.000441 1800.04712 2242.72632
2257.0 0.000443 1799.40564 2249.62427
2310.0 0.000433 1798.76392 2256.46094
2250.0 0.000444 1798.12231 2262.95020
2324.0 0.000430 1797.48059 2269.55957
2295.0 0.000436 1796.83911 2274.91064
2367.0 0.000422 1796.19763 2278.21436
2238.0 0.000447 1795.55579 2280.65942
2329.0 0.000429 1794.91431 2282.33423
2301.0 0.000435 1794.27258 2283.35962
2348.0 0.000426 1793.63098 2284.73193
2309.0 0.000433 1792.98950 2286.58984
2278.0 0.000439 1792.34778 2287.87402
2338.0 0.000428 1791.70630 2287.82642
2211.0 0.000452 1791.06445 2284.47168
2238.0 0.000447 1790.42285 2276.94678
2259.0 0.000443 1789.78149 2263.92505
2258.0 0.000443 1789.13965 2247.18457
2193.0 0.000456 1788.49817 2228.62012
2199.0 0.000455 1787.85657 2211.08838
2222.0 0.000450 1787.21497 2194.84863
2193.0 0.000456 1786.57324 2181.31128
2162.0 0.000463 1785.93164 2170.60669
2217.0 0.000451 1785.29016 2162.80078
2190.0 0.000457 1784.64844 2157.94580
2185.0 0.000458 1784.00684 2154.78760
2078.0 0.000481 1783.36523 2151.23804
2057.0 0.000486 1782.72351 2145.45020
2150.0 0.000465 1782.08215 2136.91772
2060.0 0.000485 1781.44043 2124.65649
2107.0 0.000475 1780.79895 2110.41016
2071.0 0.000483 1780.15723 2095.58569
2062.0 0.000485 1779.51563 2081.71460
2063.0 0.000485 1778.87402 2069.52539
2138.0 0.000468 1778.23242 2059.67529
2028.0 0.000493 1777.59094 2052.20801
1989.0 0.000503 1776.94910 2047.36743
2036.0 0.000491 1776.30762 2044.75989
2054.0 0.000487 1775.66589 2043.91162
2037.0 0.000491 1775.02429 2044.43567
2011.0 0.000497 1774.38281 2045.22278
2053.0 0.000487 1773.74109 2045.56458
1991.0 0.000502 1773.09961 2046.39063
1977.0 0.000506 1772.45776 2047.49841
2034.0 0.000492 1771.81616 2049.47192
2054.0 0.000487 1771.17480 2052.67285
1992.0 0.000502 1770.53296 2056.90674
2037.0 0.000491 1769.89148 2062.40747
2087.0 0.000479 1769.24988 2069.29810
2183.0 0.000458 1768.60815 2077.15820
2096.0 0.000477 1767.96680 2085.50049
2153.0 0.000464 1767.32507 2094.26245
2058.0 0.000486 1766.68347 2103.26904
2088.0 0.000479 1766.04175 2112.17261
2233.0 0.000448 1765.40015 2121.11865
2174.0 0.000460 1764.75854 2130.16577
2221.0 0.000450 1764.11707 2139.40869
2204.0 0.000454 1763.47546 2148.71460
2262.0 0.000442 1762.83374 2157.68286
2195.0 0.000456 1762.19214 2167.11743
2262.0 0.000442 1761.55054 2176.51050
2260.0 0.000442 1760.90894 2185.98608
2269.0 0.000441 1760.26733 2195.69067
2222.0 0.000450 1759.62573 2205.28613
2358.0 0.000424 1758.98425 2213.94287
2368.0 0.000422 1758.34241 2220.94312
2361.0 0.000424 1757.70093 2225.92725
2293.0 0.000436 1757.05933 2228.96851
2344.0 0.000427 1756.41760 2230.60498
2257.0 0.000443 1755.77612 2231.32520
2343.0 0.000427 1755.13440 2231.28223
2390.0 0.000418 1754.49292 2230.76733
2269.0 0.000441 1753.85107 2229.86523
2210.0 0.000452 1753.20959 2229.33057
2225.0 0.000449 1752.56812 2229.02661
2288.0 0.000437 1751.92627 2229.81226
2316.0 0.000432 1751.28479 2231.49634
2282.0 0.000438 1750.64319 2234.92896
2283.0 0.000438 1750.00146 2237.83545
2354.0 0.000425 1749.36011 2240.00415
2325.0 0.000430 1748.71838 2240.80542
2329.0 0.000429 1748.07678 2239.20630
2284.0 0.000438 1747.43506 2234.20117
2268.0 0.000441 1746.79346 2225.76611
2274.0 0.000440 1746.15186 2214.07251
2185.0 0.000458 1745.51038 2200.61963
2267.0 0.000441 1744.86890 2186.30176
2224.0 0.000450 1744.22705 2172.14526
2133.0 0.000469 1743.58557 2158.74292
2177.0 0.000459 1742.94385 2146.34790
2125.0 0.000471 1742.30225 2135.62451
2096.0 0.000477 1741.66064 2127.56812
2045.0 0.000489 1741.01904 2120.99902
2232.0 0.000448 1740.37756 2116.01172
2137.0 0.000468 1739.73572 2112.03955
2183.0 0.000458 1739.09412 2108.26685
2150.0 0.000465 1738.45276 2103.67114
2190.0 0.000457 1737.81091 2098.05103
2116.0 0.000473 1737.16943 2091.26099
2145.0 0.000466 1736.52771 2083.77344
2143.0 0.000467 1735.88623 2076.13770
2189.0 0.000457 1735.24451 2068.99072
2055.0 0.000487 1734.60291 2063.34424
2152.0 0.000465 1733.96143 2060.12524
1992.0 0.000502 1733.31958 2060.10474
2053.0 0.000487 1732.67810 2063.59766
2110.0 0.000474 1732.03650 2070.03662
1980.0 0.000505 1731.39478 2078.14038
2046.0 0.000489 1730.75342 2085.92480
2048.0 0.000488 1730.11157 2090.80103
2057.0 0.000486 1729.47009 2090.69189
2003.0 0.000499 1728.82837 2085.67480
2036.0 0.000491 1728.18677 2077.84399
2121.0 0.000471 1727.54517 2069.53564
2061.0 0.000485 1726.90369 2062.72290
2029.0 0.000493 1726.26208 2058.66260
2072.0 0.000483 1725.62036 2058.06934
2010.0 0.000498 1724.97888 2061.05859
2034.0 0.000492 1724.33716 2066.98315
2101.0 0.000476 1723.69556 2074.68726
2074.0 0.000482 1723.05408 2082.70898
2105.0 0.000475 1722.41235 2088.49609
2095.0 0.000477 1721.77087 2090.83423
2092.0 0.000478 1721.12903 2089.21533
2003.0 0.000499 1720.48743 2085.24854
2039.0 0.000490 1719.84607 2078.39380
2089.0 0.000479 1719.20422 2071.07324
2021.0 0.000495 1718.56274 2063.76001
2087.0 0.000479 1717.92102 2057.09619
2085.0 0.000480 1717.27954 2051.32715
1998.0 0.000501 1716.63770 2046.79944
2046.0 0.000489 1715.99622 2044.02502
2088.0 0.000479 1715.35474 2043.40942
2003.0 0.000499 1714.71289 2046.78430
2103.0 0.000476 1714.07141 2058.32861
2026.0 0.000494 1713.42981 2084.52710
2046.0 0.000489 1712.78809 2122.81079
2125.0 0.000471 1712.14673 2148.35962
2048.0 0.000488 1711.50500 2130.29639
2096.0 0.000477 1710.86340 2089.27417
2058.0 0.000486 1710.22168 2060.87793
2057.0 0.000486 1709.58008 2048.57349
2072.0 0.000483 1708.93860 2043.96545
2191.0 0.000456 1708.29700 2041.56042
2012.0 0.000497 1707.65540 2039.57153
2104.0 0.000475 1707.01367 2038.30981
2040.0 0.000490 1706.37219 2038.31616
2059.0 0.000486 1705.73047 2041.93359
2123.0 0.000471 1705.08887 2051.60327
2183.0 0.000458 1704.44727 2069.11353
2026.0 0.000494 1703.80566 2087.52588
2097.0 0.000477 1703.16418 2089.42285
2089.0 0.000479 1702.52234 2066.69482
2076.0 0.000482 1701.88074 2038.63953
2009.0 0.000498 1701.23938 2017.02820
1986.0 0.000504 1700.59753 2001.74084
1982.0 0.000505 1699.95605 1990.40479
2047.0 0.000489 1699.31433 1981.88562
1961.0 0.000510 1698.67285 1975.80884
1958.0 0.000511 1698.03101 1972.06567
2020.0 0.000495 1697.38953 1970.27612
2038.0 0.000491 1696.74805 1969.94763
1939.0 0.000516 1696.10620 1970.65271
2010.0 0.000498 1695.46472 1971.03223
1996.0 0.000501 1694.82312 1970.52136
1987.0 0.000503 1694.18152 1968.25317
2025.0 0.000494 1693.54004 1963.89636
1930.0 0.000518 1692.89832 1957.85034
1954.0 0.000512 1692.25671 1951.12927
2000.0 0.000500 1691.61499 1944.58179
2026.0 0.000494 1690.97339 1938.76953
1853.0 0.000540 1690.33191 1933.93848
1845.0 0.000542 1689.69031 1930.05823
1976.0 0.000506 1689.04883 1926.85327
1954.0 0.000512 1688.40698 1923.95471
1902.0 0.000526 1687.76538 1920.96021
1908.0 0.000524 1687.12378 1918.26990
1880.0 0.000532 1686.48218 1915.09241
1992.0 0.000502 1685.84058 1911.93787
1955.0 0.000512 1685.19897 1908.88220
1934.0 0.000517 1684.55750 1906.19189
1976.0 0.000506 1683.91565 1904.35950
1812.0 0.000552 1683.27417 1902.75476
1866.0 0.000536 1682.63269 1902.24951
1895.0 0.000528 1681.99084 1902.82458
1872.0 0.000534 1681.34937 1903.77588
1969.0 0.000508 1680.70764 1905.26270
1924.0 0.000520 1680.06604 1907.05273
1892.0 0.000529 1679.42456 1909.27991
1952.0 0.000512 1678.78284 1910.81104
1901.0 0.000526 1678.14136 1912.02808
1978.0 0.000506 1677.49951 1912.49341
1955.0 0.000512 1676.85803 1912.29517
1952.0 0.000512 1676.21643 1911.28455
1962.0 0.000510 1675.57483 1909.31445
1949.0 0.000513 1674.93335 1906.69873
1972.0 0.000507 1674.29150 1903.61938
1934.0 0.000517 1673.65002 1900.44678
1890.0 0.000529 1673.00830 1897.03052
1908.0 0.000524 1672.36670 1894.14612
1957.0 0.000511 1671.72522 1891.01685
1913.0 0.000523 1671.08362 1889.35718
1789.0 0.000559 1670.44202 1888.78772
1912.0 0.000523 1669.80029 1888.94531
1889.0 0.000529 1669.15857 1889.99133
1863.0 0.000537 1668.51721 1892.46423
1916.0 0.000522 1667.87549 1894.94556
1926.0 0.000519 1667.23389 1897.97375
1904.0 0.000525 1666.59229 1901.31189
1928.0 0.000519 1665.95081 1904.93469
1831.0 0.000546 1665.30896 1908.77393
1907.0 0.000524 1664.66748 1912.97864
1839.0 0.000544 1664.02600 1917.55005
1944.0 0.000514 1663.38416 1922.04492
1978.0 0.000506 1662.74268 1927.37402
1875.0 0.000533 1662.10095 1933.75366
1976.0 0.000506 1661.45935 1942.63477
1856.0 0.000539 1660.81787 1954.25427
2038.0 0.000491 1660.17615 1969.30481
1958.0 0.000511 1659.53467 1985.02979
1940.0 0.000515 1658.89282 1994.07080
1995.0 0.000501 1658.25134 1994.38074
1970.0 0.000508 1657.60974 1992.59900
2059.0 0.000486 1656.96814 1993.73389
2035.0 0.000491 1656.32666 1997.92114
1969.0 0.000508 1655.68481 2003.09326
2059.0 0.000486 1655.04333 2007.81567
2064.0 0.000484 1654.40161 2010.47620
2009.0 0.000498 1653.76001 2010.72937
2078.0 0.000481 1653.11853 2009.08521
2046.0 0.000489 1652.47693 2006.60889
2010.0 0.000498 1651.83533 2005.30042
2010.0 0.000498 1651.19360 2005.78943
1986.0 0.000504 1650.55188 2007.53821
1994.0 0.000502 1649.91052 2007.59314
2017.0 0.000496 1649.26880 2004.07642
1993.0 0.000502 1648.62732 1999.96277
1957.0 0.000511 1647.98560 1997.93970
1979.0 0.000505 1647.34412 1998.65808
2024.0 0.000494 1646.70227 2000.80542
2000.0 0.000500 1646.06079 2003.79956
1911.0 0.000523 1645.41931 2005.95361
1987.0 0.000503 1644.77747 2006.18701
1978.0 0.000506 1644.13599 2004.22546
1916.0 0.000522 1643.49426 2000.61438
1987.0 0.000503 1642.85266 1996.05286
1882.0 0.000531 1642.21118 1991.07813
1918.0 0.000521 1641.56946 1985.63806
1932.0 0.000518 1640.92798 1979.22461
1806.0 0.000554 1640.28613 1971.58142
1858.0 0.000538 1639.64465 1963.12024
1856.0 0.000539 1639.00317 1954.60986
1891.0 0.000529 1638.36145 1946.37756
1782.0 0.000561 1637.71997 1939.38147
1773.0 0.000564 1637.07825 1933.17212
1913.0 0.000523 1636.43665 1927.18066
1746.0 0.000573 1635.79492 1921.10449
1847.0 0.000541 1635.15332 1914.97400
1839.0 0.000544 1634.51184 1908.52161
1873.0 0.000534 1633.87024 1902.06409
1853.0 0.000540 1633.22864 1895.70703
1863.0 0.000537 1632.58691 1889.25732
1906.0 0.000525 1631.94519 1882.55017
1876.0 0.000533 1631.30383 1875.37097
1894.0 0.000528 1630.66211 1867.84363
1881.0 0.000532 1630.02051 1860.54749
1807.0 0.000553 1629.37891 1853.36194
1796.0 0.000557 1628.73743 1846.91431
1796.0 0.000557 1628.09558 1840.96338
1827.0 0.000547 1627.45410 1835.42053
1726.0 0.000579 1626.81262 1830.66772
1762.0 0.000568 1626.17078 1826.45410
1864.0 0.000536 1625.52930 1822.98779
1836.0 0.000545 1624.88757 1820.11121
1789.0 0.000559 1624.24609 1817.89185
1820.0 0.000549 1623.60449 1816.31604
1824.0 0.000548 1622.96277 1815.44385
1797.0 0.000556 1622.32129 1815.38281
1719.0 0.000582 1621.67944 1815.82764
1779.0 0.000562 1621.03796 1817.00110
1750.0 0.000571 1620.39648 1818.80371
1729.0 0.000578 1619.75476 1821.20178
1728.0 0.000579 1619.11328 1824.55603
1696.0 0.000590 1618.47156 1828.47058
1788.0 0.000559 1617.82996 1833.45081
1898.0 0.000527 1617.18823 1839.37549
1850.0 0.000541 1616.54663 1846.00330
1780.0 0.000562 1615.90515 1853.15466
1804.0 0.000554 1615.26355 1860.55396
1837.0 0.000544 1614.62207 1868.00159
1927.0 0.000519 1613.98022 1875.51440
1943.0 0.000515 1613.33875 1882.86462
1987.0 0.000503 1612.69714 1890.16895
1914.0 0.000522 1612.05542 1897.03564
1923.0 0.000520 1611.41382 1903.25354
1948.0 0.000513 1610.77222 1908.52283
2009.0 0.000498 1610.13062 1912.37488
1918.0 0.000521 1609.48901 1914.73096
1987.0 0.000503 1608.84741 1915.40698
1872.0 0.000534 1608.20593 1914.78857
1989.0 0.000503 1607.56409 1912.93347
1951.0 0.000513 1606.92261 1910.64172
1957.0 0.000511 1606.28088 1908.07874
1855.0 0.000539 1605.63940 1905.42249
1792.0 0.000558 1604.99780 1902.82996
1955.0 0.000512 1604.35608 1900.46863
1922.0 0.000520 1603.71460 1898.15381
1948.0 0.000513 1603.07275 1895.70483
1826.0 0.000548 1602.43127 1892.84485
1962.0 0.000510 1601.78979 1889.15662
1800.0 0.000556 1601.14819 1884.59131
1901.0 0.000526 1600.50659 1879.28760
1879.0 0.000532 1599.86475 1873.82727
1929.0 0.000518 1599.22314 1867.89978
1827.0 0.000547 1598.58179 1862.10059
1861.0 0.000537 1597.93994 1856.60449
1819.0 0.000550 1597.29846 1851.50354
1722.0 0.000581 1596.65686 1846.77576
1754.0 0.000570 1596.01538 1842.22351
1784.0 0.000561 1595.37354 1837.70398
1728.0 0.000579 1594.73206 1833.15576
1856.0 0.000539 1594.09045 1828.78894
1869.0 0.000535 1593.44873 1824.22803
1715.0 0.000583 1592.80725 1819.98022
1707.0 0.000586 1592.16553 1816.24304
1725.0 0.000580 1591.52380 1813.38611
1800.0 0.000556 1590.88232 1811.42786
1700.0 0.000588 1590.24072 1810.85925
1684.0 0.000594 1589.59924 1810.73511
1728.0 0.000579 1588.95740 1811.09912
1690.0 0.000592 1588.31592 1810.90039
1764.0 0.000567 1587.67419 1809.58521
1787.0 0.000560 1587.03271 1806.78589
1690.0 0.000592 1586.39111 1802.28967
1723.0 0.000580 1585.74939 1796.56177
1771.0 0.000565 1585.10791 1790.35535
1616.0 0.000619 1584.46606 1784.61731
1713.0 0.000584 1583.82458 1779.94739
1815.0 0.000551 1583.18311 1777.15149
1695.0 0.000590 1582.54138 1776.64807
1765.0 0.000567 1581.89990 1778.59204
1714.0 0.000583 1581.25806 1782.25977
1787.0 0.000560 1580.61646 1786.76306
1703.0 0.000587 1579.97510 1790.42114
1775.0 0.000563 1579.33325 1791.43005
1813.0 0.000552 1578.69177 1788.49414
1758.0 0.000569 1578.05017 1782.19385
1747.0 0.000572 1577.40869 1773.66846
1745.0 0.000573 1576.76685 1764.05212
1723.0 0.000580 1576.12537 1754.42896
1815.0 0.000551 1575.48389 1745.55640
1732.0 0.000577 1574.84204 1737.94629
1740.0 0.000575 1574.20044 1731.81982
1601.0 0.000625 1573.55884 1727.41089
1726.0 0.000579 1572.91711 1724.72229
1736.0 0.000576 1572.27563 1723.66479
1642.0 0.000609 1571.63403 1723.67639
1699.0 0.000589 1570.99255 1724.32959
1585.0 0.000631 1570.35071 1724.80542
1595.0 0.000627 1569.70923 1724.18115
1641.0 0.000609 1569.06775 1722.28284
1694.0 0.000590 1568.42603 1719.28772
1717.0 0.000582 1567.78442 1715.98816
1665.0 0.000601 1567.14270 1712.81348
1703.0 0.000587 1566.50122 1710.28723
1638.0 0.000611 1565.85938 1708.53015
1682.0 0.000595 1565.21790 1707.55566
1664.0 0.000601 1564.57642 1707.46375
1660.0 0.000602 1563.93469 1708.03174
1607.0 0.000622 1563.29321 1709.31848
1700.0 0.000588 1562.65137 1711.28735
1747.0 0.000572 1562.00977 1714.10107
1747.0 0.000572 1561.36841 1717.30310
1663.0 0.000601 1560.72656 1721.05737
1694.0 0.000590 1560.08508 1725.20789
1617.0 0.000618 1559.44348 1729.76208
1720.0 0.000581 1558.80200 1734.60620
1655.0 0.000604 1558.16016 1739.00781
1704.0 0.000587 1557.51855 1744.39404
1691.0 0.000591 1556.87720 1749.76697
1689.0 0.000592 1556.23535 1754.67993
1737.0 0.000576 1555.59375 1758.60767
1673.0 0.000598 1554.95215 1760.26172
1611.0 0.000621 1554.31067 1759.86914
1782.0 0.000561 1553.66895 1757.68420
1711.0 0.000584 1553.02734 1754.16528
1681.0 0.000595 1552.38586 1750.22412
1708.0 0.000585 1551.74402 1746.23486
1670.0 0.000599 1551.10254 1742.06128
1691.0 0.000591 1550.46106 1737.62402
1632.0 0.000613 1549.81934 1733.30176
1728.0 0.000579 1549.17761 1729.09119
1664.0 0.000601 1548.53601 1725.47131
1697.0 0.000589 1547.89453 1722.39160
1671.0 0.000598 1547.25281 1720.21289
1713.0 0.000584 1546.61121 1718.47156
1643.0 0.000609 1545.96973 1716.52417
1722.0 0.000581 1545.32800 1714.10168
1672.0 0.000598 1544.68652 1710.79443
1644.0 0.000608 1544.04480 1706.90112
1700.0 0.000588 1543.40320 1702.52283
1659.0 0.000603 1542.76172 1698.79639
1635.0 0.000612 1542.11987 1695.68542
1648.0 0.000607 1541.47839 1693.36792
1663.0 0.000601 1540.83679 1691.75708
1705.0 0.000587 1540.19507 1691.07324
1697.0 0.000589 1539.55359 1691.00073
1687.0 0.000593 1538.91187 1691.61365
1595.0 0.000627 1538.27039 1692.50745
1643.0 0.000609 1537.62866 1693.56152
1644.0 0.000608 1536.98706 1694.01074
1631.0 0.000613 1536.34546 1693.27563
1626.0 0.000615 1535.70398 1691.39294
1705.0 0.000587 1535.06226 1687.97192
1724.0 0.000580 1534.42065 1683.56555
1585.0 0.000631 1533.77917 1678.58875
1701.0 0.000588 1533.13733 1673.69910
1642.0 0.000609 1532.49585 1669.14368
1618.0 0.000618 1531.85437 1665.10120
1696.0 0.000590 1531.21265 1661.66528
1627.0 0.000615 1530.57104 1658.82788
1695.0 0.000590 1529.92932 1656.66992
1667.0 0.000600 1529.28772 1655.05286
1706.0 0.000586 1528.64636 1653.96021
1653.0 0.000605 1528.00452 1653.64563
1641.0 0.000609 1527.36304 1653.74646
1692.0 0.000591 1526.72131 1654.54028
1498.0 0.000668 1526.07983 1658.22864
1677.0 0.000596 1525.43811 1666.56921
1641.0 0.000609 1524.79651 1670.19788
1711.0 0.000584 1524.15503 1659.26575
1606.0 0.000623 1523.51331 1656.75378
1623.0 0.000616 1522.87170 1657.13953
1561.0 0.000641 1522.23010 1658.49963
1634.0 0.000612 1521.58838 1659.73767
1627.0 0.000615 1520.94690 1660.23511
1680.0 0.000595 1520.30530 1659.82361
1658.0 0.000603 1519.66370 1658.56116
1587.0 0.000630 1519.02197 1656.90698
1682.0 0.000595 1518.38037 1655.11963
1596.0 0.000627 1517.73877 1653.51501
1587.0 0.000630 1517.09729 1653.16357
1688.0 0.000592 1516.45557 1654.64929
1740.0 0.000575 1515.81396 1659.41907
1695.0 0.000590 1515.17249 1667.07324
1688.0 0.000592 1514.53064 1668.47937
1662.0 0.000602 1513.88916 1669.60217
1674.0 0.000597 1513.24756 1673.68713
1690.0 0.000592 1512.60596 1678.10498
1741.0 0.000574 1511.96436 1681.41956
1697.0 0.000589 1511.32263 1683.31641
1662.0 0.000602 1510.68103 1683.64697
1667.0 0.000600 1510.03967 1682.83911
1617.0 0.000618 1509.39783 1680.96387
1578.0 0.000634 1508.75635 1678.94763
1666.0 0.000600 1508.11462 1676.75916
1708.0 0.000585 1507.47314 1674.93262
1767.0 0.000566 1506.83142 1673.55762
1733.0 0.000577 1506.18982 1672.37390
1701.0 0.000588 1505.54834 1671.14905
1657.0 0.000604 1504.90662 1669.85278
1662.0 0.000602 1504.26501 1668.22009
1729.0 0.000578 1503.62341 1666.67847
1644.0 0.000608 1502.98169 1664.97327
1742.0 0.000574 1502.34021 1662.94214
1649.0 0.000606 1501.69861 1660.72302
1647.0 0.000607 1501.05701 1658.24475
1529.0 0.000654 1500.41528 1655.72571
1675.0 0.000597 1499.77380 1653.34802
1679.0 0.000596 1499.13220 1651.06726
1653.0 0.000605 1498.49060 1649.02625
1662.0 0.000602 1497.84888 1647.30701
1670.0 0.000599 1497.20728 1645.78235
1686.0 0.000593 1496.56580 1644.42236
1651.0 0.000606 1495.92395 1643.09497
1704.0 0.000587 1495.28247 1641.82373
1704.0 0.000587 1494.64087 1640.57104
1696.0 0.000590 1493.99927 1639.36829
1660.0 0.000602 1493.35767 1638.47510
1686.0 0.000593 1492.71594 1637.80981
1613.0 0.000620 1492.07446 1637.25964
1695.0 0.000590 1491.43262 1636.66235
1761.0 0.000568 1490.79102 1635.62390
1628.0 0.000614 1490.14954 1634.10571
1632.0 0.000613 1489.50806 1632.17212
1650.0 0.000606 1488.86646 1629.91736
1638.0 0.000611 1488.22473 1627.67712
1637.0 0.000611 1487.58301 1625.64136
1689.0 0.000592 1486.94141 1623.91064
1644.0 0.000608 1486.29980 1622.46204
1689.0 0.000592 1485.65833 1621.22449
1646.0 0.000608 1485.01672 1620.14380
1647.0 0.000607 1484.37488 1619.22058
1662.0 0.000602 1483.73340 1618.57751
1700.0 0.000588 1483.09192 1618.14978
1617.0 0.000618 1482.45032 1618.02332
1629.0 0.000614 1481.80859 1618.12036
1607.0 0.000622 1481.16687 1618.23450
1657.0 0.000604 1480.52539 1618.14941
1629.0 0.000614 1479.88391 1617.79346
1686.0 0.000593 1479.24207 1617.17603
1622.0 0.000617 1478.60059 1616.49670
1625.0 0.000615 1477.95886 1615.95422
1617.0 0.000618 1477.31726 1615.58911
1670.0 0.000599 1476.67578 1615.44434
1676.0 0.000597 1476.03406 1615.45361
1639.0 0.000610 1475.39258 1615.52429
1710.0 0.000585 1474.75073 1615.62134
1711.0 0.000584 1474.10925 1615.63379
1560.0 0.000641 1473.46777 1615.57349
1609.0 0.000622 1472.82593 1615.46460
1627.0 0.000615 1472.18445 1615.05237
1695.0 0.000590 1471.54285 1614.26172
1646.0 0.000608 1470.90137 1612.95178
1623.0 0.000616 1470.25977 1610.95715
1623.0 0.000616 1469.61792 1608.25647
1640.0 0.000610 1468.97632 1604.87549
1581.0 0.000633 1468.33472 1600.95581
1600.0 0.000625 1467.69312 1596.80444
1552.0 0.000644 1467.05164 1592.40662
1565.0 0.000639 1466.41003 1588.09143
1606.0 0.000623 1465.76819 1583.98499
1594.0 0.000627 1465.12671 1579.98938
1567.0 0.000638 1464.48523 1576.52734
1521.0 0.000657 1463.84363 1573.38330
1613.0 0.000620 1463.20190 1570.67749
1535.0 0.000651 1462.56018 1568.38855
1555.0 0.000643 1461.91870 1566.50134
1635.0 0.000612 1461.27722 1564.86926
1525.0 0.000656 1460.63538 1563.38953
1542.0 0.000649 1459.99390 1562.00439
1552.0 0.000644 1459.35217 1560.64978
1630.0 0.000613 1458.71057 1559.10461
1572.0 0.000636 1458.06909 1557.80774
1533.0 0.000652 1457.42737 1556.40015
1465.0 0.000683 1456.78589 1554.94836
1558.0 0.000642 1456.14417 1553.48865
1544.0 0.000648 1455.50256 1551.99585
1532.0 0.000653 1454.86108 1550.82202
1540.0 0.000649 1454.21924 1549.95935
1521.0 0.000657 1453.57776 1549.45007
1460.0 0.000685 1452.93616 1549.24390
1500.0 0.000667 1452.29468 1549.28845
1601.0 0.000625 1451.65308 1549.43298
1514.0 0.000661 1451.01123 1549.47339
1515.0 0.000660 1450.36963 1549.26489
1544.0 0.000648 1449.72803 1548.70654
1518.0 0.000659 1449.08643 1547.60889
1511.0 0.000662 1448.44495 1546.54211
1541.0 0.000649 1447.80334 1545.47339
1523.0 0.000657 1447.16150 1544.43811
1546.0 0.000647 1446.52002 1543.63049
1541.0 0.000649 1445.87854 1542.86707
1600.0 0.000625 1445.23706 1542.25330
1531.0 0.000653 1444.59521 1541.76477
1546.0 0.000647 1443.95349 1541.46985
1524.0 0.000656 1443.31201 1541.24915
1472.0 0.000679 1442.67053 1541.18726
1495.0 0.000669 1442.02881 1541.19946
1503.0 0.000665 1441.38721 1540.77246
1555.0 0.000643 1440.74548 1540.65015
1488.0 0.000672 1440.10388 1540.38452
1496.0 0.000668 1439.46240 1539.83936
1535.0 0.000651 1438.82068 1539.09265
1551.0 0.000645 1438.17920 1538.28076
1567.0 0.000638 1437.53748 1537.46216
1597.0 0.000626 1436.89587 1536.84082
1547.0 0.000646 1436.25439 1536.52747
1477.0 0.000677 1435.61267 1536.58118
1551.0 0.000645 1434.97107 1536.93030
1560.0 0.000641 1434.32947 1537.44604
1536.0 0.000651 1433.68787 1537.94165
1510.0 0.000662 1433.04639 1538.16040
1502.0 0.000666 1432.40466 1537.81494
1452.0 0.000689 1431.76306 1536.60364
1523.0 0.000657 1431.12134 1534.73230
1496.0 0.000668 1430.47974 1532.25244
1523.0 0.000657 1429.83826 1529.55249
1476.0 0.000678 1429.19666 1526.92786
1515.0 0.000660 1428.55481 1524.54773
1554.0 0.000644 1427.91333 1522.52783
1523.0 0.000657 1427.27173 1520.96570
1578.0 0.000634 1426.63037 1519.75293
1532.0 0.000653 1425.98853 1518.87695
1568.0 0.000638 1425.34692 1518.31396
1576.0 0.000635 1424.70532 1517.96472
1550.0 0.000645 1424.06384 1517.88855
1551.0 0.000645 1423.42212 1517.98120
1512.0 0.000661 1422.78052 1518.11304
1599.0 0.000625 1422.13892 1518.13379
1578.0 0.000634 1421.49719 1517.84766
1542.0 0.000649 1420.85571 1517.17664
1496.0 0.000668 1420.21399 1516.02856
1467.0 0.000682 1419.57251 1514.55200
1411.0 0.000709 1418.93079 1512.82507
1497.0 0.000668 1418.28918 1511.05066
1478.0 0.000677 1417.64771 1509.35522
1455.0 0.000687 1417.00598 1507.79163
1484.0 0.000674 1416.36438 1506.36487
1427.0 0.000701 1415.72278 1505.01343
1401.0 0.000714 1415.08118 1503.66296
1536.0 0.000651 1414.43970 1502.24084
1464.0 0.000683 1413.79797 1500.82532
1440.0 0.000694 1413.15637 1499.32043
1484.0 0.000674 1412.51465 1497.89014
1488.0 0.000672 1411.87317 1496.68640
1458.0 0.000686 1411.23157 1495.62012
1451.0 0.000689 1410.58997 1494.65735
1436.0 0.000696 1409.94812 1494.07275
1447.0 0.000691 1409.30664 1493.68030
1362.0 0.000734 1408.66504 1493.49084
1493.0 0.000670 1408.02356 1493.44519
1442.0 0.000693 1407.38184 1493.49402
1376.0 0.000727 1406.74011 1493.71289
1498.0 0.000668 1406.09863 1493.81555
1494.0 0.000669 1405.45715 1493.86865
1478.0 0.000677 1404.81543 1493.82043
1435.0 0.000697 1404.17383 1493.51697
1467.0 0.000682 1403.53223 1493.07336
1362.0 0.000734 1402.89050 1492.46985
1434.0 0.000697 1402.24902 1491.83435
1424.0 0.000702 1401.60754 1491.25952
1477.0 0.000677 1400.96582 1490.99219
1484.0 0.000674 1400.32410 1490.86523
1473.0 0.000679 1399.68250 1491.18396
1478.0 0.000677 1399.04102 1491.70300
1398.0 0.000715 1398.39917 1492.25110
1447.0 0.000691 1397.75769 1492.39331
1395.0 0.000717 1397.11609 1491.94812
1449.0 0.000690 1396.47449 1490.80981
1447.0 0.000691 1395.83301 1489.20837
1416.0 0.000706 1395.19128 1487.42346
1438.0 0.000695 1394.54968 1485.54980
1429.0 0.000700 1393.90796 1483.77795
1389.0 0.000720 1393.26648 1482.26062
1390.0 0.000719 1392.62488 1480.98364
1511.0 0.000662 1391.98328 1479.93994
1443.0 0.000693 1391.34143 1479.00916
1407.0 0.000711 1390.69995 1478.30359
1412.0 0.000708 1390.05847 1477.72534
1386.0 0.000722 1389.41687 1477.15540
1405.0 0.000712 1388.77515 1476.49487
1435.0 0.000697 1388.13342 1475.62146
1499.0 0.000667 1387.49194 1474.57251
1405.0 0.000712 1386.85046 1472.94934
1380.0 0.000725 1386.20874 1470.84998
1405.0 0.000712 1385.56714 1468.42249
1411.0 0.000709 1384.92554 1465.79163
1460.0 0.000685 1384.28381 1463.14319
1327.0 0.000754 1383.64233 1460.67358
1389.0 0.000720 1383.00073 1458.44385
1386.0 0.000722 1382.35913 1456.56995
1386.0 0.000722 1381.71729 1455.04541
1348.0 0.000742 1381.07593 1453.85474
1363.0 0.000734 1380.43433 1452.98389
1401.0 0.000714 1379.79248 1452.33008
1414.0 0.000707 1379.15100 1451.74951
1495.0 0.000669 1378.50940 1451.20654
1459.0 0.000685 1377.86792 1450.53223
1406.0 0.000711 1377.22632 1449.71277
1347.0 0.000742 1376.58459 1448.60608
1408.0 0.000710 1375.94299 1447.29871
1365.0 0.000733 1375.30127 1445.71313
1348.0 0.000742 1374.65979 1443.98499
1401.0 0.000714 1374.01819 1442.21875
1349.0 0.000741 1373.37659 1440.43347
1386.0 0.000722 1372.73499 1438.73938
1405.0 0.000712 1372.09326 1437.24182
1428.0 0.000700 1371.45178 1436.01196
1352.0 0.000740 1370.81018 1435.03137
1385.0 0.000722 1370.16846 1434.38354
1342.0 0.000745 1369.52673 1433.99744
1436.0 0.000696 1368.88525 1433.88672
1330.0 0.000752 1368.24377 1434.00366
1360.0 0.000735 1367.60217 1434.31140
1366.0 0.000732 1366.96045 1434.70923
1446.0 0.000692 1366.31885 1435.17639
1426.0 0.000701 1365.67712 1435.74780
1347.0 0.000742 1365.03564 1436.23889
1447.0 0.000691 1364.39404 1436.72803
1387.0 0.000721 1363.75244 1437.18665
1407.0 0.000711 1363.11060 1437.63306
1503.0 0.000665 1362.46912 1437.98218
1446.0 0.000692 1361.82764 1438.31299
1416.0 0.000706 1361.18616 1441.28381
1362.0 0.000734 1360.54431 1442.57605
1374.0 0.000728 1359.90271 1444.61487
1551.0 0.000645 1359.26123 1448.25378
1469.0 0.000681 1358.61963 1455.65039
1432.0 0.000698 1357.97791 1475.26025
1523.0 0.000657 1357.33643 1540.41687
1488.0 0.000672 1356.69458 1579.50659
1483.0 0.000674 1356.05298 1491.55603
1485.0 0.000673 1355.41150 1463.19958
1538.0 0.000650 1354.76990 1453.64819
1506.0 0.000664 1354.12830 1448.97620
1465.0 0.000683 1353.48657 1445.82483
1396.0 0.000716 1352.84509 1443.25085
1414.0 0.000707 1352.20349 1441.00281
1392.0 0.000718 1351.56177 1439.15686
1482.0 0.000675 1350.92004 1437.73547
1413.0 0.000708 1350.27856 1437.00635
1399.0 0.000715 1349.63708 1438.67029
1452.0 0.000689 1348.99548 1440.40906
1511.0 0.000662 1348.35376 1443.65930
1496.0 0.000668 1347.71204 1448.89880
1499.0 0.000667 1347.07043 1457.83362
1441.0 0.000694 1346.42896 1478.45569
1493.0 0.000670 1345.78748 1525.80566
1462.0 0.000684 1345.14575 1491.95081
1419.0 0.000705 1344.50391 1464.46411
1472.0 0.000679 1343.86243 1453.55469
1456.0 0.000687 1343.22095 1446.59546
1398.0 0.000715 1342.57947 1440.85571
1414.0 0.000707 1341.93762 1436.10632
1455.0 0.000687 1341.29602 1432.24304
1392.0 0.000718 1340.65454 1429.34180
1448.0 0.000691 1340.01294 1427.28772
1378.0 0.000726 1339.37109 1426.00732
1363.0 0.000734 1338.72974 1425.42834
1432.0 0.000698 1338.08789 1425.55090
1395.0 0.000717 1337.44629 1426.32605
1369.0 0.000730 1336.80481 1427.68469
1343.0 0.000745 1336.16321 1429.40051
1423.0 0.000703 1335.52173 1431.19885
1432.0 0.000698 1334.87988 1432.76685
1406.0 0.000711 1334.23840 1433.58191
1359.0 0.000736 1333.59680 1433.43787
1394.0 0.000717 1332.95508 1432.31836
1446.0 0.000692 1332.31360 1430.47766
1401.0 0.000714 1331.67188 1428.20471
1400.0 0.000714 1331.03040 1425.69446
1416.0 0.000706 1330.38879 1423.06384
1431.0 0.000699 1329.74707 1420.42529
1457.0 0.000686 1329.10535 1417.81165
1343.0 0.000745 1328.46375 1415.26343
1368.0 0.000731 1327.82227 1412.86926
1403.0 0.000713 1327.18079 1410.66492
1366.0 0.000732 1326.53906 1408.66528
1369.0 0.000730 1325.89734 1406.88123
1399.0 0.000715 1325.25574 1405.35229
1389.0 0.000720 1324.61426 1403.94604
1435.0 0.000697 1323.97278 1402.86475
1402.0 0.000713 1323.33093 1401.98962
1395.0 0.000717 1322.68933 1401.24182
1363.0 0.000734 1322.04785 1400.58264
1383.0 0.000723 1321.40625 1400.02771
1438.0 0.000695 1320.76440 1399.38611
1379.0 0.000725 1320.12292 1398.67383
1413.0 0.000708 1319.48120 1397.82019
1433.0 0.000698 1318.83960 1396.81616
1389.0 0.000720 1318.19812 1395.64673
1364.0 0.000733 1317.55652 1394.35999
1405.0 0.000712 1316.91504 1393.10645
1381.0 0.000724 1316.27319 1391.82385
1360.0 0.000735 1315.63171 1390.40649
1365.0 0.000733 1314.99023 1388.71399
1311.0 0.000763 1314.34839 1386.75940
1374.0 0.000728 1313.70691 1384.90369
1395.0 0.000717 1313.06519 1383.25171
1318.0 0.000759 1312.42371 1382.60059
1395.0 0.000717 1311.78198 1384.12744
1449.0 0.000690 1311.14038 1379.59253
1316.0 0.000760 1310.49866 1376.41016
1381.0 0.000724 1309.85706 1374.81458
1396.0 0.000716 1309.21558 1373.93542
1310.0 0.000763 1308.57410 1373.43823
1286.0 0.000778 1307.93237 1373.40576
1329.0 0.000752 1307.29065 1373.62891
1401.0 0.000714 1306.64905 1374.07959
1436.0 0.000696 1306.00757 1374.74048
1411.0 0.000709 1305.36609 1375.59216
1383.0 0.000723 1304.72424 1376.45349
1337.0 0.000748 1304.08264 1377.19360
1378.0 0.000726 1303.44104 1377.60291
1283.0 0.000779 1302.79956 1377.76990
1356.0 0.000737 1302.15796 1377.55542
1353.0 0.000739 1301.51624 1377.06970
1377.0 0.000726 1300.87451 1376.73474
1346.0 0.000743 1300.23291 1377.09155
1375.0 0.000727 1299.59143 1374.17017
1430.0 0.000699 1298.94983 1371.57483
1349.0 0.000741 1298.30835 1369.74512
1341.0 0.000746 1297.66650 1368.19971
1373.0 0.000728 1297.02502 1366.86255
1350.0 0.000741 1296.38354 1365.84167
1393.0 0.000718 1295.74170 1365.02637
1356.0 0.000737 1295.10010 1364.48999
1357.0 0.000737 1294.45850 1364.22559
1363.0 0.000734 1293.81702 1364.09875
1356.0 0.000737 1293.17529 1364.13098
1386.0 0.000722 1292.53369 1364.27490
1396.0 0.000716 1291.89221 1364.43103
1391.0 0.000719 1291.25037 1364.79456
1359.0 0.000736 1290.60889 1365.16089
1359.0 0.000736 1289.96741 1365.59973
1395.0 0.000717 1289.32568 1366.06812
1363.0 0.000734 1288.68396 1366.45923
1324.0 0.000755 1288.04236 1366.68164
1370.0 0.000730 1287.40088 1366.89600
1342.0 0.000745 1286.75940 1367.01404
1347.0 0.000742 1286.11755 1367.09741
1366.0 0.000732 1285.47595 1367.09387
1413.0 0.000708 1284.83435 1367.06689
1331.0 0.000751 1284.19287 1367.02026
1313.0 0.000762 1283.55127 1366.94482
1258.0 0.000795 1282.90955 1366.85852
1331.0 0.000751 1282.26782 1366.72217
1356.0 0.000737 1281.62634 1366.58142
1431.0 0.000699 1280.98474 1366.01489
1317.0 0.000759 1280.34314 1365.78430
1429.0 0.000700 1279.70166 1365.55688
1366.0 0.000732 1279.05981 1365.26587
1330.0 0.000752 1278.41833 1365.09937
1329.0 0.000752 1277.77673 1364.98926
1406.0 0.000711 1277.13501 1364.93103
1325.0 0.000755 1276.49341 1364.97095
1385.0 0.000722 1275.85181 1365.10950
1351.0 0.000740 1275.21033 1365.25513
1381.0 0.000724 1274.56860 1365.46436
1409.0 0.000710 1273.92700 1365.56421
1378.0 0.000726 1273.28552 1365.55054
1345.0 0.000743 1272.64368 1365.40857
1330.0 0.000752 1272.00220 1365.07031
1378.0 0.000726 1271.36072 1364.62805
1411.0 0.000709 1270.71899 1363.98950
1317.0 0.000759 1270.07727 1363.21936
1390.0 0.000719 1269.43567 1362.30188
1304.0 0.000767 1268.79419 1361.33533
1436.0 0.000696 1268.15271 1360.32520
1436.0 0.000696 1267.51086 1359.38623
1375.0 0.000727 1266.86926 1358.55347
1319.0 0.000758 1266.22766 1357.83667
1435.0 0.000697 1265.58618 1357.29749
1357.0 0.000737 1264.94458 1356.96130
1354.0 0.000739 1264.30286 1356.88684
1361.0 0.000735 1263.66113 1357.00012
1419.0 0.000705 1263.01965 1357.22424
1394.0 0.000717 1262.37805 1357.59570
1361.0 0.000735 1261.73657 1357.92322
1351.0 0.000740 1261.09485 1358.25586
1456.0 0.000687 1260.45313 1358.58606
1346.0 0.000743 1259.81165 1358.92554
1381.0 0.000724 1259.17004 1359.29163
1317.0 0.000759 1258.52832 1359.70227
1373.0 0.000728 1257.88684 1360.09070
1347.0 0.000742 1257.24512 1360.44092
1375.0 0.000727 1256.60364 1360.72766
1337.0 0.000748 1255.96191 1360.90051
1372.0 0.000729 1255.32031 1360.94604
1474.0 0.000678 1254.67883 1360.81323
1328.0 0.000753 1254.03699 1360.43652
1353.0 0.000739 1253.39551 1359.82751
1416.0 0.000706 1252.75391 1358.97668
1375.0 0.000727 1252.11230 1357.97778
1364.0 0.000733 1251.47046 1356.86377
1379.0 0.000725 1250.82910 1355.69800
1399.0 0.000715 1250.18750 1354.63599
1374.0 0.000728 1249.54602 1353.57861
1377.0 0.000726 1248.90417 1352.62341
1385.0 0.000722 1248.26257 1351.78296
1402.0 0.000713 1247.62109 1351.04907
1407.0 0.000711 1246.97949 1350.35950
1368.0 0.000731 1246.33789 1349.68079
1379.0 0.000725 1245.69617 1348.95801
1458.0 0.000686 1245.05444 1348.12646
1328.0 0.000753 1244.41296 1347.13281
1422.0 0.000703 1243.77136 1345.97021
1359.0 0.000736 1243.12988 1344.64758
1372.0 0.000729 1242.48816 1343.17993
1350.0 0.000741 1241.84644 1341.57678
1438.0 0.000695 1241.20496 1339.87390
1323.0 0.000756 1240.56335 1338.09668
1316.0 0.000760 1239.92163 1336.29089
1306.0 0.000766 1239.28015 1334.48779
1402.0 0.000713 1238.63843 1332.75452
1315.0 0.000760 1237.99695 1331.02356
1277.0 0.000783 1237.35535 1329.49927
1396.0 0.000716 1236.71362 1328.09375
1326.0 0.000754 1236.07214 1326.78894
1342.0 0.000745 1235.43030 1325.55713
1385.0 0.000722 1234.78882 1324.38416
1332.0 0.000751 1234.14734 1323.21631
1347.0 0.000742 1233.50562 1322.06812
1367.0 0.000732 1232.86401 1320.88184
1373.0 0.000728 1232.22229 1319.56873
1362.0 0.000734 1231.58081 1318.15442
1369.0 0.000730 1230.93933 1316.59998
1352.0 0.000740 1230.29749 1314.97217
1299.0 0.000770 1229.65588 1313.28760
1285.0 0.000778 1229.01440 1311.58057
1304.0 0.000767 1228.37280 1309.91577
1240.0 0.000806 1227.73120 1308.33936
1302.0 0.000768 1227.08960 1306.87610
1352.0 0.000740 1226.44775 1305.53540
1296.0 0.000772 1225.80627 1304.38440
1255.0 0.000797 1225.16467 1303.39050
1390.0 0.000719 1224.52319 1302.55090
1297.0 0.000771 1223.88159 1301.84082
1330.0 0.000752 1223.23975 1301.25281
1236.0 0.000809 1222.59827 1300.75134
1283.0 0.000779 1221.95667 1300.31714
1309.0 0.000764 1221.31519 1299.90674
1343.0 0.000745 1220.67346 1299.59546
1335.0 0.000749 1220.03174 1299.14270
1291.0 0.000775 1219.39026 1298.53125
1326.0 0.000754 1218.74866 1297.94800
1331.0 0.000751 1218.10693 1297.30530
1324.0 0.000755 1217.46545 1296.64380
1299.0 0.000770 1216.82361 1295.97766
1273.0 0.000786 1216.18213 1295.31128
1331.0 0.000751 1215.54065 1294.63110
1293.0 0.000773 1214.89893 1293.91455
1341.0 0.000746 1214.25732 1293.15137
1291.0 0.000775 1213.61560 1292.35510
1260.0 0.000794 1212.97412 1291.55139
1316.0 0.000760 1212.33264 1290.76831
1254.0 0.000797 1211.69080 1290.01477
1323.0 0.000756 1211.04919 1289.29578
1327.0 0.000754 1210.40771 1288.56458
1294.0 0.000773 1209.76611 1287.79932
1339.0 0.000747 1209.12451 1286.97070
1349.0 0.000741 1208.48291 1286.03186
1321.0 0.000757 1207.84106 1285.00513
1320.0 0.000758 1207.19946 1283.85254
1306.0 0.000766 1206.55798 1282.59375
1284.0 0.000779 1205.91650 1281.24927
1321.0 0.000757 1205.27490 1279.89624
1268.0 0.000789 1204.63306 1278.52124
1284.0 0.000779 1203.99158 1277.14539
1274.0 0.000785 1203.35010 1275.68762
1318.0 0.000759 1202.70850 1274.27502
1403.0 0.000713 1202.06677 1272.86841
1250.0 0.000800 1201.42505 1271.48560
1288.0 0.000776 1200.78357 1270.17041
1278.0 0.000782 1200.14197 1268.95679
1350.0 0.000741 1199.50024 1267.87891
1247.0 0.000802 1198.85876 1266.94775
1271.0 0.000787 1198.21692 1266.17029
1328.0 0.000753 1197.57544 1265.54211
1300.0 0.000769 1196.93396 1265.08191
1313.0 0.000762 1196.29224 1264.73755
1246.0 0.000803 1195.65063 1264.54053
1324.0 0.000755 1195.00891 1264.46545
1331.0 0.000751 1194.36743 1264.49744
1295.0 0.000772 1193.72595 1264.63464
1268.0 0.000789 1193.08411 1264.83020
1321.0 0.000757 1192.44263 1264.98621
1308.0 0.000765 1191.80103 1265.07813
1341.0 0.000746 1191.15942 1264.98718
1332.0 0.000751 1190.51782 1264.61877
1283.0 0.000779 1189.87610 1263.93323
1297.0 0.000771 1189.23438 1262.96692
1290.0 0.000775 1188.59277 1261.76819
1274.0 0.000785 1187.95129 1260.43481
1268.0 0.000789 1187.30981 1259.03271
1347.0 0.000742 1186.66821 1257.62915
1333.0 0.000750 1186.02637 1256.27380
1246.0 0.000803 1185.38489 1254.94495
1346.0 0.000743 1184.74341 1253.61816
1275.0 0.000784 1184.10181 1252.47583
1287.0 0.000777 1183.46008 1251.45288
1354.0 0.000739 1182.81836 1250.55505
1342.0 0.000745 1182.17688 1249.79285
1263.0 0.000792 1181.53516 1249.14478
1268.0 0.000789 1180.89355 1248.58203
1307.0 0.000765 1180.25208 1248.03296
1255.0 0.000797 1179.61023 1247.36377
1309.0 0.000764 1178.96875 1246.71399
1243.0 0.000805 1178.32727 1245.94934
1345.0 0.000743 1177.68555 1245.10132
1293.0 0.000773 1177.04395 1244.12195
1310.0 0.000763 1176.40222 1243.08728
1259.0 0.000794 1175.76074 1242.02930
1264.0 0.000791 1175.11926 1240.97681
1236.0 0.000809 1174.47742 1239.96240
1327.0 0.000754 1173.83594 1238.97766
1306.0 0.000766 1173.19421 1238.03296
1285.0 0.000778 1172.55286 1237.08887
1288.0 0.000776 1171.91113 1236.14246
1228.0 0.000814 1171.26941 1235.18542
1222.0 0.000818 1170.62769 1234.21692
1310.0 0.000763 1169.98608 1233.23450
1234.0 0.000810 1169.34460 1232.23364
1285.0 0.000778 1168.70313 1231.21704
1336.0 0.000749 1168.06152 1230.19690
1298.0 0.000770 1167.41968 1229.23828
1328.0 0.000753 1166.77820 1228.47656
1304.0 0.000767 1166.13672 1227.13708
1346.0 0.000743 1165.49512 1225.86829
1242.0 0.000805 1164.85327 1224.70557
1307.0 0.000765 1164.21167 1223.62061
1325.0 0.000755 1163.57019 1222.55640
1303.0 0.000767 1162.92847 1221.49170
1254.0 0.000797 1162.28699 1220.42969
1276.0 0.000784 1161.64539 1219.36975
1362.0 0.000734 1161.00354 1218.33032
1249.0 0.000801 1160.36206 1217.32947
1307.0 0.000765 1159.72058 1216.39209
1252.0 0.000799 1159.07886 1215.70007
1321.0 0.000757 1158.43726 1215.77051
1267.0 0.000789 1157.79553 1216.89246
1311.0 0.000763 1157.15405 1213.93738
1315.0 0.000760 1156.51257 1211.96741
1267.0 0.000789 1155.87073 1210.75964
1244.0 0.000804 1155.22925 1209.78955
1217.0 0.000822 1154.58752 1208.95935
1238.0 0.000808 1153.94604 1208.18164
1273.0 0.000786 1153.30444 1207.07715
1236.0 0.000809 1152.66272 1206.14758
1248.0 0.000801 1152.02124 1205.27881
1204.0 0.000831 1151.37952 1204.44641
1302.0 0.000768 1150.73792 1203.64099
1279.0 0.000782 1150.09644 1202.86072
1243.0 0.000805 1149.45483 1202.10278
1243.0 0.000805 1148.81299 1201.36267
1296.0 0.000772 1148.17151 1200.61292
1251.0 0.000799 1147.53003 1199.91248
1192.0 . . .
loop_
_refln_index_h
_refln_index_k
_refln_index_l
_pd_refln_wavelength_id
_refln_observed_status
_refln_F_squared_meas
_refln_F_squared_calc
_refln_phase_calc
_refln_d_spacing
_gsas_i100_meas
0 0 1 1 o 1341.643 1322.808 0.00 10.53233 100.00
0 0 1 2 o 1311.909 1322.808 0.00 10.53233 48.34
0 1 0 1 o -0.912 2.802 180.00 6.26177 0.00
0 1 0 2 o 0.607 2.802 180.00 6.26177 0.03
1 0 0 1 o 3.516 4.890 180.00 6.07786 0.19
1 0 0 2 o 4.630 4.890 180.00 6.07786 0.12
1 0 -1 1 o 142.627 141.305 180.00 5.87564 4.39
1 0 -1 2 o 141.684 141.305 180.00 5.87564 2.15
0 1 -1 1 o 61.296 53.840 180.00 5.57930 2.10
0 1 -1 2 o 61.351 53.840 180.00 5.57930 1.04
0 1 1 1 o 164.565 173.126 0.00 5.20493 3.67
0 1 1 2 o 151.547 173.126 0.00 5.20493 1.67
0 0 2 1 o 710.874 698.304 180.00 5.26617 12.20
0 0 2 2 o 694.995 698.304 180.00 5.26617 5.88
1 0 1 1 o 146.762 158.724 0.00 4.81100 3.23
1 0 1 2 o 164.678 158.724 0.00 4.81100 1.80
1 0 -2 1 o 265.468 223.079 180.00 4.52257 3.86
1 0 -2 2 o 259.835 223.079 180.00 4.52257 1.87
1 -1 0 1 o 2.587 2.042 0.00 4.64994 0.11
1 -1 0 2 o 2.223 2.042 0.00 4.64994 0.05
1 -1 -1 1 o 0.103 0.306 180.00 4.44825 0.08
1 -1 -1 2 o -0.241 0.306 180.00 4.44825 0.03
0 1 -2 1 o 231.430 253.297 180.00 4.19682 3.97
0 1 -2 2 o 240.217 253.297 180.00 4.19682 2.03
1 -1 1 1 o 4.763 4.647 0.00 4.08284 0.11
1 -1 1 2 o 4.940 4.647 0.00 4.08284 0.06
1 1 0 1 o 1218.422 1213.928 180.00 4.12044 17.92
1 1 0 2 o 1229.260 1213.928 180.00 4.12044 8.93
1 1 -1 1 o 590.983 593.584 180.00 4.13798 8.55
1 1 -1 2 o 597.083 593.584 180.00 4.13798 4.27
0 1 2 1 o 157.194 133.882 0.00 3.88221 1.66
0 1 2 2 o 174.696 133.882 0.00 3.88221 0.91
1 -1 -2 1 o 184.041 183.851 180.00 3.70480 2.23
1 -1 -2 2 o 185.561 183.851 180.00 3.70480 1.11
1 0 2 1 o 0.581 0.574 0.00 3.59517 0.01
1 0 2 2 o 0.576 0.574 0.00 3.59517 0.00
1 1 -2 1 o 6976.958 6998.158 0.00 3.62899 75.78
1 1 -2 2 o 7033.147 6998.158 0.00 3.62899 37.71
1 1 1 1 o 5417.681 5393.018 0.00 3.59379 59.64
1 1 1 2 o 5364.264 5393.018 0.00 3.59379 29.16
1 0 -3 1 o 146.043 187.718 180.00 3.39334 1.08
1 0 -3 2 o 165.438 187.718 180.00 3.39334 0.60
1 -1 2 1 o 254.226 216.950 180.00 3.30123 3.12
0 0 3 1 o 1531.646 1478.480 0.00 3.51078 12.38
1 -1 2 2 o 291.842 216.950 180.00 3.30123 1.76
0 0 3 2 o 1565.538 1478.480 0.00 3.51078 6.24
0 1 -3 1 o 119.793 116.804 180.00 3.17093 1.05
0 1 -3 2 o 108.982 116.804 180.00 3.17093 0.47
0 2 0 1 o 22.197 26.164 180.00 3.13089 0.30
1 -1 -3 1 o 1243.134 1308.783 180.00 2.97213 7.74
2 0 -1 1 o -0.123 0.000 0.00 3.11500 0.02
0 2 0 2 o 25.063 26.164 180.00 3.13089 0.16
0 2 -1 1 o 152.313 145.323 180.00 3.06797 1.70
1 -1 -3 2 o 1273.431 1308.783 180.00 2.97213 3.91
2 0 -1 2 o 0.006 0.000 0.00 3.11500 0.01
0 2 -1 2 o 151.489 145.323 180.00 3.06797 0.83
2 0 0 1 o 448.638 438.837 180.00 3.03893 4.42
2 0 0 2 o 426.628 438.837 180.00 3.03893 2.08
0 1 3 1 o 430.639 445.001 180.00 2.96412 2.46
1 1 -3 1 o 44.984 50.157 180.00 2.99485 0.28
0 1 3 2 o 437.425 445.001 180.00 2.96412 1.23
2 0 -2 1 o 2098.833 2120.320 180.00 2.93782 15.95
0 2 1 1 o 1242.425 1247.741 180.00 2.93841 10.41
1 1 -3 2 o 47.089 50.157 180.00 2.99485 0.14
1 1 2 1 o 44.368 45.792 0.00 2.96195 0.38
2 0 -2 2 o 2129.942 2120.320 180.00 2.93782 7.99
0 2 1 2 o 1261.056 1247.741 180.00 2.93841 5.21
1 1 2 2 o 45.261 45.792 0.00 2.96195 0.19
2 -1 -1 1 o 272.858 270.064 180.00 2.90735 2.39
2 -1 -1 2 o 267.562 270.064 180.00 2.90735 1.16
2 -1 0 1 o 3595.346 3646.613 0.00 2.87318 34.59
1 -2 0 1 o 227.547 226.599 0.00 2.93060 2.41
2 -1 0 2 o 3642.903 3646.613 0.00 2.87318 17.30
1 -2 -1 1 o 3686.874 3672.763 0.00 2.84996 32.15
1 -2 0 2 o 232.127 226.599 0.00 2.93060 1.21
0 2 -2 1 o 2518.720 2549.575 180.00 2.78965 21.18
1 -2 -1 2 o 3680.071 3672.763 0.00 2.84996 15.84
1 0 3 1 o 689.096 693.089 180.00 2.77820 4.35
0 2 -2 2 o 2528.407 2549.575 180.00 2.78965 10.50
1 0 3 2 o 685.719 693.089 180.00 2.77820 2.14
1 -2 1 1 o 32.314 33.176 180.00 2.79747 0.28
2 0 1 1 o 2360.555 2363.333 180.00 2.75726 18.48
1 -2 1 2 o 33.038 33.176 180.00 2.79747 0.14
2 0 1 2 o 2437.983 2363.333 180.00 2.75726 9.41
2 -1 -2 1 o 582.805 562.748 180.00 2.73685 4.00
2 -1 -2 2 o 599.238 562.748 180.00 2.73685 2.03
1 -1 3 1 o 695.991 701.865 180.00 2.65786 4.84
1 -1 3 2 o 714.635 701.865 180.00 2.65786 2.45
2 -1 1 1 o 4225.044 4276.176 0.00 2.65377 34.41
2 0 -3 1 o 2989.950 3036.593 180.00 2.61087 15.74
1 2 -1 1 o 369.480 339.966 180.00 2.68371 2.53
1 0 -4 1 o 792.695 783.095 180.00 2.64601 3.34
1 -2 -2 1 o 2127.531 2136.694 0.00 2.60086 13.40
2 -1 1 2 o 4386.155 4276.176 0.00 2.65377 17.62
2 0 -3 2 o 3058.791 3036.593 180.00 2.61087 7.94
1 2 -1 2 o 323.472 339.966 180.00 2.68371 1.10
1 0 -4 2 o 801.019 783.095 180.00 2.64601 1.66
1 -2 -2 2 o 2173.734 2136.694 0.00 2.60086 6.76
2 1 -1 1 o 327.921 298.131 180.00 2.68395 2.12
2 1 -1 2 o 277.865 298.131 180.00 2.68395 0.89
1 2 0 1 o 141.868 146.470 0.00 2.65619 0.92
2 1 0 1 o 138.996 143.615 0.00 2.61321 0.85
1 2 0 2 o 153.507 146.470 0.00 2.65619 0.49
0 2 2 1 o 3431.961 3481.517 180.00 2.60246 19.63
2 1 0 2 o 145.247 143.615 0.00 2.61321 0.44
1 -2 2 1 o 116.016 117.353 0.00 2.52250 0.93
0 2 2 2 o 3549.714 3481.517 180.00 2.60246 10.01
1 -2 2 2 o 113.385 117.353 0.00 2.52250 0.45
2 1 -2 1 o 631.260 615.459 180.00 2.58863 3.58
0 0 4 1 o 45.598 43.508 180.00 2.63308 0.18
2 -1 -3 1 o 209.253 210.433 0.00 2.44899 1.07
1 2 -2 1 o 102.511 101.839 180.00 2.54838 0.63
2 1 -2 2 o 626.404 615.459 180.00 2.58863 1.76
0 0 4 2 o 40.883 43.508 180.00 2.63308 0.08
1 2 -2 2 o 103.129 101.839 180.00 2.54838 0.31
2 -1 -3 2 o 207.834 210.433 0.00 2.44899 0.53
1 -1 -4 1 o 599.587 605.439 180.00 2.41415 2.26
0 1 -4 1 o 1488.461 1526.560 180.00 2.49872 7.28
1 -1 -4 2 o 596.056 605.439 180.00 2.41415 1.11
0 2 -3 1 o 3335.595 3386.780 180.00 2.43407 19.94
0 1 -4 2 o 1612.731 1526.560 180.00 2.49872 3.89
0 2 -3 2 o 3365.091 3386.780 180.00 2.43407 9.93
2 0 2 1 o 638.005 647.670 180.00 2.40550 3.68
1 2 1 1 o 0.226 0.204 0.00 2.47949 0.00
2 0 2 2 o 639.578 647.670 180.00 2.40550 1.82
2 -1 2 1 o 306.015 325.441 0.00 2.35126 1.94
2 1 1 1 o 62.299 62.929 0.00 2.41063 0.31
1 2 1 2 o 0.217 0.204 0.00 2.47949 0.00
1 1 -4 1 o 78.492 75.687 0.00 2.46121 0.38
2 -1 2 2 o 311.221 325.441 0.00 2.35126 0.97
2 1 1 2 o 61.904 62.929 0.00 2.41063 0.15
1 1 -4 2 o 71.331 75.687 0.00 2.46121 0.18
1 1 3 1 o 697.013 706.301 0.00 2.43562 3.15
1 1 3 2 o 706.034 706.301 0.00 2.43562 1.57
1 -2 -3 1 o 10.200 10.518 0.00 2.29071 0.06
2 1 -3 1 o 86.096 88.418 180.00 2.37241 0.39
1 -2 -3 2 o 10.269 10.518 0.00 2.29071 0.03
0 1 4 1 o 26.935 28.525 180.00 2.36153 0.09
2 1 -3 2 o 81.896 88.418 180.00 2.37241 0.18
0 1 4 2 o 26.322 28.525 180.00 2.36153 0.05
2 0 -4 1 o 1198.726 1211.349 180.00 2.26129 4.31
1 2 -3 1 o 2.578 2.663 180.00 2.31157 0.01
2 -2 -1 1 o 1521.473 1500.994 0.00 2.32772 9.23
2 0 -4 2 o 1181.942 1211.349 180.00 2.26129 2.10
1 2 -3 2 o 2.564 2.663 180.00 2.31157 0.01
1 -2 3 1 o 192.535 184.724 0.00 2.21099 1.06
2 -2 -1 2 o 1447.250 1500.994 0.00 2.32772 4.34
1 -2 3 2 o 186.397 184.724 0.00 2.21099 0.51
0 2 3 1 o 902.551 921.606 180.00 2.25012 3.52
2 -2 -2 1 o 849.730 837.019 0.00 2.22412 4.26
1 -1 4 1 o 317.858 311.491 180.00 2.18537 1.38
2 -2 0 1 o 1464.409 1458.882 0.00 2.32497 9.43
1 0 4 1 o 96.281 102.611 180.00 2.23728 0.38
0 2 3 2 o 874.998 921.606 180.00 2.25012 1.69
2 -2 -2 2 o 878.753 837.019 0.00 2.22412 2.17
2 -1 -4 1 o 100.143 95.981 0.00 2.14180 0.35
1 -1 4 2 o 341.963 311.491 180.00 2.18537 0.73
2 -2 0 2 o 1462.600 1458.882 0.00 2.32497 4.65
1 0 4 2 o 105.491 102.611 180.00 2.23728 0.20
2 -2 1 1 o 1773.856 1655.044 0.00 2.21696 10.47
2 -1 -4 2 o 100.234 95.981 0.00 2.14180 0.17
2 -2 1 2 o 1701.937 1655.044 0.00 2.21696 4.97
1 2 2 1 o 1.437 1.427 0.00 2.22713 0.00
1 2 2 2 o 1.538 1.427 0.00 2.22713 0.00
2 1 2 1 o 186.846 182.040 180.00 2.15285 0.77
1 0 -5 1 o 1139.010 1110.790 180.00 2.14748 3.09
2 1 2 2 o 190.901 182.040 180.00 2.15285 0.39
1 0 -5 2 o 1170.230 1110.790 180.00 2.14748 1.57
2 -1 3 1 o 38.994 38.652 180.00 2.05065 0.15
2 0 3 1 o 643.670 638.851 180.00 2.07556 2.58
0 2 -4 1 o 541.760 537.450 180.00 2.09841 2.28
2 -1 3 2 o 39.907 38.652 180.00 2.05065 0.08
2 0 3 2 o 632.340 638.851 180.00 2.07556 1.25
0 2 -4 2 o 540.057 537.450 180.00 2.09841 1.12
2 -2 -3 1 o 1055.082 1045.387 180.00 2.05076 3.85
2 1 -4 1 o 156.750 151.204 0.00 2.11221 0.49
2 -2 2 1 o 594.661 576.395 180.00 2.04142 2.81
2 -2 -3 2 o 1081.508 1045.387 180.00 2.05076 1.95
0 3 -1 1 o 538.448 532.770 0.00 2.07897 2.57
2 1 -4 2 o 151.214 151.204 0.00 2.11221 0.23
2 -2 2 2 o 601.000 576.395 180.00 2.04142 1.40
0 3 0 1 o 144.809 145.180 0.00 2.08726 0.69
0 3 -1 2 o 525.818 532.770 0.00 2.07897 1.24
2 2 -1 1 o 7811.874 7725.670 0.00 2.10544 30.60
3 0 -1 1 o 288.313 285.519 0.00 2.07931 1.28
1 -1 -5 1 o 167.763 154.463 180.00 2.00809 0.43
0 3 0 2 o 147.368 145.180 0.00 2.08726 0.35
3 0 -2 1 o 1550.498 1577.908 0.00 2.05421 6.13
2 2 -1 2 o 7665.108 7725.670 0.00 2.10544 14.83
0 0 5 1 o 1653.956 1629.128 0.00 2.10647 4.72
1 2 -4 1 o 3.268 3.202 180.00 2.04832 0.01
0 1 -5 1 o 1481.472 1440.445 180.00 2.04592 4.59
3 0 -1 2 o 281.782 285.519 0.00 2.07931 0.62
1 -1 -5 2 o 160.618 154.463 180.00 2.00809 0.20
1 -2 -4 1 o 99.692 97.059 180.00 1.99465 0.27
3 0 -2 2 o 1640.110 1577.908 0.00 2.05421 3.19
0 0 5 2 o 1611.427 1629.128 0.00 2.10647 2.27
1 2 -4 2 o 3.383 3.202 180.00 2.04832 0.01
1 1 -5 1 o 1938.894 2005.873 0.00 2.05541 5.59
0 1 -5 2 o 1509.850 1440.445 180.00 2.04592 2.31
2 2 -2 1 o 244.938 247.492 0.00 2.06899 0.97
1 -2 -4 2 o 93.752 97.059 180.00 1.99465 0.12
3 0 0 1 o 0.633 0.557 180.00 2.02595 0.01
2 2 0 1 o 486.345 512.735 0.00 2.06022 1.89
1 1 -5 2 o 2087.525 2005.873 0.00 2.05541 2.96
3 -1 -1 1 o 465.666 446.354 0.00 2.04033 2.09
2 2 -2 2 o 237.589 247.492 0.00 2.06899 0.47
0 3 -2 1 o 674.726 647.882 0.00 1.99509 2.94
1 -3 0 1 o 547.168 549.517 0.00 2.05140 2.65
1 -3 1 1 o 1.239 1.110 180.00 2.01381 0.01
3 0 0 2 o 0.724 0.557 180.00 2.02595 0.00
2 2 0 2 o 527.895 512.735 0.00 2.06022 1.01
3 -1 -1 2 o 465.617 446.354 0.00 2.04033 1.03
3 -1 -2 1 o 115.012 104.554 180.00 2.00686 0.44
0 3 -2 2 o 611.949 647.882 0.00 1.99509 1.32
1 -3 0 2 o 577.508 549.517 0.00 2.05140 1.38
1 -3 1 2 o 1.229 1.110 180.00 2.01381 0.00
1 1 4 1 o 794.232 752.427 0.00 2.03621 2.36
0 3 1 1 o 5.731 5.373 180.00 2.01730 0.02
3 -1 0 1 o 392.944 365.691 180.00 1.99935 1.68
2 0 -5 1 o 200.182 203.879 180.00 1.95196 0.52
1 -3 -1 1 o 330.520 298.848 180.00 2.01331 1.37
1 -2 4 1 o 55.686 55.718 0.00 1.92451 0.23
3 -1 -2 2 o 108.437 104.554 180.00 2.00686 0.20
1 1 4 2 o 774.552 752.427 0.00 2.03621 1.14
0 3 1 2 o 5.969 5.373 180.00 2.01730 0.01
3 -1 0 2 o 354.519 365.691 180.00 1.99935 0.75
2 0 -5 2 o 205.198 203.879 180.00 1.95196 0.26
1 -3 -1 2 o 325.859 298.848 180.00 2.01331 0.67
1 -2 4 2 o 55.353 55.718 0.00 1.92451 0.11
3 0 -3 1 o 27.851 28.250 0.00 1.95855 0.11
3 0 -3 2 o 27.554 28.250 0.00 1.95855 0.05
3 -1 -3 1 o 9.073 9.165 180.00 1.90899 0.03
0 2 4 1 o 309.724 308.625 180.00 1.94111 0.84
3 -1 -3 2 o 9.205 9.165 180.00 1.90899 0.01
0 1 5 1 o 85.270 87.825 0.00 1.95054 0.19
1 2 3 1 o 106.656 113.414 180.00 1.96651 0.31
1 -3 2 1 o 6.708 6.793 0.00 1.91192 0.03
1 -3 -2 1 o 52.978 53.699 0.00 1.91106 0.20
2 -1 -5 1 o 129.213 117.958 0.00 1.86572 0.31
2 2 1 1 o 13.658 14.567 0.00 1.94758 0.06
0 2 4 2 o 310.147 308.625 180.00 1.94111 0.42
3 0 1 1 o 493.263 499.147 0.00 1.91037 1.87
2 2 -3 1 o 25.378 25.327 180.00 1.96247 0.07
1 3 -1 1 o 152.620 154.456 180.00 1.92345 0.58
0 1 5 2 o 90.623 87.825 0.00 1.95054 0.10
1 2 3 2 o 111.037 113.414 180.00 1.96651 0.16
1 -3 2 2 o 6.720 6.793 0.00 1.91192 0.02
1 -3 -2 2 o 53.187 53.699 0.00 1.91106 0.10
2 1 3 1 o 520.519 525.184 180.00 1.89843 1.56
2 2 1 2 o 15.805 14.567 0.00 1.94758 0.04
2 -1 -5 2 o 133.869 117.958 0.00 1.86572 0.16
3 0 1 2 o 497.333 499.147 0.00 1.91037 0.93
2 2 -3 2 o 24.421 25.327 180.00 1.96247 0.04
2 -2 -4 1 o 435.860 384.931 0.00 1.85240 1.19
3 -1 1 1 o 42.690 42.446 0.00 1.89612 0.17
1 3 -1 2 o 151.928 154.456 180.00 1.92345 0.28
2 1 3 2 o 550.439 525.184 180.00 1.89843 0.81
2 -2 3 1 o 252.571 221.661 0.00 1.84277 0.95
2 -2 -4 2 o 431.395 384.931 0.00 1.85240 0.58
3 -1 1 2 o 44.737 42.446 0.00 1.89612 0.09
0 3 -3 1 o 501.718 449.445 0.00 1.85977 1.84
3 1 -1 1 o 603.626 611.564 180.00 1.91257 2.06
2 -2 3 2 o 236.168 221.661 0.00 1.84277 0.44
0 3 2 1 o 15.175 14.558 0.00 1.88997 0.06
1 3 0 1 o 373.926 389.684 180.00 1.90491 1.33
0 3 -3 2 o 525.564 449.445 0.00 1.85977 0.95
3 1 -1 2 o 593.012 611.564 180.00 1.91257 1.00
1 3 -2 1 o 35.762 33.005 180.00 1.87965 0.14
1 -1 5 1 o 268.449 233.330 180.00 1.84039 0.77
0 3 2 2 o 15.854 14.558 0.00 1.88997 0.03
1 3 0 2 o 396.621 389.684 180.00 1.90491 0.69
1 3 -2 2 o 36.154 33.005 180.00 1.87965 0.07
3 1 -2 1 o 63.652 66.437 180.00 1.90116 0.22
1 -1 5 2 o 244.050 233.330 180.00 1.84039 0.35
1 0 5 1 o 0.162 0.097 180.00 1.86328 0.00
3 1 0 1 o 5.578 4.830 180.00 1.86302 0.03
2 1 -5 1 o 526.844 476.946 0.00 1.86131 1.21
3 1 -2 2 o 69.762 66.437 180.00 1.90116 0.12
3 0 -4 1 o 399.551 397.038 0.00 1.81836 1.05
1 0 5 2 o 0.232 0.097 180.00 1.86328 0.00
3 1 0 2 o 6.289 4.830 180.00 1.86302 0.01
2 1 -5 2 o 570.012 476.946 0.00 1.86131 0.65
2 -1 4 1 o 13.978 14.144 180.00 1.78814 0.04
3 0 -4 2 o 376.630 397.038 0.00 1.81836 0.49
0 2 -5 2 o 17.893 19.348 180.00 1.81535 0.03
2 -1 4 2 o 14.746 14.144 180.00 1.78814 0.02
2 0 4 1 o 402.173 426.714 180.00 1.79759 1.14
0 2 -5 1 o 19.138 19.348 180.00 1.81535 0.07
3 -1 -4 1 o 72.360 67.758 0.00 1.77180 0.19
2 0 4 2 o 423.402 426.714 180.00 1.79759 0.59
3 -1 -4 2 o 72.195 67.758 0.00 1.77180 0.09
3 1 -3 1 o 0.955 0.790 180.00 1.83188 0.01
1 3 1 1 o 109.444 108.711 180.00 1.82911 0.35
3 -1 2 1 o 484.847 466.455 0.00 1.75641 1.60
3 -2 -2 1 o 251.352 265.922 180.00 1.79427 0.88
1 -3 3 1 o 17.983 16.633 0.00 1.77171 0.07
3 -2 -1 1 o 392.635 393.962 180.00 1.82530 1.51
1 -3 -3 1 o 167.016 154.068 0.00 1.77068 0.47
3 1 -3 2 o 0.852 0.790 180.00 1.83188 0.00
1 2 -5 1 o 696.919 758.268 0.00 1.80313 1.76
2 -3 -1 1 o 346.732 337.751 180.00 1.82022 1.32
1 3 -3 1 o 0.156 0.160 0.00 1.78511 0.01
1 3 1 2 o 111.228 108.711 180.00 1.82911 0.18
3 -1 2 2 o 438.627 466.455 0.00 1.75641 0.72
1 0 -6 1 o 0.440 0.476 0.00 1.79929 0.00
2 2 -4 1 o 601.454 611.915 0.00 1.81449 1.61
3 -2 -2 2 o 269.457 265.922 180.00 1.79427 0.46
1 -2 -5 1 o 19.648 22.218 0.00 1.74040 0.04
3 0 2 1 o 238.607 220.839 0.00 1.76115 0.74
1 -3 3 2 o 17.958 16.633 0.00 1.77171 0.03
3 -2 -1 2 o 384.699 393.962 180.00 1.82530 0.73
1 -3 -3 2 o 165.235 154.068 0.00 1.77068 0.23
2 -3 -1 2 o 313.470 337.751 180.00 1.82022 0.59
1 2 -5 2 o 726.906 758.268 0.00 1.80313 0.90
1 3 -3 2 o 0.290 0.160 0.00 1.78511 0.00
1 0 -6 2 o 0.465 0.476 0.00 1.79929 0.00
2 2 -4 2 o 546.681 611.915 0.00 1.81449 0.72
1 -2 -5 2 o 18.785 22.218 0.00 1.74040 0.02
3 -2 0 1 o 331.277 372.270 180.00 1.80275 1.29
3 0 2 2 o 217.831 220.839 0.00 1.76115 0.34
3 1 1 1 o 0.812 0.541 180.00 1.76534 0.01
2 2 2 1 o 1021.631 1116.016 0.00 1.79690 2.75
2 -3 -2 1 o 525.781 472.013 180.00 1.76279 1.72
2 -3 1 1 o 14.095 13.429 0.00 1.77910 0.05
3 -2 0 2 o 354.747 372.270 180.00 1.80275 0.68
2 -3 0 1 o 118.675 128.114 180.00 1.82615 0.51
2 2 2 2 o 1094.920 1116.016 0.00 1.79690 1.45
3 1 1 2 o 0.610 0.541 180.00 1.76534 0.00
2 -3 -2 2 o 474.455 472.013 180.00 1.76279 0.77
2 -3 1 2 o 15.029 13.429 0.00 1.77910 0.03
2 -3 0 2 o 118.461 128.114 180.00 1.82615 0.25
0 3 3 1 o 93.642 115.790 0.00 1.73498 0.24
3 -2 -3 1 o 369.818 403.717 180.00 1.71721 1.07
3 -2 1 1 o 140.340 176.821 180.00 1.73218 0.53
1 -1 -6 1 o 452.753 472.402 180.00 1.70890 0.79
0 3 3 2 o 98.774 115.790 0.00 1.73498 0.12
3 -2 -3 2 o 388.855 403.717 180.00 1.71721 0.55
0 3 -4 1 o 94.256 97.585 0.00 1.70240 0.29
3 -2 1 2 o 154.548 176.821 180.00 1.73218 0.29
1 1 -6 1 o 46.863 46.684 0.00 1.75048 0.11
1 -2 5 1 o 2.026 2.461 0.00 1.68201 0.01
1 -1 -6 2 o 456.190 472.402 180.00 1.70890 0.39
2 -2 -5 1 o 525.374 497.275 0.00 1.65952 1.05
2 0 -6 1 o 143.437 147.866 0.00 1.69667 0.24
0 1 -6 1 o 32.085 38.494 0.00 1.72601 0.06
0 3 -4 2 o 94.415 97.585 0.00 1.70240 0.14
1 1 -6 2 o 37.257 46.684 0.00 1.75048 0.04
1 -2 5 2 o 2.035 2.461 0.00 1.68201 0.01
2 -3 2 1 o 98.045 101.013 180.00 1.69021 0.35
2 -2 4 1 o 341.554 294.882 0.00 1.65061 0.97
3 1 -4 1 o 306.880 351.620 180.00 1.72172 0.73
2 -2 -5 2 o 570.125 497.275 0.00 1.65952 0.56
2 0 -6 2 o 140.057 147.866 0.00 1.69667 0.11
2 -3 -3 1 o 168.011 176.596 180.00 1.66707 0.46
0 0 6 1 o 1611.540 1599.630 0.00 1.75539 3.13
0 1 -6 2 o 36.238 38.494 0.00 1.72601 0.04
3 0 -5 1 o 535.216 519.328 0.00 1.66156 1.07
2 -3 2 2 o 88.195 101.013 180.00 1.69021 0.16
3 1 -4 2 o 338.968 351.620 180.00 1.72172 0.40
2 -2 4 2 o 337.675 294.882 0.00 1.65061 0.47
1 1 5 1 o 172.581 228.643 180.00 1.73597 0.33
2 -3 -3 2 o 196.852 176.596 180.00 1.66707 0.26
0 0 6 2 o 1408.912 1599.630 0.00 1.75539 1.36
1 2 4 1 o 501.349 656.789 180.00 1.73136 1.07
2 -1 -6 1 o 31.753 29.069 0.00 1.63387 0.06
0 2 5 1 o 312.473 327.337 180.00 1.68713 0.60
1 3 2 1 o 13.661 14.338 0.00 1.71438 0.03
3 0 -5 2 o 610.894 519.328 0.00 1.66156 0.60
1 1 5 2 o 188.444 228.643 180.00 1.73597 0.18
1 2 4 2 o 580.398 656.789 180.00 1.73136 0.61
2 -1 -6 2 o 29.323 29.069 0.00 1.63387 0.03
0 2 5 2 o 279.354 327.337 180.00 1.68713 0.27
1 3 2 2 o 14.208 14.338 0.00 1.71438 0.02
2 1 4 1 o 308.093 361.796 180.00 1.67319 0.69
3 -1 -5 1 o 38.730 38.655 180.00 1.62070 0.07
2 1 4 2 o 360.199 361.796 180.00 1.67319 0.40
3 -1 -5 2 o 38.208 38.655 180.00 1.62070 0.03
3 -2 -4 1 o 778.955 789.793 180.00 1.61028 1.77
3 -2 2 1 o 102.686 99.863 180.00 1.62887 0.33
1 3 -4 1 o 333.287 318.519 180.00 1.66065 0.86
3 -1 3 1 o 422.201 436.622 180.00 1.60501 1.09
3 1 2 1 o 0.308 0.117 0.00 1.64028 0.00
1 -3 4 1 o 348.674 348.994 180.00 1.61877 0.94
1 -3 -4 1 o 198.590 198.790 180.00 1.61772 0.39
3 -2 -4 2 o 749.647 789.793 180.00 1.61028 0.84
3 -2 2 2 o 99.502 99.863 180.00 1.62887 0.16
1 3 -4 2 o 389.136 318.519 180.00 1.66065 0.49
3 1 2 2 o 0.155 0.117 0.00 1.64028 0.00
3 -1 3 2 o 405.228 436.622 180.00 1.60501 0.51
1 -3 4 2 o 342.923 348.994 180.00 1.61877 0.46
1 -3 -4 2 o 194.538 198.790 180.00 1.61772 0.19
3 0 3 1 o 184.692 192.793 0.00 1.60367 0.47
2 3 -1 1 o 6.990 6.403 0.00 1.65893 0.02
0 1 6 1 o 32.422 27.924 0.00 1.65659 0.05
2 1 -6 1 o 38.726 32.174 0.00 1.64139 0.07
2 2 -5 1 o 0.524 0.001 180.00 1.65332 0.01
3 0 3 2 o 175.760 192.793 0.00 1.60367 0.22
3 2 -1 1 o 49.324 38.988 0.00 1.65188 0.11
2 3 -1 2 o 8.255 6.403 0.00 1.65893 0.01
2 -1 5 1 o 510.262 468.658 0.00 1.56994 1.14
2 3 -2 1 o 8.421 6.446 180.00 1.64624 0.02
0 1 6 2 o 35.491 27.924 0.00 1.65659 0.03
2 1 -6 2 o 33.583 32.174 0.00 1.64139 0.03
2 2 -5 2 o 0.540 0.001 180.00 1.65332 0.00
3 2 -1 2 o 47.770 38.988 0.00 1.65188 0.05
3 2 -2 1 o 56.983 42.412 180.00 1.64986 0.14
2 3 -2 2 o 7.583 6.446 180.00 1.64624 0.01
2 -1 5 2 o 528.168 468.658 0.00 1.56994 0.58
2 2 3 1 o 49.361 41.985 0.00 1.63559 0.12
2 -3 3 1 o 1344.527 1299.455 180.00 1.57687 3.83
2 3 0 1 o 148.597 144.724 0.00 1.63132 0.34
3 2 -2 2 o 52.693 42.412 180.00 1.64986 0.06
3 2 0 1 o 15.515 15.218 180.00 1.61458 0.04
0 2 -6 1 o 30.603 33.370 0.00 1.58546 0.06
2 2 3 2 o 39.763 41.985 0.00 1.63559 0.05
2 -3 -4 1 o 108.498 96.685 180.00 1.55067 0.23
1 -1 6 1 o 427.528 453.709 180.00 1.58286 0.85
2 -3 3 2 o 1435.106 1299.455 180.00 1.57687 2.01
2 3 0 2 o 138.680 144.724 0.00 1.63132 0.15
3 1 -5 1 o 148.786 171.470 180.00 1.59167 0.29
3 2 0 2 o 14.415 15.218 180.00 1.61458 0.02
0 2 -6 2 o 35.158 33.370 0.00 1.58546 0.03
2 -3 -4 2 o 104.076 96.685 180.00 1.55067 0.11
1 -1 6 2 o 491.650 453.709 180.00 1.58286 0.48
2 0 5 1 o 70.802 64.657 180.00 1.57166 0.15
2 3 -3 1 o 410.683 458.264 180.00 1.59588 0.92
3 1 -5 2 o 162.734 171.470 180.00 1.59167 0.15
1 0 6 1 o 9.326 10.747 0.00 1.59250 0.02
1 2 -6 1 o 26.934 31.384 180.00 1.59147 0.05
0 3 4 1 o 80.474 76.378 0.00 1.57623 0.16
2 0 5 2 o 73.727 64.657 180.00 1.57166 0.08
0 3 -5 1 o 180.512 164.098 0.00 1.54488 0.41
2 3 -3 2 o 393.023 458.264 180.00 1.59588 0.43
3 2 -3 1 o 186.490 189.323 180.00 1.60893 0.40
1 0 6 2 o 9.909 10.747 0.00 1.59250 0.01
1 2 -6 2 o 29.746 31.384 180.00 1.59147 0.03
0 3 4 2 o 85.535 76.378 0.00 1.57623 0.08
0 4 -1 1 o 381.305 338.816 0.00 1.56652 0.99
0 3 -5 2 o 170.283 164.098 0.00 1.54488 0.19
3 2 -3 2 o 175.775 189.323 180.00 1.60893 0.19
1 -2 -6 1 o 675.058 660.913 0.00 1.53038 0.99
1 3 3 1 o 109.775 118.634 180.00 1.58190 0.23
0 4 -1 2 o 395.305 338.816 0.00 1.56652 0.50
3 -2 3 1 o 325.712 331.405 180.00 1.51006 0.83
3 -2 -5 1 o 554.472 553.542 180.00 1.49035 0.98
0 4 0 1 o 516.810 455.695 0.00 1.56544 1.29
1 -2 -6 2 o 661.521 660.913 0.00 1.53038 0.48
2 -2 -6 1 o 71.601 71.816 180.00 1.48606 0.10
1 3 3 2 o 132.645 118.634 180.00 1.58190 0.14
4 -1 -2 1 o 1433.153 1267.168 180.00 1.54816 3.40
3 -2 3 2 o 331.626 331.405 180.00 1.51006 0.42
2 3 1 1 o 23.433 20.902 0.00 1.56902 0.05
4 0 -2 1 o 23.730 20.156 0.00 1.55750 0.06
0 4 0 2 o 536.192 455.695 0.00 1.56544 0.66
3 -2 -5 2 o 554.853 553.542 180.00 1.49035 0.48
4 0 -1 1 o 54.619 46.806 0.00 1.55480 0.13
1 3 -5 1 o 424.830 420.994 180.00 1.52597 0.89
1 -4 0 2 o 346.163 295.162 180.00 1.56206 0.46
2 -2 -6 2 o 73.101 71.816 180.00 1.48606 0.05
1 -4 0 1 o 341.359 295.162 180.00 1.56206 0.92
4 -1 -2 2 o 1335.607 1267.168 180.00 1.54816 1.57
1 -4 1 1 o 469.004 409.308 180.00 1.54971 1.28
3 0 -6 1 o 116.341 118.444 0.00 1.50752 0.18
2 3 1 2 o 24.503 20.902 0.00 1.56902 0.02
4 -1 -1 1 o 49.381 42.447 180.00 1.54994 0.14
3 -3 -2 1 o 12.010 11.665 0.00 1.53583 0.03
3 -1 -6 1 o 1236.750 1190.872 0.00 1.47296 1.82
0 4 -2 1 o 462.588 451.566 0.00 1.53398 1.16
4 0 -2 2 o 23.008 20.156 0.00 1.55750 0.03
3 2 1 1 o 130.176 116.284 180.00 1.54531 0.27
1 0 -7 1 o 81.695 73.510 0.00 1.54495 0.11
4 0 -1 2 o 52.305 46.806 0.00 1.55480 0.06
1 3 -5 2 o 415.344 420.994 180.00 1.52597 0.43
1 -4 -1 1 o 40.132 36.858 180.00 1.54065 0.11
1 -4 1 2 o 439.052 409.308 180.00 1.54971 0.59
4 -1 -3 1 o 721.743 736.532 180.00 1.51408 1.57
3 0 -6 2 o 119.269 118.444 0.00 1.50752 0.09
4 -1 -1 2 o 46.012 42.447 180.00 1.54994 0.06
4 0 -3 1 o 397.926 393.674 0.00 1.52706 0.83
3 -3 -2 2 o 11.775 11.665 0.00 1.53583 0.01
0 4 -2 2 o 454.394 451.566 0.00 1.53398 0.56
3 -1 -6 2 o 1255.706 1190.872 0.00 1.47296 0.91
3 -3 -1 1 o 940.898 799.243 0.00 1.55968 2.50
3 2 1 2 o 119.618 116.284 180.00 1.54531 0.12
1 0 -7 2 o 75.498 73.510 0.00 1.54495 0.05
2 -2 5 1 o 280.569 277.439 180.00 1.47825 0.57
3 1 3 1 o 2.410 2.466 0.00 1.50670 0.01
1 -4 2 1 o 723.465 739.968 180.00 1.50588 1.87
0 4 1 1 o 260.405 257.907 0.00 1.53096 0.60
1 -4 -1 2 o 37.256 36.858 180.00 1.54065 0.05
4 0 0 1 o 498.541 501.368 0.00 1.51947 1.14
2 0 -7 1 o 0.337 0.335 0.00 1.49016 0.00
4 -1 0 1 o 63.731 64.146 0.00 1.51911 0.14
4 -1 -3 2 o 725.069 736.532 180.00 1.51408 0.78
4 0 -3 2 o 389.259 393.674 0.00 1.52706 0.40
3 -3 -1 2 o 925.924 799.243 0.00 1.55968 1.22
1 -3 5 1 o 522.511 494.921 0.00 1.47013 1.12
3 2 -4 1 o 256.852 250.081 180.00 1.53708 0.48
2 -2 5 2 o 292.742 277.439 180.00 1.47825 0.30
3 1 3 2 o 2.497 2.466 0.00 1.50670 0.00
1 -2 6 1 o 66.263 67.047 0.00 1.48257 0.14
1 -4 2 2 o 751.173 739.968 180.00 1.50588 0.96
3 -3 -3 1 o 273.614 278.154 180.00 1.48275 0.58
0 4 1 2 o 256.806 257.907 0.00 1.53096 0.29
4 0 0 2 o 486.167 501.368 0.00 1.51947 0.55
2 0 -7 2 o 0.319 0.335 0.00 1.49016 0.00
4 -1 0 2 o 62.188 64.146 0.00 1.51911 0.07
2 3 -4 1 o 25.833 26.205 180.00 1.51737 0.05
3 2 -4 2 o 253.288 250.081 180.00 1.53708 0.23
1 -3 5 2 o 520.169 494.921 0.00 1.47013 0.55
1 -3 -5 2 o 689.995 658.368 0.00 1.46915 0.53
1 -2 6 2 o 70.000 67.047 0.00 1.48257 0.07
3 -1 4 1 o 54.698 52.496 0.00 1.45825 0.11
3 -3 -3 2 o 289.679 278.154 180.00 1.48275 0.30
3 -3 0 1 o 735.661 637.929 0.00 1.54998 2.00
1 2 5 1 o 29.354 29.216 0.00 1.53098 0.05
2 -3 4 1 o 1028.365 994.419 180.00 1.45505 2.37
1 -3 -5 1 o 697.370 658.368 0.00 1.46915 1.09
2 3 -4 2 o 25.105 26.205 180.00 1.51737 0.02
3 0 4 1 o 144.587 140.266 0.00 1.45355 0.29
1 -1 -7 1 o 234.312 239.119 180.00 1.48268 0.30
3 -3 1 1 o 10.451 10.915 0.00 1.50853 0.03
1 1 -7 1 o 268.137 272.395 0.00 1.51789 0.41
3 -1 4 2 o 54.313 52.496 0.00 1.45825 0.06
3 -3 0 2 o 679.913 637.929 0.00 1.54998 0.92
1 2 5 2 o 28.978 29.216 0.00 1.53098 0.02
1 -4 -2 1 o 6.569 6.627 180.00 1.48939 0.02
2 -3 4 2 o 1038.729 994.419 180.00 1.45505 1.18
0 4 -3 1 o 26.175 25.188 180.00 1.47367 0.06
1 -1 -7 2 o 249.686 239.119 180.00 1.48268 0.16
2 -3 -5 1 o 118.402 112.414 180.00 1.42865 0.20
3 0 4 2 o 147.669 140.266 0.00 1.45355 0.14
3 -3 1 2 o 11.050 10.915 0.00 1.50853 0.01
1 1 -7 2 o 256.778 272.395 0.00 1.51789 0.19
2 2 -6 1 o 567.613 556.401 0.00 1.49743 0.94
2 -1 -7 1 o 39.723 37.611 0.00 1.44346 0.05
2 1 5 1 o 47.805 49.809 180.00 1.48256 0.08
0 2 6 1 o 3.695 3.893 180.00 1.48206 0.01
4 0 -4 1 o 20.924 19.535 180.00 1.46891 0.04
1 -4 -2 2 o 6.423 6.627 180.00 1.48939 0.01
4 -1 -4 1 o 0.050 0.004 0.00 1.45365 0.00
0 1 -7 1 o 0.098 0.097 0.00 1.48994 0.00
0 4 -3 2 o 26.859 25.188 180.00 1.47367 0.03
2 -3 -5 2 o 113.720 112.414 180.00 1.42865 0.09
2 2 -6 2 o 543.461 556.401 0.00 1.49743 0.44
2 -1 -7 2 o 40.282 37.611 0.00 1.44346 0.03
1 1 6 1 o 151.584 162.112 0.00 1.50669 0.24
1 4 -1 1 o 85.893 89.804 0.00 1.48617 0.19
2 1 5 2 o 52.422 49.809 180.00 1.48256 0.04
0 2 6 2 o 4.260 3.893 180.00 1.48206 0.00
4 -1 1 1 o 60.804 57.358 180.00 1.46109 0.15
4 0 -4 2 o 20.405 19.535 180.00 1.46891 0.02
3 1 -6 1 o 204.155 196.247 180.00 1.45844 0.31
4 -1 -4 2 o 0.090 0.004 0.00 1.45365 0.00
1 4 -2 1 o 0.407 0.338 180.00 1.46947 0.00
2 2 4 1 o 419.358 438.009 0.00 1.48097 0.71
0 4 2 1 o 78.340 72.102 180.00 1.46921 0.14
4 0 1 1 o 0.596 0.575 180.00 1.45769 0.00
0 1 -7 2 o 0.084 0.097 0.00 1.48994 0.00
1 1 6 2 o 166.748 162.112 0.00 1.50669 0.13
1 4 -1 2 o 90.326 89.804 0.00 1.48617 0.10
4 1 -2 1 o 164.952 164.879 180.00 1.47723 0.30
0 0 7 1 o 61.723 63.602 0.00 1.50462 0.09
1 -4 3 1 o 1.026 0.875 0.00 1.43800 0.00
4 -1 1 2 o 58.778 57.358 180.00 1.46109 0.07
1 4 0 1 o 608.413 578.162 0.00 1.47373 1.24
2 3 2 1 o 489.919 526.788 180.00 1.48304 0.87
3 1 -6 2 o 200.568 196.247 180.00 1.45844 0.15
1 4 -2 2 o 0.381 0.338 180.00 1.46947 0.00
2 2 4 2 o 473.253 438.009 0.00 1.48097 0.39
0 4 2 2 o 75.554 72.102 180.00 1.46921 0.07
4 0 1 2 o 0.592 0.575 180.00 1.45769 0.00
4 1 -1 1 o 1396.204 1292.435 0.00 1.47110 2.74
4 1 -2 2 o 181.811 164.879 180.00 1.47723 0.17
0 0 7 2 o 66.374 63.602 0.00 1.50462 0.05
3 2 2 1 o 151.891 148.627 180.00 1.45563 0.27
2 1 -7 1 o 3.383 3.302 180.00 1.45597 0.00
1 -4 3 2 o 0.997 0.875 0.00 1.43800 0.00
1 4 0 2 o 636.433 578.162 0.00 1.47373 0.64
3 -3 2 1 o 64.169 60.295 180.00 1.44239 0.15
2 3 2 2 o 553.956 526.788 180.00 1.48304 0.48
4 -2 -2 1 o 36.378 35.863 180.00 1.45367 0.08
4 1 -1 2 o 1382.845 1292.435 0.00 1.47110 1.34
3 -3 -4 1 o 181.482 189.642 180.00 1.40891 0.32
3 2 2 2 o 153.774 148.627 180.00 1.45563 0.14
2 1 -7 2 o 3.413 3.302 180.00 1.45597 0.00
4 -2 -1 1 o 363.863 350.643 180.00 1.45885 0.81
3 -3 2 2 o 65.051 60.295 180.00 1.44239 0.07
4 -2 -2 2 o 37.707 35.863 180.00 1.45367 0.04
3 -2 4 1 o 145.729 150.945 180.00 1.38914 0.31
4 1 -3 1 o 100.950 99.730 180.00 1.45485 0.17
0 3 5 1 o 42.174 39.720 0.00 1.42740 0.06
1 4 -3 1 o 115.626 110.006 180.00 1.42641 0.21
3 -3 -4 2 o 178.734 189.642 180.00 1.40891 0.15
4 -2 -1 2 o 352.609 350.643 180.00 1.45885 0.39
4 1 0 1 o 912.036 834.051 0.00 1.43750 1.73
2 -4 -1 1 o 118.051 114.366 180.00 1.45851 0.27
4 -2 0 1 o 16.356 14.925 180.00 1.43659 0.04
2 -4 0 1 o 5.555 4.931 180.00 1.46530 0.01
4 1 -3 2 o 103.362 99.730 180.00 1.45485 0.09
3 -2 4 2 o 153.631 150.945 180.00 1.38914 0.16
4 -2 -3 1 o 0.195 0.190 0.00 1.42190 0.00
2 -4 1 1 o 18.854 17.830 180.00 1.44425 0.04
0 3 5 2 o 39.979 39.720 0.00 1.42740 0.03
1 4 -3 2 o 110.124 110.006 180.00 1.42641 0.10
2 -1 6 1 o 712.424 751.049 0.00 1.39113 1.17
1 -4 -3 1 o 665.651 669.412 180.00 1.41658 1.22
4 1 0 2 o 893.329 834.051 0.00 1.43750 0.84
2 -4 -1 2 o 114.371 114.366 180.00 1.45851 0.13
1 3 4 1 o 74.349 72.865 180.00 1.44788 0.13
4 -2 0 2 o 15.925 14.925 180.00 1.43659 0.02
2 -4 0 2 o 4.962 4.931 180.00 1.46530 0.01
3 2 -5 1 o 337.399 325.968 180.00 1.44602 0.52
2 -4 -2 1 o 141.830 135.776 180.00 1.42498 0.29
1 4 1 1 o 818.966 742.289 0.00 1.43423 1.51
0 3 -6 1 o 300.694 322.029 0.00 1.39894 0.54
4 -2 -3 2 o 0.184 0.190 0.00 1.42190 0.00
2 -4 1 2 o 19.633 17.830 180.00 1.44425 0.02
2 3 -5 1 o 255.260 248.545 180.00 1.42272 0.42
3 -2 -6 1 o 492.642 462.704 180.00 1.36998 0.67
4 -1 2 1 o 318.451 320.444 180.00 1.38468 0.65
2 -1 6 2 o 756.276 751.049 0.00 1.39113 0.61
1 -4 -3 2 o 629.604 669.412 180.00 1.41658 0.57
0 4 -4 1 o 33.212 35.603 0.00 1.39482 0.07
1 3 4 2 o 81.154 72.865 180.00 1.44788 0.07
0 1 7 1 o 260.685 235.685 0.00 1.43743 0.31
3 2 -5 2 o 362.221 325.968 180.00 1.44602 0.28
4 0 -5 1 o 36.934 39.412 0.00 1.39196 0.06
2 -4 -2 2 o 134.761 135.776 180.00 1.42498 0.14
1 4 1 2 o 780.885 742.289 0.00 1.43423 0.71
0 3 -6 2 o 306.333 322.029 0.00 1.39894 0.27
2 3 -5 2 o 241.636 248.545 180.00 1.42272 0.19
2 0 6 1 o 39.030 41.126 180.00 1.38910 0.06
3 -2 -6 2 o 486.337 462.704 180.00 1.36998 0.33
4 -1 2 2 o 335.219 320.444 180.00 1.38468 0.34
4 -1 -5 1 o 25.276 24.269 0.00 1.37583 0.04
0 2 -7 1 o 0.672 0.842 180.00 1.39997 0.00
0 4 -4 2 o 34.945 35.603 0.00 1.39482 0.04
2 -4 2 1 o 0.999 1.078 180.00 1.39873 0.00
0 1 7 2 o 254.226 235.685 0.00 1.43743 0.15
4 1 -4 1 o 78.344 84.754 0.00 1.40763 0.13
4 0 -5 2 o 39.500 39.412 0.00 1.39196 0.03
1 3 -6 1 o 35.991 39.188 180.00 1.39440 0.07
4 -2 -4 1 o 17.501 16.131 180.00 1.36842 0.03
2 0 6 2 o 41.891 41.126 180.00 1.38910 0.03
4 -1 -5 2 o 26.110 24.269 0.00 1.37583 0.02
1 2 -7 1 o 88.780 91.362 180.00 1.41406 0.13
3 0 -7 1 o 334.537 308.013 0.00 1.36608 0.40
0 2 -7 2 o 0.689 0.842 180.00 1.39997 0.00
4 0 2 1 o 322.910 314.312 0.00 1.37863 0.59
3 1 4 1 o 404.307 389.110 180.00 1.37705 0.64
2 -4 2 2 o 1.015 1.078 180.00 1.39873 0.00
4 -2 1 1 o 37.950 40.394 0.00 1.39044 0.08
4 1 -4 2 o 77.585 84.754 0.00 1.40763 0.06
1 3 -6 2 o 38.542 39.188 180.00 1.39440 0.03
3 -3 3 1 o 9.290 8.814 180.00 1.36095 0.02
1 -1 7 1 o 6.354 6.445 180.00 1.38536 0.01
4 -2 -4 2 o 16.929 16.131 180.00 1.36842 0.01
1 2 -7 2 o 84.174 91.362 180.00 1.41406 0.06
3 0 -7 2 o 318.025 308.013 0.00 1.36608 0.19
2 -4 -3 1 o 0.834 0.768 0.00 1.36988 0.00
4 0 2 2 o 341.045 314.312 0.00 1.37863 0.31
4 1 1 1 o 18.461 18.200 0.00 1.38168 0.04
3 1 4 2 o 428.586 389.110 180.00 1.37705 0.33
1 -4 4 1 o 17.187 16.944 0.00 1.35551 0.03
4 -2 1 2 o 40.855 40.394 0.00 1.39044 0.04
0 4 3 1 o 547.406 580.969 0.00 1.38953 0.90
3 -3 3 2 o 8.746 8.814 180.00 1.36095 0.01
1 -1 7 2 o 6.798 6.445 180.00 1.38536 0.01
3 -1 -7 1 o 472.270 468.471 0.00 1.33734 0.54
2 -2 -7 1 o 484.577 474.035 0.00 1.33564 0.53
2 -3 5 1 o 665.332 650.234 180.00 1.33569 1.22
2 -4 -3 2 o 0.815 0.768 0.00 1.36988 0.00
4 1 1 2 o 19.829 18.200 0.00 1.38168 0.02
1 -4 4 2 o 16.283 16.944 0.00 1.35551 0.01
3 3 -2 1 o 5.454 6.022 180.00 1.40155 0.01
1 -2 -7 1 o 653.628 629.962 0.00 1.35852 0.71
0 4 3 2 o 589.445 580.969 0.00 1.38953 0.47
3 3 -1 1 o 79.694 86.684 180.00 1.39949 0.12
3 -1 -7 2 o 493.756 468.471 0.00 1.33734 0.28
1 0 7 1 o 48.690 51.620 0.00 1.38859 0.06
2 -2 6 1 o 324.010 306.139 0.00 1.32893 0.52
2 -2 -7 2 o 500.000 474.035 0.00 1.33564 0.27
2 -3 5 2 o 688.274 650.234 180.00 1.33569 0.62
1 4 -4 1 o 56.476 51.627 0.00 1.36349 0.11
3 3 -2 2 o 5.335 6.022 180.00 1.40155 0.00
1 -2 -7 2 o 613.724 629.962 0.00 1.35852 0.33
3 -1 5 1 o 10.523 9.954 0.00 1.32413 0.02
3 -3 -5 1 o 11.261 10.702 0.00 1.32369 0.02
3 3 -1 2 o 78.339 86.684 180.00 1.39949 0.06
1 0 7 2 o 52.334 51.620 0.00 1.38859 0.03
1 -3 6 1 o 237.224 228.673 0.00 1.33418 0.40
2 -2 6 2 o 321.296 306.139 0.00 1.32893 0.25
1 -3 -6 1 o 147.477 141.132 0.00 1.33330 0.18
2 3 3 1 o 0.234 0.233 0.00 1.38521 0.00
1 4 -4 2 o 52.169 51.627 0.00 1.36349 0.05
1 4 2 1 o 15.529 14.428 180.00 1.37376 0.02
3 -1 5 2 o 10.470 9.954 0.00 1.32413 0.01
3 -3 -5 2 o 11.257 10.702 0.00 1.32369 0.01
1 -3 6 2 o 242.181 228.673 0.00 1.33418 0.20
3 3 -3 1 o 1083.053 1071.782 0.00 1.37933 1.72
1 -3 -6 2 o 149.473 141.132 0.00 1.33330 0.09
2 -3 -6 1 o 14.015 13.168 0.00 1.31075 0.02
2 3 3 2 o 0.241 0.233 0.00 1.38521 0.00
2 -4 3 1 o 0.878 0.850 180.00 1.33528 0.00
3 2 3 1 o 116.536 113.351 180.00 1.35685 0.17
1 4 2 2 o 16.340 14.428 180.00 1.37376 0.01
3 3 0 1 o 686.164 628.050 0.00 1.37348 1.10
1 -4 -4 1 o 509.385 478.999 180.00 1.33169 0.76
1 -2 7 1 o 181.146 172.751 0.00 1.31936 0.26
3 0 5 1 o 25.581 24.302 0.00 1.31785 0.04
3 3 -3 2 o 1213.108 1071.782 0.00 1.37933 0.95
2 -3 -6 2 o 14.166 13.168 0.00 1.31075 0.01
3 2 3 2 o 106.705 113.351 180.00 1.35685 0.08
2 -4 3 2 o 0.908 0.850 180.00 1.33528 0.00
4 -2 2 1 o 80.825 75.753 0.00 1.32688 0.15
3 3 0 2 o 724.034 628.050 0.00 1.37348 0.57
4 -2 -5 1 o 32.914 30.613 0.00 1.30028 0.04
2 2 -7 1 o 1089.027 1069.502 0.00 1.35564 1.38
1 -4 -4 2 o 507.329 478.999 180.00 1.33169 0.37
1 -2 7 2 o 185.792 172.751 0.00 1.31936 0.13
2 0 -8 1 o 461.247 435.931 180.00 1.32301 0.46
3 0 5 2 o 26.630 24.302 0.00 1.31785 0.02
2 4 -2 1 o 26.733 30.128 180.00 1.34185 0.05
3 1 -7 1 o 234.144 217.381 180.00 1.33206 0.27
1 0 -8 1 o 6.243 6.398 0.00 1.35202 0.01
4 1 -5 1 o 3.699 4.216 0.00 1.34237 0.01
0 4 -5 1 o 106.370 95.944 0.00 1.30682 0.18
4 -2 2 2 o 79.310 75.753 0.00 1.32688 0.07
4 0 -6 1 o 131.193 117.761 0.00 1.30544 0.16
4 -2 -5 2 o 30.280 30.613 0.00 1.30028 0.02
1 2 6 1 o 24.556 21.639 0.00 1.36373 0.03
2 2 -7 2 o 982.999 1069.502 0.00 1.35564 0.62
3 2 -6 1 o 39.559 43.398 180.00 1.34686 0.05
4 -1 3 2 o 291.458 301.593 180.00 1.29890 0.25
2 4 -1 1 o 46.598 52.779 180.00 1.34577 0.08
2 0 -8 2 o 458.081 435.931 180.00 1.32301 0.23
4 -1 -6 1 o 12.224 12.747 0.00 1.28953 0.01
2 4 -2 2 o 33.197 30.128 180.00 1.34185 0.03
1 0 -8 2 o 5.783 6.398 0.00 1.35202 0.00
3 1 -7 2 o 231.571 217.381 180.00 1.33206 0.13
2 -4 -4 1 o 1.733 1.602 0.00 1.30043 0.00
4 1 -5 2 o 4.637 4.216 0.00 1.34237 0.00
4 1 2 1 o 2.655 2.458 180.00 1.31111 0.00
0 4 -5 2 o 103.512 95.944 0.00 1.30682 0.09
2 2 5 1 o 398.135 441.315 0.00 1.34099 0.53
4 -1 3 1 o 324.680 301.593 180.00 1.29890 0.56
4 0 -6 2 o 125.427 117.761 0.00 1.30544 0.08
1 2 6 2 o 21.996 21.639 0.00 1.36373 0.01
3 2 -6 2 o 41.989 43.398 180.00 1.34686 0.03
2 4 -1 2 o 52.725 52.779 180.00 1.34577 0.05
4 -1 -6 2 o 11.802 12.747 0.00 1.28953 0.01
2 -4 -4 2 o 1.587 1.602 0.00 1.30043 0.00
4 2 -1 1 o 77.915 71.833 180.00 1.33452 0.13
4 1 2 2 o 2.775 2.458 180.00 1.31111 0.00
4 0 3 1 o 173.880 178.836 0.00 1.29132 0.27
4 2 -2 1 o 8.584 10.233 180.00 1.34198 0.02
2 1 6 1 o 33.463 31.322 180.00 1.32365 0.04
2 2 5 2 o 488.973 441.315 0.00 1.34099 0.32
2 3 -6 1 o 273.641 259.113 180.00 1.32247 0.37
2 -1 -8 1 o 4.102 4.524 0.00 1.28744 0.01
2 4 0 1 o 33.258 29.970 180.00 1.32809 0.06
3 -2 5 1 o 0.335 0.514 180.00 1.27420 0.00
1 1 -8 1 o 199.935 194.340 0.00 1.33662 0.23
3 3 -4 1 o 37.704 35.727 0.00 1.33609 0.06
3 3 1 1 o 189.767 173.173 0.00 1.32727 0.29
3 -3 4 1 o 34.496 37.455 0.00 1.27289 0.06
2 4 -3 1 o 317.482 306.030 180.00 1.31689 0.50
1 -1 -8 1 o 3.386 2.739 180.00 1.30701 0.01
4 2 -1 2 o 78.407 71.833 180.00 1.33452 0.06
0 2 7 1 o 90.485 86.710 180.00 1.31619 0.10
4 2 -2 2 o 11.639 10.233 180.00 1.34198 0.01
4 0 3 2 o 162.545 178.836 0.00 1.29132 0.12
2 1 6 2 o 32.511 31.322 180.00 1.32365 0.02
3 -2 -7 1 o 41.202 44.491 180.00 1.25647 0.05
2 3 -6 2 o 269.615 259.113 180.00 1.32247 0.18
1 3 5 1 o 288.923 275.098 180.00 1.32170 0.36
2 -1 -8 2 o 4.034 4.524 0.00 1.28744 0.00
0 4 4 1 o 352.313 315.382 0.00 1.30123 0.47
4 -3 -2 1 o 87.409 83.726 180.00 1.31281 0.15
2 4 0 2 o 31.160 29.970 180.00 1.32809 0.03
1 1 -8 2 o 213.999 194.340 0.00 1.33662 0.12
3 -2 5 2 o 0.310 0.514 180.00 1.27420 0.00
3 3 -4 2 o 39.674 35.727 0.00 1.33609 0.03
3 3 1 2 o 179.523 173.173 0.00 1.32727 0.13
1 4 -5 1 o 115.946 126.260 0.00 1.28849 0.18
2 4 -3 2 o 342.878 306.030 180.00 1.31689 0.26
3 -3 4 2 o 34.011 37.455 0.00 1.27289 0.03
1 -1 -8 2 o 3.223 2.739 180.00 1.30701 0.00
0 2 7 2 o 97.896 86.710 180.00 1.31619 0.05
4 2 0 1 o 179.489 154.766 180.00 1.30661 0.27
3 -2 -7 2 o 42.626 44.491 180.00 1.25647 0.02
1 3 5 2 o 286.419 275.098 180.00 1.32170 0.18
0 3 6 1 o 34.950 34.207 0.00 1.29407 0.04
0 4 4 2 o 316.332 315.382 0.00 1.30123 0.21
1 1 7 1 o 337.881 306.223 0.00 1.32779 0.39
4 -3 -2 2 o 97.039 83.726 180.00 1.31281 0.08
4 2 -3 1 o 354.865 322.004 180.00 1.32793 0.52
3 -4 -2 1 o 637.747 547.670 0.00 1.30378 1.13
2 1 -8 1 o 3.665 3.239 180.00 1.30154 0.00
1 4 -5 2 o 114.183 126.260 0.00 1.28849 0.09
4 -3 -1 1 o 55.683 53.854 0.00 1.31936 0.11
0 1 -8 1 o 49.573 44.367 180.00 1.30935 0.06
1 -4 5 1 o 64.255 71.190 180.00 1.26702 0.12
4 2 0 2 o 171.849 154.766 180.00 1.30661 0.13
4 -3 -3 2 o 4.231 4.827 0.00 1.28671 0.01
0 3 6 2 o 30.514 34.207 0.00 1.29407 0.02
4 -2 3 1 o 5.728 6.133 0.00 1.25319 0.01
3 -4 -1 1 o 431.975 419.705 0.00 1.32103 0.83
1 1 7 2 o 315.661 306.223 0.00 1.32779 0.18
4 -3 -3 1 o 4.123 4.827 0.00 1.28671 0.01
4 2 -3 2 o 332.850 322.004 180.00 1.32793 0.24
3 -4 -2 2 o 588.642 547.670 0.00 1.30378 0.52
2 1 -8 2 o 3.283 3.239 180.00 1.30154 0.00
4 -3 -1 2 o 57.168 53.854 0.00 1.31936 0.06
2 -4 4 1 o 12.884 14.123 180.00 1.26125 0.02
0 1 -8 2 o 50.869 44.367 180.00 1.30935 0.03
1 4 3 1 o 162.436 145.188 180.00 1.30008 0.21
3 -3 -6 1 o 113.068 114.342 0.00 1.23493 0.13
1 -4 5 2 o 64.890 71.190 180.00 1.26702 0.06
0 3 -7 1 o 210.959 232.116 0.00 1.26899 0.30
4 -2 3 2 o 6.014 6.133 0.00 1.25319 0.01
3 -4 -1 2 o 422.150 419.705 0.00 1.32103 0.40
3 -4 -3 1 o 53.681 59.855 0.00 1.26839 0.09
4 -3 0 1 o 971.852 804.436 0.00 1.30548 1.83
0 0 8 1 o 193.173 189.852 0.00 1.31654 0.21
3 -4 1 1 o 72.641 68.357 0.00 1.29468 0.15
2 -4 4 2 o 13.213 14.123 180.00 1.26125 0.01
1 4 3 2 o 140.583 145.188 180.00 1.30008 0.09
1 3 -7 1 o 161.853 176.251 180.00 1.27288 0.21
3 -3 -6 2 o 113.804 114.342 0.00 1.23493 0.06
3 -4 0 1 o 33.628 32.160 0.00 1.31785 0.08
0 3 -7 2 o 209.682 232.116 0.00 1.26899 0.15
3 -4 -3 2 o 53.527 59.855 0.00 1.26839 0.05
4 -3 0 2 o 903.714 804.436 0.00 1.30548 0.84
4 -2 -6 1 o 31.198 31.048 0.00 1.22450 0.03
0 0 8 2 o 226.768 189.852 0.00 1.31654 0.12
3 1 5 1 o 171.470 187.304 180.00 1.25765 0.22
4 2 -4 1 o 188.768 177.910 180.00 1.29431 0.26
3 -4 1 2 o 57.324 68.357 0.00 1.29468 0.06
4 1 -6 1 o 158.562 177.672 0.00 1.26669 0.19
2 4 1 1 o 329.403 356.085 180.00 1.29124 0.48
2 -1 7 1 o 632.389 640.008 0.00 1.24440 0.78
1 3 -7 2 o 156.882 176.251 180.00 1.27288 0.10
2 4 -4 1 o 698.567 758.269 180.00 1.27419 1.00
4 -3 -4 1 o 284.743 288.729 0.00 1.24436 0.41
3 -4 0 2 o 36.324 32.160 0.00 1.31785 0.04
1 -4 -5 1 o 191.946 193.947 180.00 1.24276 0.23
4 -3 1 2 o 321.677 364.494 0.00 1.27301 0.30
4 -3 1 1 o 335.005 364.494 0.00 1.27301 0.63
4 2 1 1 o 8.753 10.049 180.00 1.26186 0.01
3 0 -8 1 o 124.736 125.911 0.00 1.24062 0.12
4 -2 -6 2 o 33.231 31.048 0.00 1.22450 0.02
4 2 -4 2 o 145.115 177.910 180.00 1.29431 0.10
3 1 5 2 o 177.220 187.304 180.00 1.25765 0.11
2 3 4 1 o 80.719 96.996 0.00 1.28492 0.10
3 3 -5 1 o 1.740 2.134 0.00 1.27747 0.01
4 1 -6 2 o 161.009 177.672 0.00 1.26669 0.09
2 4 1 2 o 300.716 356.085 180.00 1.29124 0.22
3 2 4 1 o 3.414 3.705 0.00 1.25747 0.00
2 -1 7 2 o 632.712 640.008 0.00 1.24440 0.38
2 4 -4 2 o 674.460 758.269 180.00 1.27419 0.48
1 2 -8 1 o 84.042 94.410 0.00 1.26651 0.09
2 -3 6 1 o 9.701 9.694 180.00 1.22468 0.02
4 -3 -4 2 o 285.322 288.729 0.00 1.24436 0.20
1 -4 -5 2 o 191.199 193.947 180.00 1.24276 0.11
2 -4 -5 1 o 14.502 14.432 180.00 1.22371 0.02
4 2 1 2 o 9.113 10.049 180.00 1.26186 0.01
4 1 3 1 o 1.544 1.602 0.00 1.23309 0.00
3 -4 2 1 o 292.266 317.302 0.00 1.25450 0.53
3 0 -8 2 o 123.641 125.911 0.00 1.24062 0.06
3 -1 -8 2 o 150.598 135.242 180.00 1.21681 0.06
2 3 4 2 o 89.055 96.996 0.00 1.28492 0.05
3 3 -5 2 o 1.683 2.134 0.00 1.27747 0.00
2 0 7 1 o 82.078 82.459 180.00 1.24066 0.10
3 2 4 2 o 3.509 3.705 0.00 1.25747 0.00
3 3 2 1 o 76.821 87.937 0.00 1.26670 0.11
1 2 -8 2 o 85.831 94.410 0.00 1.26651 0.05
0 2 -8 1 o 566.780 597.405 180.00 1.24936 0.65
2 -3 6 2 o 10.619 9.694 180.00 1.22468 0.01
3 -1 -8 1 o 144.785 135.242 180.00 1.21681 0.12
2 -4 -5 2 o 15.657 14.432 180.00 1.22371 0.01
0 5 -1 1 o 47.707 52.328 180.00 1.25527 0.08
4 1 3 2 o 1.550 1.602 0.00 1.23309 0.00
2 -3 -7 1 o 51.149 45.991 180.00 1.20196 0.05
3 -4 2 2 o 310.834 317.302 0.00 1.25450 0.28
1 -3 7 1 o 207.793 187.728 180.00 1.21365 0.26
4 -1 -7 1 o 20.479 18.213 180.00 1.20171 0.02
0 5 0 1 o 2.673 2.953 0.00 1.25235 0.00
1 -5 1 1 o 165.126 180.480 0.00 1.25274 0.27
0 1 8 1 o 7.021 7.844 0.00 1.26837 0.01
2 0 7 2 o 80.444 82.459 180.00 1.24066 0.05
4 -1 4 1 o 438.234 389.742 180.00 1.21099 0.62
3 3 2 2 o 78.741 87.937 0.00 1.26670 0.05
0 2 -8 2 o 595.872 597.405 180.00 1.24936 0.34
0 5 -2 1 o 37.318 37.506 180.00 1.24062 0.07
4 0 -7 2 o 24.723 22.035 180.00 1.21670 0.01
5 -1 -2 1 o 161.827 172.092 0.00 1.24971 0.24
1 -5 0 1 o 30.904 33.646 0.00 1.25685 0.05
5 0 -1 1 o 230.054 231.186 180.00 1.24017 0.34
3 -4 -4 1 o 25.942 24.503 0.00 1.21906 0.04
0 5 -1 2 o 50.874 52.328 180.00 1.25527 0.04
2 -2 -8 1 o 94.912 84.675 0.00 1.20707 0.08
3 2 -7 1 o 20.514 21.109 180.00 1.24775 0.02
5 0 -2 1 o 24.797 26.010 180.00 1.24841 0.04
1 -2 -8 1 o 394.484 367.235 0.00 1.21741 0.33
2 -3 -7 2 o 49.805 45.991 180.00 1.20196 0.02
1 -3 7 2 o 210.250 187.728 180.00 1.21365 0.13
0 4 -6 1 o 9.674 9.029 180.00 1.21703 0.01
5 -1 -3 1 o 18.680 18.844 180.00 1.23828 0.03
4 -1 -7 2 o 19.883 18.213 180.00 1.20171 0.01
4 0 -7 1 o 23.702 22.035 180.00 1.21670 0.02
3 -1 6 1 o 191.893 171.788 180.00 1.20519 0.23
0 1 8 2 o 6.989 7.844 0.00 1.26837 0.00
0 5 0 2 o 2.983 2.953 0.00 1.25235 0.00
1 -5 1 2 o 181.113 180.480 0.00 1.25274 0.15
4 -3 2 1 o 0.034 0.063 0.00 1.22590 0.00
4 -1 4 2 o 435.019 389.742 180.00 1.21099 0.30
1 -5 -1 1 o 25.200 24.896 0.00 1.24331 0.04
4 0 4 1 o 236.274 212.535 180.00 1.20275 0.30
5 -1 -1 1 o 107.926 107.550 0.00 1.24374 0.16
1 -3 -7 1 o 63.386 57.180 180.00 1.21287 0.06
0 5 -2 2 o 36.481 37.506 180.00 1.24062 0.03
2 -2 7 1 o 187.727 169.674 0.00 1.20136 0.23
1 -5 0 2 o 31.871 33.646 0.00 1.25685 0.03
5 -1 -2 2 o 172.649 172.092 0.00 1.24971 0.13
5 0 -1 2 o 224.624 231.186 180.00 1.24017 0.17
1 -5 2 1 o 41.590 42.831 0.00 1.23147 0.07
3 -4 -4 2 o 28.120 24.503 0.00 1.21906 0.02
3 2 -7 2 o 21.045 21.109 180.00 1.24775 0.01
5 0 -2 2 o 25.981 26.010 180.00 1.24841 0.02
2 -2 -8 2 o 93.020 84.675 0.00 1.20707 0.04
1 -2 -8 2 o 417.097 367.235 0.00 1.21741 0.17
1 -1 8 1 o 85.885 88.494 0.00 1.22999 0.09
0 4 -6 2 o 10.135 9.029 180.00 1.21703 0.01
5 -1 -3 2 o 18.281 18.844 180.00 1.23828 0.01
5 0 -3 1 o 43.142 43.422 180.00 1.23929 0.07
3 -1 6 2 o 187.155 171.788 180.00 1.20519 0.11
4 2 -5 1 o 219.811 216.429 180.00 1.24534 0.26
4 -3 2 2 o 0.147 0.063 0.00 1.22590 0.00
1 -5 -1 2 o 24.652 24.896 0.00 1.24331 0.02
3 -3 5 1 o 36.980 36.435 0.00 1.18470 0.05
3 1 -8 1 o 27.516 25.053 180.00 1.21712 0.03
5 -1 -1 2 o 106.382 107.550 0.00 1.24374 0.08
4 0 4 2 o 229.992 212.535 180.00 1.20275 0.14
1 -3 -7 2 o 63.726 57.180 180.00 1.21287 0.03
2 -2 7 2 o 182.962 169.674 0.00 1.20136 0.11
1 -5 2 2 o 41.881 42.831 0.00 1.23147 0.03
0 5 1 1 o 208.308 216.047 180.00 1.23224 0.31
1 -1 8 2 o 87.735 88.494 0.00 1.22999 0.04
5 0 -3 2 o 41.863 43.422 180.00 1.23929 0.03
1 0 8 1 o 6.080 6.401 180.00 1.23002 0.01
3 -4 3 1 o 11.612 10.103 0.00 1.20188 0.02
4 2 -5 2 o 214.878 216.429 180.00 1.24534 0.13
4 -3 -5 1 o 7.978 7.368 0.00 1.19043 0.01
5 -1 0 1 o 0.308 0.302 0.00 1.22111 0.00
0 5 -3 1 o 110.687 95.539 180.00 1.21017 0.17
5 -1 -4 1 o 7.559 6.614 180.00 1.21084 0.01
2 4 -5 1 o 142.713 134.446 180.00 1.21874 0.19
3 1 -8 2 o 29.442 25.053 180.00 1.21712 0.01
3 -3 5 2 o 36.463 36.435 0.00 1.18470 0.03
1 4 -6 1 o 5.583 4.936 180.00 1.20842 0.01
3 0 6 1 o 6.243 5.494 0.00 1.19839 0.01
2 4 2 1 o 354.088 355.934 180.00 1.23975 0.45
0 5 1 2 o 206.087 216.047 180.00 1.23224 0.15
2 3 -7 1 o 47.245 48.687 0.00 1.22393 0.05
5 0 0 1 o 111.271 99.293 180.00 1.21557 0.16
0 4 5 2 o 86.593 77.190 180.00 1.21152 0.04
2 2 -8 1 o 2.891 3.088 0.00 1.23060 0.00
1 -5 -2 1 o 49.603 43.148 180.00 1.21375 0.07
1 0 8 2 o 6.105 6.401 180.00 1.23002 0.00
3 -4 3 2 o 11.215 10.103 0.00 1.20188 0.01
5 0 -4 1 o 593.960 520.942 180.00 1.21391 0.74
2 -4 5 1 o 0.155 0.154 0.00 1.18310 0.00
5 -1 0 2 o 0.362 0.302 0.00 1.22111 0.00
4 -3 -5 2 o 7.438 7.368 0.00 1.19043 0.01
0 5 -3 2 o 107.971 95.539 180.00 1.21017 0.08
0 4 5 1 o 87.907 77.190 180.00 1.21152 0.09
5 -1 -4 2 o 7.421 6.614 180.00 1.21084 0.00
2 4 -5 2 o 156.770 134.446 180.00 1.21874 0.10
1 4 -6 2 o 5.443 4.936 180.00 1.20842 0.00
3 0 6 2 o 6.032 5.494 0.00 1.19839 0.00
3 -2 6 1 o 130.976 127.616 180.00 1.16909 0.17
2 4 2 2 o 339.825 355.934 180.00 1.23975 0.21
4 -2 4 2 o 151.856 147.646 180.00 1.17563 0.10
1 -4 6 1 o 17.791 17.821 180.00 1.17882 0.03
2 3 -7 2 o 53.819 48.687 0.00 1.22393 0.03
5 0 0 2 o 115.610 99.293 180.00 1.21557 0.08
2 2 -8 2 o 2.914 3.088 0.00 1.23060 0.00
1 -5 -2 2 o 49.740 43.148 180.00 1.21375 0.03
5 0 -4 2 o 599.093 520.942 180.00 1.21391 0.37
4 2 2 1 o 485.234 424.944 180.00 1.20531 0.59
2 -4 5 2 o 0.155 0.154 0.00 1.18310 0.00
4 -2 4 1 o 147.943 147.646 180.00 1.17563 0.20
1 -5 3 1 o 97.165 89.273 180.00 1.19555 0.15
1 4 4 1 o 57.136 55.905 0.00 1.22038 0.07
1 -2 8 1 o 0.713 0.706 180.00 1.18509 0.00
3 -2 6 2 o 134.293 127.616 180.00 1.16909 0.09
2 2 6 1 o 74.693 68.146 0.00 1.21781 0.08
1 -4 6 2 o 18.096 17.821 180.00 1.17882 0.01
1 5 -2 1 o 64.740 57.905 0.00 1.20023 0.09
3 -3 -7 1 o 0.029 0.027 180.00 1.14804 0.00
1 5 -1 1 o 64.672 55.300 0.00 1.20717 0.09
4 -2 -7 1 o 3.849 3.689 0.00 1.14675 0.00
4 2 2 2 o 466.727 424.944 180.00 1.20531 0.28
3 -2 -8 2 o 24.430 23.453 0.00 1.15310 0.01
1 4 4 2 o 65.474 55.905 0.00 1.22038 0.04
1 -5 3 2 o 92.820 89.273 180.00 1.19555 0.07
1 -2 8 2 o 0.696 0.706 180.00 1.18509 0.00
4 1 -7 1 o 17.875 17.408 0.00 1.18715 0.02
1 2 7 1 o 58.809 62.228 180.00 1.22462 0.05
2 0 -9 1 o 380.499 374.314 180.00 1.18651 0.30
2 2 6 2 o 82.321 68.146 0.00 1.21781 0.04
5 -2 -2 1 o 101.323 88.507 0.00 1.20388 0.15
2 -5 0 1 o 97.956 80.256 0.00 1.21034 0.16
3 3 -6 1 o 266.879 223.414 0.00 1.20966 0.30
1 5 -2 2 o 63.533 57.905 0.00 1.20023 0.04
3 -2 -8 1 o 24.449 23.453 0.00 1.15310 0.02
1 0 -9 1 o 87.226 77.619 180.00 1.20109 0.07
5 -1 1 1 o 69.269 69.429 0.00 1.18440 0.10
3 -3 -7 2 o 0.029 0.027 180.00 1.14804 0.00
1 3 6 1 o 396.803 339.053 180.00 1.20744 0.38
1 5 -1 2 o 61.765 55.300 0.00 1.20717 0.04
2 -5 1 1 o 404.504 359.981 0.00 1.20046 0.64
5 1 -2 1 o 71.959 64.262 0.00 1.20041 0.09
5 -2 -1 1 o 100.926 89.309 0.00 1.20061 0.16
4 -2 -7 2 o 3.831 3.689 0.00 1.14675 0.00
1 5 0 1 o 22.717 20.766 180.00 1.19841 0.03
5 -2 -3 1 o 117.992 108.144 0.00 1.19163 0.17
3 3 3 1 o 0.351 0.202 0.00 1.19793 0.00
4 -3 3 2 o 41.037 38.848 0.00 1.16899 0.03
0 5 2 1 o 292.929 267.489 180.00 1.19729 0.38
3 -4 -5 1 o 164.099 156.034 0.00 1.16072 0.19
4 1 -7 2 o 17.132 17.408 0.00 1.18715 0.01
1 2 7 2 o 69.037 62.228 180.00 1.22462 0.03
5 -1 -5 1 o 5.565 5.489 180.00 1.17041 0.01
2 0 -9 2 o 369.395 374.314 180.00 1.18651 0.14
2 -5 -1 1 o 3.973 3.474 180.00 1.20441 0.01
5 -2 -2 2 o 96.836 88.507 0.00 1.20388 0.07
4 -3 3 1 o 39.840 38.848 0.00 1.16899 0.06
2 -5 0 2 o 92.501 80.256 0.00 1.21034 0.08
3 3 -6 2 o 254.502 223.414 0.00 1.20966 0.14
0 5 -4 1 o 733.606 707.212 180.00 1.16725 1.00
5 0 1 1 o 151.917 153.603 180.00 1.17739 0.21
5 1 -3 1 o 2.635 2.415 180.00 1.19433 0.00
1 0 -9 2 o 85.215 77.619 180.00 1.20109 0.03
5 -1 1 2 o 68.714 69.429 0.00 1.18440 0.05
2 -4 -6 1 o 18.983 18.105 180.00 1.14535 0.02
1 3 6 2 o 379.155 339.053 180.00 1.20744 0.18
2 -5 1 2 o 398.927 359.981 0.00 1.20046 0.31
5 1 -2 2 o 70.895 64.262 0.00 1.20041 0.04
5 -2 -1 2 o 99.035 89.309 0.00 1.20061 0.08
5 0 -5 1 o 242.234 244.151 180.00 1.17513 0.27
2 1 7 1 o 53.313 48.261 180.00 1.19134 0.05
1 5 0 2 o 22.813 20.766 180.00 1.19841 0.01
5 -2 -3 2 o 106.777 108.144 0.00 1.19163 0.07
2 -5 -2 1 o 45.720 46.986 0.00 1.18333 0.07
3 3 3 2 o 0.352 0.202 0.00 1.19793 0.00
5 -2 -4 1 o 42.083 39.868 0.00 1.16521 0.06
5 1 -1 1 o 44.480 40.902 180.00 1.19105 0.05
0 5 2 2 o 289.543 267.489 180.00 1.19729 0.19
3 -4 -5 2 o 163.896 156.034 0.00 1.16072 0.09
5 -2 0 1 o 46.361 47.499 0.00 1.18219 0.07
2 -5 -1 2 o 3.771 3.474 180.00 1.20441 0.00
5 -1 -5 2 o 5.773 5.489 180.00 1.17041 0.00
1 -5 -3 1 o 34.946 34.871 180.00 1.17144 0.04
1 5 -3 2 o 17.279 17.206 0.00 1.17838 0.01
1 5 -3 1 o 16.921 17.206 0.00 1.17838 0.02
0 5 -4 2 o 747.087 707.212 180.00 1.16725 0.50
3 4 -2 1 o 5.630 5.123 0.00 1.19370 0.01
5 0 1 2 o 155.882 153.603 180.00 1.17739 0.10
5 1 -3 2 o 2.431 2.415 180.00 1.19433 0.00
4 2 -6 1 o 136.210 137.707 180.00 1.18620 0.14
0 3 7 1 o 27.941 28.246 180.00 1.17727 0.02
2 -4 -6 2 o 18.810 18.105 180.00 1.14535 0.01
2 -1 -9 1 o 42.096 40.038 180.00 1.15878 0.03
1 -4 -6 2 o 51.672 49.185 180.00 1.15540 0.03
1 1 -9 1 o 102.074 90.320 0.00 1.19227 0.09
2 1 7 2 o 46.843 48.261 180.00 1.19134 0.02
5 0 -5 2 o 252.657 244.151 180.00 1.17513 0.14
2 -5 -2 2 o 46.154 46.986 0.00 1.18333 0.03
2 -5 2 1 o 88.981 90.272 0.00 1.17588 0.14
3 4 -1 1 o 98.828 88.807 0.00 1.19041 0.12
5 -2 -4 2 o 42.460 39.868 0.00 1.16521 0.03
5 1 -1 2 o 40.035 40.902 180.00 1.19105 0.02
1 -4 -6 1 o 51.990 49.185 180.00 1.15540 0.05
5 -2 0 2 o 46.900 47.499 0.00 1.18219 0.04
0 3 -8 1 o 356.080 336.772 0.00 1.15545 0.38
1 -5 -3 2 o 36.915 34.871 180.00 1.17144 0.02
0 2 8 1 o 266.173 271.540 180.00 1.18076 0.22
4 1 4 1 o 171.170 162.510 0.00 1.15343 0.20
3 4 -2 2 o 5.035 5.123 0.00 1.19370 0.00
4 2 -6 2 o 134.349 137.707 180.00 1.18620 0.07
4 3 -2 1 o 12.010 10.543 180.00 1.19241 0.01
0 3 7 2 o 28.629 28.246 180.00 1.17727 0.01
4 3 -1 1 o 8.681 9.006 0.00 1.18518 0.01
2 -1 -9 2 o 41.846 40.038 180.00 1.15878 0.01
1 1 -9 2 o 86.144 90.320 0.00 1.19227 0.04
3 -4 4 1 o 36.247 34.399 180.00 1.14171 0.05
3 4 -1 2 o 84.968 88.807 0.00 1.19041 0.05
2 -5 2 2 o 92.795 90.272 0.00 1.17588 0.07
4 -3 -6 1 o 17.692 17.956 0.00 1.12973 0.02
1 5 1 1 o 149.977 152.746 0.00 1.17493 0.19
1 -1 -9 1 o 13.420 12.790 180.00 1.16729 0.01
3 4 -3 1 o 20.929 21.670 180.00 1.18185 0.02
5 1 0 1 o 32.622 31.311 0.00 1.16730 0.04
2 3 5 1 o 0.267 0.256 0.00 1.18826 0.00
1 -5 4 1 o 8.176 7.815 180.00 1.14868 0.01
0 3 -8 2 o 353.159 336.772 0.00 1.15545 0.19
0 2 8 2 o 269.261 271.540 180.00 1.18076 0.11
5 1 -4 1 o 0.025 0.027 180.00 1.17349 0.00
2 1 -9 1 o 4.239 4.277 180.00 1.17287 0.00
4 1 4 2 o 170.969 162.510 0.00 1.15343 0.10
1 3 -8 1 o 41.922 39.446 180.00 1.16396 0.05
4 -1 5 1 o 75.730 77.654 180.00 1.12572 0.09
4 3 -2 2 o 9.931 10.543 180.00 1.19241 0.01
3 2 5 1 o 11.798 11.174 0.00 1.16272 0.01
4 3 -1 2 o 8.772 9.006 0.00 1.18518 0.00
2 -3 7 1 o 62.033 63.821 0.00 1.12439 0.07
3 -4 4 2 o 34.828 34.399 180.00 1.14171 0.02
1 5 1 2 o 159.572 152.746 0.00 1.17493 0.10
1 -1 -9 2 o 13.698 12.790 180.00 1.16729 0.01
4 -3 -6 2 o 17.062 17.956 0.00 1.12973 0.01
3 4 -3 2 o 21.272 21.670 180.00 1.18185 0.01
2 3 5 2 o 0.248 0.256 0.00 1.18826 0.00
5 1 0 2 o 33.173 31.311 0.00 1.16730 0.02
3 1 6 1 o 0.680 0.622 180.00 1.15075 0.00
1 -5 4 2 o 8.288 7.815 180.00 1.14868 0.01
5 -2 1 1 o 260.993 249.443 0.00 1.15060 0.36
1 1 8 1 o 277.780 301.515 0.00 1.18516 0.25
2 4 3 1 o 310.324 319.868 180.00 1.17891 0.34
5 1 -4 2 o 0.037 0.027 180.00 1.17349 0.00
3 4 0 1 o 1.958 1.996 180.00 1.17234 0.00
4 0 -8 1 o 131.334 132.846 0.00 1.13064 0.11
2 -5 -3 1 o 112.133 107.001 0.00 1.14939 0.14
2 1 -9 2 o 4.527 4.277 180.00 1.17287 0.00
4 3 -3 1 o 62.044 66.803 180.00 1.18451 0.07
1 3 -8 2 o 42.030 39.446 180.00 1.16396 0.02
4 -1 5 2 o 70.986 77.654 180.00 1.12572 0.04
2 4 -6 1 o 35.537 33.377 180.00 1.15578 0.04
3 2 5 2 o 11.808 11.174 0.00 1.16272 0.01
4 -4 -2 1 o 198.179 185.108 180.00 1.16386 0.28
2 -3 7 2 o 57.905 63.821 0.00 1.12439 0.03
5 -1 2 1 o 8.601 8.272 0.00 1.13731 0.01
4 -1 -8 1 o 293.769 328.269 180.00 1.11691 0.24
5 -2 -5 1 o 227.488 231.988 0.00 1.12734 0.25
1 5 -4 1 o 0.798 0.750 180.00 1.14394 0.00
3 1 6 2 o 0.702 0.622 180.00 1.15075 0.00
0 1 -9 1 o 130.738 123.556 180.00 1.16710 0.11
0 5 3 1 o 94.216 90.084 180.00 1.15115 0.11
4 -4 -3 1 o 33.791 31.686 180.00 1.14376 0.04
3 0 -9 2 o 163.256 167.627 0.00 1.13111 0.06
1 1 8 2 o 290.285 301.515 0.00 1.18516 0.13
2 4 3 2 o 312.912 319.868 180.00 1.17891 0.17
5 -2 1 2 o 265.595 249.443 0.00 1.15060 0.18
3 4 0 2 o 2.155 1.996 180.00 1.17234 0.00
4 2 3 1 o 412.405 383.875 180.00 1.14208 0.44
2 -5 -3 2 o 114.937 107.001 0.00 1.14939 0.07
0 4 -7 2 o 215.644 222.611 0.00 1.13028 0.12
4 3 -3 2 o 64.352 66.803 180.00 1.18451 0.04
4 0 -8 2 o 128.660 132.846 0.00 1.13064 0.05
4 3 0 1 o 48.521 45.510 0.00 1.16360 0.05
4 3 0 2 o 48.574 45.510 0.00 1.16360 0.03
2 4 -6 2 o 35.054 33.377 180.00 1.15578 0.02
3 4 -4 1 o 72.094 67.423 180.00 1.15616 0.08
3 0 -9 1 o 165.808 167.627 0.00 1.13111 0.12
3 -1 -9 1 o 38.446 45.954 0.00 1.11133 0.03
4 -4 -2 2 o 198.230 185.108 180.00 1.16386 0.14
0 4 -7 1 o 219.519 222.611 0.00 1.13028 0.25
2 -5 3 1 o 92.767 87.138 0.00 1.13919 0.14
5 -1 -6 1 o 7.650 8.090 180.00 1.12087 0.01
5 -1 2 2 o 8.149 8.272 0.00 1.13731 0.01
4 -1 -8 2 o 277.228 328.269 180.00 1.11691 0.11
5 -2 -5 2 o 217.660 231.988 0.00 1.12734 0.12
5 0 2 1 o 188.985 192.262 180.00 1.12937 0.23
3 2 -8 1 o 3.542 3.346 180.00 1.15364 0.00
1 5 -4 2 o 0.780 0.750 180.00 1.14394 0.00
0 1 -9 2 o 131.052 123.556 180.00 1.16710 0.06
0 5 3 2 o 96.046 90.084 180.00 1.15115 0.05
4 -4 -3 2 o 32.945 31.686 180.00 1.14376 0.02
4 0 5 1 o 47.884 53.346 0.00 1.11742 0.05
4 2 3 2 o 390.139 383.875 180.00 1.14208 0.20
5 0 -6 1 o 118.102 120.350 180.00 1.12672 0.12
4 -3 4 1 o 27.713 33.246 0.00 1.10690 0.04
2 -4 6 1 o 1.573 1.858 0.00 1.10549 0.00
3 4 -4 2 o 70.520 67.423 180.00 1.15616 0.04
3 -1 -9 2 o 39.050 45.954 0.00 1.11133 0.01
2 -3 -8 1 o 75.453 88.541 180.00 1.10408 0.06
2 -1 8 1 o 216.742 222.906 0.00 1.12308 0.21
2 -5 3 2 o 86.381 87.138 0.00 1.13919 0.06
5 -1 -6 2 o 6.922 8.090 180.00 1.12087 0.00
5 1 -5 1 o 50.237 46.053 0.00 1.14011 0.05
5 1 1 1 o 106.499 107.792 0.00 1.13162 0.12
5 0 2 2 o 185.300 192.262 180.00 1.12937 0.11
0 0 9 1 o 0.397 0.446 180.00 1.17026 0.00
3 2 -8 2 o 3.517 3.346 180.00 1.15364 0.00
3 -1 7 1 o 145.309 169.150 0.00 1.10121 0.15
1 4 -7 1 o 14.453 14.740 0.00 1.12845 0.02
4 0 5 2 o 44.333 53.346 0.00 1.11742 0.02
3 -3 6 1 o 5.221 6.071 0.00 1.10041 0.01
4 3 -4 1 o 151.817 142.345 180.00 1.16234 0.16
5 0 -6 2 o 112.131 120.350 180.00 1.12672 0.05
1 2 -9 1 o 52.686 48.961 180.00 1.14350 0.05
4 -3 4 2 o 28.256 33.246 0.00 1.10690 0.02
2 -4 6 2 o 1.604 1.858 0.00 1.10549 0.00
1 -3 8 1 o 70.046 83.785 0.00 1.10833 0.07
4 -2 5 1 o 24.505 28.058 180.00 1.09873 0.03
1 -3 -8 1 o 272.954 324.611 0.00 1.10765 0.20
4 -4 -1 1 o 174.486 192.344 0.00 1.17033 0.24
2 -2 -9 1 o 31.930 36.104 180.00 1.09756 0.02
3 -4 -6 1 o 54.307 62.609 0.00 1.09789 0.06
0 4 6 1 o 261.355 265.705 0.00 1.12506 0.23
2 -3 -8 2 o 77.482 88.541 180.00 1.10408 0.03
1 4 5 1 o 184.561 168.473 0.00 1.14015 0.17
2 -1 8 2 o 194.269 222.906 0.00 1.12308 0.09
0 5 -5 1 o 227.291 261.267 180.00 1.11586 0.28
5 1 -5 2 o 45.722 46.053 0.00 1.14011 0.02
4 -4 1 1 o 36.207 32.685 180.00 1.14116 0.05
5 1 1 2 o 106.172 107.792 0.00 1.13162 0.06
1 5 2 1 o 69.149 62.517 0.00 1.13922 0.08
0 0 9 2 o 0.530 0.446 180.00 1.17026 0.00
3 3 -7 1 o 29.083 26.753 0.00 1.13809 0.03
4 -4 0 1 o 37.974 35.677 180.00 1.16249 0.06
3 -1 7 2 o 154.049 169.150 0.00 1.10121 0.08
1 4 -7 2 o 14.066 14.740 0.00 1.12845 0.01
4 3 -4 2 o 154.169 142.345 180.00 1.16234 0.08
3 -3 6 2 o 5.530 6.071 0.00 1.10041 0.00
1 2 -9 2 o 50.916 48.961 180.00 1.14350 0.02
1 -5 -4 1 o 35.216 37.202 0.00 1.12037 0.04
4 -4 -4 1 o 23.380 28.020 0.00 1.11206 0.03
3 4 1 1 o 7.726 6.913 0.00 1.14143 0.01
1 -3 8 2 o 71.745 83.785 0.00 1.10833 0.04
4 -4 -1 2 o 203.687 192.344 0.00 1.17033 0.14
4 -2 5 2 o 26.085 28.058 180.00 1.09873 0.01
1 -3 -8 2 o 278.625 324.611 0.00 1.10765 0.10
2 0 8 1 o 55.716 60.677 180.00 1.11864 0.05
0 4 6 2 o 241.093 265.705 0.00 1.12506 0.11
2 -2 -9 2 o 33.836 36.104 180.00 1.09756 0.01
3 -4 -6 2 o 57.631 62.609 0.00 1.09789 0.03
1 4 5 2 o 167.130 168.473 0.00 1.14015 0.08
0 5 -5 2 o 216.217 261.267 180.00 1.11586 0.13
0 2 -9 1 o 153.721 154.979 180.00 1.12572 0.14
4 -4 1 2 o 32.737 32.685 180.00 1.14116 0.02
1 5 2 2 o 61.070 62.517 0.00 1.13922 0.03
4 1 -8 1 o 4.109 4.948 180.00 1.10844 0.00
5 -2 2 1 o 97.137 118.125 0.00 1.10892 0.13
2 3 -8 1 o 46.754 47.747 180.00 1.13130 0.04
4 -4 0 2 o 39.283 35.677 180.00 1.16249 0.03
3 3 -7 2 o 25.957 26.753 0.00 1.13809 0.01
2 5 -2 1 o 43.109 43.210 0.00 1.12312 0.05
1 -4 7 2 o 188.707 202.937 180.00 1.09477 0.10
4 3 1 1 o 74.518 76.427 180.00 1.12993 0.08
3 1 -9 1 o 100.471 120.156 180.00 1.11487 0.08
2 -5 -4 1 o 6.962 8.608 0.00 1.10581 0.01
1 -5 -4 2 o 31.007 37.202 0.00 1.12037 0.02
4 -4 -4 2 o 24.030 28.020 0.00 1.11206 0.01
3 4 1 2 o 6.914 6.913 0.00 1.14143 0.00
1 -5 5 1 o 24.819 27.417 0.00 1.09490 0.03
1 -4 7 1 o 183.237 202.937 180.00 1.09477 0.21
3 0 7 1 o 38.469 41.760 180.00 1.09444 0.03
2 0 8 2 o 47.800 60.677 180.00 1.11864 0.02
3 3 4 1 o 135.988 136.429 180.00 1.12617 0.12
0 2 -9 2 o 142.796 154.979 180.00 1.12572 0.06
2 -2 8 1 o 21.627 23.146 180.00 1.09269 0.02
4 1 -8 2 o 4.236 4.948 180.00 1.10844 0.00
5 -2 2 2 o 100.372 118.125 0.00 1.10892 0.07
1 -2 -9 1 o 0.737 0.938 0.00 1.10054 0.00
2 3 -8 2 o 47.639 47.747 180.00 1.13130 0.02
2 5 -1 1 o 360.324 357.397 0.00 1.12371 0.40
1 5 -5 1 o 68.782 80.078 180.00 1.10015 0.07
2 5 -2 2 o 36.902 43.210 0.00 1.12312 0.02
5 -3 -2 1 o 63.771 63.407 180.00 1.12462 0.08
4 3 1 2 o 76.228 76.427 180.00 1.12993 0.04
3 1 -9 2 o 98.447 120.156 180.00 1.11487 0.04
5 -2 -6 1 o 485.733 571.254 0.00 1.08135 0.45
4 -2 -8 1 o 0.019 0.025 0.00 1.07090 0.00
4 -4 2 1 o 109.151 132.065 0.00 1.10848 0.14
2 -5 -4 2 o 7.076 8.608 0.00 1.10581 0.00
4 2 -7 2 o 38.029 45.455 0.00 1.12181 0.02
2 2 -9 1 o 2.816 2.851 180.00 1.12186 0.00
0 1 9 1 o 8.870 8.865 0.00 1.13429 0.01
4 2 -7 1 o 44.716 45.455 0.00 1.12181 0.04
1 -5 5 2 o 25.771 27.417 0.00 1.09490 0.02
3 0 7 2 o 39.690 41.760 180.00 1.09444 0.02
1 -1 9 1 o 43.470 51.321 180.00 1.10501 0.04
3 -4 5 1 o 61.152 76.006 0.00 1.07828 0.08
3 3 4 2 o 128.303 136.429 180.00 1.12617 0.06
3 4 -5 1 o 2.658 2.817 0.00 1.11922 0.00
2 -5 4 2 o 183.928 196.782 0.00 1.09374 0.12
5 -3 -3 1 o 0.083 0.223 180.00 1.11296 0.00
2 -2 8 2 o 21.356 23.146 180.00 1.09269 0.01
3 -3 -8 1 o 18.258 22.953 180.00 1.06614 0.01
4 -3 -7 1 o 170.737 214.313 0.00 1.06636 0.15
2 5 -3 1 o 22.919 29.498 0.00 1.10999 0.03
1 -2 -9 2 o 0.836 0.938 0.00 1.10054 0.00
2 5 -1 2 o 313.165 357.397 0.00 1.12371 0.17
1 5 -5 2 o 75.205 80.078 180.00 1.10015 0.04
2 -5 4 1 o 181.677 196.782 0.00 1.09374 0.23
5 -3 -2 2 o 57.000 63.407 180.00 1.12462 0.04
3 -2 7 1 o 30.844 39.927 180.00 1.07495 0.04
5 -3 -1 1 o 146.033 143.805 180.00 1.12365 0.19
4 3 -5 1 o 35.671 36.561 0.00 1.12820 0.03
4 -4 2 2 o 113.046 132.065 0.00 1.10848 0.07
5 -2 -6 2 o 450.961 571.254 0.00 1.08135 0.21
4 -2 -8 2 o 0.019 0.025 0.00 1.07090 0.00
5 -1 3 1 o 15.184 17.096 0.00 1.08377 0.02
0 1 9 2 o 8.756 8.865 0.00 1.13429 0.00
2 2 -9 2 o 2.326 2.851 180.00 1.12186 0.00
3 -5 -2 1 o 0.369 0.448 0.00 1.11550 0.00
3 -5 -1 1 o 28.685 29.429 180.00 1.12796 0.04
5 2 -2 1 o 223.676 234.538 0.00 1.11991 0.24
1 -1 9 2 o 42.686 51.321 180.00 1.10501 0.02
3 4 -5 2 o 2.228 2.817 0.00 1.11922 0.00
3 -4 5 2 o 59.716 76.006 0.00 1.07828 0.04
4 -4 -5 1 o 94.953 119.798 180.00 1.07159 0.09
2 5 0 1 o 3.445 4.985 0.00 1.11171 0.00
5 -3 -3 2 o 0.113 0.223 180.00 1.11296 0.00
5 -3 -4 1 o 490.504 510.625 180.00 1.08979 0.53
3 -2 -9 1 o 163.084 208.424 180.00 1.06074 0.11
5 1 -6 1 o 7.001 8.075 180.00 1.09732 0.01
2 5 -3 2 o 24.861 29.498 0.00 1.10999 0.01
5 2 -1 1 o 0.085 0.260 180.00 1.11066 0.00
3 -3 -8 2 o 17.970 22.953 180.00 1.06614 0.01
2 -4 -7 1 o 0.196 0.274 180.00 1.06916 0.00
4 -3 -7 2 o 167.832 214.313 0.00 1.06636 0.07
5 1 2 1 o 212.933 224.807 180.00 1.08726 0.21
5 2 -3 1 o 310.310 356.963 0.00 1.11663 0.32
3 -2 7 2 o 31.285 39.927 180.00 1.07495 0.02
5 -3 -1 2 o 125.485 143.805 180.00 1.12365 0.08
5 -3 0 1 o 5.357 6.778 0.00 1.11014 0.01
4 3 -5 2 o 36.366 36.561 0.00 1.12820 0.02
5 -1 3 2 o 13.487 17.096 0.00 1.08377 0.01
3 -5 -1 2 o 29.234 29.429 180.00 1.12796 0.02
3 -5 -2 2 o 0.351 0.448 0.00 1.11550 0.00
4 1 5 1 o 94.382 123.197 0.00 1.07604 0.09
3 -5 1 1 o 39.354 48.004 0.00 1.11472 0.05
5 0 3 1 o 3.579 5.086 180.00 1.07540 0.01
5 -1 -7 1 o 37.757 47.395 0.00 1.06604 0.03
5 2 -2 2 o 178.461 234.538 0.00 1.11991 0.10
3 -5 -3 1 o 551.806 567.735 180.00 1.09153 0.63
2 5 0 2 o 4.143 4.985 0.00 1.11171 0.00
0 5 4 1 o 15.846 19.107 180.00 1.09784 0.02
4 -4 -5 2 o 94.732 119.798 180.00 1.07159 0.05
3 -5 0 1 o 52.127 54.445 180.00 1.12769 0.07
5 -3 -4 2 o 450.455 510.625 180.00 1.08979 0.24
5 1 -6 2 o 7.948 8.075 180.00 1.09732 0.00
1 -4 -7 1 o 5.104 6.405 0.00 1.07289 0.00
2 2 7 1 o 145.582 198.491 0.00 1.11077 0.12
3 -2 -9 2 o 164.155 208.424 180.00 1.06074 0.05
5 2 -1 2 o 0.147 0.260 180.00 1.11066 0.00
5 0 -7 1 o 172.784 221.754 180.00 1.07254 0.14
1 0 9 1 o -0.041 0.010 180.00 1.10342 0.00
2 -4 -7 2 o 0.189 0.274 180.00 1.06916 0.00
5 2 -3 2 o 268.785 356.963 0.00 1.11663 0.14
5 1 2 2 o 188.050 224.807 180.00 1.08726 0.09
5 -3 0 2 o 5.857 6.778 0.00 1.11014 0.00
2 4 4 1 o 355.054 464.287 180.00 1.11357 0.33
4 1 5 2 o 97.586 123.197 0.00 1.07604 0.05
3 -5 1 2 o 39.917 48.004 0.00 1.11472 0.03
1 3 7 1 o 14.650 17.036 0.00 1.10607 0.01
5 0 3 2 o 3.722 5.086 180.00 1.07540 0.00
5 -1 -7 2 o 36.902 47.395 0.00 1.06604 0.02
5 -3 1 1 o 216.240 231.254 180.00 1.08539 0.27
3 -5 -3 2 o 523.073 567.735 180.00 1.09153 0.29
0 5 4 2 o 18.654 19.107 180.00 1.09784 0.01
3 -5 0 2 o 53.311 54.445 180.00 1.12769 0.04
2 2 7 2 o 168.748 198.491 0.00 1.11077 0.07
2 4 -7 2 o 12.182 13.594 0.00 1.08981 0.01
1 -4 -7 2 o 5.171 6.405 0.00 1.07289 0.00
2 4 -7 1 o 13.343 13.594 0.00 1.08981 0.01
1 0 9 2 o -0.049 0.010 180.00 1.10342 0.00
5 2 0 1 o 42.842 43.241 0.00 1.08977 0.05
3 -5 2 1 o 446.148 450.085 180.00 1.09032 0.58
5 0 -7 2 o 175.654 221.754 180.00 1.07254 0.07
1 -2 9 1 o 18.465 24.646 0.00 1.07359 0.02
2 4 4 2 o 394.927 464.287 180.00 1.11357 0.18
1 5 3 1 o 204.020 219.732 180.00 1.09456 0.19
3 4 2 1 o 1.914 2.290 0.00 1.10061 0.00
5 2 -4 1 o 5.634 6.578 180.00 1.10114 0.00
4 3 2 1 o 30.409 31.323 180.00 1.08725 0.03
2 5 -4 2 o 26.934 34.491 0.00 1.08559 0.01
1 3 7 2 o 14.251 17.036 0.00 1.10607 0.00
2 5 -4 1 o 32.298 34.491 0.00 1.08559 0.03
5 -3 1 2 o 180.843 231.254 180.00 1.08539 0.11
1 2 8 1 o 16.982 21.115 180.00 1.10843 0.01
4 2 4 1 o 17.164 23.068 180.00 1.07643 0.02
0 5 -6 1 o 119.142 155.433 180.00 1.05981 0.13
5 -2 3 1 o -0.121 0.012 180.00 1.06054 0.00
0 3 8 1 o 52.089 67.555 180.00 1.07588 0.03
5 2 0 2 o 38.088 43.241 0.00 1.08977 0.02
3 -5 2 2 o 405.827 450.085 180.00 1.09032 0.26
4 0 -9 1 o 11.547 14.666 0.00 1.05000 0.01
1 -2 9 2 o 19.391 24.646 0.00 1.07359 0.01
4 -4 3 1 o 80.524 100.708 180.00 1.06732 0.10
1 5 3 2 o 217.134 219.732 180.00 1.09456 0.10
3 4 2 2 o 2.218 2.290 0.00 1.10061 0.00
2 0 -10 1 o 37.266 50.104 180.00 1.07374 0.03
5 2 -4 2 o 6.230 6.578 180.00 1.10114 0.00
4 3 2 2 o 25.405 31.323 180.00 1.08725 0.01
2 1 8 1 o 158.078 193.346 180.00 1.08057 0.12
2 3 6 1 o 41.898 52.536 0.00 1.09843 0.03
5 -3 -5 1 o 14.322 18.773 180.00 1.05720 0.02
1 -5 -5 1 o 10.224 12.888 0.00 1.06440 0.01
2 -5 -5 1 o 42.637 55.744 0.00 1.05606 0.04
4 -1 -9 1 o 82.148 92.812 180.00 1.03764 0.06
1 2 8 2 o 17.972 21.115 180.00 1.10843 0.01
4 -3 5 2 o 24.496 27.681 0.00 1.04336 0.01
4 -1 6 1 o 3.373 4.450 180.00 1.04578 0.00
4 2 4 2 o 18.103 23.068 180.00 1.07643 0.01
0 5 -6 2 o 120.369 155.433 180.00 1.05981 0.07
0 3 8 2 o 54.810 67.555 180.00 1.07588 0.02
5 -2 3 2 o -0.117 0.012 180.00 1.06054 0.00
2 5 1 1 o 25.158 24.934 180.00 1.08827 0.02
3 -4 -7 1 o 175.768 193.416 0.00 1.03416 0.14
4 0 -9 2 o 12.201 14.666 0.00 1.05000 0.00
3 2 6 1 o 42.378 57.877 180.00 1.07521 0.04
2 -1 -10 1 o 40.755 52.205 0.00 1.05167 0.02
1 3 -9 1 o -0.087 0.045 180.00 1.06778 0.00
4 -3 5 1 o 22.880 27.681 0.00 1.04336 0.03
4 -4 3 2 o 76.896 100.708 180.00 1.06732 0.05
2 0 -10 2 o 39.702 50.104 180.00 1.07374 0.01
2 1 8 2 o 141.172 193.346 180.00 1.08057 0.05
2 3 6 2 o 54.296 52.536 0.00 1.09843 0.02
1 0 -10 1 o 198.118 246.029 180.00 1.07999 0.13
5 -3 -5 2 o 14.599 18.773 180.00 1.05720 0.01
1 -5 -5 2 o 10.116 12.888 0.00 1.06440 0.00
2 -5 -5 2 o 43.738 55.744 0.00 1.05606 0.02
3 -5 -4 1 o 31.731 41.339 180.00 1.05820 0.03
0 4 -8 1 o 14.354 18.049 0.00 1.04921 0.01
4 -1 -9 2 o 85.852 92.812 180.00 1.03764 0.03
4 3 -6 1 o 124.701 129.518 0.00 1.08520 0.10
0 3 -9 1 o 36.418 47.954 0.00 1.05698 0.03
3 1 7 1 o 10.610 13.495 0.00 1.05639 0.01
5 -2 -7 1 o 4.997 5.499 0.00 1.03055 0.01
4 -1 6 2 o 3.682 4.450 180.00 1.04578 0.00
3 -5 3 1 o 223.533 289.853 180.00 1.05665 0.27
1 -5 6 1 o 22.357 25.171 0.00 1.03780 0.02
4 0 6 1 o 81.183 91.310 0.00 1.03778 0.07
2 5 1 2 o 21.342 24.934 180.00 1.08827 0.01
3 2 6 2 o 47.002 57.877 180.00 1.07521 0.02
3 -4 -7 2 o 185.143 193.416 0.00 1.03416 0.07
1 3 -9 2 o -0.127 0.045 180.00 1.06778 0.00
2 -1 -10 2 o 42.872 52.205 0.00 1.05167 0.01
3 4 -6 1 o 220.927 299.214 0.00 1.07425 0.19
1 4 -8 1 o 25.008 32.610 0.00 1.05186 0.02
3 2 -9 1 o 24.818 30.009 0.00 1.06692 0.02
2 -3 8 1 o 224.451 248.397 180.00 1.03514 0.21
1 0 -10 2 o 182.503 246.029 180.00 1.07999 0.06
5 2 1 1 o 81.410 107.460 0.00 1.05915 0.08
3 -5 -4 2 o 32.083 41.339 180.00 1.05820 0.02
4 -2 6 1 o 13.885 14.144 0.00 1.02533 0.01
4 3 -6 2 o 98.019 129.518 0.00 1.08520 0.04
0 4 -8 2 o 15.166 18.049 0.00 1.04921 0.01
4 -4 -6 1 o 0.874 0.895 180.00 1.02538 0.00
2 -5 5 1 o 14.048 17.125 0.00 1.04294 0.02
1 5 -6 1 o 67.190 85.847 0.00 1.05042 0.07
5 -3 2 1 o 50.321 65.420 180.00 1.05158 0.06
0 3 -9 2 o 36.963 47.954 0.00 1.05698 0.02
2 1 -10 1 o 12.238 15.419 0.00 1.06504 0.01
3 1 7 2 o 10.759 13.495 0.00 1.05639 0.00
5 -2 -7 2 o 5.438 5.499 0.00 1.03055 0.00
3 -5 3 2 o 226.971 289.853 180.00 1.05665 0.14
1 -5 6 2 o 23.241 25.171 0.00 1.03780 0.01
5 1 -7 1 o 83.110 105.214 0.00 1.04846 0.07
4 0 6 2 o 84.242 91.310 0.00 1.03778 0.04
2 -4 7 1 o 1.694 1.847 0.00 1.03136 0.00
0 2 9 1 o 17.340 21.991 180.00 1.06887 0.01
1 1 -10 1 o 190.324 273.872 0.00 1.07506 0.13
3 -3 7 1 o 30.995 30.689 0.00 1.02211 0.03
5 2 -5 1 o 26.808 38.783 0.00 1.07491 0.03
3 4 -6 2 o 247.846 299.214 0.00 1.07425 0.11
1 -1 -10 1 o 205.789 269.836 180.00 1.05382 0.12
3 2 -9 2 o 22.848 30.009 0.00 1.06692 0.01
3 3 -8 1 o 135.862 166.354 0.00 1.06677 0.11
5 1 3 1 o 29.509 32.980 180.00 1.03751 0.03
1 4 -8 2 o 26.435 32.610 0.00 1.05186 0.01
2 -3 8 2 o 235.202 248.397 180.00 1.03514 0.11
5 2 1 2 o 81.929 107.460 0.00 1.05915 0.04
2 5 -5 1 o 0.459 0.798 0.00 1.05207 0.00
4 -2 6 2 o 14.685 14.144 0.00 1.02533 0.01
2 -5 5 2 o 15.144 17.125 0.00 1.04294 0.01
4 -4 -6 2 o 0.935 0.895 180.00 1.02538 0.00
1 5 -6 2 o 71.083 85.847 0.00 1.05042 0.04
5 -3 2 2 o 53.255 65.420 180.00 1.05158 0.03
3 0 -10 1 o 0.887 0.980 180.00 1.03610 0.00
2 1 -10 2 o 11.891 15.419 0.00 1.06504 0.00
5 -1 4 1 o 31.548 32.747 0.00 1.02723 0.03
1 4 6 1 o 101.764 136.570 0.00 1.06291 0.08
5 1 -7 2 o 88.281 105.214 0.00 1.04846 0.03
1 1 -10 2 o 230.127 273.872 0.00 1.07506 0.08
0 2 9 2 o 15.747 21.991 180.00 1.06887 0.01
4 2 -8 1 o 0.815 1.396 180.00 1.05610 0.00
2 -4 7 2 o 1.816 1.847 0.00 1.03136 0.00
5 2 -5 2 o 32.122 38.783 0.00 1.07491 0.02
3 -3 7 2 o 32.642 30.689 0.00 1.02211 0.02
1 -1 -10 2 o 215.128 269.836 180.00 1.05382 0.06
3 -4 6 1 o 56.537 52.485 0.00 1.01481 0.06
3 3 -8 2 o 122.500 166.354 0.00 1.06677 0.05
5 1 3 2 o 30.407 32.980 180.00 1.03751 0.01
2 5 -5 2 o 0.523 0.798 0.00 1.05207 0.00
4 -3 -8 1 o 1.362 1.205 0.00 1.00335 0.00
3 0 -10 2 o 0.916 0.980 180.00 1.03610 0.00
0 4 7 1 o 92.141 112.366 0.00 1.04439 0.07
5 -1 4 2 o 33.413 32.747 0.00 1.02723 0.02
4 -4 4 1 o 81.312 79.423 180.00 1.02071 0.09
2 -3 -9 2 o 2.995 2.757 0.00 1.01716 0.00
1 4 6 2 o 104.095 136.570 0.00 1.06291 0.04
3 -1 -10 1 o 33.573 32.559 0.00 1.01956 0.02
4 2 -8 2 o 0.837 1.396 180.00 1.05610 0.00
5 0 4 1 o 2.966 2.794 180.00 1.01883 0.00
3 3 5 1 o 72.701 96.885 0.00 1.05517 0.06
1 -6 1 1 o 0.020 0.343 0.00 1.04884 0.00
3 -5 -5 1 o 44.532 42.666 0.00 1.01809 0.04
0 5 5 1 o 28.497 33.230 0.00 1.04099 0.02
5 -1 -8 1 o 0.691 0.634 0.00 1.00914 0.00
2 -3 -9 1 o 2.882 2.757 0.00 1.01716 0.00
4 -2 -9 1 o 30.238 29.399 180.00 0.99924 0.02
5 -3 -6 1 o 138.192 132.460 0.00 1.01773 0.11
4 1 -9 1 o 1.578 1.815 0.00 1.03346 0.00
3 -4 6 2 o 57.856 52.485 0.00 1.01481 0.03
1 -4 8 1 o 26.643 25.108 180.00 1.01685 0.03
1 1 9 1 o 300.596 354.554 0.00 1.06922 0.21
0 6 -1 1 o 4.787 5.906 0.00 1.04668 0.00
0 6 -2 1 o 8.592 9.940 180.00 1.03948 0.01
2 3 -9 1 o 13.945 17.586 180.00 1.04646 0.01
5 0 -8 1 o 22.046 20.471 180.00 1.01590 0.02
4 -3 -8 2 o 1.211 1.205 0.00 1.00335 0.00
0 4 7 2 o 99.313 112.366 0.00 1.04439 0.04
1 -6 2 1 o 3.737 4.350 0.00 1.03760 0.01
4 -4 4 2 o 86.228 79.423 180.00 1.02071 0.05
2 5 2 1 o 53.666 71.085 0.00 1.05550 0.05
0 6 0 1 o 13.838 16.957 180.00 1.04363 0.01
2 -1 9 1 o 17.784 17.472 180.00 1.02172 0.01
3 -1 -10 2 o 35.461 32.559 0.00 1.01956 0.01
1 -6 0 1 o 264.126 345.463 0.00 1.04987 0.29
6 -1 -2 1 o 24.910 30.836 0.00 1.04399 0.03
3 3 5 2 o 74.846 96.885 0.00 1.05517 0.03
5 0 4 2 o 3.226 2.794 180.00 1.01883 0.00
1 -6 1 2 o 0.093 0.343 0.00 1.04884 0.00
3 -5 -5 2 o 46.837 42.666 0.00 1.01809 0.02
0 5 5 2 o 30.369 33.230 0.00 1.04099 0.01
3 4 3 1 o 65.055 87.034 180.00 1.05320 0.05
5 -1 -8 2 o 0.679 0.634 0.00 1.00914 0.00
4 1 -9 2 o 1.731 1.815 0.00 1.03346 0.00
1 1 9 2 o 233.295 354.554 0.00 1.06922 0.08
4 4 -2 1 o 175.711 238.905 0.00 1.05272 0.16
5 -3 -6 2 o 144.482 132.460 0.00 1.01773 0.06
3 -1 8 1 o 59.449 53.652 0.00 1.01076 0.05
4 -2 -9 2 o 28.094 29.399 180.00 0.99924 0.01
1 -4 8 2 o 27.934 25.108 180.00 1.01685 0.01
0 6 -1 2 o 5.078 5.906 0.00 1.04668 0.00
6 -1 -3 1 o 1.755 2.092 180.00 1.04129 0.00
0 1 -10 1 o 188.898 254.325 180.00 1.05232 0.13
0 6 -2 2 o 8.983 9.940 180.00 1.03948 0.00
2 3 -9 2 o 14.943 17.586 180.00 1.04646 0.01
5 0 -8 2 o 23.007 20.471 180.00 1.01590 0.01
4 3 3 1 o 7.718 8.948 180.00 1.03881 0.01
6 0 -2 1 o 158.067 182.683 180.00 1.03965 0.15
1 -3 9 1 o 56.493 53.243 0.00 1.01678 0.05
1 5 4 1 o 10.863 13.557 0.00 1.04435 0.01
3 -3 -9 1 o 16.563 17.853 180.00 0.99071 0.01
1 -3 -9 1 o 84.795 79.412 0.00 1.01620 0.05
5 -2 4 1 o 77.701 70.101 0.00 1.00861 0.08
1 -6 2 2 o 3.809 4.350 0.00 1.03760 0.00
3 -5 4 1 o 24.430 22.982 0.00 1.01632 0.02
6 0 -3 1 o 0.325 0.366 0.00 1.03833 0.00
2 5 2 2 o 54.700 71.085 0.00 1.05550 0.02
0 6 0 2 o 15.401 16.957 180.00 1.04363 0.01
2 -1 9 2 o 18.840 17.472 180.00 1.02172 0.01
1 -6 0 2 o 283.689 345.463 0.00 1.04987 0.15
6 0 -1 1 o 2.639 2.919 0.00 1.03096 0.00
4 4 -3 1 o 4.686 5.899 180.00 1.04865 0.00
6 -1 -2 2 o 27.519 30.836 0.00 1.04399 0.01
2 -4 -8 1 o 1.277 1.265 0.00 0.99732 0.00
6 -1 -1 1 o 177.829 195.697 0.00 1.03651 0.18
3 4 3 2 o 69.841 87.034 180.00 1.05320 0.03
5 2 2 1 o 128.332 124.825 0.00 1.02123 0.11
4 4 -1 1 o 94.535 119.003 0.00 1.04636 0.09
4 4 -2 2 o 191.175 238.905 0.00 1.05272 0.09
6 -1 -4 1 o 0.230 0.284 0.00 1.02866 0.00
1 -6 -1 1 o 219.030 260.407 0.00 1.04059 0.23
3 -1 8 2 o 59.019 53.652 0.00 1.01076 0.02
1 2 -10 1 o 27.621 32.685 180.00 1.04023 0.02
0 1 -10 2 o 204.887 254.325 180.00 1.05232 0.07
6 -1 -3 2 o 1.909 2.092 180.00 1.04129 0.00
2 -2 -10 1 o 75.392 68.973 0.00 1.00405 0.04
5 2 -6 1 o 170.888 201.161 0.00 1.04017 0.14
2 -5 -6 1 o 132.485 121.691 0.00 1.00325 0.10
4 3 3 2 o 7.953 8.948 180.00 1.03881 0.00
6 0 -2 2 o 165.520 182.683 180.00 1.03965 0.08
1 5 4 2 o 12.028 13.557 0.00 1.04435 0.01
5 -3 3 1 o 0.329 0.241 180.00 1.01129 0.00
1 -3 9 2 o 59.217 53.243 0.00 1.01678 0.02
3 -3 -9 2 o 15.980 17.853 180.00 0.99071 0.00
1 -3 -9 2 o 88.435 79.412 0.00 1.01620 0.03
3 1 -10 1 o 107.420 107.985 180.00 1.02486 0.07
5 -2 4 2 o 75.837 70.101 0.00 1.00861 0.04
6 0 -3 2 o 0.330 0.366 0.00 1.03833 0.00
2 4 5 1 o 2.807 3.511 0.00 1.04749 0.00
3 -5 4 2 o 25.463 22.982 0.00 1.01632 0.01
2 4 -8 1 o 25.905 25.884 0.00 1.02416 0.02
1 -6 3 1 o 92.825 87.078 0.00 1.01710 0.10
0 6 1 1 o 41.976 46.610 180.00 1.03059 0.04
4 4 -3 2 o 4.939 5.899 180.00 1.04865 0.00
6 0 -1 2 o 2.916 2.919 0.00 1.03096 0.00
4 3 -7 1 o 7.419 7.968 0.00 1.03657 0.01
0 6 -3 1 o 0.452 0.446 0.00 1.02266 0.00
3 -2 8 1 o 14.994 15.940 0.00 0.99151 0.01
2 -2 9 1 o 35.550 33.599 0.00 0.99988 0.03
2 -4 -8 2 o 1.182 1.265 0.00 0.99732 0.00
6 -1 -1 2 o 179.648 195.697 0.00 1.03651 0.09
5 2 2 2 o 137.303 124.825 0.00 1.02123 0.06
4 4 -1 2 o 100.319 119.003 0.00 1.04636 0.05
1 -5 -6 1 o 0.517 0.462 180.00 1.00673 0.00
0 0 10 1 o 1.402 2.522 0.00 1.05323 0.00
6 -1 -4 2 o 0.301 0.284 0.00 1.02866 0.00
1 -6 -1 2 o 237.281 260.407 0.00 1.04059 0.12
1 2 -10 2 o 29.594 32.685 180.00 1.04023 0.01
5 2 -6 2 o 182.402 201.161 0.00 1.04017 0.07
2 -2 -10 2 o 70.497 68.973 0.00 1.00405 0.02
2 -5 -6 2 o 122.964 121.691 0.00 1.00325 0.05
6 0 -4 1 o 70.141 72.016 0.00 1.02710 0.06
3 0 8 1 o 51.556 46.097 0.00 1.00431 0.04
5 -4 -3 1 o 211.091 202.171 180.00 1.01988 0.21
5 -3 3 2 o 0.326 0.241 180.00 1.01129 0.00
4 2 5 1 o 2.930 2.487 180.00 1.01148 0.00
6 -1 0 1 o 87.516 83.673 0.00 1.01951 0.09
3 1 -10 2 o 113.709 107.985 180.00 1.02486 0.03
2 4 5 2 o 2.950 3.511 0.00 1.04749 0.00
3 4 -7 1 o 1.344 1.339 180.00 1.02447 0.00
2 4 -8 2 o 27.285 25.884 0.00 1.02416 0.01
0 6 1 2 o 46.867 46.610 180.00 1.03059 0.02
4 1 6 1 o 230.687 208.805 0.00 1.00317 0.18
1 -6 3 2 o 98.826 87.078 0.00 1.01710 0.05
4 3 -7 2 o 7.204 7.968 0.00 1.03657 0.00
2 0 9 1 o 0.629 0.551 180.00 1.01712 0.00
5 -2 -8 1 o 13.901 15.826 0.00 0.97776 0.01
0 5 -7 1 o 15.698 14.275 180.00 1.00224 0.02
0 2 -10 2 o 18.940 17.726 0.00 1.02296 0.01
4 4 -4 1 o 0.069 0.125 180.00 1.03449 0.00
0 6 -3 2 o 0.480 0.446 0.00 1.02266 0.00
5 -4 -2 1 o 101.509 112.807 180.00 1.03014 0.11
0 2 -10 1 o 17.941 17.726 0.00 1.02296 0.01
3 5 -2 1 o 147.796 156.156 180.00 1.02841 0.13
2 -2 9 2 o 32.381 33.599 0.00 0.99988 0.01
3 -2 8 2 o 14.443 15.940 0.00 0.99151 0.01
0 0 10 2 o 1.729 2.522 0.00 1.05323 0.00
4 -4 -7 1 o 15.617 17.673 180.00 0.97618 0.01
1 -6 -2 1 o 5.827 5.618 0.00 1.02179 0.01
1 -5 -6 2 o 0.495 0.462 180.00 1.00673 0.00
2 2 -10 1 o 2.185 2.264 180.00 1.02771 0.00
4 -5 -2 1 o 12.317 12.654 180.00 1.02746 0.01
6 0 -4 2 o 74.726 72.016 0.00 1.02710 0.03
6 -1 -5 1 o 101.429 89.600 0.00 1.00715 0.09
3 5 -1 1 o 107.046 106.058 180.00 1.02501 0.09
2 -6 0 1 o 64.614 64.033 0.00 1.02570 0.07
6 -2 -2 1 o 4.079 3.862 180.00 1.02016 0.00
5 -4 -3 2 o 228.186 202.171 180.00 1.01988 0.11
3 0 8 2 o 47.769 46.097 0.00 1.00431 0.02
4 4 0 1 o 124.838 139.162 0.00 1.03011 0.11
1 5 -7 1 o 144.519 140.588 0.00 0.99781 0.12
1 6 -2 1 o 46.591 40.505 180.00 1.01209 0.05
4 2 5 2 o 2.916 2.487 180.00 1.01148 0.00
6 -1 0 2 o 94.382 83.673 0.00 1.01951 0.05
6 0 0 1 o 62.501 55.652 0.00 1.01298 0.06
2 5 -6 1 o 198.335 175.411 0.00 1.01200 0.17
2 -5 6 1 o 35.563 39.009 0.00 0.98977 0.04
3 4 -7 2 o 1.414 1.339 180.00 1.02447 0.00
4 -5 -3 1 o 6.942 6.158 0.00 1.01231 0.01
1 -4 -8 1 o 193.042 191.458 180.00 0.99681 0.12
4 1 6 2 o 211.762 208.805 0.00 1.00317 0.08
3 -4 -8 1 o 239.606 281.999 0.00 0.97199 0.15
4 -3 6 1 o 253.471 283.075 0.00 0.98102 0.24
2 0 9 2 o 0.719 0.551 180.00 1.01712 0.00
5 -2 -8 2 o 13.162 15.826 0.00 0.97776 0.00
0 5 -7 2 o 14.236 14.275 180.00 1.00224 0.01
4 4 -4 2 o 0.094 0.125 180.00 1.03449 0.00
5 -4 -2 2 o 113.649 112.807 180.00 1.03014 0.06
3 5 -2 2 o 160.451 156.156 180.00 1.02841 0.07
3 5 -3 1 o 130.795 127.360 180.00 1.02208 0.12
1 -2 -10 1 o 78.795 71.685 180.00 1.00272 0.04
6 -2 -4 1 o 1.235 1.105 0.00 1.00343 0.00
3 -2 -10 1 o 298.788 334.350 180.00 0.97895 0.16
1 -6 -2 2 o 6.377 5.618 0.00 1.02179 0.00
6 -2 -3 2 o 82.432 71.764 180.00 1.01639 0.04
4 -4 -7 2 o 14.305 17.673 180.00 0.97618 0.01
6 -2 -3 1 o 77.649 71.764 180.00 1.01639 0.08
2 2 -10 2 o 2.354 2.264 180.00 1.02771 0.00
1 6 -1 1 o 1.907 1.598 180.00 1.01498 0.00
2 -6 1 1 o 6.870 6.566 180.00 1.02094 0.01
2 -6 -1 1 o 182.874 174.490 180.00 1.02080 0.19
4 -5 -2 2 o 13.272 12.654 180.00 1.02746 0.01
0 1 10 1 o 6.025 5.960 0.00 1.02549 0.00
5 3 -2 1 o 241.144 238.320 180.00 1.02507 0.20
6 -1 -5 2 o 97.625 89.600 0.00 1.00715 0.04
6 -2 -1 1 o 146.818 130.742 180.00 1.01444 0.15
5 -4 -4 1 o 52.751 48.545 180.00 1.00076 0.05
3 5 -1 2 o 111.760 106.058 180.00 1.02501 0.05
2 -6 0 2 o 67.360 64.033 0.00 1.02570 0.03
2 -6 2 1 o 8.135 7.065 180.00 1.00691 0.01
6 -2 -2 2 o 4.498 3.862 180.00 1.02016 0.00
4 4 0 2 o 140.287 139.162 0.00 1.03011 0.06
6 0 -5 1 o 2.620 2.324 180.00 1.00690 0.00
1 6 -2 2 o 46.534 40.505 180.00 1.01209 0.02
1 5 -7 2 o 131.399 140.588 0.00 0.99781 0.06
6 0 0 2 o 63.123 55.652 0.00 1.01298 0.03
2 5 -6 2 o 198.458 175.411 0.00 1.01200 0.08
2 -5 6 2 o 34.710 39.009 0.00 0.98977 0.02
4 -5 -3 2 o 6.953 6.158 0.00 1.01231 0.00
1 -4 -8 2 o 177.092 191.458 180.00 0.99681 0.05
4 -3 6 2 o 252.065 283.075 0.00 0.98102 0.12
3 -4 -8 2 o 200.833 281.999 0.00 0.97199 0.06
0 6 -4 1 o 16.954 16.536 180.00 0.99755 0.02
5 3 -1 1 o 5.440 5.085 0.00 1.01670 0.00
3 5 -3 2 o 140.138 127.360 180.00 1.02208 0.06
3 -5 -6 1 o 1.143 1.311 180.00 0.97379 0.00
1 -2 -10 2 o 72.222 71.685 180.00 1.00272 0.02
5 -3 -7 1 o 3.766 4.245 0.00 0.97394 0.00
6 -2 -4 2 o 1.129 1.105 0.00 1.00343 0.00
5 1 -8 1 o 168.034 166.536 0.00 0.99656 0.11
3 -2 -10 2 o 290.643 334.350 180.00 0.97895 0.08
5 -4 -1 1 o 42.187 49.078 180.00 1.03070 0.05
5 -4 0 1 o 2.628 2.526 0.00 1.02151 0.00
1 6 -1 2 o 2.029 1.598 180.00 1.01498 0.00
0 6 2 1 o 12.440 10.772 0.00 1.00865 0.01
1 6 0 1 o 0.843 0.611 180.00 1.00853 0.00
1 -1 10 1 o 307.135 271.566 180.00 1.00252 0.20
4 -5 1 1 o 38.225 34.327 180.00 1.01548 0.04
4 -1 7 1 o 133.456 152.452 180.00 0.97237 0.11
2 -6 1 2 o 7.453 6.566 180.00 1.02094 0.00
1 -5 7 1 o 4.553 5.091 0.00 0.98020 0.00
2 -6 -1 2 o 198.172 174.490 180.00 1.02080 0.10
0 1 10 2 o 6.294 5.960 0.00 1.02549 0.00
5 3 -3 1 o 148.371 147.685 180.00 1.02384 0.12
6 1 -2 1 o 0.295 0.181 0.00 1.00818 0.00
5 3 -2 2 o 251.160 238.320 180.00 1.02507 0.10
2 2 8 1 o 6.691 6.382 180.00 1.01811 0.00
6 -2 -1 2 o 151.143 130.742 180.00 1.01444 0.08
4 -4 5 1 o 33.060 38.877 180.00 0.97135 0.03
3 5 -4 1 o 10.637 9.338 0.00 1.00654 0.01
5 -4 -4 2 o 47.457 48.545 180.00 1.00076 0.02
6 -1 1 1 o 13.932 14.259 180.00 0.99433 0.01
2 -6 2 2 o 7.811 7.065 180.00 1.00691 0.00
1 6 -3 1 o 368.011 339.529 180.00 1.00008 0.34
2 -6 -2 1 o 26.731 23.177 180.00 1.00665 0.03
6 0 -5 2 o 2.524 2.324 180.00 1.00690 0.00
5 -1 5 1 o 0.336 0.442 0.00 0.97036 0.00
1 3 8 1 o 2.179 1.943 180.00 1.01696 0.00
5 1 4 1 o 4.383 4.877 0.00 0.98529 0.00
2 5 3 1 o 13.927 12.639 0.00 1.01593 0.01
4 -5 -1 1 o 21.596 25.272 180.00 1.03322 0.03
6 -2 0 1 o 1.315 1.183 180.00 0.99967 0.00
5 3 -1 2 o 5.862 5.085 0.00 1.01670 0.00
0 6 -4 2 o 15.399 16.536 180.00 0.99755 0.01
4 0 -10 1 o 56.411 62.166 180.00 0.97598 0.03
3 -5 -6 2 o 0.938 1.311 180.00 0.97379 0.00
5 -3 -7 2 o 3.280 4.245 0.00 0.97394 0.00
5 -4 -1 2 o 49.540 49.078 180.00 1.03070 0.03
5 1 -8 2 o 152.270 166.536 0.00 0.99656 0.05
1 -6 4 2 o -0.052 0.018 180.00 0.98893 0.00
5 -4 0 2 o 2.819 2.526 0.00 1.02151 0.00
0 6 2 2 o 12.210 10.772 0.00 1.00865 0.01
1 6 0 2 o 0.812 0.611 180.00 1.00853 0.00
1 -1 10 2 o 272.972 271.566 180.00 1.00252 0.09
4 -5 1 2 o 40.411 34.327 180.00 1.01548 0.02
5 -4 1 1 o 21.865 19.318 0.00 1.00334 0.02
4 -1 7 2 o 108.253 152.452 180.00 0.97237 0.04
1 -5 7 2 o 4.539 5.091 0.00 0.98020 0.00
1 -6 4 1 o -0.048 0.018 180.00 0.98893 0.00
6 1 -3 1 o 357.621 307.920 180.00 1.00820 0.30
5 3 -3 2 o 154.926 147.685 180.00 1.02384 0.06
6 -2 -5 1 o 22.537 24.982 0.00 0.98229 0.02
3 5 0 1 o 0.118 0.003 0.00 1.01216 0.00
6 1 -2 2 o 0.275 0.181 0.00 1.00818 0.00
1 -6 -3 1 o 1.306 1.344 0.00 0.99498 0.00
4 -5 -4 1 o 50.348 56.058 180.00 0.98897 0.05
4 -5 0 1 o 0.403 0.469 0.00 1.02911 0.00
5 -4 -5 1 o 0.624 0.747 180.00 0.97424 0.00
2 3 7 1 o 11.417 10.647 0.00 1.01670 0.01
2 2 8 2 o 7.404 6.382 180.00 1.01811 0.00
3 5 -4 2 o 10.215 9.338 0.00 1.00654 0.00
4 -4 5 2 o 26.261 38.877 180.00 0.97135 0.01
4 -1 -10 1 o -0.171 0.002 180.00 0.96495 0.00
4 4 -5 1 o 260.487 221.803 0.00 1.01144 0.20
1 6 -3 2 o 328.795 339.529 180.00 1.00008 0.15
6 -1 1 2 o 12.905 14.259 180.00 0.99433 0.01
2 -6 -2 2 o 25.625 23.177 180.00 1.00665 0.01
1 3 8 2 o 2.460 1.943 180.00 1.01696 0.00
4 4 1 1 o 171.991 148.992 0.00 1.00531 0.14
5 -1 5 2 o 0.234 0.442 0.00 0.97036 0.00
6 0 1 1 o 10.139 11.407 0.00 0.98712 0.01
5 3 0 1 o 3.936 3.660 0.00 0.99941 0.00
4 -5 -1 2 o 29.149 25.272 180.00 1.03322 0.02
5 2 -7 1 o 86.626 80.023 0.00 0.99947 0.06
5 1 4 2 o 4.419 4.877 0.00 0.98529 0.00
3 -5 5 1 o 4.119 4.823 180.00 0.97190 0.00
2 5 3 2 o 14.946 12.639 0.00 1.01593 0.01
4 -5 2 1 o 18.370 19.137 180.00 0.99342 0.02
6 -2 0 2 o 1.119 1.183 180.00 0.99967 0.00
6 1 -1 2 o 0.988 1.051 0.00 0.99905 0.00
6 1 -4 1 o 111.417 103.598 180.00 0.99910 0.09
6 1 -1 1 o 1.137 1.051 0.00 0.99905 0.00
4 2 -9 1 o 49.942 53.774 180.00 0.99182 0.03
6 -1 -6 1 o 0.339 0.497 0.00 0.97837 0.00
2 -4 8 1 o 2.157 3.644 0.00 0.96225 0.00
4 0 -10 2 o 51.681 62.166 180.00 0.97598 0.01
5 3 -4 1 o 4.605 3.727 180.00 1.01310 0.00
2 -6 3 1 o 79.580 88.490 0.00 0.98472 0.08
0 5 6 1 o 22.732 25.593 180.00 0.98345 0.02
3 2 7 2 o 0.475 0.586 180.00 0.99586 0.00
5 -4 1 2 o 19.716 19.318 0.00 1.00334 0.01
3 2 7 1 o 0.584 0.586 180.00 0.99586 0.00
6 1 -3 2 o 349.667 307.920 180.00 1.00820 0.15
3 5 0 2 o 0.109 0.003 0.00 1.01216 0.00
4 -5 0 2 o 0.362 0.469 0.00 1.02911 0.00
6 -2 -5 2 o 22.872 24.982 0.00 0.98229 0.01
2 3 7 2 o 12.460 10.647 0.00 1.01670 0.00
1 -6 -3 2 o 1.068 1.344 0.00 0.99498 0.00
4 -5 -4 2 o 50.054 56.058 180.00 0.98897 0.02
5 -4 -5 2 o 0.441 0.747 180.00 0.97424 0.00
0 4 -9 1 o 123.112 134.666 180.00 0.97494 0.09
0 3 9 1 o 24.626 27.709 0.00 0.98804 0.01
1 0 10 1 o 20.601 18.372 180.00 1.00013 0.01
4 4 -5 2 o 256.597 221.803 0.00 1.01144 0.10
4 -1 -10 2 o -0.224 0.002 180.00 0.96495 0.00
4 3 4 1 o 194.749 220.869 180.00 0.98752 0.14
5 -3 4 1 o 105.507 144.896 180.00 0.96705 0.10
4 4 1 2 o 160.891 148.992 0.00 1.00531 0.06
5 3 0 2 o 3.522 3.660 0.00 0.99941 0.00
6 0 1 2 o 10.225 11.407 0.00 0.98712 0.00
1 4 -9 1 o 9.587 10.760 0.00 0.98040 0.01
5 2 -7 2 o 76.796 80.023 0.00 0.99947 0.03
1 6 -4 1 o 11.381 12.732 180.00 0.97989 0.01
3 -5 5 2 o 3.135 4.823 180.00 0.97190 0.00
1 -2 10 1 o 49.031 54.342 0.00 0.98000 0.03
4 -5 2 2 o 16.800 19.137 180.00 0.99342 0.01
3 3 -9 1 o 236.286 224.651 0.00 0.99828 0.16
6 1 -4 2 o 98.694 103.598 180.00 0.99910 0.04
4 0 7 1 o 4.032 5.824 180.00 0.96485 0.00
1 5 5 1 o 47.230 51.154 0.00 0.99156 0.03
3 4 4 1 o 1.217 1.061 180.00 1.00222 0.00
4 -2 7 1 o 12.063 22.183 0.00 0.95691 0.01
4 2 -9 2 o 47.585 53.774 180.00 0.99182 0.02
6 -1 -6 2 o 0.328 0.497 0.00 0.97837 0.00
6 0 -6 1 o 6.878 7.598 0.00 0.97927 0.01
5 2 3 1 o 26.402 29.328 0.00 0.97855 0.02
5 3 -4 2 o 4.553 3.727 180.00 1.01310 0.00
2 -3 9 1 o 158.217 292.837 180.00 0.95626 0.12
2 -4 8 2 o 1.826 3.644 0.00 0.96225 0.00
1 2 9 1 o 72.293 61.691 180.00 1.01062 0.04
2 -6 3 2 o 80.834 88.490 0.00 0.98472 0.04
0 5 6 2 o 23.133 25.593 180.00 0.98345 0.01
2 -6 -3 1 o 89.787 100.025 0.00 0.98436 0.08
5 -2 5 1 o 3.275 7.066 0.00 0.95566 0.00
1 3 -10 1 o 142.543 159.735 180.00 0.98340 0.10
5 -4 2 1 o 49.819 54.806 180.00 0.97757 0.05
5 0 5 1 o 63.915 104.287 180.00 0.96220 0.05
6 -2 1 1 o 114.729 125.515 0.00 0.97702 0.10
0 4 -9 2 o 107.287 134.666 180.00 0.97494 0.04
1 0 10 2 o 17.913 18.372 180.00 1.00013 0.01
3 2 -10 1 o 18.249 20.819 180.00 0.98839 0.01
0 3 9 2 o 24.789 27.709 0.00 0.98804 0.01
3 -4 7 1 o 2.755 6.336 0.00 0.95347 0.00
1 6 1 1 o 0.146 0.176 180.00 0.99324 0.00
4 3 4 2 o 198.608 220.869 180.00 0.98752 0.07
5 -3 4 2 o 87.591 144.896 180.00 0.96705 0.04
2 1 9 1 o 81.063 93.068 180.00 0.98710 0.05
6 1 0 1 o 47.192 52.774 180.00 0.98153 0.04
1 4 -9 2 o 9.871 10.760 0.00 0.98040 0.00
5 -1 -9 1 o 15.972 31.196 180.00 0.95259 0.01
1 6 -4 2 o 11.806 12.732 180.00 0.97989 0.01
1 -2 10 2 o 50.641 54.342 0.00 0.98000 0.02
3 3 -9 2 o 210.146 224.651 0.00 0.99828 0.07
3 1 8 1 o 2.524 2.684 180.00 0.97355 0.00
5 0 -9 1 o 0.544 1.795 180.00 0.95933 0.00
1 5 5 2 o 45.428 51.154 0.00 0.99156 0.02
4 0 7 2 o 3.513 5.824 180.00 0.96485 0.00
3 4 4 2 o 1.057 1.061 180.00 1.00222 0.00
0 6 -5 1 o 55.376 79.430 180.00 0.96597 0.05
4 -5 -5 1 o 37.715 65.801 180.00 0.95913 0.03
2 0 -11 1 o 9.025 9.847 0.00 0.97943 0.00
1 4 7 1 o 110.153 121.627 0.00 0.99063 0.07
4 -2 7 2 o 10.657 22.183 0.00 0.95691 0.00
4 -3 -9 1 o 0.308 1.184 0.00 0.94269 0.00
1 2 9 2 o 71.334 61.691 180.00 1.01062 0.02
6 0 -6 2 o 7.062 7.598 0.00 0.97927 0.00
5 2 3 2 o 26.952 29.328 0.00 0.97855 0.01
3 -3 8 1 o 14.689 29.013 0.00 0.95062 0.01
2 -3 9 2 o 141.265 292.837 180.00 0.95626 0.06
2 -5 -7 1 o 1.635 4.762 0.00 0.94982 0.00
2 -6 -3 2 o 91.508 100.025 0.00 0.98436 0.04
0 3 -10 1 o 28.886 31.678 180.00 0.97166 0.02
5 -2 5 2 o 2.869 7.066 0.00 0.95566 0.00
0 4 8 1 o 16.235 18.567 180.00 0.97055 0.01
1 3 -10 2 o 145.633 159.735 180.00 0.98340 0.05
3 5 -5 1 o 1.531 1.843 180.00 0.98302 0.00
5 -4 2 2 o 49.941 54.806 180.00 0.97757 0.03
4 1 -10 1 o 5.831 9.604 0.00 0.96372 0.00
5 0 5 2 o 55.479 104.287 180.00 0.96220 0.02
6 -2 1 2 o 111.483 125.515 0.00 0.97702 0.05
3 2 -10 2 o 18.568 20.819 180.00 0.98839 0.01
3 3 6 1 o 155.706 178.905 0.00 0.98732 0.11
1 6 1 2 o 0.075 0.176 180.00 0.99324 0.00
3 -4 7 2 o 2.604 6.336 0.00 0.95347 0.00
6 -1 2 1 o 16.545 27.498 0.00 0.96279 0.02
2 1 9 2 o 83.984 93.068 180.00 0.98710 0.03
6 1 -5 1 o 0.451 0.623 180.00 0.98161 0.00
6 1 0 2 o 48.744 52.774 180.00 0.98153 0.02
2 -1 -11 1 o 11.789 20.071 0.00 0.96153 0.01
3 5 1 1 o 40.497 45.004 0.00 0.99090 0.03
5 -1 -9 2 o 15.769 31.196 180.00 0.95259 0.00
2 5 -7 1 o 113.000 151.316 0.00 0.96791 0.09
6 -2 -6 1 o 67.347 129.715 180.00 0.95450 0.05
3 1 8 2 o 1.806 2.684 180.00 0.97355 0.00
0 6 3 1 o 26.717 29.269 180.00 0.97947 0.02
5 0 -9 2 o 0.322 1.795 180.00 0.95933 0.00
4 3 -8 1 o 0.143 0.172 180.00 0.98521 0.00
0 6 -5 2 o 47.025 79.430 180.00 0.96597 0.02
1 4 7 2 o 108.504 121.627 0.00 0.99063 0.03
2 0 -11 2 o 9.348 9.847 0.00 0.97943 0.00
4 -5 -5 2 o 32.737 65.801 180.00 0.95913 0.01
4 -3 -9 2 o 0.645 1.184 0.00 0.94269 0.00
3 -3 8 2 o 15.398 29.013 0.00 0.95062 0.01
5 3 -5 1 o 4.804 4.950 180.00 0.99373 0.00
2 -5 -7 2 o 1.890 4.762 0.00 0.94982 0.00
0 3 -10 2 o 22.059 31.678 180.00 0.97166 0.01
0 4 8 2 o 12.643 18.567 180.00 0.97055 0.00
3 5 -5 2 o 1.591 1.843 180.00 0.98302 0.00
4 1 -10 2 o 4.959 9.604 0.00 0.96372 0.00
4 -5 3 1 o 15.196 24.003 180.00 0.96454 0.02
3 3 6 2 o 160.549 178.905 0.00 0.98732 0.05
0 2 10 1 o 1.993 2.216 180.00 0.97527 0.00
5 -4 -6 1 o 12.872 23.288 180.00 0.94209 0.01
1 0 -11 1 o 5.610 6.161 0.00 0.98080 0.00
6 -1 2 2 o 14.112 27.498 0.00 0.96279 0.01
6 1 -5 2 o 0.510 0.623 180.00 0.98161 0.00
2 -6 4 1 o 35.795 69.094 180.00 0.95596 0.04
3 5 1 2 o 40.651 45.004 0.00 0.99090 0.01
2 -1 -11 2 o 10.074 20.071 0.00 0.96153 0.00
5 3 1 1 o 3.606 3.763 0.00 0.97452 0.00
4 -2 -10 1 o 0.710 0.862 0.00 0.93286 0.00
1 -6 -4 1 o 11.617 20.749 0.00 0.96204 0.01
2 5 -7 2 o 90.240 151.316 0.00 0.96791 0.04
2 -3 -10 1 o 14.785 23.998 180.00 0.94040 0.01
6 -2 -6 2 o 61.172 129.715 180.00 0.95450 0.02
1 -6 5 1 o 0.369 1.721 0.00 0.95502 0.00
6 -3 -3 1 o 24.178 30.399 180.00 0.96912 0.02
2 1 -11 1 o 4.760 4.871 180.00 0.97393 0.00
6 0 2 1 o 0.899 1.565 180.00 0.95519 0.00
0 6 3 2 o 28.493 29.269 180.00 0.97947 0.01
4 3 -8 2 o 0.151 0.172 180.00 0.98521 0.00
2 4 6 1 o 7.151 7.980 0.00 0.98325 0.00
3 4 -8 1 o 32.519 33.195 180.00 0.97263 0.02
5 3 -5 2 o 3.987 4.950 180.00 0.99373 0.00
3 0 -11 1 o 44.167 85.422 180.00 0.95369 0.02
1 -4 9 1 o 2.408 4.636 0.00 0.94579 0.00
0 5 -8 1 o 6.818 12.870 0.00 0.94542 0.00
4 4 -6 1 o 37.902 42.566 0.00 0.98123 0.03
1 -5 -7 2 o 3.996 7.754 180.00 0.94971 0.00
4 -5 3 2 o 12.976 24.003 180.00 0.96454 0.01
2 3 -10 1 o 5.024 5.809 0.00 0.96989 0.00
4 4 -6 2 o 40.304 42.566 0.00 0.98123 0.02
2 -5 7 1 o 158.550 206.276 0.00 0.93649 0.14
6 -1 -7 1 o 5.424 12.129 0.00 0.94425 0.00
0 2 10 2 o 1.536 2.216 180.00 0.97527 0.00
1 0 -11 2 o 5.949 6.161 0.00 0.98080 0.00
5 -4 -6 2 o 17.805 23.288 180.00 0.94209 0.01
5 -3 -8 1 o 6.143 7.428 0.00 0.92806 0.00
1 -5 -7 1 o 3.661 7.754 180.00 0.94971 0.00
4 4 2 1 o 4.953 4.951 0.00 0.97379 0.00
6 1 1 1 o 0.096 1.121 180.00 0.95690 0.00
2 -6 4 2 o 30.739 69.094 180.00 0.95596 0.02
5 3 1 2 o 2.948 3.763 0.00 0.97452 0.00
1 -6 -4 2 o 9.744 20.749 0.00 0.96204 0.00
4 -2 -10 2 o 0.707 0.862 0.00 0.93286 0.00
2 -3 -10 2 o 19.177 23.998 180.00 0.94040 0.01
6 -3 -4 1 o 0.622 1.628 180.00 0.95681 0.00
6 -3 -3 2 o 17.828 30.399 180.00 0.96912 0.01
1 1 -11 1 o 1.184 1.380 0.00 0.97822 0.00
1 -6 5 2 o 0.206 1.721 0.00 0.95502 0.00
2 1 -11 2 o 3.584 4.871 180.00 0.97393 0.00
6 0 2 2 o 0.812 1.565 180.00 0.95519 0.00
2 -6 -4 1 o 1.660 3.555 180.00 0.95553 0.00
2 4 6 2 o 7.280 7.980 0.00 0.98325 0.00
4 -4 -8 1 o 44.950 55.377 180.00 0.92620 0.03
6 -3 -2 1 o 31.772 31.897 180.00 0.97349 0.03
2 4 -9 1 o 107.445 186.416 180.00 0.96100 0.08
3 4 -8 2 o 22.562 33.195 180.00 0.97263 0.01
3 0 -11 2 o 40.704 85.422 180.00 0.95369 0.01
6 -3 -2 2 o 22.263 31.897 180.00 0.97349 0.01
3 -6 -2 1 o 71.894 107.139 180.00 0.96674 0.07
6 -2 2 1 o 8.737 20.405 180.00 0.94806 0.01
1 -1 -11 1 o 134.661 238.998 180.00 0.96001 0.07
5 -2 -9 1 o 121.551 150.342 0.00 0.92512 0.07
1 -4 9 2 o 3.103 4.636 0.00 0.94579 0.00
3 -1 -11 1 o 5.842 9.446 0.00 0.93975 0.00
0 5 -8 2 o 8.896 12.870 0.00 0.94542 0.00
1 6 2 1 o 101.828 114.157 180.00 0.97029 0.08
1 6 -5 1 o 16.813 32.869 0.00 0.95298 0.01
3 -6 -1 1 o 9.414 10.482 180.00 0.97593 0.01
6 0 -7 1 o 0.081 0.162 0.00 0.94607 0.00
2 -4 -9 1 o 3.021 3.599 0.00 0.93090 0.00
2 3 -10 2 o 3.690 5.809 0.00 0.96989 0.00
5 -4 3 1 o 39.619 86.032 180.00 0.94596 0.04
3 -6 1 1 o 10.435 12.799 180.00 0.96949 0.01
2 -5 7 2 o 172.653 206.276 0.00 0.93649 0.07
1 5 -8 1 o -0.014 0.054 180.00 0.94469 0.00
6 -1 -7 2 o 8.228 12.129 0.00 0.94425 0.00
6 -3 -1 1 o 1.013 1.291 180.00 0.96959 0.00
3 -3 -10 1 o 35.029 42.646 180.00 0.92216 0.02
4 4 2 2 o 3.192 4.951 0.00 0.97379 0.00
1 -3 10 1 o 10.735 13.765 180.00 0.93721 0.01
6 1 1 2 o -0.085 1.121 180.00 0.95690 0.00
5 -3 -8 2 o 6.148 7.428 0.00 0.92806 0.00
2 5 4 1 o 0.009 0.004 180.00 0.97211 0.00
5 1 -9 1 o 0.188 0.403 180.00 0.94399 0.00
6 1 -6 1 o -0.115 0.454 180.00 0.95700 0.00
2 6 -2 1 o 1.640 2.613 180.00 0.96172 0.00
1 1 -11 2 o 1.513 1.380 0.00 0.97822 0.00
6 -3 -4 2 o 0.441 1.628 180.00 0.95681 0.00
4 -3 7 1 o 78.841 96.185 0.00 0.92153 0.06
3 -6 0 1 o 80.834 92.598 180.00 0.97687 0.08
2 -6 -4 2 o 1.373 3.555 180.00 0.95553 0.00
2 6 -1 1 o 47.888 85.044 0.00 0.96103 0.04
4 2 6 1 o 0.718 1.538 0.00 0.94922 0.00
2 4 -9 2 o 91.565 186.416 180.00 0.96100 0.03
5 2 -8 1 o 33.514 70.739 0.00 0.95524 0.02
4 -4 -8 2 o 45.943 55.377 180.00 0.92620 0.01
2 6 -3 1 o 2.601 6.292 0.00 0.95448 0.00
3 -6 -2 2 o 59.885 107.139 180.00 0.96674 0.03
3 -5 -7 1 o 11.551 13.980 0.00 0.92754 0.01
6 -2 2 2 o 10.662 20.405 180.00 0.94806 0.01
1 -1 -11 2 o 113.455 238.998 180.00 0.96001 0.03
5 -2 -9 2 o 125.499 150.342 0.00 0.92512 0.04
1 6 2 2 o 67.145 114.157 180.00 0.97029 0.03
3 -6 -1 2 o 9.048 10.482 180.00 0.97593 0.00
3 -1 -11 2 o 7.662 9.446 0.00 0.93975 0.00
1 6 -5 2 o 15.774 32.869 0.00 0.95298 0.01
3 5 -6 1 o 38.954 88.011 180.00 0.95317 0.03
5 1 5 1 o 3.467 4.007 180.00 0.93282 0.00
6 0 -7 2 o 0.107 0.162 0.00 0.94607 0.00
2 -4 -9 2 o 2.939 3.599 0.00 0.93090 0.00
3 -5 6 1 o 3.142 3.985 180.00 0.92560 0.00
3 -6 1 2 o 7.021 12.799 180.00 0.96949 0.00
5 -4 3 2 o 54.648 86.032 180.00 0.94596 0.03
3 1 -11 1 o 25.848 62.222 180.00 0.94591 0.01
1 5 -8 2 o 0.015 0.054 180.00 0.94469 0.00
3 -1 9 1 o 13.905 16.065 180.00 0.93209 0.01
6 -3 -1 2 o 0.602 1.291 180.00 0.96959 0.00
5 3 -6 1 o 1.740 2.522 0.00 0.96717 0.00
4 -5 -6 1 o 1.782 2.358 180.00 0.92462 0.00
6 -3 0 1 o 2.812 5.852 180.00 0.95773 0.00
3 -3 -10 2 o 36.360 42.646 180.00 0.92216 0.01
1 -3 10 2 o 11.985 13.765 180.00 0.93721 0.00
1 -5 8 1 o 5.326 6.571 180.00 0.92403 0.00
2 5 4 2 o -0.047 0.004 180.00 0.97211 0.00
6 1 -6 2 o -0.227 0.454 180.00 0.95700 0.00
5 1 -9 2 o 0.292 0.403 180.00 0.94399 0.00
2 6 -2 2 o 1.450 2.613 180.00 0.96172 0.00
3 -6 0 2 o 94.219 92.598 180.00 0.97687 0.05
4 -3 7 2 o 81.843 96.185 0.00 0.92153 0.03
2 6 -1 2 o 40.433 85.044 0.00 0.96103 0.02
1 1 10 1 o 21.625 18.803 180.00 0.97335 0.01
4 -4 6 2 o 38.525 45.424 180.00 0.92138 0.02
3 -6 -3 1 o 26.649 66.453 180.00 0.94999 0.03
4 2 6 2 o 0.788 1.538 0.00 0.94922 0.00
4 -5 4 1 o 99.488 116.081 180.00 0.93069 0.09
0 6 -6 1 o 4.013 4.741 0.00 0.92988 0.00
1 -3 -10 1 o 0.663 0.851 180.00 0.93670 0.00
6 -3 -5 1 o 0.994 1.288 0.00 0.93744 0.00
5 2 -8 2 o 26.919 70.739 0.00 0.95524 0.01
2 6 -3 2 o 2.054 6.292 0.00 0.95448 0.00
2 -1 10 1 o 16.477 20.310 0.00 0.93615 0.01
4 1 7 1 o 158.945 194.002 0.00 0.93587 0.11
3 -5 -7 2 o 11.595 13.980 0.00 0.92754 0.00
3 -6 2 1 o 8.563 16.816 0.00 0.95434 0.01
6 -2 -7 1 o 24.064 29.444 180.00 0.92179 0.02
3 5 2 1 o 16.036 30.291 180.00 0.96278 0.01
4 -4 6 1 o 37.169 45.424 180.00 0.92138 0.03
3 5 -6 2 o 34.420 88.011 180.00 0.95317 0.01
1 -4 -9 1 o 210.622 256.722 180.00 0.92763 0.11
5 -3 5 1 o 3.302 4.144 180.00 0.92102 0.00
3 -4 -9 1 o 14.969 17.493 0.00 0.91289 0.01
0 1 -11 1 o 0.110 0.545 180.00 0.95785 0.00
5 1 5 2 o 3.293 4.007 180.00 0.93282 0.00
6 2 -3 1 o 39.365 73.630 180.00 0.95735 0.03
3 -5 6 2 o 3.261 3.985 180.00 0.92560 0.00
3 1 -11 2 o 38.509 62.222 180.00 0.94591 0.01
5 2 4 1 o -0.047 0.000 0.00 0.93340 0.00
3 -1 9 2 o 13.101 16.065 180.00 0.93209 0.00
6 -1 3 1 o 41.409 51.346 0.00 0.92680 0.03
5 3 -6 2 o 1.492 2.522 0.00 0.96717 0.00
0 6 4 1 o 54.912 126.146 180.00 0.94499 0.04
6 2 -2 1 o 4.258 8.066 180.00 0.95629 0.00
6 -3 0 2 o 2.179 5.852 180.00 0.95773 0.00
4 -5 -6 2 o 1.886 2.358 180.00 0.92462 0.00
1 -5 8 2 o 5.572 6.571 180.00 0.92403 0.00
3 -2 9 1 o 6.180 7.507 180.00 0.91785 0.00
1 1 10 2 o 12.345 18.803 180.00 0.97335 0.00
5 3 2 1 o 4.115 8.408 0.00 0.94374 0.00
6 -3 1 1 o 6.640 9.601 180.00 0.93874 0.01
3 -6 -3 2 o 28.156 66.453 180.00 0.94999 0.01
4 -5 4 2 o 92.736 116.081 180.00 0.93069 0.04
1 -3 -10 2 o 0.728 0.851 180.00 0.93670 0.00
0 6 -6 2 o 3.791 4.741 0.00 0.92988 0.00
6 -3 -5 2 o 1.124 1.288 0.00 0.93744 0.00
2 -2 -11 1 o 1.031 1.278 180.00 0.92378 0.00
2 -1 10 2 o 17.510 20.310 0.00 0.93615 0.01
4 1 7 2 o 166.465 194.002 0.00 0.93587 0.05
3 -6 2 2 o 7.331 16.816 0.00 0.95434 0.00
2 6 0 1 o 53.967 126.889 0.00 0.95246 0.04
1 2 -11 1 o 1.681 4.312 180.00 0.95279 0.00
3 5 2 2 o 13.798 30.291 180.00 0.96278 0.01
6 -2 -7 2 o 25.046 29.444 180.00 0.92179 0.01
6 2 -1 1 o 45.850 111.438 0.00 0.94746 0.04
2 6 0 2 o 48.558 126.889 0.00 0.95246 0.02
2 -6 5 1 o 70.899 87.228 180.00 0.92243 0.06
1 -4 -9 2 o 209.862 256.722 180.00 0.92763 0.05
0 1 -11 2 o 0.008 0.545 180.00 0.95785 0.00
5 -3 5 2 o 3.436 4.144 180.00 0.92102 0.00
5 -1 6 1 o 33.155 38.854 0.00 0.91501 0.02
3 -4 -9 2 o 15.873 17.493 0.00 0.91289 0.00
6 2 -3 2 o 31.683 73.630 180.00 0.95735 0.01
2 6 -4 1 o 11.574 18.248 0.00 0.93982 0.01
5 2 4 2 o -0.067 0.000 0.00 0.93340 0.00
6 2 -4 1 o 10.242 27.432 0.00 0.95058 0.01
6 -1 3 2 o 42.038 51.346 0.00 0.92680 0.02
6 2 -2 2 o 3.434 8.066 180.00 0.95629 0.00
0 6 4 2 o 87.297 126.146 180.00 0.94499 0.03
5 -4 -7 1 o 36.411 39.411 180.00 0.90614 0.02
2 -2 10 1 o 13.308 15.928 180.00 0.92019 0.01
3 -6 -4 1 o 3.366 4.411 180.00 0.92681 0.00
6 1 2 1 o 28.030 35.218 180.00 0.92677 0.02
3 0 9 1 o 135.884 170.559 0.00 0.92607 0.08
3 -2 9 2 o 6.305 7.507 180.00 0.91785 0.00
5 3 2 2 o 6.580 8.408 0.00 0.94374 0.00
3 -6 3 1 o 18.928 21.425 180.00 0.93249 0.02
6 -3 1 2 o 8.526 9.601 180.00 0.93874 0.00
6 0 3 1 o 84.725 100.037 180.00 0.91909 0.06
1 -6 -5 1 o 76.998 97.593 0.00 0.92496 0.05
2 -2 -11 2 o 1.085 1.278 180.00 0.92378 0.00
5 -2 6 1 o 19.452 20.411 180.00 0.90354 0.01
0 2 -11 1 o 0.196 0.312 180.00 0.93653 0.00
1 2 -11 2 o 1.447 4.312 180.00 0.95279 0.00
1 -6 6 1 o 20.311 24.002 0.00 0.91734 0.02
1 6 3 1 o 58.397 114.247 180.00 0.94125 0.04
4 3 5 1 o 21.495 24.928 180.00 0.93567 0.01
6 2 -1 2 o 57.699 111.438 0.00 0.94746 0.02
2 2 -11 1 o 13.370 38.410 0.00 0.94614 0.01
2 -6 5 2 o 74.598 87.228 180.00 0.92243 0.03
3 4 5 1 o 0.154 0.407 180.00 0.95017 0.00
4 4 -7 1 o 16.993 49.868 0.00 0.94586 0.01
5 -1 6 2 o 34.492 38.854 0.00 0.91501 0.01
3 -2 -11 2 o 40.760 42.387 180.00 0.90677 0.01
2 6 -4 2 o 16.207 18.248 0.00 0.93982 0.01
2 -6 -5 1 o 0.583 0.749 180.00 0.92194 0.00
6 2 -4 2 o 9.909 27.432 0.00 0.95058 0.00
0 5 7 1 o 59.384 73.318 180.00 0.92724 0.04
1 5 6 1 o 1.329 2.117 0.00 0.93850 0.00
1 6 -6 1 o 0.383 0.631 180.00 0.92104 0.00
2 -2 10 2 o 13.622 15.928 180.00 0.92019 0.00
5 -4 -7 2 o 38.142 39.411 180.00 0.90614 0.01
3 -6 -4 2 o 3.447 4.411 180.00 0.92681 0.00
5 0 6 1 o 36.903 40.619 180.00 0.90727 0.03
6 1 2 2 o 28.594 35.218 180.00 0.92677 0.01
6 -2 3 1 o 14.791 17.489 180.00 0.91456 0.01
3 -2 -11 1 o 38.917 42.387 180.00 0.90677 0.02
3 0 9 2 o 141.500 170.559 0.00 0.92607 0.04
4 4 3 1 o 69.720 87.167 0.00 0.93754 0.05
6 1 -7 1 o 26.752 32.719 0.00 0.92690 0.02
3 -6 3 2 o 16.978 21.425 180.00 0.93249 0.01
6 -1 -8 1 o 75.491 82.034 0.00 0.90667 0.04
6 0 3 2 o 85.969 100.037 180.00 0.91909 0.03
2 0 10 1 o 0.339 0.406 180.00 0.93164 0.00
0 0 11 1 o 48.369 99.603 0.00 0.95748 0.03
1 -6 -5 2 o 81.999 97.593 0.00 0.92496 0.03
4 -1 8 1 o 131.797 141.418 180.00 0.90575 0.09
6 2 0 1 o 11.226 12.493 0.00 0.93151 0.01
0 2 -11 2 o 0.242 0.312 180.00 0.93653 0.00
5 -1 -10 1 o 42.801 42.955 180.00 0.89799 0.02
5 -2 6 2 o 20.308 20.411 180.00 0.90354 0.01
4 2 -10 1 o 27.204 30.666 180.00 0.93066 0.02
1 6 3 2 o 102.800 114.247 180.00 0.94125 0.04
1 -6 6 2 o 20.654 24.002 0.00 0.91734 0.01
6 -3 -6 1 o 0.149 0.192 0.00 0.91228 0.00
4 3 5 2 o 21.840 24.928 180.00 0.93567 0.01
5 0 -10 1 o 49.595 52.487 180.00 0.90451 0.03
2 2 -11 2 o 21.970 38.410 0.00 0.94614 0.01
3 4 5 2 o 0.156 0.407 180.00 0.95017 0.00
4 4 -7 2 o 29.843 49.868 0.00 0.94586 0.01
1 3 9 1 o 172.416 241.901 180.00 0.93886 0.09
3 3 -10 1 o 31.742 34.485 0.00 0.93406 0.02
5 -4 4 1 o 4.433 5.125 180.00 0.91035 0.00
2 -6 -5 2 o 0.621 0.749 180.00 0.92194 0.00
3 -4 8 1 o 22.444 21.513 0.00 0.89550 0.02
4 3 -9 1 o 62.777 67.295 180.00 0.93338 0.04
2 5 -8 1 o 8.130 10.306 0.00 0.92198 0.01
1 5 6 2 o 1.866 2.117 0.00 0.93850 0.00
0 5 7 2 o 59.725 73.318 180.00 0.92724 0.02
1 6 -6 2 o 0.427 0.631 180.00 0.92104 0.00
6 0 -8 1 o 0.510 0.573 180.00 0.90918 0.00
4 0 -11 1 o 25.674 28.805 0.00 0.90884 0.01
5 0 6 2 o 38.883 40.619 180.00 0.90727 0.01
6 -2 3 2 o 15.475 17.489 180.00 0.91456 0.01
2 6 1 1 o 2.673 3.187 0.00 0.93661 0.00
4 4 3 2 o 81.409 87.167 0.00 0.93754 0.03
4 -2 8 1 o 57.829 54.062 0.00 0.89407 0.04
6 1 -7 2 o 27.226 32.719 0.00 0.92690 0.01
0 0 11 2 o 36.861 99.603 0.00 0.95748 0.01
4 -1 -11 2 o 23.438 21.573 180.00 0.89904 0.01
6 -1 -8 2 o 78.942 82.034 0.00 0.90667 0.02
2 0 10 2 o 0.236 0.406 180.00 0.93164 0.00
1 -2 -11 1 o 21.703 25.997 0.00 0.91997 0.01
6 2 -5 1 o 18.579 21.271 0.00 0.93646 0.01
6 2 0 2 o 9.732 12.493 0.00 0.93151 0.00
4 -3 -10 1 o 25.017 20.698 0.00 0.88552 0.01
4 -1 8 2 o 136.584 141.418 180.00 0.90575 0.04
5 -5 -3 1 o -0.090 0.002 0.00 0.92589 0.00
6 -3 2 1 o 0.508 0.589 0.00 0.91388 0.00
3 2 8 1 o 41.018 52.450 0.00 0.92462 0.02
2 6 -5 1 o 25.660 30.096 0.00 0.91875 0.02
4 2 -10 2 o 23.516 30.666 180.00 0.93066 0.01
5 3 -7 1 o 75.714 80.849 180.00 0.93517 0.05
5 -1 -10 2 o 47.294 42.955 180.00 0.89799 0.01
2 3 8 1 o 7.988 20.631 0.00 0.94320 0.00
6 -3 -6 2 o 0.168 0.192 0.00 0.91228 0.00
4 -1 -11 1 o 21.177 21.573 180.00 0.89904 0.01
5 0 -10 2 o 51.209 52.487 180.00 0.90451 0.01
2 -4 9 1 o 12.884 13.104 0.00 0.89879 0.01
2 2 9 1 o 2.326 2.836 180.00 0.93781 0.00
1 3 9 2 o 225.815 241.901 180.00 0.93886 0.06
3 3 -10 2 o 28.616 34.485 0.00 0.93406 0.01
2 -5 -8 1 o 1.710 1.703 180.00 0.89752 0.00
5 -4 4 2 o 4.830 5.125 180.00 0.91035 0.00
4 3 -9 2 o 54.941 67.295 180.00 0.93338 0.02
2 5 -8 2 o 8.684 10.306 0.00 0.92198 0.00
3 -4 8 2 o 24.770 21.513 0.00 0.89550 0.01
4 5 -2 1 o 14.201 14.813 180.00 0.93153 0.01
6 0 -8 2 o 0.549 0.573 180.00 0.90918 0.00
4 0 -11 2 o 27.546 28.805 0.00 0.90884 0.01
5 -3 -9 1 o 110.861 90.194 180.00 0.88186 0.06
2 6 1 2 o 2.941 3.187 0.00 0.93661 0.00
0 1 11 1 o 23.723 25.399 180.00 0.93551 0.01
4 -2 8 2 o 62.869 54.062 0.00 0.89407 0.02
1 4 -10 1 o 56.257 66.138 0.00 0.91479 0.04
6 2 -5 2 o 19.760 21.271 0.00 0.93646 0.01
1 -2 -11 2 o 22.081 25.997 0.00 0.91997 0.00
4 5 -3 1 o 12.665 14.022 180.00 0.92967 0.01
4 -3 -10 2 o 25.990 20.698 0.00 0.88552 0.01
0 4 -10 1 o 15.092 16.626 0.00 0.90767 0.01
5 -5 -3 2 o -0.067 0.002 0.00 0.92589 0.00
1 4 8 1 o 4.644 6.047 0.00 0.92413 0.00
6 -3 2 2 o 0.533 0.589 0.00 0.91388 0.00
5 3 -7 2 o 71.629 80.849 180.00 0.93517 0.02
3 2 8 2 o 45.493 52.450 0.00 0.92462 0.01
2 3 8 2 o 17.353 20.631 0.00 0.94320 0.00
4 -5 -7 1 o 1.413 1.207 0.00 0.88722 0.00
2 6 -5 2 o 25.455 30.096 0.00 0.91875 0.01
5 -5 -2 1 o 106.390 110.584 0.00 0.93452 0.09
3 5 -7 1 o 11.777 13.961 180.00 0.91881 0.01
4 -5 5 1 o 21.677 20.039 180.00 0.89367 0.02
2 -4 9 2 o 14.284 13.104 0.00 0.89879 0.00
3 -3 9 1 o 9.318 7.881 180.00 0.88595 0.01
2 2 9 2 o 2.746 2.836 180.00 0.93781 0.00
6 -2 -8 1 o 13.844 11.480 180.00 0.88590 0.01
1 -1 11 1 o 105.803 120.926 180.00 0.91708 0.06
2 -5 -8 2 o 1.895 1.703 180.00 0.89752 0.00
4 0 8 1 o 7.690 7.907 0.00 0.89879 0.00
3 -6 4 1 o 4.548 4.851 180.00 0.90531 0.00
3 -6 -5 1 o 30.190 31.058 180.00 0.89864 0.02
2 -5 8 1 o 56.327 46.089 0.00 0.88467 0.04
4 5 -1 1 o 0.236 0.323 180.00 0.92616 0.00
4 -4 -9 1 o 34.187 27.768 0.00 0.87704 0.02
4 5 -2 2 o 11.129 14.813 180.00 0.93153 0.00
3 4 -9 1 o 9.622 11.537 0.00 0.92081 0.01
3 5 3 1 o 17.013 19.059 180.00 0.92959 0.01
5 -5 -4 1 o 5.755 6.557 180.00 0.91061 0.00
5 4 -3 1 o 20.460 22.414 180.00 0.92970 0.01
0 1 11 2 o 23.152 25.399 180.00 0.93551 0.01
5 4 -2 1 o 4.176 4.641 180.00 0.92966 0.00
5 -3 -9 2 o 112.025 90.194 180.00 0.88186 0.03
6 2 1 1 o 39.032 44.473 0.00 0.90947 0.03
1 4 -10 2 o 58.376 66.138 0.00 0.91479 0.02
5 3 3 1 o 51.207 58.337 180.00 0.90885 0.03
4 5 -3 2 o 10.795 14.022 180.00 0.92967 0.00
3 3 7 1 o 62.298 81.445 0.00 0.92387 0.04
0 4 -10 2 o 15.957 16.626 0.00 0.90767 0.00
1 4 8 2 o 5.200 6.047 0.00 0.92413 0.00
5 -5 -2 2 o 95.567 110.584 0.00 0.93452 0.04
3 5 -7 2 o 11.524 13.961 180.00 0.91881 0.00
4 -5 -7 2 o 1.483 1.207 0.00 0.88722 0.00
1 -5 -8 1 o 5.305 5.011 180.00 0.89487 0.00
0 6 5 1 o 19.214 20.995 180.00 0.90710 0.01
5 -2 -10 1 o 1.201 0.830 0.00 0.87407 0.00
3 -5 -8 1 o 35.834 28.866 180.00 0.88107 0.02
3 2 -11 1 o 39.033 44.520 180.00 0.91794 0.02
5 4 -1 1 o 85.212 107.110 180.00 0.92246 0.06
6 -1 4 1 o 2.477 2.029 0.00 0.88819 0.00
2 5 5 1 o -0.019 0.000 180.00 0.92627 0.00
4 -5 5 2 o 23.566 20.039 180.00 0.89367 0.01
0 3 10 1 o 26.990 31.644 0.00 0.91180 0.01
3 -3 9 2 o 9.681 7.881 180.00 0.88595 0.00
6 -2 -8 2 o 14.431 11.480 180.00 0.88590 0.00
1 -1 11 2 o 101.747 120.926 180.00 0.91708 0.03
4 1 -11 1 o 139.007 145.710 0.00 0.89979 0.06
2 -3 10 1 o 59.089 49.285 180.00 0.88669 0.04
4 0 8 2 o 8.644 7.907 0.00 0.89879 0.00
4 5 -4 1 o 10.002 12.242 180.00 0.92070 0.01
4 -2 -11 1 o 14.906 11.977 0.00 0.87213 0.01
3 -6 4 2 o 4.624 4.851 180.00 0.90531 0.00
4 5 -1 2 o 0.261 0.323 180.00 0.92616 0.00
3 -6 -5 2 o 34.243 31.058 180.00 0.89864 0.01
2 -5 8 2 o 57.891 46.089 0.00 0.88467 0.02
6 1 3 1 o 150.493 136.245 180.00 0.89284 0.10
6 2 -6 1 o 18.959 21.928 0.00 0.91594 0.01
3 -5 7 1 o 48.761 38.990 180.00 0.87916 0.04
4 -4 -9 2 o 34.764 27.768 0.00 0.87704 0.01
2 -6 6 1 o 0.509 0.370 180.00 0.88586 0.00
3 4 -9 2 o 9.917 11.537 0.00 0.92081 0.00
3 5 3 2 o 13.966 19.059 180.00 0.92959 0.01
5 -5 -4 2 o 6.283 6.557 180.00 0.91061 0.00
5 4 -3 2 o 16.693 22.414 180.00 0.92970 0.01
5 4 -2 2 o 3.432 4.641 180.00 0.92966 0.00
0 4 9 1 o 18.549 19.289 0.00 0.90372 0.01
1 3 -11 1 o 57.689 66.249 180.00 0.90945 0.03
5 2 -9 1 o 11.096 12.837 0.00 0.90955 0.01
5 2 -9 2 o 12.427 12.837 0.00 0.90955 0.00
6 2 1 2 o 43.002 44.473 0.00 0.90947 0.01
0 6 -7 1 o 30.031 26.465 0.00 0.89111 0.02
5 3 3 2 o 56.494 58.337 180.00 0.90885 0.02
0 5 -9 1 o 97.933 85.546 180.00 0.89085 0.06
3 3 7 2 o 71.651 81.445 0.00 0.92387 0.02
2 4 7 1 o 82.045 103.047 180.00 0.92239 0.05
6 -3 -7 2 o 5.234 4.089 180.00 0.88278 0.00
0 6 5 2 o 20.002 20.995 180.00 0.90710 0.01
1 -5 -8 2 o 5.875 5.011 180.00 0.89487 0.00
6 -4 -3 1 o 7.969 9.112 0.00 0.90815 0.01
5 4 -1 2 o 95.398 107.110 180.00 0.92246 0.03
3 2 -11 2 o 37.561 44.520 180.00 0.91794 0.01
5 -2 -10 2 o 1.297 0.830 0.00 0.87407 0.00
2 5 5 2 o -0.014 0.000 180.00 0.92627 0.00
3 -5 -8 2 o 35.929 28.866 180.00 0.88107 0.01
5 -5 -5 1 o 36.305 31.103 0.00 0.88965 0.03
6 -1 4 2 o 2.662 2.029 0.00 0.88819 0.00
3 1 9 1 o 146.400 155.476 180.00 0.90091 0.08
1 -2 11 2 o 0.018 0.000 180.00 0.90062 0.00
6 -3 -7 1 o 5.206 4.089 180.00 0.88278 0.00
5 -5 1 1 o 4.723 5.459 0.00 0.91713 0.01
0 3 10 2 o 29.646 31.644 0.00 0.91180 0.01
1 2 10 1 o 5.796 7.050 0.00 0.92757 0.00
5 -5 -1 1 o 195.138 231.799 0.00 0.93592 0.18
1 -2 11 1 o -0.020 0.000 180.00 0.90062 0.00
5 -4 -8 1 o 39.462 29.658 180.00 0.86806 0.02
1 -4 10 1 o 84.240 66.993 180.00 0.88156 0.05
5 -3 6 1 o 27.135 21.720 180.00 0.87489 0.02
4 1 -11 2 o 155.909 145.710 0.00 0.89979 0.03
4 5 -4 2 o 10.241 12.242 180.00 0.92070 0.00
2 -3 10 2 o 62.198 49.285 180.00 0.88669 0.02
2 6 2 1 o 88.243 106.653 0.00 0.91456 0.06
4 -2 -11 2 o 16.016 11.977 0.00 0.87213 0.00
6 2 -6 2 o 18.710 21.928 0.00 0.91594 0.01
5 -5 0 1 o 107.108 111.988 0.00 0.92999 0.10
6 1 3 2 o 161.843 136.245 180.00 0.89284 0.05
5 4 -4 1 o 7.231 9.244 180.00 0.92258 0.00
1 0 11 1 o 44.410 54.796 180.00 0.91434 0.02
3 -5 7 2 o 48.476 38.990 180.00 0.87916 0.02
4 5 0 1 o 1.089 1.333 0.00 0.91393 0.00
6 0 4 1 o 1.174 0.942 180.00 0.88057 0.00
2 -6 6 2 o 0.543 0.370 180.00 0.88586 0.00
1 5 -9 1 o 62.548 56.513 0.00 0.89275 0.04
6 1 -8 1 o 11.530 10.303 180.00 0.89298 0.01
0 4 9 2 o 18.764 19.289 0.00 0.90372 0.00
1 3 -11 2 o 64.435 66.249 180.00 0.90945 0.02
5 1 -10 1 o 14.786 13.220 0.00 0.89248 0.01
0 6 -7 2 o 31.903 26.465 0.00 0.89111 0.01
1 6 4 1 o 82.478 92.571 180.00 0.90785 0.05
2 4 7 2 o 91.134 103.047 180.00 0.92239 0.03
0 3 -11 1 o 17.495 17.857 0.00 0.89755 0.01
4 -4 7 1 o 86.563 70.034 0.00 0.87237 0.06
2 -6 -6 1 o 25.769 21.216 180.00 0.88534 0.02
0 5 -9 2 o 104.173 85.546 180.00 0.89085 0.03
2 1 10 1 o 2.703 2.979 0.00 0.90751 0.00
6 -4 -2 1 o 0.751 0.926 180.00 0.91265 0.00
6 -4 -4 1 o 53.756 54.332 0.00 0.89713 0.04
6 -2 4 1 o 46.775 37.249 180.00 0.87821 0.03
2 4 -10 1 o 48.787 51.371 180.00 0.90157 0.03
1 -6 7 1 o 1.717 1.254 0.00 0.87764 0.00
6 -4 -3 2 o 8.771 9.112 0.00 0.90815 0.00
6 -3 3 1 o 0.953 0.722 180.00 0.88459 0.00
2 -4 -10 1 o 4.975 3.982 0.00 0.87020 0.00
1 -7 1 1 o 6.197 6.675 180.00 0.90099 0.01
5 -5 -5 2 o 38.635 31.103 0.00 0.88965 0.01
3 1 9 2 o 161.016 155.476 180.00 0.90091 0.04
1 2 10 2 o 5.709 7.050 0.00 0.92757 0.00
5 -5 1 2 o 4.347 5.459 0.00 0.91713 0.00
5 -5 -1 2 o 199.153 231.799 0.00 0.93592 0.09
5 -4 -8 2 o 43.876 29.658 180.00 0.86806 0.01
1 -4 10 2 o 83.499 66.993 180.00 0.88156 0.03
4 -6 -2 1 o 0.518 0.710 0.00 0.91011 0.00
5 -3 6 2 o 28.100 21.720 180.00 0.87489 0.01
2 6 2 2 o 91.352 106.653 0.00 0.91456 0.03
2 0 -12 1 o 1.886 2.061 180.00 0.89965 0.00
2 0 -12 2 o 2.271 2.061 180.00 0.89965 0.00
5 -5 0 2 o 77.408 111.988 0.00 0.92999 0.04
5 4 -4 2 o 8.410 9.244 180.00 0.92258 0.00
5 4 0 1 o 22.198 25.734 180.00 0.90859 0.01
1 0 11 2 o 46.397 54.796 180.00 0.91434 0.01
5 1 6 1 o 53.372 42.621 0.00 0.88169 0.03
4 5 0 2 o 1.150 1.333 0.00 0.91393 0.00
5 2 5 1 o 0.128 0.044 0.00 0.88759 0.00
6 0 4 2 o 1.157 0.942 180.00 0.88057 0.00
1 5 -9 2 o 67.037 56.513 0.00 0.89275 0.02
6 1 -8 2 o 12.482 10.303 180.00 0.89298 0.00
2 6 -6 1 o 20.880 18.678 0.00 0.89256 0.01
4 -6 -3 1 o 15.457 16.555 0.00 0.89866 0.01
5 1 -10 2 o 15.834 13.220 0.00 0.89248 0.00
4 4 -8 1 o 110.801 122.713 0.00 0.90725 0.06
1 6 4 2 o 88.952 92.571 180.00 0.90785 0.03
0 7 -1 1 o 113.307 117.138 0.00 0.89732 0.09
6 -1 -9 1 o 8.609 6.605 180.00 0.86731 0.00
5 -5 2 1 o 8.179 8.655 0.00 0.89819 0.01
0 3 -11 2 o 20.287 17.857 0.00 0.89755 0.01
2 -6 -6 2 o 26.625 21.216 180.00 0.88534 0.01
1 6 -7 1 o 14.141 11.521 180.00 0.88578 0.01
4 -4 7 2 o 92.838 70.034 0.00 0.87237 0.03
2 1 10 2 o 2.856 2.979 0.00 0.90751 0.00
1 -6 -6 1 o 182.856 150.508 0.00 0.88553 0.10
6 -4 -5 1 o 26.629 20.914 0.00 0.88029 0.02
2 -3 -11 1 o 30.744 24.649 180.00 0.87270 0.01
6 -4 -2 2 o 0.837 0.926 180.00 0.91265 0.00
2 3 -11 1 o 65.589 69.879 180.00 0.90133 0.03
4 2 7 1 o 32.751 28.238 180.00 0.89076 0.02
6 -4 -4 2 o 62.135 54.332 0.00 0.89713 0.02
2 -1 -12 1 o 1.682 1.393 180.00 0.88488 0.00
2 4 -10 2 o 52.291 51.371 180.00 0.90157 0.01
4 -3 8 1 o 18.436 13.212 0.00 0.86579 0.01
6 -2 4 2 o 46.257 37.249 180.00 0.87821 0.02
1 -6 7 2 o 1.700 1.254 0.00 0.87764 0.00
4 5 -5 1 o 0.714 0.741 180.00 0.90522 0.00
1 -7 0 1 o 4.877 5.331 180.00 0.90076 0.00
6 -3 3 2 o 0.980 0.722 180.00 0.88459 0.00
6 -4 -1 1 o 7.994 9.288 180.00 0.91034 0.01
5 -4 5 1 o 2.430 2.002 0.00 0.87244 0.00
1 -7 1 2 o 6.883 6.675 180.00 0.90099 0.00
6 -4 0 1 o 17.337 18.641 0.00 0.90138 0.02
2 -4 -10 2 o 5.445 3.982 0.00 0.87020 0.00
3 -4 -10 1 o 4.038 2.223 0.00 0.85767 0.00
7 -1 -3 1 o 28.291 27.594 180.00 0.89568 0.02
1 -7 2 1 o 37.914 36.032 0.00 0.89469 0.03
5 3 -8 1 o 71.385 80.082 180.00 0.89951 0.04
4 -6 -2 2 o 0.698 0.710 0.00 0.91011 0.00
4 -6 1 1 o 26.834 26.876 0.00 0.90440 0.02
7 -1 -2 1 o 20.733 19.674 180.00 0.89483 0.02
1 -5 9 1 o 0.458 0.363 180.00 0.87052 0.00
4 4 4 1 o 71.989 78.046 0.00 0.89845 0.04
0 7 -2 1 o 135.398 124.276 0.00 0.89363 0.10
6 2 2 1 o 46.278 36.824 0.00 0.88267 0.03
3 -1 -12 1 o 168.579 133.713 0.00 0.87015 0.06
5 4 0 2 o 25.300 25.734 180.00 0.90859 0.01
6 0 -9 1 o 23.273 18.550 0.00 0.87029 0.01
3 6 -2 1 o 0.005 0.013 180.00 0.89794 0.00
5 1 6 2 o 52.721 42.621 0.00 0.88169 0.02
5 2 5 2 o 0.166 0.044 0.00 0.88759 0.00
3 0 -12 1 o 107.763 85.589 0.00 0.88200 0.04
2 6 -6 2 o 22.330 18.678 0.00 0.89256 0.01
4 -6 -3 2 o 18.405 16.555 0.00 0.89866 0.01
5 -1 7 1 o 6.649 4.444 0.00 0.86233 0.00
4 4 -8 2 o 115.865 122.713 0.00 0.90725 0.03
4 -6 -4 1 o 42.154 32.946 0.00 0.88139 0.03
0 7 -1 2 o 134.812 117.138 0.00 0.89732 0.05
5 -5 2 2 o 9.845 8.655 0.00 0.89819 0.00
6 -1 -9 2 o 9.582 6.605 180.00 0.86731 0.00
4 1 8 1 o 0.210 0.084 0.00 0.87443 0.00
1 6 -7 2 o 14.784 11.521 180.00 0.88578 0.01
5 4 -5 1 o 23.509 28.119 180.00 0.90877 0.01
0 2 11 1 o 36.784 36.353 180.00 0.89606 0.02
1 -6 -6 2 o 189.882 150.508 0.00 0.88553 0.05
2 1 -12 1 o 7.643 7.616 180.00 0.89623 0.00
6 -4 -5 2 o 25.979 20.914 0.00 0.88029 0.01
3 -6 5 1 o 4.797 3.806 180.00 0.87428 0.00
7 0 -3 1 o 58.405 50.571 0.00 0.89155 0.04
4 -6 -1 1 o -0.079 0.028 180.00 0.91502 0.00
2 3 -11 2 o 71.283 69.879 180.00 0.90133 0.02
2 -3 -11 2 o 33.029 24.649 180.00 0.87270 0.01
4 2 7 2 o 34.636 28.238 180.00 0.89076 0.01
2 -1 -12 2 o 1.722 1.393 180.00 0.88488 0.00
4 5 -5 2 o 0.653 0.741 180.00 0.90522 0.00
3 -3 -11 1 o 12.504 8.130 180.00 0.86032 0.00
3 6 -1 1 o 3.862 3.702 180.00 0.89481 0.00
1 -7 0 2 o 5.540 5.331 180.00 0.90076 0.00
3 -6 -6 1 o 15.903 11.760 180.00 0.86695 0.01
4 -3 8 2 o 20.724 13.212 0.00 0.86579 0.01
6 -4 -1 2 o 9.223 9.288 180.00 0.91034 0.00
6 2 -7 1 o 24.969 21.240 0.00 0.89028 0.01
3 6 -3 1 o 5.298 4.987 0.00 0.89457 0.00
6 -4 0 2 o 18.951 18.641 0.00 0.90138 0.01
0 7 0 1 o 17.148 16.086 0.00 0.89454 0.01
5 -4 5 2 o 2.604 2.002 0.00 0.87244 0.00
7 -1 -3 2 o 32.544 27.594 180.00 0.89568 0.01
7 -1 -4 1 o 1.693 1.378 180.00 0.89011 0.00
7 0 -2 1 o 44.139 37.226 0.00 0.88986 0.03
3 -4 -10 2 o 4.514 2.223 0.00 0.85767 0.00
1 -7 -1 1 o 12.328 11.516 0.00 0.89402 0.01
1 -7 2 2 o 42.081 36.032 0.00 0.89469 0.02
0 7 -3 1 o 4.247 3.448 180.00 0.88369 0.00
5 3 -8 2 o 86.462 80.082 180.00 0.89951 0.02
4 -6 2 1 o 26.204 22.030 0.00 0.88955 0.02
4 -6 1 2 o 23.555 26.876 0.00 0.90440 0.01
1 0 -12 1 o 26.012 27.973 0.00 0.89811 0.01
7 -1 -2 2 o 23.357 19.674 180.00 0.89483 0.01
1 -5 9 2 o 0.506 0.363 180.00 0.87052 0.00
4 4 4 2 o 87.388 78.046 0.00 0.89845 0.03
0 7 -2 2 o 147.041 124.276 0.00 0.89363 0.05
6 2 2 2 o 45.674 36.824 0.00 0.88267 0.01
3 -1 -12 2 o 187.039 133.713 0.00 0.87015 0.03
3 6 -2 2 o 0.033 0.013 180.00 0.89794 0.00
6 0 -9 2 o 25.833 18.550 0.00 0.87029 0.01
1 -7 3 1 o 199.609 156.948 180.00 0.88226 0.15
3 0 -12 2 o 106.280 85.589 0.00 0.88200 0.02
7 -1 -1 1 o 1.819 1.552 0.00 0.88761 0.00
5 -5 -6 1 o 71.967 50.234 0.00 0.86419 0.04
7 -1 -1 2 o 1.957 1.552 0.00 0.88761 0.00
7 0 -1 1 o 3.616 2.659 0.00 0.88194 0.00
4 5 1 1 o 6.175 6.052 180.00 0.89561 0.00
5 -1 7 2 o 7.447 4.444 0.00 0.86233 0.00
4 -6 -4 2 o 41.081 32.946 0.00 0.88139 0.01
7 0 -4 1 o 26.727 22.219 0.00 0.88688 0.02
5 4 -5 2 o 28.744 28.119 180.00 0.90877 0.01
4 1 8 2 o 0.237 0.084 0.00 0.87443 0.00
0 2 11 2 o 42.887 36.353 180.00 0.89606 0.01
2 1 -12 2 o 8.910 7.616 180.00 0.89623 0.00
3 4 6 1 o 2.716 3.031 180.00 0.89885 0.00
4 -6 -1 2 o -0.050 0.028 180.00 0.91502 0.00
6 -4 1 1 o 180.136 150.016 0.00 0.88633 0.14
7 0 -3 2 o 61.150 50.571 0.00 0.89155 0.02
3 -6 5 2 o 5.025 3.806 180.00 0.87428 0.00
3 6 -4 1 o 53.780 43.990 180.00 0.88493 0.03
4 3 6 1 o 14.159 11.676 0.00 0.88491 0.01
4 -6 0 1 o 8.123 8.007 0.00 0.91308 0.01
3 6 -1 2 o 4.321 3.702 180.00 0.89481 0.00
0 5 8 1 o 3.707 3.092 0.00 0.87361 0.00
4 -5 -8 1 o 0.682 0.304 0.00 0.84847 0.00
3 -3 -11 2 o 13.841 8.130 180.00 0.86032 0.00
1 -3 11 1 o 30.584 23.592 0.00 0.86785 0.02
3 6 -3 2 o 5.954 4.987 0.00 0.89457 0.00
6 2 -7 2 o 26.246 21.240 0.00 0.89028 0.01
3 -6 -6 2 o 17.975 11.760 180.00 0.86695 0.01
5 -5 3 1 o 61.035 49.852 0.00 0.87429 0.05
0 7 0 2 o 19.362 16.086 0.00 0.89454 0.01
6 -2 -9 1 o 76.620 39.418 180.00 0.84834 0.04
5 4 1 1 o 28.681 24.461 0.00 0.88893 0.02
4 -5 6 1 o 1.253 0.626 180.00 0.85504 0.00
7 -1 -4 2 o 1.820 1.378 180.00 0.89011 0.00
7 0 -2 2 o 46.950 37.226 0.00 0.88986 0.02
1 -7 -1 2 o 13.448 11.516 0.00 0.89402 0.00
1 1 -12 1 o 15.371 15.975 0.00 0.89699 0.01
0 7 -3 2 o 4.236 3.448 180.00 0.88369 0.00
6 3 -2 1 o 15.375 13.607 0.00 0.89293 0.01
4 -6 2 2 o 27.998 22.030 0.00 0.88955 0.01
1 0 -12 2 o 31.645 27.973 0.00 0.89811 0.01
7 -1 -5 1 o 99.348 79.229 180.00 0.87846 0.06
5 -2 7 1 o 14.908 8.062 0.00 0.85345 0.01
2 -7 0 1 o 6.149 5.129 180.00 0.88756 0.01
1 5 7 1 o 229.313 192.099 0.00 0.88679 0.12
1 -4 -10 1 o 19.705 13.906 180.00 0.86521 0.01
1 -7 3 2 o 195.432 156.948 180.00 0.88226 0.07
3 5 -8 1 o 86.335 66.964 180.00 0.88167 0.05
3 1 -12 1 o 72.757 58.044 180.00 0.87665 0.03
1 5 7 2 o 246.689 192.099 0.00 0.88679 0.06
1 -1 -12 1 o 53.171 40.915 180.00 0.88125 0.02
1 -7 -2 1 o 135.313 104.719 180.00 0.88120 0.09
6 3 -3 1 o 50.642 48.136 180.00 0.89465 0.03
2 5 -9 1 o 49.869 40.037 0.00 0.87589 0.03
4 5 1 2 o 7.224 6.052 180.00 0.89561 0.00
5 -5 -6 2 o 80.990 50.234 0.00 0.86419 0.02
7 0 -1 2 o 3.497 2.659 0.00 0.88194 0.00
7 -2 -2 1 o 2.823 2.080 180.00 0.88186 0.00
7 -2 -3 1 o 68.635 53.001 180.00 0.88185 0.05
0 7 1 1 o 35.135 28.566 0.00 0.88546 0.02
7 0 -4 2 o 29.055 22.219 0.00 0.88688 0.01
7 0 -5 1 o 2.366 1.728 0.00 0.87616 0.00
6 -4 -6 1 o 53.421 32.989 0.00 0.85860 0.03
3 4 6 2 o 3.348 3.031 180.00 0.89885 0.00
2 -7 1 1 o 0.156 0.099 0.00 0.88530 0.00
3 5 4 1 o 37.037 33.118 180.00 0.89312 0.02
6 3 -1 1 o 83.630 67.516 0.00 0.88490 0.05
7 -2 -4 1 o 68.356 55.086 180.00 0.87572 0.05
3 -1 10 1 o 11.262 7.840 0.00 0.86346 0.01
6 -4 1 2 o 192.859 150.016 0.00 0.88633 0.07
3 6 -4 2 o 55.034 43.990 180.00 0.88493 0.02
4 -6 0 2 o 6.450 8.007 0.00 0.91308 0.00
4 3 6 2 o 14.473 11.676 0.00 0.88491 0.00
4 5 -6 1 o 28.340 22.618 180.00 0.88420 0.02
0 5 8 2 o 3.916 3.092 0.00 0.87361 0.00
6 -3 -8 1 o 11.970 6.126 180.00 0.85037 0.01
4 -5 -8 2 o 0.738 0.304 0.00 0.84847 0.00
1 -3 11 2 o 34.633 23.592 0.00 0.86785 0.01
7 -1 0 1 o 74.435 61.065 180.00 0.87448 0.05
0 7 -4 1 o 18.346 13.996 0.00 0.86812 0.01
5 4 1 2 o 30.917 24.461 0.00 0.88893 0.01
2 6 3 1 o 42.885 36.518 0.00 0.88762 0.03
5 -5 3 2 o 63.641 49.852 0.00 0.87429 0.02
2 -7 -1 1 o 3.828 2.841 180.00 0.88356 0.00
6 -2 -9 2 o 82.104 39.418 180.00 0.84834 0.02
4 2 -11 1 o 58.594 48.873 180.00 0.87350 0.03
4 -5 6 2 o 1.414 0.626 180.00 0.85504 0.00
1 1 -12 2 o 19.155 15.975 0.00 0.89699 0.00
1 -3 -11 1 o 72.540 54.861 0.00 0.86741 0.03
6 3 -2 2 o 16.268 13.607 0.00 0.89293 0.01
4 3 -10 1 o 18.520 14.352 180.00 0.88269 0.01
5 0 7 1 o 8.775 5.296 0.00 0.85509 0.00
7 -1 -5 2 o 95.322 79.229 180.00 0.87846 0.03
6 -1 5 1 o 104.609 53.047 0.00 0.84847 0.06
2 -7 0 2 o 6.999 5.129 180.00 0.88756 0.00
5 -2 7 2 o 16.753 8.062 0.00 0.85345 0.01
5 3 4 1 o 24.859 20.579 180.00 0.87154 0.01
2 -7 2 1 o 83.512 66.588 180.00 0.87691 0.06
6 3 -4 1 o 1.638 1.276 0.00 0.88996 0.00
3 6 0 1 o 126.812 104.152 0.00 0.88540 0.08
2 -5 -9 1 o 0.534 0.045 0.00 0.84746 0.00
1 -4 -10 2 o 22.337 13.906 180.00 0.86521 0.00
3 5 -8 2 o 83.600 66.964 180.00 0.88167 0.02
3 1 -12 2 o 70.625 58.044 180.00 0.87665 0.01
5 4 -6 1 o 60.919 50.738 180.00 0.88917 0.03
6 3 -3 2 o 56.965 48.136 180.00 0.89465 0.02
1 -1 -12 2 o 51.184 40.915 180.00 0.88125 0.01
6 -4 2 1 o 31.606 23.099 0.00 0.86609 0.02
1 -7 -2 2 o 129.675 104.719 180.00 0.88120 0.04
2 5 -9 2 o 49.625 40.037 0.00 0.87589 0.01
7 -2 -2 2 o 2.710 2.080 180.00 0.88186 0.00
7 -2 -3 2 o 66.357 53.001 180.00 0.88185 0.02
0 7 1 2 o 36.819 28.566 0.00 0.88546 0.01
4 -6 -5 1 o 29.931 18.464 0.00 0.85931 0.02
1 7 -1 1 o 12.291 10.141 180.00 0.87498 0.01
7 0 -5 2 o 2.291 1.728 0.00 0.87616 0.00
3 -2 10 1 o 45.305 25.006 180.00 0.85284 0.02
6 -4 -6 2 o 59.063 32.989 0.00 0.85860 0.02
1 -7 4 1 o 306.956 219.098 180.00 0.86446 0.21
5 -1 -11 1 o 56.028 27.704 180.00 0.84630 0.02
3 5 4 2 o 39.059 33.118 180.00 0.89312 0.01
7 -2 -1 1 o 0.959 0.728 180.00 0.87575 0.00
2 -7 1 2 o 0.169 0.099 0.00 0.88530 0.00
5 0 -11 1 o 62.644 34.295 180.00 0.85250 0.03
6 3 -1 2 o 85.481 67.516 0.00 0.88490 0.03
7 -2 -4 2 o 67.819 55.086 180.00 0.87572 0.02
4 -1 9 1 o 46.011 21.245 180.00 0.84568 0.02
3 -1 10 2 o 12.684 7.840 0.00 0.86346 0.00
1 7 -2 1 o 0.461 0.388 180.00 0.87392 0.00
4 5 -6 2 o 28.131 22.618 180.00 0.88420 0.01
6 -3 4 1 o 56.883 31.672 180.00 0.85231 0.04
4 -6 3 1 o 14.869 11.674 0.00 0.86942 0.01
2 -1 11 1 o 88.104 60.220 0.00 0.86316 0.04
0 6 -8 1 o 33.821 18.559 0.00 0.85120 0.02
7 -2 -5 1 o 29.016 20.154 180.00 0.86385 0.02
2 6 3 2 o 48.399 36.518 0.00 0.88762 0.01
7 -1 0 2 o 77.054 61.065 180.00 0.87448 0.03
2 -7 -2 1 o 0.108 0.049 180.00 0.87353 0.00
0 7 -4 2 o 21.054 13.996 0.00 0.86812 0.01
2 6 -7 1 o 0.891 0.529 0.00 0.86263 0.00
6 -3 -8 2 o 13.331 6.126 180.00 0.85037 0.00
1 1 11 1 o 0.111 0.066 180.00 0.89289 0.00
2 -7 -1 2 o 3.691 2.841 180.00 0.88356 0.00
4 2 -11 2 o 62.699 48.873 180.00 0.87350 0.01
0 6 6 1 o 11.828 9.255 0.00 0.86749 0.01
7 0 0 1 o 62.907 49.012 0.00 0.86827 0.04
6 1 4 1 o 99.313 58.846 180.00 0.85665 0.06
1 -3 -11 2 o 82.192 54.861 0.00 0.86741 0.02
4 3 -10 2 o 17.904 14.352 180.00 0.88269 0.00
1 7 -3 1 o 3.759 2.886 0.00 0.86693 0.00
5 0 7 2 o 9.665 5.296 0.00 0.85509 0.00
3 -2 -12 1 o 1.265 0.378 180.00 0.84306 0.00
6 -1 5 2 o 112.992 53.047 0.00 0.84847 0.03
2 5 6 1 o 13.359 10.509 180.00 0.88014 0.01
6 3 -4 2 o 1.731 1.276 0.00 0.88996 0.00
5 3 4 2 o 27.748 20.579 180.00 0.87154 0.01
3 6 0 2 o 132.677 104.152 0.00 0.88540 0.04
2 -7 2 2 o 79.567 66.588 180.00 0.87691 0.03
7 -1 -6 1 o 10.159 6.602 180.00 0.86144 0.01
6 3 0 1 o 22.848 18.858 0.00 0.87107 0.01
2 -5 -9 2 o 0.586 0.045 0.00 0.84746 0.00
0 7 2 1 o 0.663 0.459 0.00 0.87063 0.00
5 4 -6 2 o 65.909 50.738 180.00 0.88917 0.02
2 -2 -12 1 o 16.151 9.662 180.00 0.85445 0.01
3 4 -10 1 o 40.858 33.809 180.00 0.87047 0.02
4 0 -12 1 o 26.936 13.433 0.00 0.84833 0.01
6 -4 2 2 o 36.223 23.099 0.00 0.86609 0.01
3 3 -11 1 o 34.528 28.310 0.00 0.87472 0.02
3 -4 9 1 o 1.554 0.533 0.00 0.84155 0.00
3 6 -5 1 o 20.973 16.856 0.00 0.86960 0.01
1 7 -1 2 o 12.401 10.141 180.00 0.87498 0.00
2 -6 7 1 o 20.844 10.151 180.00 0.84777 0.01
0 1 -12 1 o 0.164 0.120 0.00 0.87878 0.00
4 -6 -5 2 o 33.314 18.464 0.00 0.85931 0.01
3 -2 10 2 o 51.310 25.006 180.00 0.85284 0.01
2 -6 -7 1 o 35.055 17.353 180.00 0.84724 0.02
1 -7 4 2 o 347.351 219.098 180.00 0.86446 0.12
7 -2 -1 2 o 0.941 0.728 180.00 0.87575 0.00
2 -4 10 1 o 38.803 18.615 0.00 0.84101 0.02
5 -1 -11 2 o 57.658 27.704 180.00 0.84630 0.01
5 0 -11 2 o 70.995 34.295 180.00 0.85250 0.01
1 2 -12 1 o 12.063 9.540 180.00 0.87808 0.01
4 -1 9 2 o 46.541 21.245 180.00 0.84568 0.01
5 2 -10 1 o 14.137 9.812 0.00 0.86398 0.01
1 7 -2 2 o 0.487 0.388 180.00 0.87392 0.00
6 -3 4 2 o 64.471 31.672 180.00 0.85231 0.02
4 -6 3 2 o 17.047 11.674 0.00 0.86942 0.01
6 -2 5 1 o 147.114 69.898 180.00 0.84047 0.09
3 0 10 1 o 0.299 0.043 0.00 0.85791 0.00
2 -1 11 2 o 100.116 60.220 0.00 0.86316 0.02
0 6 -8 2 o 38.386 18.559 0.00 0.85120 0.01
7 -2 -5 2 o 32.953 20.154 180.00 0.86385 0.01
7 -2 0 1 o 6.128 4.209 180.00 0.86389 0.00
2 -7 -2 2 o 0.138 0.049 180.00 0.87353 0.00
1 1 11 2 o 0.108 0.066 180.00 0.89289 0.00
2 6 -7 2 o 1.036 0.529 0.00 0.86263 0.00
2 -7 3 1 o 25.913 17.557 180.00 0.86290 0.02
1 6 5 1 o 48.913 40.973 180.00 0.87173 0.03
0 6 6 2 o 13.413 9.255 0.00 0.86749 0.00
7 1 -2 1 o 25.389 19.884 0.00 0.86781 0.02
7 0 0 2 o 71.941 49.012 0.00 0.86827 0.02
2 -2 11 1 o 115.555 63.881 180.00 0.85134 0.05
6 1 4 2 o 109.306 58.846 180.00 0.85665 0.03
6 1 -9 1 o 300.709 179.580 180.00 0.85680 0.14
1 7 -3 2 o 4.304 2.886 0.00 0.86693 0.00
1 6 5 2 o 54.927 40.973 180.00 0.87173 0.01
2 2 -12 1 o 160.596 130.281 0.00 0.87524 0.07
6 3 -5 1 o 40.075 32.092 0.00 0.87915 0.02
2 5 6 2 o 12.575 10.509 180.00 0.88014 0.00
7 -1 1 1 o 53.920 31.456 180.00 0.85619 0.04
7 -1 -6 2 o 11.450 6.602 180.00 0.86144 0.00
1 7 0 1 o 56.272 46.542 0.00 0.87005 0.04
6 3 0 2 o 26.059 18.858 0.00 0.87107 0.01
0 7 2 2 o 0.842 0.459 0.00 0.87063 0.00
2 -2 -12 2 o 17.885 9.662 180.00 0.85445 0.00
3 4 -10 2 o 46.610 33.809 180.00 0.87047 0.01
7 1 -3 1 o 1.189 0.954 0.00 0.87016 0.00
1 7 0 2 o 64.590 46.542 0.00 0.87005 0.02
1 7 -4 1 o 25.731 14.666 180.00 0.85443 0.02
4 0 -12 2 o 29.121 13.433 0.00 0.84833 0.01
5 4 2 1 o 25.596 18.249 180.00 0.86460 0.01
1 6 -8 1 o 137.459 69.235 180.00 0.84872 0.08
3 3 -11 2 o 35.284 28.310 0.00 0.87472 0.01
3 6 -5 2 o 24.066 16.856 0.00 0.86960 0.01
0 1 -12 2 o 0.143 0.120 0.00 0.87878 0.00
7 0 -6 1 o 112.137 71.534 0.00 0.86003 0.06
7 1 -1 1 o 4.818 2.985 0.00 0.85970 0.00
2 -6 7 2 o 22.156 10.151 180.00 0.84777 0.01
2 -6 -7 2 o 36.696 17.353 180.00 0.84724 0.01
2 0 11 1 o 28.405 17.527 180.00 0.85886 0.01
0 7 -5 1 o 183.133 89.905 0.00 0.84780 0.12
4 5 2 1 o 22.635 19.907 0.00 0.87231 0.01
1 2 -12 2 o 11.048 9.540 180.00 0.87808 0.00
5 2 -10 2 o 16.136 9.812 0.00 0.86398 0.00
1 -7 -3 1 o 101.086 69.828 180.00 0.86306 0.06
0 4 -11 1 o 20.462 9.982 0.00 0.84712 0.01
0 2 -12 1 o 1.927 1.221 180.00 0.86300 0.00
2 -7 -3 1 o 155.106 94.308 180.00 0.85809 0.10
3 0 10 2 o 0.364 0.043 0.00 0.85791 0.00
7 -2 0 2 o 7.004 4.209 180.00 0.86389 0.00
6 0 5 1 o 44.485 20.967 0.00 0.84111 0.03
6 2 3 1 o 19.058 10.751 180.00 0.85246 0.01
4 4 -9 1 o 0.646 0.463 180.00 0.86707 0.00
2 -7 3 2 o 29.429 17.557 180.00 0.86290 0.01
3 -6 6 1 o 12.792 5.855 180.00 0.84083 0.01
7 -2 -6 1 o 14.771 6.978 180.00 0.84692 0.01
7 1 -2 2 o 29.329 19.884 0.00 0.86781 0.01
3 6 1 1 o 9.307 7.745 0.00 0.87027 0.01
5 -5 4 1 o 44.052 20.367 0.00 0.84667 0.03
2 -2 11 2 o 133.110 63.881 180.00 0.85134 0.03
1 3 10 1 o 135.546 112.217 180.00 0.87037 0.06
2 3 9 1 o 26.166 20.820 0.00 0.87749 0.01
7 1 -4 1 o 103.033 78.980 180.00 0.86660 0.06
6 1 -9 2 o 329.580 179.580 180.00 0.85680 0.07
1 -6 -7 1 o 104.675 48.197 0.00 0.84525 0.05
3 2 9 1 o 23.527 15.328 180.00 0.86095 0.01
3 3 8 1 o 148.114 108.092 0.00 0.86537 0.07
2 2 -12 2 o 158.770 130.281 0.00 0.87524 0.03
6 3 -5 2 o 36.166 32.092 0.00 0.87915 0.01
6 2 -8 1 o 19.240 12.783 180.00 0.86086 0.01
7 -1 1 2 o 59.214 31.456 180.00 0.85619 0.02
4 -6 4 1 o 6.579 2.703 0.00 0.84511 0.01
1 4 -11 2 o 21.422 10.847 0.00 0.85511 0.01
1 4 -11 1 o 19.390 10.847 0.00 0.85511 0.01
7 1 -3 2 o 1.381 0.954 0.00 0.87016 0.00
1 7 -4 2 o 28.655 14.666 180.00 0.85443 0.01
5 4 2 2 o 29.247 18.249 180.00 0.86460 0.01
1 6 -8 2 o 150.756 69.235 180.00 0.84872 0.04
1 4 9 1 o 0.507 0.358 180.00 0.86359 0.00
7 0 1 1 o 166.522 86.135 0.00 0.84962 0.10
7 0 -6 2 o 125.297 71.534 0.00 0.86003 0.03
1 -5 -9 1 o 63.745 29.927 180.00 0.84309 0.03
7 1 -1 2 o 5.399 2.985 0.00 0.85970 0.00
1 5 -10 1 o 29.644 13.817 0.00 0.84308 0.02
0 0 12 1 o 5.827 4.834 180.00 0.87769 0.00
5 1 -11 1 o 27.695 12.724 0.00 0.84311 0.01
4 5 2 2 o 25.412 19.907 0.00 0.87231 0.01
2 0 11 2 o 31.460 17.527 180.00 0.85886 0.01
0 7 -5 2 o 194.679 89.905 0.00 0.84780 0.06
5 2 6 1 o 1.201 0.504 180.00 0.84249 0.00
1 -7 5 1 o 12.261 5.965 0.00 0.84225 0.01
1 -7 -3 2 o 114.815 69.828 180.00 0.86306 0.03
0 2 -12 2 o 2.245 1.221 180.00 0.86300 0.00
2 -7 -3 2 o 170.238 94.308 180.00 0.85809 0.05
0 4 -11 2 o 21.246 9.982 0.00 0.84712 0.01
6 2 3 2 o 21.949 10.751 180.00 0.85246 0.01
4 4 -9 2 o 0.781 0.463 180.00 0.86707 0.00
5 3 -9 1 o 2.115 1.243 180.00 0.86182 0.00
6 3 1 1 o 41.757 22.435 0.00 0.85223 0.02
7 1 -5 1 o 15.017 9.038 0.00 0.85735 0.01
6 -4 3 1 o 1.132 0.299 0.00 0.84175 0.00
7 -2 -6 2 o 15.270 6.978 180.00 0.84692 0.00
3 6 1 2 o 10.879 7.745 0.00 0.87027 0.00
1 3 10 2 o 156.222 112.217 180.00 0.87037 0.03
2 3 9 2 o 23.699 20.820 0.00 0.87749 0.01
5 -5 4 2 o 45.309 20.367 0.00 0.84667 0.02
7 -2 1 1 o 27.455 12.916 180.00 0.84698 0.02
7 1 -4 2 o 118.727 78.980 180.00 0.86660 0.03
1 -6 -7 2 o 104.726 48.197 0.00 0.84525 0.03
3 2 9 2 o 26.642 15.328 180.00 0.86095 0.01
3 3 8 2 o 169.777 108.092 0.00 0.86537 0.04
2 2 10 1 o 135.740 109.750 0.00 0.86798 0.06
6 2 -8 2 o 21.615 12.783 180.00 0.86086 0.00
1 7 1 1 o 8.469 5.438 0.00 0.85941 0.00
4 -6 4 2 o 6.527 2.703 0.00 0.84511 0.00
3 2 -12 1 o 6.618 3.880 0.00 0.85499 0.00
7 -1 -7 1 o 22.597 10.912 0.00 0.83997 0.01
3 6 -6 1 o 138.847 71.921 0.00 0.84946 0.08
4 5 -7 1 o 0.022 0.010 0.00 0.85881 0.00
1 -2 -12 1 o 48.800 24.699 0.00 0.84924 0.02
1 4 9 2 o 0.576 0.358 180.00 0.86359 0.00
7 0 1 2 o 189.291 86.135 0.00 0.84962 0.06
4 4 5 1 o 17.464 10.088 0.00 0.85812 0.01
2 -7 4 1 o 29.386 13.206 180.00 0.84407 0.02
2 4 8 1 o 30.001 21.793 180.00 0.86568 0.01
0 0 12 2 o 5.114 4.834 180.00 0.87769 0.00
5 4 -7 1 o 5.213 3.812 0.00 0.86488 0.00
5 3 -9 2 o 2.470 1.243 180.00 0.86182 0.00
6 3 1 2 o 49.757 22.435 0.00 0.85223 0.01
7 1 -5 2 o 16.309 9.038 0.00 0.85735 0.00
4 1 -12 1 o 14.138 6.179 0.00 0.84167 0.01
7 -3 -3 1 o 51.750 28.060 0.00 0.85239 0.03
0 7 3 1 o 13.536 6.869 0.00 0.85092 0.01
5 4 -7 2 o 5.926 3.812 0.00 0.86488 0.00
7 -2 1 2 o 28.259 12.916 180.00 0.84698 0.01
7 1 0 1 o 77.353 35.725 0.00 0.84629 0.04
2 2 10 2 o 160.715 109.750 0.00 0.86798 0.03
6 3 -6 1 o 6.988 4.583 0.00 0.86288 0.00
7 -3 -4 1 o 23.319 10.103 0.00 0.84613 0.01
1 7 1 2 o 9.438 5.438 0.00 0.85941 0.00
3 2 -12 2 o 7.198 3.880 0.00 0.85499 0.00
3 6 -6 2 o 160.544 71.921 0.00 0.84946 0.04
4 5 -7 2 o 0.025 0.010 0.00 0.85881 0.00
2 6 4 1 o 12.040 7.468 180.00 0.85719 0.01
1 -2 -12 2 o 55.160 24.699 0.00 0.84924 0.01
4 4 5 2 o 19.237 10.088 0.00 0.85812 0.01
0 4 10 1 o 1.510 0.655 180.00 0.84357 0.00
3 -7 0 1 o 191.342 113.486 0.00 0.85734 0.14
2 4 8 2 o 34.719 21.793 180.00 0.86568 0.01
3 -7 1 1 o 112.277 61.975 0.00 0.85308 0.08
7 -3 -2 1 o 64.872 35.755 0.00 0.85314 0.04
0 1 12 1 o 9.484 6.074 0.00 0.85992 0.00
7 -3 -1 1 o 119.960 58.260 0.00 0.84833 0.08
3 -7 -1 1 o 62.565 35.804 0.00 0.85595 0.04
2 4 -11 1 o 6.182 2.960 0.00 0.84643 0.00
7 -3 -3 2 o 61.948 28.060 0.00 0.85239 0.02
0 7 3 2 o 16.707 6.869 0.00 0.85092 0.00
0 3 11 1 o 2.170 0.940 0.00 0.84536 0.00
1 -7 -4 1 o 20.026 9.207 180.00 0.84058 0.01
7 1 0 2 o 77.537 35.725 0.00 0.84629 0.02
6 3 -6 2 o 8.147 4.583 0.00 0.86288 0.00
1 -1 12 1 o 46.070 19.765 180.00 0.84483 0.02
7 -3 -4 2 o 23.164 10.103 0.00 0.84613 0.01
1 3 -12 1 o 33.814 14.490 180.00 0.84452 0.02
3 -7 -2 1 o 0.260 0.007 0.00 0.84900 0.00
2 6 4 2 o 12.935 7.468 180.00 0.85719 0.00
3 5 -9 1 o 32.279 14.058 180.00 0.84324 0.02
3 -7 0 2 o 205.686 113.486 0.00 0.85734 0.07
3 5 5 1 o 185.922 104.553 180.00 0.85495 0.09
3 -7 1 2 o 132.702 61.975 0.00 0.85308 0.05
3 -7 2 1 o 43.067 18.642 0.00 0.84342 0.03
0 1 12 2 o 10.754 6.074 0.00 0.85992 0.00
7 -3 -2 2 o 75.885 35.755 0.00 0.85314 0.02
7 1 -6 1 o 66.874 30.550 0.00 0.84293 0.03
3 6 2 1 o 1.587 0.896 180.00 0.85029 0.00
7 -3 -1 2 o 131.911 58.260 0.00 0.84833 0.04
3 -7 -1 2 o 66.257 35.804 0.00 0.85595 0.02
3 4 7 1 o 23.216 12.091 0.00 0.84946 0.01
2 4 -11 2 o 6.172 2.960 0.00 0.84643 0.00
6 -5 -3 1 o 4.533 2.163 180.00 0.84177 0.00
0 3 11 2 o 2.132 0.940 0.00 0.84536 0.00
1 7 2 1 o 25.127 11.013 180.00 0.84370 0.01
1 -1 12 2 o 44.092 19.765 180.00 0.84483 0.01
3 -7 -2 2 o 0.343 0.007 0.00 0.84900 0.00
1 2 11 1 o 21.695 12.686 0.00 0.85640 0.01
3 5 5 2 o 198.232 104.553 180.00 0.85495 0.05
4 5 3 1 o 39.154 16.939 0.00 0.84525 0.02
3 6 2 2 o 2.019 0.896 180.00 0.85029 0.00
3 4 7 2 o 28.226 12.091 0.00 0.84946 0.01
2 3 -12 1 o 31.420 14.294 180.00 0.84011 0.01
5 5 -3 1 o 0.962 0.361 180.00 0.84187 0.00
1 0 12 1 o 0.509 0.127 180.00 0.84197 0.00
6 3 -7 1 o 111.995 50.484 0.00 0.84204 0.05
1 2 11 2 o 22.980 12.686 0.00 0.85640 0.00
6 -5 -2 1 o 62.355 26.973 180.00 0.84608 0.04
5 5 -2 1 o 1.099 0.437 180.00 0.84113 0.00
5 -6 -2 1 o 16.296 6.942 0.00 0.84554 0.01
4 5 3 2 o 36.848 16.939 0.00 0.84525 0.01
6 -5 -2 2 o 57.720 26.973 180.00 0.84608 0.02
5 -6 -2 2 o 15.021 6.942 0.00 0.84554 0.00
6 -5 -1 1 o 8.054 3.271 0.00 0.84496 0.01
5 -6 -1 1 o 2.829 1.073 0.00 0.84730 0.00
6 -5 -1 2 o 7.374 3.271 0.00 0.84496 0.00
5 -6 0 1 o 17.704 7.114 0.00 0.84360 0.01
5 -6 -1 2 o 1.949 1.073 0.00 0.84730 0.00
loop_
_publcif_info_datablock.id
_publcif_info_datablock.publ_exptl
_publcif_info_datablock.publ_geom
_publcif_info_datablock.structure
{c2128fc3-3fdb-45db-93d6-8eabde42106f} y y y
loop_
_publcif_info_cif.paper_type
CE
loop_
_publcif_info_tables.block_id
_publcif_info_tables.reference_item
{c2128fc3-3fdb-45db-93d6-8eabde42106f} '_publcif_info_datablock.publ_exptl'
