#------------------------------------------------------------------------------
#$Date: 2019-12-26 20:51:09 +0200 (Thu, 26 Dec 2019) $
#$Revision: 246083 $
#$URL: file:///home/coder/svn-repositories/cod/cif/2/31/16/2311687.cif $
#------------------------------------------------------------------------------
#
# This file is available in the Crystallography Open Database (COD),
# http://www.crystallography.net/. The original data for this entry
# were provided by IUCr Journals, http://journals.iucr.org/.
#
# The file may be used within the scientific community so long as
# proper attribution is given to the journal article from which the
# data were obtained.
#
data_2311687
loop_
_publ_author_name
'Rychkov, Denis'
'Arkhipov, Sergey'
'Boldyreva, Elena'
_publ_section_title
;
 Structure-forming units of amino acid maleates. Case study of L-valinium
 hydrogen maleate.
;
_journal_coeditor_code           XK5024
_journal_issue                   'Pt 1'
_journal_name_full
'Acta crystallographica Section B, Structural science, crystal engineering and materials'
_journal_page_first              160
_journal_page_last               163
_journal_paper_doi               10.1107/S2052520615021022
_journal_volume                  72
_journal_year                    2016
_chemical_formula_moiety         'C5 H12 N O2, C4 H3 O4'
_chemical_formula_sum            'C9 H15 N O6'
_chemical_formula_weight         233.22
_chemical_name_systematic        'L-valinium maleate'
_space_group_crystal_system      monoclinic
_space_group_IT_number           4
_space_group_name_Hall           'P 2yb'
_space_group_name_H-M_alt        'P 1 21 1'
_atom_sites_solution_hydrogens   geom
_audit_creation_method
;
Olex2 1.2
(compiled 2015.09.30 svn.r3233 for OlexSys, GUI svn.r5103)
;
_cell_angle_alpha                90
_cell_angle_beta                 93.130(10)
_cell_angle_gamma                90
_cell_formula_units_Z            2
_cell_length_a                   5.7793(8)
_cell_length_b                   7.5974(11)
_cell_length_c                   12.9136(17)
_cell_measurement_temperature    298
_cell_volume                     566.16(14)
_computing_molecular_graphics    'Olex2 (Dolomanov et al., 2009)'
_computing_publication_material  'Olex2 (Dolomanov et al., 2009)'
_computing_structure_refinement  'ShelXL (Sheldrick, 2015)'
_computing_structure_solution    'ShelXS (Sheldrick, 2008)'
_diffrn_ambient_temperature      298.0
_diffrn_detector_area_resol_mean 6.67
_diffrn_measured_fraction_theta_full 0.996
_diffrn_measured_fraction_theta_max 0.997
_diffrn_measurement_device       '2-circle goniometer'
_diffrn_measurement_device_type  'STOE IPDS 2'
_diffrn_measurement_method       'rotation method'
_diffrn_radiation_monochromator  'plane graphite'
_diffrn_radiation_type           MoK\a
_diffrn_radiation_wavelength     0.71073
_diffrn_reflns_av_R_equivalents  0.0454
_diffrn_reflns_limit_h_max       7
_diffrn_reflns_limit_h_min       -5
_diffrn_reflns_limit_k_max       9
_diffrn_reflns_limit_k_min       -9
_diffrn_reflns_limit_l_max       16
_diffrn_reflns_limit_l_min       -16
_diffrn_reflns_number            3587
_diffrn_reflns_theta_full        25.242
_diffrn_reflns_theta_max         26.363
_diffrn_reflns_theta_min         3.112
_exptl_absorpt_coefficient_mu    0.116
_exptl_absorpt_correction_type   none
_exptl_crystal_colour            'clear light colourless'
_exptl_crystal_density_diffrn    1.368
_exptl_crystal_description       block
_exptl_crystal_F_000             248
_exptl_crystal_size_max          0.3
_exptl_crystal_size_mid          0.2
_exptl_crystal_size_min          0.1
_refine_diff_density_max         0.132
_refine_diff_density_min         -0.161
_refine_ls_extinction_method     none
_refine_ls_goodness_of_fit_ref   0.769
_refine_ls_hydrogen_treatment    constr
_refine_ls_matrix_type           full
_refine_ls_number_parameters     150
_refine_ls_number_reflns         2276
_refine_ls_number_restraints     1
_refine_ls_restrained_S_all      0.769
_refine_ls_R_factor_all          0.1017
_refine_ls_R_factor_gt           0.0399
_refine_ls_shift/su_max          0.000
_refine_ls_shift/su_mean         0.000
_refine_ls_structure_factor_coef Fsqd
_refine_ls_weighting_details
'w=1/[\s^2^(Fo^2^)+(0.0180P)^2^] where P=(Fo^2^+2Fc^2^)/3'
_refine_ls_weighting_scheme      calc
_refine_ls_wR_factor_gt          0.0543
_refine_ls_wR_factor_ref         0.0647
_reflns_number_gt                1193
_reflns_number_total             2276
_reflns_threshold_expression     'I > 2\s(I)'
_cod_data_source_file            xk5024sup1.cif
_cod_data_source_block           lval_mal_all
_cod_database_code               2311687
_shelx_space_group_comment
;
The symmetry employed for this shelxl refinement is uniquely defined
by the following loop, which should always be used as a source of
symmetry information in preference to the above space-group names.
They are only intended as comments.
;
_shelx_hkl_file
;
  -5  -6  -5  -18.26   22.55   3 0.07708-0.70815-0.32642-0.23489-0.93653 0.62657
  -5  -1  -5   21.46   18.53   3 0.07771-0.70822-0.32618 0.23251-0.93653 0.62733
  -5   1  -7   24.08   19.72   3 0.07964-0.71710-0.32545 0.41924-0.93651 0.51719
  -4  -6  -3   -7.93   18.38   3 0.07973-0.58365-0.32541-0.23732-0.93651 0.74385
  -3  -9  -4   47.48   23.92   3 0.07891-0.46045-0.32573-0.51670-0.93652 0.69585
  -3  -8  -3    8.30   25.22   3 0.08356-0.46285-0.32396-0.42605-0.93648 0.75117
  -3   2  -4   49.98   20.39   3 0.08458-0.46634-0.32357 0.51066-0.93646 0.69606
  -2   0  -1   44.17   18.85   2 0.07745-0.32600-0.32628 0.32681-0.93653 0.86816
   1   5  -6  119.42   23.04   4 0.08855 0.01665-0.32205 0.79064-0.93640 0.61205
   2   3  -3  977.74   21.75   2 0.07556 0.16207-0.32699 0.60887-0.93654 0.78416
   2   6  -9   61.91   22.24   3 0.08571 0.13396-0.32314 0.88422-0.93645 0.45403
   5   4  -8   19.68   22.37   3 0.08299 0.50966-0.32417 0.69894-0.93648 0.52855
   5   5 -11  -23.32   24.78   3 0.07749 0.50493-0.32626 0.79499-0.93653 0.36300
   6  -1  -4   66.05   19.15   2 0.07651 0.65110-0.32663 0.23347-0.93653 0.75634
   7   0  -7   14.15   23.29   3 0.07802 0.76402-0.32606 0.32612-0.93653 0.59721
   7   1  -8   40.47   22.08   3 0.07997 0.75694-0.32532 0.41846-0.93651 0.54212
  -6  -2  -8   33.53   21.60   4 0.09093-0.85437-0.32114 0.13392-0.93636 0.45519
  -6   0 -10   26.13   25.66   3 0.08885-0.86217-0.32194 0.32251-0.93640 0.34352
  -5  -7  -6   14.93   23.36   4 0.08767-0.71831-0.32239-0.32996-0.93642 0.57276
  -5   0  -6   25.59   18.29   4 0.08795-0.72208-0.32228 0.32230-0.93641 0.57220
  -5   2  -9   52.33   23.79   4 0.09404-0.73693-0.31994 0.50626-0.93629 0.40742
  -5   3 -12   -6.96   27.55   4 0.09392-0.74765-0.31999 0.60215-0.93630 0.23923
  -4  -1  -3  109.43   16.83   3 0.08360-0.58597-0.32394 0.22938-0.93648 0.74436
  -3  -4  -1   16.89   17.61   4 0.08698-0.45897-0.32265-0.05137-0.93643 0.86085
  -3  -3  -1  641.90   19.92   4 0.08711-0.45960-0.32260 0.04116-0.93643 0.86102
  -2  -9  -3   40.72   26.10   4 0.09492-0.35019-0.31961-0.52284-0.93627 0.75710
  -2  -4   0   13.09   17.58   3 0.08535-0.33146-0.32327-0.05082-0.93645 0.92279
  -2  -3   0  163.10   19.52   3 0.08610-0.33271-0.32299 0.04194-0.93644 0.92273
   0 -10  -3    4.46   31.66   5 0.10074-0.10967-0.31735-0.61889-0.93611 0.77071
   3   4  -5   85.70   17.00   4 0.08922 0.26541-0.32180 0.69579-0.93639 0.68078
   3   5  -7   11.85   21.08   5 0.09729 0.25394-0.31869 0.79102-0.93621 0.56952
   3   6 -10   16.49   20.94   3 0.08642 0.25342-0.32287 0.88446-0.93644 0.40492
   4  -6  -1    3.42   25.50   5 0.10151 0.38874-0.31706-0.24492-0.93609 0.90792
   4  -1  -1  410.81   18.24   4 0.08874 0.40165-0.32198 0.22834-0.93640 0.90729
   5   3  -6   14.60   19.21   3 0.08686 0.51122-0.32270 0.60338-0.93643 0.63878
   7  -1  -6   63.93   22.41   3 0.08758 0.75700-0.32242 0.22877-0.93642 0.65210
  -6  -4  -8   18.13   25.33   5 0.09907-0.86277-0.31800-0.05655-0.93616 0.45503
  -6  -3  -8   45.26   21.57   5 0.09985-0.86405-0.31770 0.03660-0.93614 0.45461
  -6  -1  -9    3.32   22.93   5 0.09866-0.86605-0.31816 0.22457-0.93617 0.39920
  -5  -5  -5    6.17   21.26   5 0.09826-0.72936-0.31832-0.14977-0.93619 0.62712
  -5  -2  -5   59.19   21.75   5 0.10192-0.73272-0.31690 0.12917-0.93608 0.62756
  -4  -8  -5    6.81   24.30   4 0.09744-0.60632-0.31863-0.43128-0.93621 0.63434
  -4  -7  -4   48.99   22.23   5 0.09830-0.60334-0.31830-0.33716-0.93618 0.68902
  -4   2  -6   27.16   17.44   4 0.09622-0.60665-0.31910 0.50576-0.93624 0.57963
  -3   1  -3  774.45   20.75   4 0.09528-0.47411-0.31947 0.41350-0.93626 0.75056
  -2  -8  -2   24.25   20.37   5 0.09778-0.34991-0.31850-0.42987-0.93620 0.81219
  -1  -6   0   17.61   21.79   6 0.10562-0.22846-0.31546-0.24521-0.93595 0.92843
   1   4  -4  729.78   23.66   5 0.10457 0.00673-0.31586 0.69024-0.93599 0.72285
   4   4  -6  108.16   18.05   4 0.09652 0.37854-0.31899 0.69337-0.93623 0.63271
   6  -4  -3  -10.28   24.46   5 0.10314 0.62557-0.31642-0.05706-0.93604 0.81077
   6  -3  -3  104.45   22.99   5 0.10326 0.62734-0.31637 0.03645-0.93603 0.81068
   6   3  -8   10.32   20.09   5 0.09744 0.62194-0.31863 0.60154-0.93621 0.53422
   7  -3  -5    5.88   26.74   6 0.10720 0.74279-0.31484 0.03375-0.93589 0.70786
  -5  -4  -5   65.95   18.57   6 0.11086-0.74149-0.31341-0.06054-0.93575 0.62715
  -5  -3  -5   39.15   20.40   6 0.11248-0.74306-0.31277 0.03245-0.93568 0.62727
  -4  -5  -3   -7.26   19.11   6 0.10741-0.61006-0.31476-0.15328-0.93589 0.74326
  -4   0  -4   95.45   16.87   6 0.11023-0.61428-0.31365 0.31426-0.93578 0.68953
  -4   3  -8   14.32   21.59   6 0.11032-0.62717-0.31362 0.59477-0.93577 0.46825
   0   5  -6   19.09   27.26   7 0.12486-0.14299-0.30788 0.77699-0.93507 0.60443
   1 -10  -3  -11.20   34.87   9 0.13318-0.01744-0.30455-0.63092-0.93456 0.77357
   2   5  -6  144.27   21.67   6 0.11173 0.11669-0.31306 0.78070-0.93571 0.61933
   4   1  -2   81.49   15.47   6 0.11167 0.37520-0.31309 0.40599-0.93572 0.85237
   4   2  -3   26.94   16.32   6 0.10687 0.37737-0.31497 0.50236-0.93591 0.79723
   4   5  -8    4.28   19.54   5 0.10476 0.36442-0.31579 0.78403-0.93598 0.52146
   4   6 -11   30.76   28.34   7 0.11498 0.34565-0.31179 0.87552-0.93557 0.35582
   5  -6  -2   39.18   26.11   6 0.11636 0.49391-0.31124-0.25115-0.93551 0.85795
   5  -1  -2  108.58   17.12   5 0.10401 0.50565-0.31608 0.22316-0.93601 0.85950
   5   5 -10   25.72   23.45   5 0.10520 0.48127-0.31562 0.78386-0.93597 0.41780
   6   0  -4   25.30   20.98   6 0.11106 0.61591-0.31333 0.31327-0.93574 0.75510
   6   1  -5   89.34   18.34   5 0.10314 0.62052-0.31642 0.41174-0.93604 0.69998
   6   2  -6   23.56   17.97   6 0.11045 0.61125-0.31357 0.50090-0.93577 0.64491
   7  -4  -5   22.78   23.16   6 0.10654 0.74180-0.31510-0.05951-0.93592 0.70711
  -6  -2  -9   -9.98   22.81   7 0.11904-0.88621-0.31138 0.12462-0.93577 0.40007
  -5  -6  -6    7.28   23.18   7 0.11782-0.74939-0.31186-0.25071-0.93583 0.57199
  -4  -2  -3  229.39   17.43   6 0.11455-0.61602-0.31315 0.12707-0.93598 0.74461
  -4   1  -5   26.46   16.86   6 0.11687-0.62471-0.31224 0.40671-0.93588 0.63439
  -4   4 -11   12.53   24.82   7 0.12102-0.64592-0.31060 0.68608-0.93568 0.30421
  -3  -6  -2   29.57   18.28   7 0.11827-0.49287-0.31169-0.25106-0.93581 0.80566
  -3   5 -11   13.08   30.75   8 0.13145-0.53386-0.30647 0.77648-0.93509 0.30998
   0  -9  -2   20.81   28.04   8 0.12744-0.13205-0.30806-0.53715-0.93533 0.82424
   0  -8  -1   27.75   25.49   8 0.12639-0.12800-0.30848-0.44246-0.93539 0.87905
   0   7 -13   34.68   43.40  10 0.14900-0.18803-0.29941 0.95596-0.93384 0.21803
   2  -9  -2    5.44   44.83  12 0.17084 0.07064-0.29044-0.55257-0.93180 0.83244
   3  -1   0   77.83   17.83   7 0.11764 0.25130-0.31193 0.21691-0.93584 0.95525
   3   2  -2  465.68   18.41   7 0.12134 0.24301-0.31048 0.49709-0.93566 0.84482
   4   3  -4   81.87   20.80   7 0.12310 0.35857-0.30978 0.58979-0.93557 0.74141
   6  -5  -3    6.02   25.02   7 0.12165 0.60830-0.31035-0.15967-0.93564 0.80819
   6  -2  -3   22.11   19.39   6 0.11498 0.61551-0.31298 0.12428-0.93596 0.80924
   7  -2  -5   37.00   22.14   6 0.11571 0.73339-0.31269 0.12337-0.93593 0.70571
   7   0  -6    0.66   22.94   6 0.11742 0.72652-0.31202 0.30998-0.93585 0.64991
   7   1  -7   12.58   23.10   7 0.11823 0.72463-0.31170 0.40358-0.93581 0.59503
  -6  -3  -9   41.75   23.80   8 0.12801-0.89401-0.30790 0.02681-0.93518 0.39975
  -6  -1 -10   44.65   24.16   7 0.12621-0.89471-0.30862 0.21546-0.93528 0.34495
  -5  -1  -6   23.15   17.99   8 0.12762-0.76122-0.30806 0.21499-0.93520 0.57176
  -5   1  -8    4.05   19.24   8 0.12711-0.76616-0.30826 0.40277-0.93523 0.46158
  -5   2 -10   26.78   25.23   8 0.13098-0.77624-0.30672 0.49515-0.93500 0.35156
  -4  -4  -3  132.80   18.43   7 0.12471-0.62596-0.30921-0.06495-0.93536 0.74295
  -4  -3  -3   24.10   16.59   7 0.12653-0.62794-0.30849 0.02724-0.93526 0.74375
  -3  -9  -5   -9.30   27.11   9 0.13683-0.51660-0.30438-0.53601-0.93462 0.63808
  -2  -6  -1   29.52   20.22   8 0.13278-0.38077-0.30600-0.25685-0.93488 0.86648
  -2   1  -2  949.83   23.80   8 0.12886-0.38115-0.30757 0.40216-0.93513 0.81212
  -2   2  -3 1069.09   27.65   8 0.13556-0.39063-0.30489 0.49264-0.93470 0.75711
  -2   4  -6   62.18   28.13   9 0.14483-0.40957-0.30116 0.67670-0.93404 0.59119
  -1   6 -10   -1.81   17.67   8 0.12224-0.27797-0.31019 0.87873-0.93549 0.37524
   2   0   0   -2.58   19.56   8 0.12529 0.12073-0.30898 0.30868-0.93533 0.94879
   2   4  -4  102.94   17.26   8 0.12763 0.10652-0.30805 0.68197-0.93520 0.72875
   3   6  -9   30.47   22.47   8 0.13273 0.21008-0.30602 0.86906-0.93489 0.45843
   5   1  -3  -14.80   18.10   8 0.12589 0.48158-0.30874 0.40174-0.93530 0.80308
   5   2  -4   46.02   17.75   7 0.12468 0.47961-0.30922 0.49617-0.93536 0.74782
   5   4  -7   14.84   19.51   7 0.12508 0.47021-0.30906 0.68331-0.93534 0.58207
   6   3  -7    8.85   24.02   9 0.13683 0.58661-0.30438 0.58677-0.93462 0.58762
   6   4  -9  -41.50   25.33   8 0.13238 0.57947-0.30616 0.68009-0.93491 0.47783
   7   2  -8    9.01   22.24   8 0.12873 0.70870-0.30762 0.49306-0.93513 0.54026
  -5  -5  -6   20.39   21.45   9 0.13850-0.77246-0.30374-0.16569-0.93450 0.57061
  -5   0  -7   88.53   19.06   8 0.13608-0.77301-0.30471 0.30494-0.93467 0.51594
  -4  -8  -6  -10.29   25.33   9 0.14133-0.65111-0.30260-0.44815-0.93430 0.57555
  -4  -6  -4   23.04   19.93   9 0.13729-0.64074-0.30423-0.25878-0.93458 0.68703
  -3  -7  -3    4.19   22.27   9 0.14220-0.51895-0.30225-0.35436-0.93423 0.74831
  -3  -1  -2  115.60   17.50   9 0.13701-0.51197-0.30434 0.21164-0.93460 0.80483
  -3   4  -8   46.76   23.99   9 0.14576-0.54021-0.30081 0.67604-0.93396 0.47437
  -1  -1   0 6817.81   55.60   8 0.13573-0.25936-0.30485 0.21173-0.93469 0.92765
   1   6  -8   30.55   24.63   9 0.14513-0.04637-0.30107 0.86302-0.93401 0.50125
   1   7 -12   -4.33   29.60  10 0.14625-0.06064-0.30061 0.95805-0.93392 0.27829
   2   7 -12   -4.15   29.84   9 0.14483 0.06523-0.30119 0.95712-0.93403 0.28614
   3   1  -1  708.21   19.82   8 0.13625 0.23011-0.30465 0.39764-0.93466 0.89948
   3   3  -3   46.03   17.47   8 0.13474 0.22457-0.30525 0.58533-0.93476 0.79032
   5   3  -5   28.62   19.17   9 0.13828 0.46220-0.30383 0.58341-0.93452 0.69130
   5   5  -9    2.15   22.34   9 0.13796 0.45013-0.30396 0.77213-0.93454 0.47113
   6  -1  -3  105.44   19.34   9 0.13763 0.59259-0.30409 0.20836-0.93456 0.80832
   7  -1  -5   14.51   21.59   8 0.13432 0.71441-0.30542 0.20928-0.93478 0.70439
  -6  -2 -10   -7.48   24.05  10 0.14527-0.91351-0.30104 0.11388-0.93391 0.34234
  -5  -6  -7   12.96   25.78  10 0.15132-0.78688-0.29858-0.26429-0.93342 0.51410
  -5  -2  -6   -4.13   19.17  10 0.14789-0.78322-0.29998 0.11275-0.93370 0.56956
  -4  -7  -5   25.25   21.16   9 0.14640-0.65302-0.30058-0.35678-0.93382 0.63138
  -4   4 -12   -2.90   29.76   9 0.14648-0.67944-0.30055 0.67992-0.93381 0.24382
  -3  -8  -4   33.18   21.55  10 0.14554-0.52497-0.30093-0.44977-0.93388 0.69257
  -3   3  -6  148.33   20.88  10 0.14838-0.53606-0.29978 0.58155-0.93366 0.58443
   0   4  -4  157.65   26.39  11 0.15992-0.17229-0.29506 0.67029-0.93265 0.71277
   1  -9  -2   15.89   34.01  13 0.17584-0.05697-0.28846-0.55480-0.93101 0.82516
   1  -8  -1   12.50   31.85  13 0.17316-0.05179-0.28958-0.46170-0.93131 0.88097
   2   6  -8    9.53   22.30  10 0.15243 0.06997-0.29813 0.86218-0.93332 0.50544
   4   0  -1   59.70   16.71   9 0.14272 0.34625-0.30207 0.30148-0.93410 0.90554
   4   6 -10  -14.72   23.16   9 0.14527 0.31741-0.30104 0.86287-0.93391 0.40903
   5  -3  -1  129.52   21.63  10 0.15221 0.46077-0.29822 0.01536-0.93334 0.91053
   5   0  -2   -4.00   17.51  10 0.14587 0.46440-0.30079 0.29959-0.93386 0.85680
  -5  -4  -6   18.85   18.99  11 0.15527-0.78728-0.29705-0.07793-0.93313 0.56826
  -5  -3  -6   25.74   19.57  11 0.15684-0.79084-0.29640 0.01487-0.93298 0.56865
  -5   2 -11   35.98   25.81  11 0.16103-0.80950-0.29468 0.48219-0.93259 0.29398
  -4  -1  -4  388.92   18.89  11 0.15663-0.66172-0.29649 0.20232-0.93300 0.68614
  -4   2  -7   53.45   21.06  11 0.16372-0.67832-0.29357 0.48020-0.93233 0.52088
  -3  -5  -2    6.13   16.74  10 0.15200-0.52686-0.29838-0.17109-0.93341 0.80262
  -2  -9  -4  -12.77   25.02  11 0.16074-0.41891-0.29480-0.55052-0.93262 0.69703
  -1  -7  -1   55.29   20.78  11 0.16128-0.28578-0.29458-0.36219-0.93257 0.86974
  -1  -5   0   22.95   19.58  11 0.16264-0.28522-0.29401-0.17611-0.93244 0.92508
   2  -3   1  109.90   24.65  11 0.16692 0.08388-0.29225 0.01062-0.93201 0.99950
   3  -6   0   13.01   30.00  11 0.16581 0.20428-0.29271-0.27035-0.93212 0.95002
   3   5  -6  219.28   18.64  10 0.15513 0.19648-0.29710 0.76471-0.93314 0.62438
   4  -3   0  416.81   22.11  11 0.15751 0.33606-0.29612 0.01471-0.93292 0.95840
   4   4  -5   36.40   17.92  10 0.15579 0.32205-0.29683 0.67155-0.93308 0.68434
   4   5  -7    3.03   19.56  11 0.15462 0.31682-0.29731 0.76727-0.93318 0.57451
   5  -4  -1   -8.96   21.48  11 0.16060 0.45375-0.29485-0.08214-0.93263 0.91029
   6  -6  -3   -7.64   26.21  11 0.16168 0.56904-0.29441-0.26943-0.93253 0.80611
   6   1  -4   28.83   19.93  10 0.15580 0.57184-0.29683 0.38911-0.93308 0.75204
   6   2  -5    8.35   19.02  10 0.15683 0.56748-0.29641 0.48240-0.93299 0.69695
   7  -3  -4   25.37   25.20  11 0.16203 0.69180-0.29427 0.01017-0.93250 0.75805
   7   1  -6   29.62   22.99  11 0.15690 0.68848-0.29637 0.38835-0.93298 0.64853
  -5  -1  -7   21.06   21.30  12 0.17101-0.80763-0.29061 0.19683-0.93162 0.51271
  -5   1  -9   27.00   20.00  11 0.16460-0.80740-0.29326 0.38721-0.93229 0.40322
  -4  -5  -4   26.77   19.40  11 0.16520-0.66938-0.29302-0.17631-0.93223 0.68424
  -4   3  -9   -3.29   22.17  12 0.16735-0.68764-0.29212 0.57379-0.93201 0.41000
  -3  -2  -2  260.27   16.63  12 0.17017-0.54574-0.29095 0.10303-0.93171 0.80153
  -2  -7  -2    9.74   19.06  12 0.16655-0.41804-0.29246-0.36507-0.93209 0.80725
  -2  -1  -1   65.80   17.70  12 0.16896-0.41758-0.29146 0.19777-0.93184 0.86380
  -1  -9  -3   40.20   25.27  12 0.17148-0.30177-0.29041-0.55328-0.93157 0.75769
   3   4  -4  162.82   17.70  12 0.16880 0.18804-0.29152 0.66658-0.93186 0.73146
   4  -8  -2   11.60   35.79  12 0.17557 0.31217-0.28870-0.46150-0.93112 0.84521
   4  -4   0   98.78   21.49  11 0.16667 0.32718-0.29241-0.08282-0.93208 0.95735
   5  -2  -1    8.06   17.49  11 0.16413 0.44982-0.29346 0.10428-0.93233 0.90993
   5   4  -6   26.54   21.27  12 0.16891 0.42833-0.29148 0.66475-0.93185 0.63479
   6   4  -8  -13.11   22.87  12 0.16574 0.54962-0.29279 0.66725-0.93217 0.53164
   7  -4  -4   -2.65   23.66  12 0.16534 0.68667-0.29296-0.08433-0.93221 0.75771
   7  -2  -4    6.69   22.19  11 0.16534 0.68502-0.29296 0.10305-0.93221 0.75687
   7   0  -5   17.78   21.82  12 0.16512 0.68501-0.29305 0.29152-0.93223 0.70350
   7   2  -7    0.10   22.22  12 0.16494 0.67750-0.29312 0.47936-0.93225 0.59341
  -5  -6  -8   -3.70   26.14  14 0.18394-0.82013-0.28530-0.27568-0.93016 0.45572
  -5  -5  -7   10.12   21.19  12 0.17422-0.81111-0.28937-0.18026-0.93128 0.51166
  -5   0  -8    1.99   19.51  13 0.17583-0.81681-0.28870 0.28890-0.93111 0.45652
  -4   4 -13   14.44   31.29  13 0.18477-0.71727-0.28495 0.66070-0.93006 0.18766
  -3  -4  -2   42.78   17.09  12 0.17426-0.54925-0.28935-0.08604-0.93128 0.80053
  -2  -8  -3   24.53   20.25  13 0.17501-0.42901-0.28904-0.46204-0.93120 0.75090
  -2  -5  -1   60.16   17.63  13 0.17690-0.42693-0.28825-0.17984-0.93098 0.86173
  -1  -8  -2   34.77   23.44  13 0.17883-0.30680-0.28744-0.46367-0.93076 0.81246
   2   7 -11   17.74   28.80  14 0.18521 0.02826-0.28476 0.94175-0.93000 0.33792
   3   6  -8   70.19   22.27  13 0.17947 0.16659-0.28718 0.84850-0.93069 0.51168
   4  -2   0  121.00   17.62  12 0.17261 0.32117-0.29004 0.10316-0.93146 0.95730
   4   6  -9   29.41   24.07  13 0.17960 0.28565-0.28712 0.84782-0.93067 0.46214
   5   5  -8   -6.07   21.91  13 0.17502 0.41686-0.28904 0.75784-0.93120 0.52387
   6  -3  -2   33.25   23.66  13 0.17743 0.55668-0.28803 0.00476-0.93092 0.85918
   6   0  -3    1.19   17.78  13 0.17342 0.55921-0.28971 0.28850-0.93137 0.80612
   6   3  -6   -6.58   20.36  13 0.17442 0.54769-0.28929 0.57009-0.93126 0.64099
  -5  -4  -7   26.69   22.81  14 0.18951-0.82672-0.28310-0.09255-0.92925 0.50948
  -5  -2  -7   79.54   21.49  14 0.18908-0.82581-0.28329 0.09559-0.92931 0.51110
  -5   2 -12   -7.33   24.18  14 0.18444-0.83656-0.28525 0.47273-0.92989 0.23455
  -4  -7  -6   -3.28   21.49  14 0.18644-0.69823-0.28440-0.37377-0.92964 0.57100
  -4  -6  -5   37.40   20.61  14 0.18584-0.69270-0.28466-0.27832-0.92971 0.62638
  -4  -4  -4    7.81   18.06  14 0.18427-0.68796-0.28532-0.08977-0.92991 0.68199
  -4  -3  -4   25.87   16.44  14 0.18905-0.69394-0.28330 0.00183-0.92931 0.68181
  -4  -2  -4  135.36   17.10  13 0.18128-0.68654-0.28658 0.10002-0.93026 0.68266
  -4   0  -5  102.02   16.62  13 0.18226-0.68939-0.28617 0.28708-0.93015 0.62810
  -4   1  -6   12.98   16.47  13 0.18436-0.69595-0.28528 0.37932-0.92989 0.57283
  -3  -6  -3   21.71   18.70  14 0.18780-0.56603-0.28383-0.27958-0.92947 0.74330
  -3  -3  -2  368.38   17.69  13 0.18119-0.55740-0.28661 0.00619-0.93028 0.79917
  -3   0  -3   33.10   17.56  14 0.18509-0.56387-0.28497 0.28514-0.92980 0.74454
  -3   5 -12   37.98   33.49  14 0.19394-0.60098-0.28122 0.74925-0.92867 0.24928
   0  -6   0  355.32   25.34  15 0.19445-0.19389-0.28100-0.28099-0.92861 0.92760
   1   7 -11   40.96   28.59  14 0.19511-0.10507-0.28072 0.93633-0.92852 0.33099
   2  -4   1  179.38   29.39  15 0.20176 0.04821-0.27788-0.09715-0.92760 0.99509
   3   0   0 1374.20   23.95  13 0.18499 0.18544-0.28501 0.28423-0.92982 0.94966
   4   2  -2  175.18   16.52  14 0.18876 0.29767-0.28342 0.47048-0.92935 0.84604
   5  -5  -1   34.14   22.71  13 0.18597 0.42751-0.28460-0.18563-0.92970 0.90619
   5  -1  -1   74.95   20.30  14 0.19001 0.42528-0.28289 0.18865-0.92919 0.90691
   5   2  -3   53.69   17.24  14 0.18697 0.42004-0.28418 0.47198-0.92957 0.79698
   6  -4  -2   31.71   20.12  13 0.18460 0.54990-0.28518-0.09172-0.92987 0.85838
   6  -2  -2   37.41   20.36  14 0.18558 0.54884-0.28477 0.09567-0.92975 0.85873
   7  -1  -4   15.59   21.50  14 0.18551 0.66683-0.28479 0.18932-0.92975 0.75555
  -5  -3  -7   29.96   19.79  15 0.19497-0.83229-0.28095-0.00067-0.92855 0.50923
  -5   1 -10   17.24   21.64  15 0.19632-0.84235-0.28037 0.37405-0.92837 0.34423
  -3  -8  -5   27.15   21.42  15 0.19563-0.57968-0.28066-0.47084-0.92846 0.63190
  -3   2  -5   36.27   20.86  15 0.19943-0.58403-0.27904 0.46569-0.92794 0.63413
  -2   6 -13   11.18   48.38  18 0.22848-0.51427-0.26642 0.82944-0.92343 0.19425
   0 -10  -4   33.64   31.17  16 0.20324-0.21392-0.27741-0.66157-0.92740 0.70493
   0   7 -12   14.91   39.08  17 0.21734-0.25337-0.27131 0.92714-0.92527 0.26483
   2  -2   1 1201.84   29.22  15 0.19905 0.05009-0.27920 0.09126-0.92799 0.99597
   2   5  -5  326.23   21.56  15 0.20081 0.03073-0.27845 0.74620-0.92775 0.66694
   3   7 -11  -13.79   27.36  15 0.20085 0.13415-0.27843 0.93305-0.92774 0.34159
   4   3  -3    1.47   16.99  15 0.19472 0.28859-0.28106 0.56203-0.92858 0.79011
   5  -7  -2    6.34   29.48  15 0.19937 0.41187-0.27907-0.37887-0.92795 0.84909
   5   1  -2   89.13   18.15  15 0.19557 0.41508-0.28069 0.37406-0.92847 0.85067
   5   3  -4   74.50   19.01  15 0.19553 0.40941-0.28071 0.56058-0.92847 0.74116
   7   1  -5   41.90   24.38  15 0.19947 0.64868-0.27902 0.37115-0.92793 0.69821
  -5  -5  -8   19.69   21.99  16 0.20526-0.84502-0.27654-0.19299-0.92704 0.45214
  -5  -1  -8  -14.31   18.66  16 0.20604-0.84855-0.27621 0.18195-0.92693 0.45132
  -3  -7  -4   15.02   19.57  15 0.20182-0.58259-0.27802-0.37891-0.92753 0.68589
  -3   1  -4  293.24   22.51  16 0.20831-0.58951-0.27522 0.36843-0.92659 0.68718
  -2  -4  -1  171.91   17.79  16 0.20724-0.45582-0.27569-0.09889-0.92675 0.85868
  -1  -4   0   48.44   17.19  16 0.20636-0.32893-0.27607-0.09856-0.92688 0.92005
   0   6  -8    8.42   26.96  16 0.21362-0.23760-0.27292 0.83422-0.92578 0.48602
   1  -2   1 3534.41   74.47  17 0.22419-0.09845-0.26831 0.08055-0.92408 0.98534
   2   2  -1  179.98   19.42  15 0.20235 0.04053-0.27779 0.46405-0.92746 0.88658
   2   3  -2 1197.56   23.04  15 0.20415 0.03639-0.27702 0.55734-0.92720 0.83121
   4  -7  -1   -1.76   32.99  17 0.22264 0.26822-0.26899-0.38813-0.92433 0.89421
   4  -5   0  145.98   22.20  16 0.20726 0.28623-0.27568-0.19217-0.92675 0.95237
   4  -1   0  150.77   17.10  15 0.20287 0.28917-0.27757 0.18324-0.92738 0.95398
   4   1  -1  414.82   17.97  16 0.20464 0.28478-0.27681 0.37023-0.92713 0.89873
   4   5  -6   59.23   18.35  16 0.20431 0.27125-0.27695 0.74534-0.92718 0.62368
   6  -5  -2   -2.07   24.51  15 0.20424 0.52702-0.27698-0.19137-0.92719 0.85480
   6  -1  -2   33.55   19.29  16 0.20492 0.52920-0.27669 0.18191-0.92709 0.85612
   6   2  -4   26.82   17.86  16 0.20753 0.51977-0.27556 0.46194-0.92670 0.74596
   6   4  -7  -22.63   22.05  16 0.20324 0.51607-0.27741 0.65278-0.92733 0.58202
   7   2  -6   25.94   22.59  16 0.20406 0.64271-0.27706 0.46409-0.92721 0.64345
  -5   0  -9   15.45   19.85  17 0.21265-0.85444-0.27335 0.27275-0.92594 0.39685
  -4  -5  -5   13.39   19.42  16 0.21381-0.72213-0.27285-0.19682-0.92576 0.62315
  -4   2  -8   15.31   21.66  17 0.21917-0.73734-0.27051 0.45837-0.92491 0.45749
  -4   3 -10    1.36   23.71  18 0.22224-0.74146-0.26917 0.54788-0.92441 0.34905
  -2  -9  -5   33.88   26.83  17 0.21745-0.47898-0.27126-0.57574-0.92519 0.63478
  -2  -2  -1 1195.60   23.38  16 0.21192-0.46100-0.27367 0.08679-0.92606 0.85746
  -1  -2   0 1125.05   26.70  16 0.21237-0.33554-0.27347 0.08657-0.92599 0.91896
   1   2  -1 4076.59   40.49  17 0.21444-0.09388-0.27258 0.45943-0.92567 0.87780
   1   3  -2  159.59   21.45  17 0.21752-0.10049-0.27123 0.55179-0.92518 0.82237
   1   5  -5   72.14   20.44  16 0.21423-0.10629-0.27267 0.74076-0.92570 0.65807
   2   6  -7    7.44   21.76  17 0.21902 0.00689-0.27058 0.83389-0.92494 0.55290
   4   4  -4   92.71   20.39  17 0.21905 0.26154-0.27057 0.64463-0.92493 0.73222
   5   5  -7   14.05   20.70  17 0.21427 0.38143-0.27265 0.74069-0.92569 0.57350
   6   1  -3   92.52   20.05  16 0.21339 0.51731-0.27303 0.36628-0.92583 0.80040
   6   3  -5  -19.19   22.75  17 0.21858 0.50607-0.27077 0.55162-0.92501 0.68971
   7  -3  -3  -12.31   25.25  17 0.21898 0.63495-0.27059-0.01151-0.92495 0.80526
   7   0  -4    1.37   21.61  17 0.21261 0.63938-0.27337 0.27259-0.92595 0.75233
   7   3  -7   28.56   22.80  16 0.21462 0.62443-0.27250 0.55103-0.92564 0.58656
  -5  -4  -8    6.49   20.26  17 0.22136-0.86124-0.26957-0.10595-0.92452 0.44994
  -5  -3  -8    5.86   23.17  18 0.22811-0.86810-0.26661-0.01503-0.92338 0.44900
  -5  -2  -8   28.26   19.53  18 0.22403-0.86430-0.26840 0.08057-0.92408 0.44984
  -5   1 -11   32.81   21.96  17 0.22226-0.87130-0.26918 0.36252-0.92437 0.28520
  -4  -7  -7   -5.66   22.53  18 0.22374-0.73810-0.26853-0.38858-0.92412 0.51020
  -4  -6  -6    6.45   18.70  18 0.22513-0.73804-0.26792-0.29661-0.92389 0.56493
  -4  -1  -5   27.83   17.46  17 0.22149-0.72888-0.26951 0.17565-0.92450 0.62228
  -3  -5  -3  100.12   17.85  18 0.22488-0.60278-0.26803-0.19983-0.92393 0.73868
  -3   4  -9   50.66   25.17  19 0.23351-0.63092-0.26422 0.63884-0.92244 0.40778
  -3   5 -13    8.06   33.78  19 0.23499-0.64452-0.26356 0.73293-0.92217 0.18616
  -2  -6  -2   25.19   20.69  18 0.22600-0.47822-0.26754-0.29562-0.92375 0.79960
  -2  -3  -1  116.96   18.83  17 0.22175-0.47114-0.26940-0.01148-0.92445 0.85552
  -1  -3   0   87.29   21.76  18 0.22770-0.34982-0.26679-0.01350-0.92345 0.91665
   2   7 -10   21.61   26.10  18 0.22948-0.01283-0.26600 0.92246-0.92315 0.38617
   3   5  -5  101.24   17.87  17 0.22240 0.13146-0.26912 0.73748-0.92435 0.66960
   4   6  -8   27.13   20.53  17 0.22176 0.24773-0.26940 0.83150-0.92445 0.51073
   5   0  -1  273.16   18.47  18 0.22480 0.38802-0.26806 0.26690-0.92395 0.90196
   5   4  -5   56.76   18.23  17 0.21995 0.38146-0.27019 0.64408-0.92475 0.68321
   7  -4  -3   15.65   25.34  19 0.23287 0.62623-0.26450-0.11355-0.92255 0.80359
   7  -2  -3   -3.76   21.33  18 0.22374 0.63035-0.26853 0.08009-0.92412 0.80483
  -5  -5  -9   11.40   22.98  19 0.23231-0.87403-0.26473-0.20424-0.92264 0.39283
  -4  -4  -5  148.05   18.73  19 0.23486-0.74226-0.26360-0.11014-0.92219 0.62010
  -3  -1  -3  834.52   20.42  19 0.23593-0.61430-0.26312 0.17022-0.92199 0.73695
   1   6  -7   52.88   22.24  19 0.23828-0.13525-0.26208 0.82290-0.92157 0.54531
   2   4  -3  105.91   20.59  19 0.23707 0.00072-0.26261 0.63685-0.92179 0.77092
   3  -3   1  662.97   23.74  19 0.23626 0.13579-0.26297-0.01845-0.92194 0.99638
   3   2  -1  246.19   17.18  18 0.23066 0.13550-0.26546 0.45171-0.92293 0.88843
   3   3  -2   30.82   17.32  18 0.23110 0.13328-0.26526 0.54696-0.92286 0.83319
   3   6  -7    8.99   19.06  19 0.23367 0.11530-0.26413 0.82665-0.92240 0.55728
   3   7 -10   52.43   27.06  19 0.24007 0.10018-0.26128 0.91707-0.92124 0.39195
   5   6  -9   -2.93   25.11  19 0.23407 0.35380-0.26395 0.82510-0.92233 0.45944
   6   0  -2   35.47   19.46  19 0.23459 0.49924-0.26371 0.26282-0.92224 0.85140
  -5  -1  -9   20.54   19.31  19 0.24007-0.88263-0.26129 0.16721-0.92118 0.39196
  -5   0 -10   -2.51   21.31  20 0.24114-0.88625-0.26081 0.26026-0.92098 0.33610
  -5   1 -12   24.08   23.96  19 0.24206-0.89451-0.26040 0.35388-0.92081 0.22646
  -4  -3  -5   46.14   17.76  20 0.24351-0.75080-0.25975-0.02225-0.92053 0.61890
  -4  -2  -5  777.19   20.69  19 0.24052-0.74768-0.26109 0.07422-0.92110 0.61906
  -4   0  -6  121.69   17.72  20 0.24233-0.75288-0.26028 0.25959-0.92076 0.56428
  -4   1  -7    6.82   17.90  20 0.24351-0.75754-0.25975 0.35346-0.92053 0.50843
  -4   3 -11   20.44   24.70  20 0.24894-0.77627-0.25732 0.53913-0.91949 0.28670
  -3  -8  -6    0.51   22.26  20 0.24233-0.62843-0.26028-0.48947-0.92076 0.56876
  -3   3  -7  280.36   22.22  20 0.24968-0.64163-0.25698 0.53655-0.91934 0.51436
  -2  -8  -4   22.50   20.82  19 0.24103-0.49870-0.26086-0.48986-0.92100 0.68623
  -2  -7  -3  110.87   19.49  20 0.24481-0.49786-0.25917-0.39815-0.92029 0.74180
  -1  -9  -4   11.39   24.60  21 0.25069-0.38416-0.25652-0.58547-0.91914 0.69107
  -1  -6  -1   95.37   17.98  20 0.24170-0.36647-0.26056-0.30146-0.92088 0.85874
   0  -9  -3    9.62   24.35  21 0.25028-0.25791-0.25671-0.58534-0.91922 0.75265
   1   7 -10    3.93   30.72  21 0.25687-0.16374-0.25373 0.90957-0.91789 0.37439
   2   1   0  316.89   19.27  19 0.24090 0.00538-0.26092 0.35347-0.92103 0.93491
   3  -2   1   21.93   19.98  20 0.24721 0.12659-0.25809 0.06917-0.91982 0.99500
   4   0   0   -2.54   16.25  20 0.24470 0.24598-0.25922 0.25872-0.92031 0.94628
   5  -6  -1    8.67   24.01  20 0.24622 0.36764-0.25854-0.30475-0.92001 0.89671
   6   4  -6  -30.69   21.66  20 0.24174 0.47970-0.26055 0.63525-0.92087 0.63060
   6   5  -8  -20.32   24.82  20 0.24213 0.47307-0.26037 0.72880-0.92080 0.52014
   7  -1  -3    9.73   20.20  20 0.24112 0.61604-0.26082 0.16584-0.92099 0.80210
   7   1  -4   29.64   20.09  19 0.24397 0.60494-0.25955 0.35171-0.92045 0.74604
   7   2  -5    7.10   21.81  20 0.24312 0.60437-0.25993 0.44635-0.92061 0.69167
  -5  -5 -10   24.40   24.24  20 0.25254-0.89845-0.25565-0.21362-0.91891 0.33423
  -5  -4  -9  -16.08   19.82  21 0.24986-0.89092-0.25686-0.11770-0.91944 0.39008
  -5  -3  -9  -14.20   23.98  21 0.25643-0.89912-0.25389-0.02769-0.91812 0.38820
  -5  -2  -9   72.04   20.23  21 0.25326-0.89642-0.25533 0.06713-0.91877 0.39000
  -4  -7  -8   11.38   22.19  20 0.25324-0.77096-0.25534-0.40308-0.91877 0.44991
  -3  -7  -5   -1.84   20.14  21 0.25223-0.63727-0.25580-0.40092-0.91897 0.62214
  -3  -6  -4   30.30   17.77  21 0.25041-0.63069-0.25662-0.30549-0.91934 0.67795
  -3  -4  -3   10.94   17.36  21 0.25183-0.62926-0.25597-0.11862-0.91905 0.73317
  -2   0  -2 1309.18   25.71  21 0.25614-0.50855-0.25402 0.25400-0.91818 0.79505
  -2   5  -9  197.45   34.26  24 0.28133-0.55595-0.24246 0.70971-0.91264 0.40472
   0  -7  -1   28.75   20.85  21 0.25834-0.26006-0.25303-0.40352-0.91773 0.86135
   1 -10  -4  -17.02   30.77  23 0.27069-0.15813-0.24738-0.68613-0.91508 0.69938
   3   4  -3   36.78   17.03  20 0.25176 0.10866-0.25601 0.62988-0.91907 0.77463
   5  -3   0  134.23   21.38  21 0.25675 0.35961-0.25375-0.02622-0.91806 0.95053
   5   2  -2  112.56   17.24  21 0.25374 0.35591-0.25511 0.44236-0.91867 0.84144
   5   3  -3   54.56   17.55  21 0.25577 0.35111-0.25419 0.53507-0.91826 0.78654
   5   5  -6   24.70   23.17  21 0.25824 0.34086-0.25307 0.72161-0.91775 0.62050
   6  -6  -2   16.40   25.57  21 0.25553 0.47787-0.25430-0.30877-0.91831 0.84640
   6  -3  -1   60.64   22.36  21 0.25729 0.47944-0.25351-0.02834-0.91795 0.90138
   7   3  -6  -10.16   23.77  21 0.25282 0.59103-0.25553 0.53507-0.91885 0.63446
  -5  -1 -10   16.98   23.23  22 0.26652-0.91149-0.24927 0.15524-0.91600 0.33244
  -5   0 -11  -12.82   21.53  22 0.26162-0.91161-0.25151 0.25146-0.91705 0.27728
  -4  -6  -7   87.76   20.93  22 0.26245-0.77621-0.25113-0.31260-0.91687 0.50443
  -4  -5  -6   56.03   18.05  21 0.25803-0.76775-0.25314-0.21636-0.91780 0.56073
  -4   2  -9  -10.90   22.11  22 0.26673-0.78791-0.24918 0.43705-0.91595 0.39275
  -3  -3  -3  176.29   16.64  22 0.26260-0.64118-0.25106-0.02972-0.91684 0.73150
  -3  -2  -3  107.63   16.47  21 0.25995-0.63809-0.25227 0.06518-0.91740 0.73228
  -1  -8  -3    2.87   23.61  23 0.27104-0.40209-0.24720-0.50278-0.91501 0.74160
   0  -8  -2   20.35   22.22  22 0.26815-0.27315-0.24852-0.50180-0.91564 0.80402
   1   4  -3   81.58   20.61  22 0.26509-0.15070-0.24992 0.62458-0.91631 0.75831
   2  -1   1   73.22   18.01  21 0.25952-0.01029-0.25246 0.15974-0.91749 0.98542
   3  -4   1   14.63   19.75  22 0.26470 0.10841-0.25010-0.12535-0.91639 0.99036
   3   1   0   78.02   16.74  21 0.26071 0.10812-0.25192 0.34526-0.91724 0.93721
   4   5  -5    8.59   19.13  21 0.25887 0.21926-0.25276 0.72088-0.91763 0.66913
   4   6  -7   10.54   22.06  22 0.26557 0.20656-0.24970 0.81155-0.91620 0.55778
   4   7 -10   24.07   28.34  22 0.26602 0.19638-0.24950 0.90309-0.91611 0.39284
   5  -2   0   61.38   16.79  21 0.26057 0.35577-0.25199 0.06557-0.91727 0.94998
   6  -2  -1   43.06   19.19  21 0.26054 0.47617-0.25200 0.06389-0.91728 0.90121
   6   2  -3   14.54   18.95  21 0.26156 0.46907-0.25154 0.43791-0.91706 0.79128
   6   3  -4   -9.99   22.04  22 0.26633 0.46166-0.24935 0.52978-0.91604 0.73557
   7   0  -3    9.37   21.12  22 0.26319 0.59131-0.25079 0.24965-0.91671 0.79745
  -5  -4 -10   34.97   24.05  23 0.27115-0.91587-0.24712-0.12816-0.91495 0.33059
  -4  -1  -6   -2.91   20.28  24 0.27853-0.78642-0.24371 0.15008-0.91327 0.55683
  -4   3 -12  114.41   25.83  23 0.27918-0.80886-0.24341 0.52348-0.91312 0.22665
  -2  -9  -6    7.22   24.41  22 0.26867-0.53200-0.24826-0.59632-0.91550 0.57047
  -2  -5  -2   37.99   19.88  23 0.27506-0.52694-0.24532-0.22420-0.91407 0.79004
  -1  -7  -2  120.80   19.10  23 0.27075-0.39922-0.24731-0.40853-0.91504 0.79753
   2   7  -9   13.44   26.34  23 0.27906-0.05953-0.24347 0.89909-0.91315 0.43142
   4   2  -1   11.05   16.67  23 0.27324 0.21669-0.24616 0.43308-0.91448 0.88580
   4   3  -2   47.85   17.09  22 0.27012 0.21664-0.24759 0.52859-0.91518 0.83184
   5  -4   0   74.21   22.07  23 0.27291 0.34427-0.24631-0.12963-0.91456 0.94675
   5   1  -1   77.35   18.75  22 0.27062 0.34242-0.24737 0.34075-0.91507 0.89299
   5   4  -4   -1.94   19.14  23 0.27161 0.33148-0.24691 0.62093-0.91485 0.72768
   5   6  -8    0.66   23.24  23 0.27024 0.32142-0.24754 0.80993-0.91515 0.50781
   6  -4  -1   97.33   20.34  22 0.27072 0.46572-0.24732-0.12814-0.91505 0.89905
   6  -1  -1  -14.24   21.76  23 0.27559 0.46052-0.24508 0.15060-0.91395 0.89825
   6   1  -2   12.55   19.24  23 0.27298 0.46085-0.24628 0.33917-0.91454 0.84386
  -5  -3 -10   18.14   21.95  24 0.27958-0.92471-0.24320-0.03832-0.91291 0.32850
  -5  -2 -10    4.12   21.36  23 0.27803-0.92374-0.24391 0.05604-0.91327 0.32908
  -5   0 -12   24.89   23.50  23 0.28011-0.93244-0.24295 0.24266-0.91279 0.21855
  -4  -4  -6    8.31   18.05  24 0.27998-0.79002-0.24301-0.13200-0.91282 0.55515
  -3  -8  -7   -0.33   23.07  24 0.27881-0.66919-0.24355-0.50653-0.91309 0.50572
  -3   0  -4  344.59   18.57  24 0.28127-0.66333-0.24241 0.24233-0.91252 0.67201
   1   1   0 6837.60   55.62  24 0.28106-0.15624-0.24251 0.33597-0.91257 0.91965
   3  -1   1  734.69   21.74  23 0.27863 0.09482-0.24364 0.14876-0.91313 0.98818
   3   7  -9   30.80   22.05  23 0.27985 0.06295-0.24307 0.89881-0.91285 0.43769
   5  -1   0  105.43   18.59  23 0.27863 0.33721-0.24364 0.14907-0.91313 0.94644
   6   4  -5   26.37   20.25  24 0.28345 0.44083-0.24139 0.61524-0.91200 0.67671
   6   5  -7   13.15   21.21  23 0.27686 0.44217-0.24446 0.71246-0.91354 0.56822
   7  -3  -2   12.56   24.47  25 0.28777 0.57328-0.23938-0.04402-0.91096 0.84769
   7  -2  -2   18.36   24.02  24 0.28671 0.57291-0.23987 0.05089-0.91122 0.84760
  -5  -4 -11   36.23   26.06  24 0.28802-0.93673-0.23928-0.13621-0.91087 0.27090
  -5  -1 -11   36.64   21.26  25 0.28828-0.93529-0.23916 0.14517-0.91081 0.27258
  -4  -6  -8   -2.30   24.63  25 0.29478-0.81038-0.23611-0.32643-0.90920 0.44107
  -4  -5  -7   25.90   22.78  25 0.29438-0.80794-0.23629-0.23288-0.90930 0.49623
  -4  -3  -6   21.54   17.40  25 0.28986-0.80110-0.23842-0.04315-0.91042 0.55283
  -4  -2  -6   16.43   18.40  25 0.29010-0.80087-0.23830 0.05067-0.91036 0.55286
  -4   0  -7   10.43   20.39  25 0.29348-0.80731-0.23672 0.23659-0.90952 0.49713
  -4   1  -8   70.38   18.39  25 0.29150-0.80813-0.23765 0.33085-0.91002 0.44421
  -3  -5  -4   71.76   17.72  24 0.28735-0.66852-0.23960-0.22926-0.91104 0.66982
  -3   2  -6   30.92   19.71  25 0.29519-0.68254-0.23591 0.42274-0.90909 0.55979
  -3   4 -10   29.13   25.40  26 0.30153-0.70175-0.23292 0.60605-0.90747 0.33839
  -2   3  -5   56.95   19.78  25 0.29406-0.55508-0.23645 0.51756-0.90938 0.62167
   0  -5   0    3.53   21.92  26 0.30117-0.30056-0.23309-0.23495-0.90756 0.90636
   0   7 -11    6.70   36.91  28 0.32045-0.35396-0.22385 0.88110-0.90230 0.29667
   2   5  -4   32.11   20.33  25 0.29167-0.05679-0.23757 0.70546-0.90998 0.70364
   2   6  -6  142.65   21.40  24 0.29009-0.06156-0.23831 0.79969-0.91037 0.59450
   3   5  -4  271.47   21.38  25 0.29338 0.06501-0.23677 0.70391-0.90955 0.71091
   3   6  -6   25.66   19.11  24 0.28983 0.06168-0.23843 0.80001-0.91043 0.60053
   4  -6   0   54.99   28.45  25 0.29973 0.19351-0.23377-0.32900-0.90793 0.93288
   4   4  -3   21.31   17.09  24 0.28504 0.19894-0.24067 0.61513-0.91160 0.77340
   7  -4  -2   20.13   27.21  25 0.29475 0.56141-0.23612-0.13964-0.90920 0.84458
   7   2  -4   11.51   22.30  25 0.28933 0.56335-0.23867 0.42574-0.91056 0.73776
   7   3  -5   -2.76   21.38  25 0.29108 0.55427-0.23785 0.51708-0.91012 0.68155
  -5  -3 -11   38.92   24.59  26 0.29819-0.94613-0.23453-0.04729-0.90843 0.26885
  -5  -2 -11   35.98   23.28  25 0.29778-0.94624-0.23473 0.04663-0.90854 0.26907
  -5  -1 -12   -2.83   25.45  26 0.30254-0.95465-0.23247 0.13801-0.90730 0.21294
  -4   2 -10    3.06   23.00  26 0.30561-0.82844-0.23100 0.41798-0.90649 0.32950
  -4   3 -13    7.26   26.33  27 0.30593-0.83475-0.23085 0.50961-0.90641 0.16639
  -3  -7  -6    1.51   21.77  26 0.29750-0.68460-0.23485-0.42119-0.90861 0.55602
  -3  -6  -5   15.07   19.11  26 0.30060-0.68468-0.23339-0.32958-0.90781 0.61141
  -3   1  -5  108.67   20.26  26 0.30231-0.68715-0.23258 0.32570-0.90737 0.61256
  -2  -8  -5   26.51   20.92  25 0.29672-0.55733-0.23522-0.51544-0.90881 0.61865
   1  -6   0    8.25   27.70  27 0.31530-0.19144-0.22636-0.33684-0.90386 0.90957
   4  -3   1  143.36   21.19  26 0.30150 0.19468-0.23296-0.04852-0.90758 0.98862
   4  -2   1  333.30   18.72  26 0.30046 0.19493-0.23346 0.04635-0.90785 0.98885
   4   1   0  150.76   17.13  26 0.29937 0.19256-0.23397 0.32667-0.90813 0.93488
   4   7  -9   18.90   27.78  26 0.30215 0.16387-0.23265 0.88796-0.90741 0.43930
   5   5  -5   20.08   22.90  26 0.30409 0.29738-0.23173 0.69986-0.90690 0.66550
   6  -5  -1   10.05   24.38  25 0.30018 0.43493-0.23359-0.23480-0.90792 0.89106
   6   0  -1   39.55   19.61  26 0.30137 0.43553-0.23302 0.23178-0.90761 0.89228
   7  -1  -2    6.81   21.66  25 0.29634 0.56111-0.23540 0.14058-0.90891 0.84484
   7   1  -3    5.80   20.32  26 0.29867 0.55989-0.23430 0.32785-0.90831 0.79030
  -5  -3 -12  -25.09   21.92  27 0.30969-0.96379-0.22910-0.05377-0.90540 0.20882
  -5  -2 -12  -16.15   25.70  27 0.31258-0.96446-0.22771 0.03928-0.90461 0.20936
  -3  -8  -8   38.76   23.72  27 0.30933-0.70256-0.22927-0.52199-0.90549 0.44357
  -2  -9  -7    2.28   25.35  27 0.30853-0.57646-0.22965-0.61490-0.90571 0.50464
  -2  -7  -4   13.11   18.70  27 0.30940-0.56754-0.22924-0.42792-0.90547 0.67080
  -2  -6  -3   33.19   17.46  26 0.30577-0.56020-0.23097-0.33200-0.90645 0.72690
  -2  -4  -2  132.88   16.73  27 0.31166-0.56324-0.22815-0.14755-0.90486 0.78124
  -2   1  -3  640.70   24.83  27 0.31461-0.57063-0.22673 0.32018-0.90404 0.72535
  -1  -9  -5   -0.95   25.52  28 0.31453-0.45095-0.22677-0.61484-0.90407 0.62028
  -1  -5  -1   30.53   16.62  27 0.30830-0.43332-0.22976-0.23934-0.90577 0.84380
   4   6  -6   31.92   23.56  28 0.31562 0.16078-0.22625 0.79014-0.90377 0.60058
   5  -5   0   95.45   22.55  27 0.31408 0.30312-0.22699-0.24104-0.90419 0.93650
   5   0   0  -10.65   18.53  27 0.30814 0.30745-0.22984 0.22935-0.90581 0.93906
   5   6  -7   10.48   23.09  27 0.30834 0.28747-0.22974 0.79194-0.90576 0.55450
  -4  -6  -9    0.89   22.98  28 0.31814-0.83897-0.22503-0.33889-0.90304 0.37890
  -4  -4  -7   40.70   18.04  28 0.31714-0.83060-0.22551-0.14998-0.90332 0.49041
  -4  -1  -7   19.27   16.77  28 0.31949-0.83469-0.22438 0.13011-0.90266 0.48991
  -3  -4  -4   20.02   17.03  27 0.31582-0.69693-0.22615-0.14897-0.90369 0.66262
  -3  -1  -4  284.77   18.18  28 0.31983-0.70109-0.22422 0.12966-0.90256 0.66286
  -2  -1  -2  969.76   21.34  28 0.31718-0.56978-0.22550 0.13148-0.90331 0.77975
   1  -9  -3   -9.01   27.98  27 0.31718-0.20224-0.22550-0.62091-0.90331 0.74399
   1   7  -9   94.24   26.62  28 0.32645-0.23098-0.22101 0.87521-0.90065 0.41415
   3   7  -8   18.47   24.90  28 0.32528 0.02060-0.22158 0.87737-0.90100 0.48157
   4  -1   1  534.67   19.72  28 0.31969 0.17593-0.22429 0.13111-0.90260 0.98393
   4   5  -4   33.38   18.73  27 0.31707 0.16402-0.22555 0.69373-0.90334 0.71042
   5   3  -2   27.94   18.52  27 0.31752 0.29295-0.22534 0.50603-0.90322 0.82672
   6   2  -2   39.20   19.05  27 0.31760 0.41575-0.22530 0.41181-0.90319 0.83276
   6   3  -3   97.60   19.87  27 0.31676 0.41333-0.22570 0.50686-0.90343 0.77843
   6   5  -6   19.72   21.69  27 0.31410 0.40786-0.22698 0.69490-0.90417 0.61438
   7   0  -2    3.36   21.77  28 0.31737 0.53937-0.22540 0.22464-0.90326 0.83971
  -4  -5  -8    2.77   21.14  29 0.32562-0.84222-0.22146-0.24792-0.90090 0.43191
  -4  -3  -7   23.39   17.46  29 0.32984-0.84362-0.21940-0.06244-0.89966 0.48694
  -4   1  -9   -2.66   21.34  28 0.32639-0.85008-0.22108 0.31511-0.90067 0.37676
  -3   3  -8   54.92   21.24  29 0.32777-0.72101-0.22041 0.49948-0.90027 0.44240
  -2   2  -4   94.76   20.74  29 0.33324-0.59111-0.21774 0.40461-0.89864 0.66608
  -1   0  -1  808.36   31.67  28 0.32595-0.45221-0.22129 0.22178-0.90080 0.83889
   0  -9  -4    2.71   28.07  29 0.32960-0.34140-0.21952-0.62852-0.89972 0.67789
   2   7  -8   -1.14   25.54  28 0.32639-0.10472-0.22108 0.87114-0.90067 0.47547
   3   0   1   10.10   18.51  28 0.32625 0.04671-0.22115 0.22102-0.90071 0.97573
   3   3  -1   30.91   17.32  29 0.32658 0.04017-0.22099 0.50192-0.90061 0.86598
   4  -4   1   40.08   21.18  29 0.32798 0.16810-0.22031-0.15504-0.90020 0.98081
   5   2  -1   38.53   17.46  28 0.32449 0.28969-0.22201 0.40947-0.90122 0.88025
   5   4  -3   32.46   19.47  29 0.32788 0.27952-0.22036 0.59468-0.90023 0.76892
   6   4  -4  -28.51   21.50  29 0.32773 0.39861-0.22043 0.59417-0.90028 0.72015
  -4  -6 -10  -12.19   26.59  29 0.33675-0.86235-0.21603-0.34996-0.89756 0.31767
  -4  -2  -7   65.51   17.20  29 0.33202-0.84565-0.21835 0.02946-0.89899 0.48673
  -4   0  -8   -1.00   17.91  30 0.33522-0.85249-0.21678 0.21602-0.89803 0.43018
  -4   2 -11   22.10   20.38  30 0.33491-0.86048-0.21693 0.40327-0.89812 0.26620
  -3  -7  -7  -24.79   21.09  30 0.33446-0.72446-0.21716-0.43889-0.89826 0.49042
  -3  -5  -5   91.46   17.76  30 0.33894-0.72333-0.21495-0.25440-0.89689 0.60132
  -3  -3  -4  147.48   16.32  29 0.33220-0.71299-0.21826-0.06240-0.89894 0.65883
  -3  -2  -4   49.38   16.60  29 0.33518-0.71672-0.21680 0.02894-0.89804 0.65726
  -2  -3  -2 1311.83   23.55  29 0.33493-0.58734-0.21693-0.06391-0.89812 0.77387
  -2  -2  -2  424.61   19.29  30 0.33859-0.59171-0.21513 0.02754-0.89699 0.77274
  -2   4  -7   19.85   25.45  31 0.34698-0.61500-0.21097 0.58518-0.89436 0.49639
  -1  -8  -4   51.69   23.87  30 0.34167-0.47656-0.21361-0.53777-0.89604 0.66739
   0   5  -5   50.65   25.68  30 0.34647-0.36093-0.21122 0.67880-0.89452 0.62092
   1   5  -4   98.47   20.59  30 0.34377-0.23244-0.21257 0.68034-0.89538 0.68321
   1   6  -6   12.14   20.90  30 0.34132-0.23572-0.21378 0.77494-0.89615 0.57482
   2   0   1   38.93   18.78  29 0.33331-0.08605-0.21772 0.21672-0.89860 0.96689
   2   3  -1   84.20   18.15  29 0.33435-0.09133-0.21721 0.49752-0.89829 0.85761
   3   4  -2   49.41   16.89  30 0.33655 0.02665-0.21613 0.58977-0.89762 0.80871
   4   7  -8  -12.66   25.77  30 0.33993 0.12819-0.21447 0.87046-0.89658 0.48328
   6  -2   0    5.77   22.33  30 0.34057 0.40018-0.21415 0.02602-0.89638 0.93632
   6   1  -1   -7.69   19.79  30 0.33560 0.40057-0.21660 0.30993-0.89791 0.88317
   7   2  -3    4.82   22.51  30 0.33560 0.51981-0.21660 0.40388-0.89791 0.78040
   7   3  -4    9.87   22.38  30 0.33563 0.51610-0.21658 0.49729-0.89790 0.72503
  -4  -4  -8   70.83   18.20  31 0.34772-0.86480-0.21061-0.16534-0.89420 0.42644
  -3  -6  -6   53.46   19.65  31 0.34438-0.73144-0.21227-0.35068-0.89526 0.54362
  -3   4 -11    8.73   22.36  30 0.34641-0.74967-0.21127 0.58561-0.89462 0.26981
  -2  -8  -6   25.66   22.43  31 0.34419-0.60751-0.21237-0.53759-0.89532 0.54968
  -1  -6  -2   37.29   20.19  31 0.35102-0.47973-0.20897-0.35359-0.89313 0.77513
   2   4  -2  122.06   17.93  31 0.34705-0.10588-0.21095 0.58511-0.89441 0.79862
   3   2   0  474.32   17.99  30 0.34104 0.02947-0.21392 0.40095-0.89631 0.91684
   4   3  -1   31.19   17.26  31 0.34702 0.14247-0.21096 0.49132-0.89442 0.86679
   5  -7  -1   -4.31   32.24  32 0.35892 0.25395-0.20501-0.45074-0.89052 0.86716
   5   1   0   79.56   18.52  31 0.34736 0.26927-0.21079 0.30372-0.89431 0.92774
   5   6  -6   14.84   23.45  31 0.35056 0.24959-0.20920 0.77292-0.89328 0.59759
   6  -3   0   17.22   20.55  30 0.34322 0.39713-0.21285-0.06899-0.89562 0.93502
   6  -1   0    3.79   21.43  32 0.35238 0.39034-0.20829 0.11398-0.89269 0.93348
   7  -3  -1   25.13   26.27  31 0.35158 0.50888-0.20869-0.07324-0.89295 0.88365
   7  -2  -1    7.95   24.26  31 0.34854 0.51203-0.21020 0.02204-0.89393 0.88498
   7   1  -2  -11.34   21.95  31 0.34550 0.51038-0.21172 0.30460-0.89490 0.83106
   7   4  -5    2.03   23.34  31 0.34626 0.49934-0.21134 0.58446-0.89466 0.66663
  -4  -5  -9   10.43   19.63  31 0.35185-0.87007-0.20855-0.26020-0.89282 0.37046
  -4  -1  -8   46.02   20.17  32 0.35784-0.87519-0.20555 0.11096-0.89084 0.42353
  -4   2 -12   23.05   24.96  31 0.35471-0.88425-0.20712 0.39363-0.89188 0.20501
  -2  -5  -3  330.48   18.08  32 0.35523-0.60971-0.20686-0.26245-0.89171 0.71338
  -1  -7  -3   23.29   21.75  32 0.35758-0.48839-0.20568-0.45119-0.89093 0.71846
   1  -8  -2   30.82   26.58  33 0.36488-0.24699-0.20199-0.54864-0.88846 0.78300
   1  -1   1 1801.45   41.52  31 0.35360-0.22654-0.20768 0.11229-0.89224 0.95420
   2   2   0   42.41   19.27  31 0.35291-0.10742-0.20802 0.39467-0.89247 0.90634
   3  -5   1   86.64   26.11  33 0.36530 0.00774-0.20178-0.26653-0.88831 0.96222
   3   6  -5   61.21   18.38  31 0.35246 0.00203-0.20825 0.76930-0.89262 0.63981
   4   0   1  256.54   18.41  31 0.35248 0.14359-0.20824 0.20734-0.89261 0.97444
   4   4  -2   84.77   18.73  31 0.35368 0.13323-0.20764 0.58158-0.89222 0.80977
   5  -2   1  338.24   22.26  32 0.35912 0.26025-0.20490 0.01875-0.89041 0.97798
   5   5  -4   28.79   19.82  31 0.35273 0.25174-0.20811 0.67609-0.89253 0.70641
   6  -6  -1   17.22   29.87  33 0.36757 0.37171-0.20063-0.36403-0.88753 0.87198
   6   5  -5   31.34   23.44  31 0.35304 0.37138-0.20796 0.67527-0.89243 0.65761
   7  -1  -1  -10.85   21.45  32 0.35493 0.50387-0.20701 0.11285-0.89181 0.88243
  -4  -3  -8   13.21   18.73  32 0.36205-0.87913-0.20338-0.07865-0.88934 0.42176
  -4  -2  -8   -5.36   18.14  33 0.36620-0.88324-0.20128 0.01302-0.88792 0.42050
  -4   1 -10    4.26   19.34  33 0.36281-0.88508-0.20300 0.29558-0.88908 0.31227
  -3  -7  -8  -17.53   21.63  33 0.36319-0.75733-0.20281-0.45418-0.88895 0.42642
  -3   0  -5   11.17   16.71  32 0.36125-0.74529-0.20378 0.20327-0.88961 0.59445
  -3   2  -7   52.46   20.65  33 0.36941-0.75979-0.19965 0.38664-0.88680 0.48207
  -2  -7  -5  126.04   19.45  33 0.36385-0.62523-0.20247-0.45290-0.88873 0.59979
  -1  -9  -6   -8.93   23.29  33 0.36224-0.50412-0.20328-0.64040-0.88927 0.54981
  -1  -4  -1 1255.26   23.63  33 0.36343-0.49020-0.20268-0.17174-0.88887 0.82645
   0  -8  -3    8.63   22.44  34 0.37234-0.38086-0.19816-0.55197-0.88577 0.71888
   0   6  -7   19.42   31.49  35 0.38598-0.40699-0.19115 0.75236-0.88082 0.49718
   1  -7  -1  110.74   24.78  34 0.37553-0.25405-0.19653-0.45930-0.88464 0.83519
   2   6  -5   52.36   21.15  33 0.36828-0.13622-0.20023 0.76114-0.88720 0.62758
   3   5  -3    5.50   19.76  34 0.37038-0.00828-0.19916 0.66966-0.88646 0.74255
   4   2   0  101.94   17.03  32 0.36017 0.13247-0.20433 0.39232-0.88998 0.91688
   4   6  -5   24.52   20.25  32 0.36314 0.11499-0.20283 0.76429-0.88897 0.64141
   5  -3   1   51.65   20.79  33 0.36636 0.25399-0.20120-0.08114-0.88786 0.97592
   6  -4   0  -16.75   20.34  33 0.36243 0.37712-0.20319-0.17179-0.88921 0.92875
   7  -4  -1   47.88   27.77  33 0.36640 0.49208-0.20118-0.17358-0.88785 0.87801
  -4  -5 -10   30.53   21.82  33 0.37089-0.89363-0.19888-0.27090-0.88628 0.30807
  -4  -4  -9   -7.82   19.89  34 0.37275-0.89381-0.19793-0.17840-0.88562 0.36194
  -4   0  -9   22.42   18.37  33 0.36960-0.88898-0.19954 0.19857-0.88673 0.36472
  -4   2 -13   -1.61   22.62  34 0.37125-0.90302-0.19870 0.38497-0.88615 0.14346
  -3  -4  -5   91.75   17.79  33 0.37022-0.75444-0.19922-0.17566-0.88651 0.59025
  -3   1  -6   52.61   20.53  34 0.37719-0.76531-0.19566 0.28785-0.88403 0.53440
  -3   4 -12   44.31   27.26  34 0.37889-0.78535-0.19479 0.56904-0.88342 0.20323
  -2  -6  -4   10.07   17.70  33 0.37035-0.62847-0.19915-0.36366-0.88647 0.65162
   0  -6  -1   98.77   20.75  34 0.37322-0.37493-0.19769-0.36426-0.88545 0.83007
   3   7  -7   25.54   24.21  34 0.37539-0.02611-0.19658 0.85327-0.88468 0.52064
   5  -1   1  189.29   18.53  33 0.36968 0.24871-0.19950 0.10516-0.88670 0.97511
   6   0   0    5.30   18.87  34 0.37087 0.36890-0.19889 0.19877-0.88628 0.92698
   6   2  -1   70.07   21.95  34 0.37729 0.35974-0.19561 0.38345-0.88400 0.86961
   6   3  -2   32.45   19.55  33 0.37008 0.36422-0.19929 0.48034-0.88656 0.81739
   6   4  -3    6.62   24.37  33 0.37295 0.35481-0.19783 0.56998-0.88555 0.76036
   7   0  -1   -1.23   21.32  34 0.37294 0.48607-0.19783 0.19731-0.88555 0.87676
  -4   1 -11   85.34   23.08  35 0.38498-0.91150-0.19165 0.28308-0.88121 0.24996
  -4   2 -14   37.09   23.95  34 0.38011-0.91520-0.19416 0.38032-0.88301 0.08618
  -3  -6  -7    9.18   19.37  35 0.38080-0.77062-0.19380-0.36889-0.88275 0.47623
  -3  -5  -6   75.94   18.89  35 0.38282-0.77022-0.19276-0.27667-0.88201 0.53145
  -3   3  -9   48.07   22.39  35 0.38418-0.78123-0.19206 0.47218-0.88151 0.36719
  -2  -8  -7   12.44   21.81  34 0.37980-0.64736-0.19432-0.55701-0.88312 0.48295
  -2   5 -10   -2.57   28.04  36 0.39539-0.67158-0.18624 0.65339-0.87727 0.31488
   0  -7  -2   59.34   21.38  36 0.38912-0.39441-0.18950-0.46648-0.87966 0.76815
   2   5  -3  211.59   21.00  35 0.38697-0.14967-0.19062 0.65821-0.88047 0.73020
   3   1   1  726.83   20.28  35 0.38385-0.01192-0.19223 0.28505-0.88163 0.95703
   4   5  -3   15.12   17.17  34 0.37787 0.10659-0.19531 0.66378-0.88382 0.74637
   4   7  -7   32.79   22.50  34 0.37947 0.09260-0.19448 0.84921-0.88324 0.52588
   5   3  -1  116.47   17.86  34 0.38112 0.23156-0.19364 0.47502-0.88264 0.86118
   5   4  -2  116.85   22.20  35 0.38439 0.22549-0.19195 0.56574-0.88143 0.80531
   7   2  -2   29.53   23.13  34 0.38108 0.47522-0.19366 0.37990-0.88265 0.81879
   7   3  -3   23.70   22.97  34 0.37960 0.47540-0.19442 0.47527-0.88319 0.76576
  -4  -5 -11  -14.27   21.37  36 0.38823-0.91290-0.19001-0.27903-0.87994 0.24698
  -4  -4 -10    3.89   22.61  36 0.39203-0.91730-0.18803-0.18913-0.87850 0.29957
  -4  -3  -9   11.21   19.56  36 0.38947-0.90877-0.18936-0.09263-0.87948 0.35682
  -4  -2  -9   -5.21   21.51  37 0.39863-0.91414-0.18458-0.00289-0.87596 0.35533
  -4  -1  -9    4.87   18.38  35 0.38860-0.90847-0.18981 0.09524-0.87980 0.35757
  -4   0 -10   17.05   21.54  36 0.39332-0.91808-0.18736 0.18654-0.87801 0.30029
  -3  -7  -9    6.04   22.44  36 0.38897-0.78530-0.18962-0.46690-0.87966 0.36192
  -3  -3  -5  389.73   18.03  36 0.38939-0.77354-0.18940-0.09120-0.87951 0.58411
  -3  -1  -5  115.40   16.97  35 0.38879-0.77316-0.18971 0.09595-0.87973 0.58446
   0  -4   0  295.20   22.05  36 0.39314-0.39320-0.18745-0.18721-0.87808 0.87711
   2  -9  -3  -16.35   32.22  37 0.40159-0.16343-0.18303-0.66090-0.87479 0.72088
   2   7  -7   30.97   22.37  36 0.39643-0.17110-0.18573 0.84018-0.87681 0.50678
   4  -5   1   25.93   24.56  37 0.39906 0.09828-0.18435-0.28495-0.87579 0.95673
   5  -6   0   17.21   28.27  36 0.39409 0.22263-0.18696-0.37567-0.87772 0.90948
   5  -4   1   84.75   22.32  36 0.39126 0.22778-0.18843-0.18696-0.87880 0.96608
   5   0   1   97.35   17.63  36 0.39175 0.22663-0.18817 0.18763-0.87861 0.96702
   5   2   0   93.83   16.65  36 0.39326 0.22150-0.18739 0.37420-0.87804 0.91202
   5   6  -5   37.92   22.06  35 0.38941 0.21167-0.18939 0.75020-0.87950 0.63863
   6   6  -6   16.18   25.50  35 0.38979 0.33191-0.18920 0.75036-0.87936 0.59036
   7   4  -4    0.13   22.71  35 0.38674 0.46423-0.19078 0.56459-0.88050 0.70771
  -4  -5 -12   87.10   23.36  37 0.39926-0.92793-0.18424-0.28529-0.87571 0.18812
  -4   1 -12   24.87   23.51  37 0.40203-0.93174-0.18279 0.27537-0.87462 0.18716
  -3  -2  -5   20.89   16.01  36 0.39699-0.78132-0.18544-0.00242-0.87659 0.58095
  -3   4 -13   45.58   25.67  37 0.40172-0.81087-0.18295 0.55602-0.87474 0.14102
  -2  -4  -3   75.03   17.50  36 0.39700-0.65241-0.18543-0.18899-0.87659 0.69702
  -2   0  -3 5640.95   39.90  37 0.39871-0.65420-0.18453 0.18497-0.87592 0.69742
  -1  -9  -7  -17.45   25.44  37 0.40305-0.54790-0.18225-0.66167-0.87421 0.47955
  -1  -8  -5   36.46   23.78  37 0.40009-0.53814-0.18381-0.56710-0.87538 0.59193
   0  -9  -5   -0.31   24.01  37 0.40471-0.41899-0.18137-0.66156-0.87355 0.59654
   0   3  -2  156.53   27.51  37 0.40735-0.41278-0.17998 0.46014-0.87249 0.76380
   1   7  -8   32.24   25.46  37 0.40692-0.30732-0.18021 0.83497-0.87266 0.44147
   4   1   1  510.85   18.05  36 0.39502 0.10044-0.18646 0.27976-0.87735 0.95949
   5   5  -3    6.44   21.50  38 0.40644 0.20332-0.18046 0.65092-0.87286 0.74280
   5   7  -7    2.41   26.55  37 0.40342 0.19204-0.18206 0.83710-0.87406 0.52371
   6  -5   0   -7.87   26.37  37 0.40305 0.33702-0.18225-0.28678-0.87421 0.91304
   6   1   0   -1.25   18.95  37 0.39898 0.34001-0.18439 0.27778-0.87582 0.91614
   6   5  -4   -9.22   20.43  37 0.39713 0.33147-0.18536 0.65482-0.87654 0.69755
   7   1  -1   16.78   21.58  37 0.39923 0.46072-0.18426 0.27735-0.87572 0.86737
  -4  -4 -11   19.18   20.07  37 0.40866-0.93647-0.17931-0.19789-0.87197 0.23772
  -4  -3 -10   12.44   20.73  37 0.40819-0.93269-0.17956-0.10312-0.87216 0.29428
  -4  -1 -10    5.42   21.05  39 0.41438-0.93531-0.17627 0.08161-0.86963 0.29351
  -3  -7 -10  -16.40   23.79  38 0.40784-0.80786-0.17974-0.47751-0.87230 0.29953
  -3  -6  -8   20.64   20.15  38 0.40932-0.80296-0.17896-0.38446-0.87170 0.41007
  -3   4 -14   12.80   30.09  39 0.41572-0.82723-0.17556 0.54861-0.86907 0.07966
  -2  -8  -8    3.38   24.70  38 0.41165-0.68254-0.17772-0.57278-0.87075 0.41453
  -2  -7  -6   65.13   20.18  38 0.40857-0.67222-0.17936-0.47761-0.87200 0.52704
  -1  -3  -1  549.05   21.29  37 0.40527-0.53171-0.18110-0.09949-0.87333 0.81080
  -1  -1  -1 1689.30   32.58  38 0.41077-0.53751-0.17819 0.08495-0.87111 0.80890
   0   7 -10    7.11   43.66  43 0.45020-0.48099-0.15681 0.81282-0.85384 0.30470
   1   3  -1  223.30   18.36  38 0.40927-0.28902-0.17899 0.45905-0.87172 0.82443
  -4  -2 -10    0.64   19.34  39 0.41631-0.93959-0.17527-0.01338-0.86885 0.29071
  -4   0 -11    6.19   19.31  38 0.41568-0.94172-0.17560 0.17442-0.86911 0.23711
  -4   1 -14   56.95   27.69  39 0.42269-0.95719-0.17185 0.26363-0.86616 0.06947
  -4   1 -13    1.72   22.49  38 0.41484-0.94683-0.17605 0.26832-0.86946 0.12761
  -3  -5  -7   17.15   18.17  39 0.41887-0.80973-0.17390-0.29579-0.86778 0.46131
  -3  -4  -6  127.51   17.85  38 0.41474-0.80184-0.17610-0.19882-0.86950 0.51869
  -1  -5  -2  108.64   20.51  39 0.42127-0.55087-0.17261-0.29656-0.86676 0.74837
   1  -9  -4   18.07   27.47  39 0.42502-0.31317-0.17059-0.67365-0.86516 0.64967
   1   4  -2  192.04   21.31  39 0.42260-0.30456-0.17190 0.54643-0.86620 0.76404
   2   1   1   72.94   12.87  38 0.41190-0.16222-0.17762 0.27062-0.87067 0.93946
   3   6  -4   84.20   18.88  38 0.41516-0.05732-0.17588 0.73682-0.86933 0.67142
   4   6  -4   21.80   20.38  39 0.41607 0.06505-0.17539 0.73713-0.86895 0.67692
   6  -2   1  -21.56   23.21  39 0.42021 0.32299-0.17318-0.01457-0.86721 0.96232
   7  -3   0    3.90   24.91  39 0.42296 0.44198-0.17170-0.11048-0.86605 0.91253
   7  -2   0   20.76   22.61  38 0.41450 0.44931-0.17623-0.01179-0.86960 0.91624
   7  -1   0   -0.13   21.84  39 0.41722 0.44508-0.17478 0.08075-0.86847 0.91476
  -4  -4 -12    3.15   21.64  40 0.42358-0.95127-0.17142-0.20434-0.86577 0.17824
  -4  -3 -11   12.53   22.47  40 0.42649-0.95212-0.16985-0.11256-0.86452 0.23187
  -4   0 -12    4.35   23.09  40 0.43013-0.95949-0.16788 0.16648-0.86294 0.17585
  -3   0  -6   20.06   16.36  39 0.42333-0.81078-0.17156 0.17085-0.86588 0.51576
  -3   2  -8   23.45   16.93  40 0.42517-0.81906-0.17057 0.35707-0.86509 0.40535
  -3   3 -10   53.71   22.26  40 0.42659-0.82727-0.16980 0.44747-0.86447 0.29615
  -2  -6  -5   -6.51   18.51  40 0.42412-0.68557-0.17113-0.39109-0.86554 0.57485
  -2  -5  -4   36.35   17.22  39 0.42191-0.68009-0.17232-0.29658-0.86648 0.63179
  -2  -3  -3  137.90   17.74  40 0.42526-0.67994-0.17052-0.11069-0.86505 0.68670
  -1  -7  -4   53.18   18.66  40 0.42631-0.56051-0.16995-0.48691-0.86460 0.63715
  -1  -2  -1 3504.94   36.13  40 0.42524-0.55210-0.17052-0.01725-0.86505 0.80247
   2   8 -10   31.28   28.42  40 0.42743-0.21093-0.16935 0.91710-0.86411 0.32903
   3  -2   2  261.37   18.14  40 0.42574-0.05035-0.17026-0.01716-0.86484 0.99435
   3   3   0   73.95   17.68  39 0.42260-0.05296-0.17195 0.45248-0.86618 0.88721
   3   4  -1   11.49   17.35  39 0.42175-0.05494-0.17241 0.54712-0.86655 0.83248
   3   7  -6   96.94   20.36  39 0.42451-0.07245-0.17092 0.82478-0.86537 0.55823
   3   8  -9    7.60   27.84  41 0.43376-0.09089-0.16591 0.91576-0.86134 0.38828
   4  -2   2  126.57   20.22  40 0.42912 0.06981-0.16843-0.01820-0.86338 0.99966
   4   3   0  402.23   18.88  39 0.42440 0.06841-0.17098 0.45127-0.86542 0.89330
   4   4  -1   21.04   17.38  39 0.42329 0.06697-0.17158 0.54638-0.86589 0.83864
   4   7  -6   38.54   22.04  39 0.42345 0.05171-0.17149 0.82690-0.86582 0.56403
   5   1   1  214.46   18.56  39 0.42442 0.19435-0.17097 0.26380-0.86541 0.95457
   6  -3   1  -10.89   23.17  40 0.42916 0.31385-0.16841-0.11292-0.86336 0.95805
   6  -1   1   12.16   18.61  39 0.42358 0.31935-0.17142 0.07749-0.86577 0.96053
   6   3  -1   41.56   19.08  39 0.42285 0.31357-0.17182 0.45257-0.86608 0.85159
   6   4  -2   20.92   21.10  39 0.42446 0.30917-0.17094 0.54513-0.86539 0.79613
   6   6  -5   25.13   25.30  40 0.42646 0.29820-0.16987 0.73096-0.86453 0.63075
   7   3  -2   18.20   22.49  39 0.42358 0.43350-0.17142 0.45191-0.86577 0.80299
   7   4  -3   38.08   22.59  39 0.42567 0.42570-0.17030 0.54291-0.86487 0.74710
  -4  -4 -13  -24.63   24.37  41 0.43225-0.96244-0.16660-0.20927-0.86191 0.11935
  -4  -3 -12  148.68   25.65  41 0.43860-0.96666-0.16314-0.12094-0.85908 0.17228
  -4  -2 -11   15.25   20.63  40 0.43298-0.95927-0.16621-0.02264-0.86159 0.22890
  -4  -1 -11   98.82   19.08  40 0.43076-0.95639-0.16741 0.07082-0.86257 0.23123
  -3  -6  -9   78.68   21.46  41 0.43376-0.82964-0.16578-0.39782-0.86125 0.34457
  -3  -3  -6  147.65   17.90  41 0.43571-0.82284-0.16471-0.11767-0.86038 0.50998
  -3   1  -7  255.39   18.15  41 0.43569-0.82705-0.16473 0.25705-0.86039 0.45508
  -2  -8  -9   34.65   23.83  40 0.43435-0.70871-0.16546-0.58693-0.86098 0.35028
  -2  -1  -3  666.59   21.44  41 0.43370-0.68955-0.16581 0.07160-0.86127 0.68234
  -2   3  -6  141.75   22.49  42 0.44305-0.70830-0.16070 0.44015-0.85706 0.51401
  -1  -9  -8   16.90   24.82  40 0.43417-0.58157-0.16556-0.68005-0.86106 0.41188
  -1  -6  -3  115.54   17.55  41 0.43570-0.56685-0.16472-0.39817-0.86038 0.68805
   3  -1   2  115.95   17.69  40 0.43332-0.05777-0.16602 0.07243-0.86144 0.99129
   4  -1   2   76.02   17.03  41 0.43415 0.06486-0.16557 0.07198-0.86107 0.99755
   4   5  -2   88.56   20.47  41 0.43818 0.04779-0.16336 0.63117-0.85927 0.77743
   5   6  -4   13.32   20.85  40 0.43367 0.17032-0.16583 0.72659-0.86129 0.67595
   5   7  -6    7.40   27.01  42 0.44114 0.15758-0.16174 0.81776-0.85793 0.56361
   6   0   1  143.29   21.93  41 0.43895 0.30392-0.16294 0.16394-0.85892 0.95408
   6   2   0   -2.99   19.31  41 0.43461 0.30396-0.16532 0.35231-0.86087 0.90135
   7   0   0   30.51   20.90  40 0.43152 0.43169-0.16699 0.16670-0.86223 0.90910
   7   2  -1   19.73   21.75  41 0.43364 0.42773-0.16584 0.35347-0.86130 0.85492
  -4  -3 -13    2.00   26.33  42 0.44608-0.97817-0.15889-0.12411-0.85560 0.11233
  -4  -2 -12    2.22   20.45  42 0.44377-0.97490-0.16017-0.02942-0.85666 0.16698
  -4  -1 -12  -19.88   21.26  42 0.44287-0.97288-0.16066 0.06525-0.85708 0.16877
  -4   0 -14  -10.49   25.59  42 0.44641-0.98145-0.15871 0.15681-0.85545 0.05756
  -4   0 -13    7.58   21.81  41 0.44100-0.97266-0.16168 0.15985-0.85793 0.11594
  -3  -2  -6   21.66   16.43  41 0.44392-0.83366-0.16009-0.02872-0.85660 0.50507
  -3  -1  -6   57.10   17.23  42 0.44285-0.83073-0.16067 0.06643-0.85709 0.50673
  -2  -7  -7   23.55   19.55  42 0.44322-0.71088-0.16047-0.49686-0.85692 0.45641
  -2  -2  -3 1080.58   21.76  41 0.43938-0.69512-0.16257-0.02545-0.85866 0.67931
  -2   5 -11   36.65   29.54  43 0.45458-0.73504-0.15418 0.62093-0.85161 0.23435
  -1  -8  -6   -2.83   23.24  42 0.44665-0.58871-0.15858-0.59182-0.85533 0.51559
   0  -8  -4   41.60   22.77  42 0.44948-0.46103-0.15702-0.59342-0.85402 0.63165
   1   2   0 1111.46   26.70  42 0.44566-0.32232-0.15913 0.34580-0.85580 0.86337
   1   6  -5   38.21   20.58  42 0.44641-0.33899-0.15871 0.71915-0.85545 0.58946
   2   6  -4   55.56   21.32  42 0.44631-0.21221-0.15877 0.71918-0.85549 0.65129
   3  -3   2  369.55   21.93  42 0.44833-0.07254-0.15765-0.12310-0.85455 0.98392
   3   5  -2   53.88   17.56  41 0.44125-0.07819-0.16155 0.63001-0.85782 0.76913
   4  -3   2   67.82   21.11  42 0.44508 0.05439-0.15945-0.12165-0.85606 0.99221
   4   2   1  348.37   17.92  42 0.44400 0.05115-0.16004 0.34764-0.85656 0.93866
   5  -5   1   31.52   25.81  42 0.44852 0.17133-0.15755-0.31130-0.85447 0.94179
   5   3   0  161.41   18.39  42 0.44414 0.17142-0.15996 0.44074-0.85649 0.89044
   5   4  -1    9.60   19.56  41 0.44201 0.17104-0.16113 0.53516-0.85747 0.83692
   6   5  -3    5.06   20.23  42 0.44070 0.29099-0.16185 0.63155-0.85806 0.73526
   7  -4   0  -17.34   27.91  42 0.44569 0.41861-0.15911-0.21635-0.85578 0.90296
  -4  -2 -13   19.06   21.04  42 0.45129-0.98610-0.15604-0.03376-0.85313 0.10817
  -4  -1 -13   22.08   22.14  42 0.45160-0.98460-0.15587 0.06042-0.85298 0.11037
  -3  -6 -10   82.45   22.54  43 0.45131-0.85123-0.15603-0.40785-0.85312 0.28106
  -3  -5  -8   25.13   17.74  42 0.44846-0.84159-0.15760-0.31151-0.85445 0.39305
  -3  -4  -7  135.48   17.43  43 0.45062-0.84063-0.15641-0.21862-0.85344 0.44778
  -3   3 -11   68.79   22.56  43 0.45702-0.86080-0.15285 0.43083-0.85040 0.22580
  -2  -8 -10   -4.37   26.72  43 0.45532-0.73208-0.15380-0.59708-0.85122 0.28448
  -2   1  -4  835.81   22.50  43 0.45104-0.70966-0.15618 0.24927-0.85325 0.62008
  -2   4  -8  115.96   23.70  44 0.46151-0.73279-0.15034 0.52386-0.84823 0.39580
   0  -9  -6    6.86   25.20  43 0.45323-0.47106-0.15496-0.69040-0.85221 0.51986
   0   4  -3  310.76   28.81  43 0.46073-0.46985-0.15078 0.52477-0.84861 0.68489
   2   4  -1  711.18   23.45  43 0.45491-0.21279-0.15402 0.52789-0.85141 0.81103
   3  -9  -3   -3.11   39.02  46 0.47783-0.11617-0.14111-0.70253-0.84006 0.69248
   3   2   1    6.62   16.38  42 0.44731-0.07438-0.15824 0.34571-0.85499 0.93097
   4   0   2   36.22   20.13  43 0.45516 0.04418-0.15388 0.15384-0.85129 0.98850
   5   5  -2   61.78   21.70  43 0.45582 0.15453-0.15352 0.62214-0.85098 0.77658
   6  -4   1   21.74   24.47  44 0.45867 0.28563-0.15193-0.22410-0.84961 0.94539
   7   1   0  -20.65   22.33  43 0.45216 0.40938-0.15556 0.24843-0.85272 0.89964
  -4  -2 -14   20.29   24.15  44 0.45896-0.99355-0.15182-0.03730-0.84949 0.05194
  -4  -1 -14   34.68   23.84  43 0.45809-0.99269-0.15231 0.05687-0.84991 0.05269
  -2  -4  -4   80.20   19.44  44 0.46373-0.72191-0.14915-0.22516-0.84717 0.61279
   0   2  -1 1083.66   43.22  44 0.46800-0.47025-0.14675 0.33396-0.84506 0.79118
   1   0   1  800.52   31.89  43 0.45700-0.33061-0.15292 0.15175-0.85044 0.91251
   2  -8  -2   13.56   28.64  45 0.47560-0.23418-0.14244-0.60821-0.84123 0.74235
   2   3   0  145.17   19.86  43 0.45771-0.21200-0.15252 0.43293-0.85009 0.86469
   2   7  -6    1.52   22.34  44 0.46278-0.23574-0.14968 0.80612-0.84763 0.53198
   3   0   2  128.41   19.24  44 0.45964-0.08533-0.15145 0.15143-0.84917 0.97911
   5  -2   2  244.19   18.99  43 0.45827 0.16369-0.15221-0.03488-0.84983 0.99328
   5  -1   2   28.95   18.19  43 0.45952 0.16298-0.15151 0.05742-0.84922 0.99257
   5   2   1  315.66   18.31  44 0.46293 0.15567-0.14960 0.33548-0.84756 0.93721
   6   1   1   11.99   18.63  44 0.46267 0.28000-0.14975 0.24274-0.84769 0.94342
   6   6  -4   53.04   26.11  44 0.46384 0.26298-0.14909 0.70949-0.84711 0.66912
  -3  -6 -11   -4.07   23.07  45 0.46708-0.86887-0.14720-0.41589-0.84539 0.21752
  -3  -5  -9   78.19   19.37  45 0.47037-0.86739-0.14534-0.32463-0.84374 0.32702
  -3   0  -7  127.76   17.18  45 0.47080-0.86238-0.14510 0.14346-0.84353 0.43803
  -3   2  -9   54.19   17.23  45 0.46747-0.86424-0.14698 0.33305-0.84519 0.33077
  -2  -7  -8   -5.82   23.10  45 0.47256-0.74246-0.14410-0.51281-0.84264 0.38694
  -2  -6  -6   40.52   18.00  44 0.46602-0.72972-0.14780-0.41498-0.84591 0.50052
  -2   2  -5  610.89   20.32  45 0.46844-0.73044-0.14643 0.33313-0.84471 0.55659
  -1   4  -5  164.01   41.58  51 0.52034-0.65943-0.11625 0.48981-0.81652 0.53528
   1   5  -3  399.98   22.98  45 0.47105-0.35763-0.14495 0.61223-0.84340 0.68667
   2   8  -9   20.76   30.50  45 0.47121-0.25259-0.14487 0.89192-0.84332 0.36402
   3   8  -8   23.53   26.34  44 0.46852-0.12370-0.14639 0.89360-0.84467 0.42709
   4   6  -3    6.17   20.02  44 0.46761 0.01561-0.14690 0.70747-0.84512 0.70855
   4   7  -5  -30.62   21.73  45 0.46743 0.00896-0.14700 0.80246-0.84521 0.59871
   5  -3   2   48.72   21.75  45 0.47322 0.14952-0.14372-0.13771-0.84230 0.98546
   6  -6   0    4.20   28.87  46 0.47839 0.26281-0.14078-0.42314-0.83966 0.87908
   7   3  -1   -1.03   22.83  45 0.46938 0.39029-0.14590 0.42595-0.84424 0.83758
   7   4  -2   40.02   24.30  45 0.46910 0.38745-0.14606 0.51966-0.84438 0.78298
  -3  -6 -12    4.65   25.01  46 0.47639-0.88199-0.14188-0.42192-0.84071 0.15764
  -3  -4  -8   18.47   18.24  46 0.47782-0.87249-0.14107-0.23528-0.83997 0.37824
  -3  -3  -7  222.89   16.69  45 0.47298-0.86313-0.14383-0.13815-0.84245 0.43671
  -3   1  -8   66.34   20.05  46 0.47951-0.87405-0.14011 0.23248-0.83910 0.37912
  -3   3 -12   18.77   19.99  46 0.47689-0.88327-0.14160 0.42095-0.84045 0.16094
  -2  -5  -5  106.05   17.59  45 0.47428-0.73499-0.14309-0.32565-0.84178 0.55185
  -1  -7  -5  -17.06   21.13  46 0.48061-0.61914-0.13947-0.51693-0.83853 0.55382
  -1   6 -10   11.08   43.49  50 0.51649-0.67104-0.11851 0.67920-0.81878 0.26384
   0  -7  -3   37.04   20.88  46 0.48247-0.48985-0.13841-0.51854-0.83756 0.67066
   0  -5  -1  115.08   20.38  46 0.48074-0.48280-0.13940-0.33011-0.83847 0.78199
   0  -3   0   -1.70   21.37  45 0.47639-0.47621-0.14188-0.13983-0.84071 0.84004
   1  -8  -3    5.45   22.58  47 0.48408-0.36884-0.13748-0.61218-0.83672 0.67565
   1   8 -11    3.51   39.79  49 0.50251-0.41357-0.12678 0.87583-0.82675 0.23012
   2   5  -2   23.76   17.46  46 0.47805-0.23808-0.14094 0.60866-0.83986 0.74483
   3   6  -3    3.04   18.28  46 0.47727-0.11826-0.14138 0.70249-0.84025 0.69668
   3   7  -5   -8.09   19.95  46 0.47692-0.12398-0.14158 0.79643-0.84044 0.58699
   5   0   2  186.76   18.33  45 0.47483 0.14657-0.14277 0.14246-0.84150 0.98592
   5   6  -3   10.72   23.13  47 0.48482 0.12523-0.13706 0.70276-0.83633 0.70833
   5   7  -5    3.12   23.81  46 0.47745 0.12318-0.14128 0.79581-0.84016 0.60122
   6   3   0   23.50   20.05  45 0.47654 0.26273-0.14180 0.42203-0.84063 0.88208
   6   4  -1   94.14   20.75  45 0.47357 0.26152-0.14349 0.51783-0.84215 0.82923
   7  -2   1   20.53   25.26  46 0.47867 0.38630-0.14058-0.04737-0.83954 0.94089
   7  -1   1   10.15   24.19  46 0.47991 0.38641-0.13988 0.04536-0.83889 0.94122
  -3  -5 -10    4.72   23.17  48 0.49218-0.88853-0.13284-0.33484-0.83241 0.26203
  -3  -2  -7   41.20   17.76  47 0.48543-0.87615-0.13674-0.05116-0.83601 0.43003
  -3  -1  -7  211.88   18.33  47 0.48575-0.87656-0.13655 0.04185-0.83584 0.43069
  -3   3 -13   39.30   23.39  47 0.48765-0.89814-0.13546 0.41519-0.83484 0.09939
  -2   5 -12   30.52   27.94  48 0.49259-0.77575-0.13260 0.59891-0.83219 0.16042
  -1  -8  -7   38.67   20.97  47 0.48417-0.62738-0.13746-0.61280-0.83668 0.44219
  -1  -4  -2  324.94   19.10  46 0.48229-0.61121-0.13854-0.23734-0.83766 0.71919
  -1   1  -2  704.01   32.24  47 0.49017-0.61997-0.13400 0.22859-0.83350 0.71628
   1   7  -7   52.24   25.91  47 0.49014-0.38901-0.13402 0.78875-0.83351 0.45725
   4  -4   2  175.27   24.60  47 0.49255 0.00717-0.13262-0.24237-0.83221 0.96824
   4   1   2   87.51   17.12  47 0.48578 0.01261-0.13654 0.22997-0.83583 0.97311
   6   5  -2   16.89   22.04  46 0.48272 0.25048-0.13829 0.60572-0.83744 0.76973
   7   0   1    6.20   24.23  47 0.48972 0.37658-0.13426 0.13349-0.83374 0.93646
   7   2   0   16.08   21.36  46 0.48202 0.38101-0.13870 0.32524-0.83780 0.88611
  -3   2 -10   32.86   20.95  48 0.49774-0.89777-0.12960 0.31491-0.82943 0.26010
  -3   3 -15   14.30   27.64  48 0.49714-0.91248-0.12995 0.40855-0.82975-0.01377
  -3   3 -14   66.51   26.83  48 0.49472-0.90794-0.13136 0.41019-0.83107 0.04160
  -2  -7  -9    6.58   22.35  48 0.49373-0.76799-0.13193-0.52584-0.83161 0.31993
  -2  -3  -4   14.09   17.26  48 0.49564-0.75411-0.13082-0.15088-0.83057 0.59605
   0  -9  -7  -14.72   23.73  48 0.49373-0.51554-0.13193-0.71291-0.83161 0.44310
   0  -6  -2   67.34   22.12  48 0.49713-0.50254-0.12995-0.43301-0.82976 0.71777
   1  -9  -5    4.51   25.76  49 0.50125-0.39214-0.12755-0.71256-0.82749 0.55645
   2  -2   2  430.19   24.08  48 0.49654-0.24374-0.13030-0.05845-0.83008 0.95299
   2  -1   2  939.80   23.62  47 0.49302-0.23966-0.13235 0.03730-0.83200 0.95562
   2   2   1 1172.32   23.05  47 0.49119-0.24095-0.13341 0.32067-0.83298 0.90255
   4   4   0   94.55   17.47  47 0.49046 0.00201-0.13383 0.50866-0.83337 0.86148
   4   8  -7   26.95   24.06  47 0.49363-0.02244-0.13199 0.87965-0.83167 0.47614
   6  -2   2   47.81   23.44  48 0.49876 0.24714-0.12900-0.06012-0.82886 0.97905
   6  -1   2    5.18   22.01  48 0.49703 0.24892-0.13001 0.03589-0.82982 0.98019
   6   2   1    1.53   19.42  48 0.49355 0.24819-0.13204 0.31882-0.83171 0.92799
   7  -3   1   14.85   22.63  47 0.49238 0.37415-0.13272-0.14930-0.83234 0.93402
  -3  -5 -11   -8.84   21.71  49 0.50171-0.90486-0.12730-0.34317-0.82710 0.19912
  -3  -4  -9   62.69   18.52  49 0.50139-0.89831-0.12749-0.24882-0.82728 0.31044
  -3  -3  -8   46.03   17.35  49 0.50223-0.89563-0.12700-0.15490-0.82681 0.36595
  -2  -6  -7   21.30   19.38  49 0.50088-0.76696-0.12779-0.43453-0.82756 0.42685
  -2   0  -4 1392.61   24.75  49 0.50320-0.76265-0.12643 0.12648-0.82627 0.59180
  -2   5 -13   12.04   28.33  50 0.51103-0.79800-0.12181 0.58756-0.82184 0.09523
  -1  -6  -4   79.69   17.65  49 0.50165-0.63616-0.12734-0.43557-0.82713 0.59877
  -1  -5  -3  542.17   21.89  49 0.50586-0.63784-0.12487-0.34397-0.82478 0.65127
   0  -8  -5   -4.90   24.20  49 0.50614-0.52183-0.12470-0.62680-0.82462 0.54617
   3   1   2  124.99   17.37  48 0.49855-0.12284-0.12916 0.22152-0.82885 0.95992
   3   4   0  355.25   17.76  49 0.50229-0.13287-0.12697 0.50106-0.82678 0.84832
   4   3   1  125.18   17.06  48 0.49879-0.00347-0.12902 0.40964-0.82872 0.91208
   4   5  -1   72.41   17.87  48 0.49881-0.00915-0.12900 0.59648-0.82870 0.80292
   5   1   2   41.08   17.23  48 0.49986 0.12319-0.12839 0.22213-0.82813 0.97327
   5   4   0   58.40   19.61  48 0.50032 0.11582-0.12812 0.50219-0.82787 0.86373
   6  -5   1    9.12   25.90  49 0.50707 0.23654-0.12415-0.34533-0.82410 0.91875
   6   6  -3  -23.03   23.21  49 0.50258 0.22625-0.12680 0.68752-0.82662 0.70363
  -3  -5 -12   26.41   22.67  50 0.51088-0.91702-0.12188-0.34876-0.82189 0.13944
  -3   0  -8  196.50   17.56  49 0.50904-0.90268-0.12297 0.12223-0.82293 0.36271
  -3   1  -9   11.63   20.55  50 0.51386-0.91050-0.12012 0.21241-0.82017 0.30519
  -2  -7 -10   35.70   22.01  50 0.51129-0.78780-0.12164-0.53629-0.82165 0.25547
  -2   5 -14   21.27   29.89  51 0.51919-0.80908-0.11693 0.58344-0.81707 0.03480
  -1  -8  -8  -10.76   22.73  50 0.51068-0.65879-0.12200-0.62947-0.82200 0.37164
  -1   5  -7   52.78   39.98  55 0.55471-0.69997-0.09522 0.56181-0.79500 0.40443
   2  -9  -4   10.12   29.47  51 0.51682-0.28138-0.11835-0.72534-0.81846 0.60886
   3   3   1  640.65   19.53  50 0.51257-0.14042-0.12088 0.40069-0.82091 0.89768
   3   5  -1  168.95   18.33  50 0.51231-0.14542-0.12104 0.58798-0.82107 0.78857
   3   8  -7   12.24   25.71  50 0.51188-0.16410-0.12129 0.86965-0.82131 0.45914
   4   7  -4   90.05   24.51  50 0.51323-0.03231-0.12049 0.77571-0.82053 0.63022
   5  -4   2   48.42   22.05  50 0.51054 0.11259-0.12208-0.25397-0.82208 0.96454
   5   3   1   40.64   17.48  49 0.50776 0.11100-0.12373 0.40419-0.82366 0.91400
   5   5  -1   29.74   18.38  49 0.50708 0.10650-0.12413 0.59263-0.82405 0.80503
   6  -3   2   18.83   23.09  49 0.51157 0.23261-0.12148-0.15929-0.82149 0.97033
   6   0   2   10.07   18.10  49 0.50673 0.23915-0.12434 0.12397-0.82424 0.97518
   7   1   1   15.37   21.77  50 0.50898 0.35824-0.12301 0.21635-0.82297 0.92730
   7   4  -1   65.47   23.14  50 0.51075 0.34832-0.12196 0.49528-0.82196 0.81537
  -3  -5 -13   34.55   23.20  50 0.51685-0.92579-0.11834-0.35243-0.81852 0.08105
  -3  -4 -10   36.26   18.60  51 0.51870-0.91848-0.11724-0.25920-0.81744 0.24551
  -3  -2  -8   18.21   17.86  50 0.51635-0.90988-0.11864-0.06984-0.81881 0.35759
  -3  -1  -8   56.65   17.77  51 0.51857-0.91267-0.11731 0.02184-0.81751 0.35719
  -3   2 -11   51.38   18.86  51 0.51803-0.92179-0.11764 0.30302-0.81783 0.19311
  -2  -5  -6   -5.35   16.75  51 0.51648-0.78011-0.11856-0.34951-0.81873 0.47306
  -2  -4  -5  206.85   17.19  50 0.51667-0.77779-0.11845-0.25593-0.81862 0.52881
  -2  -2  -4   77.49   16.71  50 0.51668-0.77461-0.11844-0.06829-0.81862 0.58460
  -2  -1  -4  834.12   21.46  51 0.52037-0.77891-0.11623 0.02183-0.81645 0.58286
  -2   4  -9   23.31   24.59  52 0.52882-0.80361-0.11115 0.48428-0.81140 0.30420
  -1  -7  -6   51.14   20.84  51 0.52193-0.66198-0.11530-0.54280-0.81553 0.47662
   1  -7  -2   65.50   23.67  52 0.52693-0.40848-0.11229-0.54308-0.81254 0.70755
   1  -5   0   14.05   25.23  52 0.52711-0.40270-0.11218-0.35658-0.81243 0.81795
   2  -7  -1   15.29   29.21  53 0.53578-0.29124-0.10691-0.54961-0.80714 0.76344
   2   0   2 1280.13   24.93  51 0.51844-0.26623-0.11739 0.11668-0.81759 0.94111
   2   6  -3  189.22   22.52  51 0.52406-0.28896-0.11402 0.67524-0.81426 0.66447
   2   7  -5   48.86   22.46  51 0.52483-0.29460-0.11355 0.76765-0.81380 0.55530
   2   8  -8   22.66   27.29  51 0.52325-0.30203-0.11451 0.86330-0.81475 0.39100
   3  -4   2   36.20   22.62  51 0.52471-0.14815-0.11363-0.26030-0.81388 0.94344
   4   6  -2   63.15   21.67  51 0.52278-0.03661-0.11479 0.67697-0.81503 0.73447
   5   7  -4   56.39   23.26  51 0.51775 0.08607-0.11780 0.77329-0.81799 0.63467
   7  -4   1   13.08   27.37  50 0.51837 0.34780-0.11744-0.25803-0.81763 0.91838
   7   3   0   26.12   22.64  51 0.51771 0.34645-0.11783 0.39887-0.81802 0.86814
  -3  -3  -9   63.81   17.56  51 0.52454-0.92132-0.11371-0.16878-0.81401 0.29774
  -3   2 -12   12.10   23.55  53 0.53324-0.93911-0.10844 0.29388-0.80875 0.12901
  -2  -7 -11   25.90   22.80  51 0.52467-0.80350-0.11363-0.54393-0.81394 0.19298
  -2  -6  -8   13.66   19.04  52 0.52605-0.79581-0.11280-0.45041-0.81311 0.35749
  -2   3  -7  357.59   25.18  53 0.53483-0.80422-0.10748 0.38641-0.80777 0.40874
   0  -9  -8   21.21   23.93  52 0.52578-0.54865-0.11297-0.73144-0.81327 0.37022
   3   7  -4    1.62   23.24  52 0.52886-0.17247-0.11111 0.76421-0.81142 0.61394
   4   2   2  129.12   17.01  51 0.52559-0.02834-0.11308 0.30036-0.81339 0.95144
   4   8  -6   15.41   26.67  51 0.52691-0.05438-0.11228 0.85652-0.81259 0.51255
   5   6  -2   12.29   21.10  51 0.52513 0.08450-0.11336 0.67428-0.81366 0.73940
   6   1   2   28.03   19.36  51 0.52552 0.22037-0.11312 0.20628-0.81343 0.96471
   6   3   1  -29.44   22.16  52 0.53020 0.21152-0.11029 0.39074-0.81060 0.90741
   6   4   0   23.35   19.12  52 0.52615 0.21683-0.11274 0.48928-0.81305 0.85695
   6   5  -1  -12.22   22.13  52 0.52683 0.20842-0.11233 0.57980-0.81264 0.79976
  -3  -4 -11   22.52   18.29  52 0.53117-0.93407-0.10960-0.26688-0.80985 0.18298
  -3   0  -9   42.70   18.12  53 0.53545-0.93330-0.10699 0.10534-0.80722 0.29173
  -3   1 -10  150.78   18.93  53 0.53635-0.93753-0.10645 0.19662-0.80667 0.23601
  -3   2 -13    0.63   24.16  53 0.53879-0.94949-0.10496 0.29106-0.80515 0.06820
  -2  -7 -12   22.58   25.05  52 0.53339-0.81534-0.10825-0.54938-0.80849 0.13257
  -1  -8  -9    5.86   22.85  53 0.53387-0.68419-0.10796-0.64256-0.80820 0.30288
  -1  -3  -2 2117.60   28.19  52 0.53267-0.66141-0.10869-0.17246-0.80894 0.69139
   4  -6   1   88.75   33.94  54 0.54985-0.05318-0.09814-0.46385-0.79813 0.87844
   5   2   2  205.16   17.66  52 0.53084 0.09095-0.10980 0.29767-0.81006 0.95485
   7   2   1   -6.97   22.15  53 0.53303 0.33317-0.10847 0.29548-0.80872 0.91330
  -3  -4 -14   37.66   26.28  54 0.54444-0.95864-0.10149-0.27647-0.80155 0.00786
  -3  -4 -13   35.35   20.91  54 0.54459-0.95365-0.10140-0.27538-0.80145 0.06423
  -3  -4 -12   11.75   19.79  53 0.53950-0.94565-0.10453-0.27196-0.80467 0.12258
  -3  -3 -10   65.01   18.98  53 0.54176-0.94128-0.10314-0.17949-0.80325 0.23182
  -3  -2  -9   31.98   17.08  53 0.53935-0.93602-0.10461-0.08374-0.80476 0.28871
  -3  -1  -9   26.53   17.55  54 0.54350-0.94082-0.10207 0.00718-0.80215 0.28610
  -3   2 -15   22.95   23.90  54 0.54277-0.95813-0.10251 0.28745-0.80261-0.04233
  -3   2 -14    2.25   22.63  53 0.54184-0.95554-0.10309 0.28892-0.80320 0.01270
  -2  -6  -9   21.35   18.81  54 0.54554-0.81897-0.10081-0.46295-0.80085 0.28994
  -2   1  -5   93.99   21.08  54 0.54588-0.80699-0.10060 0.19435-0.80063 0.51304
   1  -9  -6  -12.34   25.04  54 0.54595-0.44150-0.10056-0.74307-0.80059 0.47417
   1  -6  -1   65.78   23.57  55 0.55063-0.42971-0.09766-0.46439-0.79758 0.74738
   1   6  -4  121.35   23.54  54 0.54830-0.43783-0.09910 0.65958-0.79908 0.58860
   1   8 -10    5.28   36.39  55 0.55192-0.46007-0.09686 0.84340-0.79674 0.25633
   2  -6   0    2.30   33.23  58 0.57793-0.33085-0.08041-0.48094-0.77911 0.79037
   3   2   2  291.70   17.25  54 0.54417-0.16873-0.10165 0.28758-0.80172 0.93301
   3   6  -2   38.87   18.12  53 0.54050-0.17775-0.10391 0.66522-0.80404 0.71671
   4  -1   3  126.48   17.89  53 0.54170-0.04033-0.10318 0.01015-0.80329 0.99538
   5  -7   0    8.99   38.47  56 0.56000 0.05685-0.09181-0.56493-0.79142 0.82316
   5  -6   1   13.78   29.79  55 0.55226 0.06709-0.09664-0.46556-0.79652 0.88327
   5  -1   3    5.51   20.80  54 0.54584 0.08003-0.10063 0.00663-0.80066 0.99969
   6  -4   2   19.48   25.16  54 0.54851 0.19804-0.09897-0.27665-0.79894 0.94901
   6   6  -2  -16.29   23.16  54 0.54267 0.18935-0.10258 0.66359-0.80267 0.73519
   7  -2   2  -17.71   25.47  54 0.54595 0.32315-0.10056-0.08753-0.80059 0.95852
   7  -1   2   21.38   21.66  53 0.54145 0.32813-0.10333 0.00874-0.80344 0.96138
   7   0   2   36.46   25.24  54 0.54663 0.32261-0.10013 0.09926-0.80015 0.95807
  -3  -3 -11   84.86   18.86  55 0.55266-0.95645-0.09628-0.18697-0.79610 0.16870
  -3   1 -11  106.76   22.90  55 0.55251-0.95644-0.09637 0.18836-0.79619 0.17099
  -2  -5  -7  254.15   17.82  54 0.54727-0.81452-0.09963-0.36887-0.79958 0.39940
  -2  -3  -5   50.81   16.15  54 0.54978-0.81131-0.09807-0.18367-0.79796 0.50786
  -1  -8 -10  -23.43   22.93  55 0.54982-0.70326-0.09805-0.65280-0.79794 0.23739
  -1  -7  -7   11.36   22.31  55 0.55330-0.69764-0.09588-0.56236-0.79568 0.40113
  -1  -6  -5  183.63   18.06  55 0.55103-0.68916-0.09730-0.46523-0.79716 0.51381
   0  -8  -6   34.13   19.81  55 0.55093-0.56824-0.09735-0.65333-0.79722 0.46450
   0  -7  -4   48.49   18.09  55 0.55019-0.56120-0.09781-0.55880-0.79770 0.57565
   0  -2   0 9999.99   82.76  55 0.55647-0.55685-0.09390-0.09456-0.79359 0.79241
   1   1   1 1774.04   29.34  54 0.54617-0.41942-0.10031 0.19279-0.80029 0.86307
   2   4   0   15.95   20.76  55 0.55345-0.30730-0.09579 0.46942-0.79558 0.81118
   3   8  -6   -7.42   23.81  56 0.55806-0.20667-0.09290 0.84466-0.79254 0.48489
   4  -2   3  227.17   18.45  54 0.54937-0.04812-0.09833-0.08958-0.79823 0.99026
   4   0   3    5.20   17.66  54 0.54982-0.04764-0.09805 0.09801-0.79794 0.99018
   5  -2   3  206.71   18.80  55 0.55153 0.07371-0.09698-0.09133-0.79683 0.99534
   5   0   3 1015.01   21.31  55 0.55233 0.07249-0.09649 0.09606-0.79631 0.99555
   6   2   2   93.21   20.61  54 0.55055 0.19460-0.09759 0.28416-0.79747 0.94913
   7   4   0   41.95   25.73  55 0.55408 0.30858-0.09540 0.46925-0.79517 0.84473
  -3  -3 -12    5.79   19.54  56 0.56104-0.96741-0.09107-0.19189-0.79056 0.10843
  -3  -2 -10   21.81   19.13  55 0.55623-0.95621-0.09408-0.09465-0.79375 0.22226
  -3  -1 -10  140.60   20.96  56 0.56169-0.96183-0.09066-0.00316-0.79012 0.21943
  -3   0 -10   28.73   18.40  56 0.55793-0.95704-0.09302 0.09156-0.79263 0.22203
  -3   1 -12  103.48   23.17  56 0.56408-0.97050-0.08915 0.18054-0.78851 0.10765
  -2  -6 -10  -26.48   19.05  56 0.55940-0.83710-0.09210-0.47293-0.79165 0.22381
  -2  -4  -6   70.84   17.41  55 0.55684-0.82088-0.09370-0.28177-0.79335 0.44837
  -2   2  -6  253.12   18.07  56 0.55784-0.82294-0.09307 0.27995-0.79268 0.44935
   0   6  -6   32.42   33.76  57 0.57324-0.59222-0.08333 0.64378-0.78223 0.45428
   1  -8  -4   -6.74   22.48  55 0.55776-0.44594-0.09313-0.65853-0.79274 0.57719
   1   4  -1  163.59   21.55  56 0.56183-0.44215-0.09057 0.46422-0.79003 0.74366
   2  -3   2 1242.92   35.26  56 0.56563-0.31281-0.08817-0.19368-0.78746 0.91012
   2   1   2  954.17   22.31  56 0.55970-0.30739-0.09191 0.18425-0.79145 0.91570
   4   4   1   40.00   18.47  55 0.55554-0.06070-0.09452 0.46889-0.79421 0.87814
   4   5   0  158.96   18.41  55 0.55757-0.06561-0.09324 0.56050-0.79287 0.82269
   4   7  -3   18.75   20.21  55 0.55767-0.07487-0.09318 0.74766-0.79280 0.65746
   5   4   1   90.80   19.60  55 0.55581 0.06277-0.09435 0.46852-0.79403 0.88499
   5   5   0   88.37   19.55  55 0.55734 0.05827-0.09339 0.56134-0.79302 0.82946
   5   7  -3   31.19   22.43  55 0.55623 0.04990-0.09409 0.74868-0.79376 0.66543
   7  -3   2    8.30   25.33  57 0.56532 0.30724-0.08836-0.19487-0.78767 0.94656
   7   1   2   42.00   21.60  56 0.56007 0.30860-0.09168 0.18439-0.79120 0.94950
   7   3   1   25.85   24.72  55 0.55998 0.30344-0.09174 0.37088-0.79127 0.89443
  -3  -3 -15   28.66   25.57  56 0.56500-0.98050-0.08862-0.19482-0.78773-0.05955
  -3  -3 -14   72.95   22.95  57 0.56656-0.97906-0.08763-0.19550-0.78666-0.00507
  -3  -3 -13   36.23   22.37  56 0.56565-0.97480-0.08821-0.19478-0.78728 0.05015
  -3  -2 -11   39.19   19.45  57 0.56787-0.97124-0.08680-0.10200-0.78577 0.15914
  -3   0 -11   74.38   21.08  57 0.56920-0.97352-0.08595 0.08477-0.78486 0.15830
  -3   1 -15  -12.31   23.43  57 0.56689-0.98408-0.08742 0.17927-0.78644-0.06082
  -3   1 -14   -2.31   25.16  57 0.57014-0.98335-0.08536 0.17698-0.78421-0.00674
  -3   1 -13    2.32   23.64  57 0.56852-0.97880-0.08639 0.17823-0.78533 0.04936
  -2   4 -10   91.43   22.91  57 0.57099-0.84901-0.08482 0.45752-0.78362 0.22037
  -1  -5  -4   43.15   17.75  57 0.56852-0.70305-0.08639-0.38270-0.78533 0.55681
  -1  -4  -3  147.98   18.25  57 0.56704-0.69905-0.08733-0.28747-0.78634 0.61289
   0   5  -4  173.13   27.21  57 0.57495-0.58789-0.08229 0.54995-0.78087 0.56223
   1   7  -6   63.44   25.07  57 0.57274-0.46863-0.08370 0.73795-0.78241 0.46243
   2   3   1  109.94   18.57  57 0.56695-0.31823-0.08739 0.36711-0.78640 0.85636
   2   5  -1   71.96   16.99  56 0.56395-0.32183-0.08928 0.55551-0.78843 0.74984
   2   8  -7   17.01   24.98  57 0.56997-0.34627-0.08547 0.83302-0.78433 0.41552
   4   3   2   49.91   16.22  57 0.56917-0.07079-0.08598 0.36620-0.78488 0.92378
   4   8  -5   -3.93   26.52  57 0.56928-0.09336-0.08591 0.83545-0.78481 0.53877
   5   1   3   -2.99   20.19  57 0.56982 0.05472-0.08556 0.17878-0.78443 0.98452
   5   3   2   34.19   17.27  57 0.56755 0.05428-0.08701 0.36732-0.78599 0.93139
   5   6  -1   15.55   22.37  57 0.57018 0.04216-0.08533 0.64616-0.78418 0.76549
   6  -1   3   61.13   20.46  57 0.56730 0.18149-0.08716-0.00780-0.78616 0.99197
  -3  -2 -15   18.99   26.13  58 0.57718-0.99375-0.08089-0.10911-0.77925-0.06844
  -3  -2 -12  -27.83   19.94  58 0.57450-0.98207-0.08261-0.10686-0.78114 0.09808
  -3  -1 -11   92.18   18.45  58 0.57411-0.97728-0.08286-0.01258-0.78141 0.15608
  -3   0 -12    3.42   21.95  57 0.57371-0.98507-0.08311 0.08154-0.78169 0.09728
  -2  -6 -12    4.44   25.63  58 0.57694-0.86056-0.08104-0.48430-0.77942 0.10218
  -2  -6 -11    5.09   20.44  58 0.57239-0.85123-0.08396-0.47871-0.78260 0.16138
  -2  -5  -8   66.66   19.29  57 0.57221-0.84200-0.08407-0.38468-0.78273 0.32714
  -2  -2  -5  610.34   18.83  57 0.57335-0.83472-0.08334-0.10431-0.78194 0.49218
  -2   0  -5  121.74   21.64  58 0.57801-0.83924-0.08036 0.07991-0.77867 0.49033
  -1  -2  -2 1396.03   26.21  57 0.57023-0.70051-0.08533-0.10272-0.78410 0.66508
  -1   6 -11    1.23   34.85  61 0.59903-0.75671-0.06665 0.62568-0.76333 0.15368
   1   3   0   88.10   17.86  57 0.57309-0.44926-0.08351 0.36407-0.78212 0.79108
   3  -1   3  824.81   21.44  57 0.57192-0.19232-0.08426-0.01049-0.78293 0.96885
   4  -3   3   25.44   20.86  58 0.57916-0.07639-0.07962-0.20239-0.77786 0.96965
   4   1   3  145.60   17.26  57 0.57120-0.06945-0.08472 0.17810-0.78343 0.97681
   4   6  -1  -12.05   18.41  58 0.57369-0.08571-0.08313 0.64473-0.78170 0.75622
   5  -5   2    9.47   26.37  59 0.58378 0.04017-0.07663-0.39323-0.77456 0.91785
   5  -3   3   22.86   21.11  58 0.57832 0.04941-0.08015-0.20240-0.77845 0.97851
   6  -2   3   46.64   19.84  57 0.57424 0.17464-0.08277-0.10524-0.78132 0.98688
   6   0   3   12.27   19.49  58 0.57313 0.17618-0.08348 0.08282-0.78209 0.98952
   6   4   1   30.97   18.83  58 0.57303 0.17149-0.08355 0.45900-0.78216 0.88162
   6   5   0  -10.54   20.14  57 0.57110 0.16758-0.08478 0.55210-0.78350 0.82685
  -3  -2 -14   22.16   21.95  59 0.58102-0.99274-0.07832-0.11096-0.77656-0.01505
  -3  -2 -13  -20.21   21.07  59 0.58023-0.98903-0.07883-0.11035-0.77712 0.03970
  -3  -1 -15   -6.39   24.25  59 0.58232-0.99966-0.07748-0.01855-0.77563-0.07247
  -3  -1 -14   57.55   24.50  59 0.58470-0.99905-0.07594-0.01995-0.77392-0.01884
  -3  -1 -13   -1.72   22.51  59 0.58552-0.99543-0.07541-0.02013-0.77333 0.03667
  -3  -1 -12   83.73   19.81  59 0.58163-0.98837-0.07793-0.01717-0.77612 0.09496
  -3   0 -15   85.46   23.95  59 0.58122-0.99717-0.07819 0.07606-0.77641-0.06948
  -3   0 -14   10.10   21.78  59 0.58281-0.99654-0.07716 0.07516-0.77528-0.01632
  -3   0 -13   69.11   20.71  59 0.58264-0.99274-0.07727 0.07545-0.77540 0.03955
  -2  -6 -13   47.19   24.67  59 0.58178-0.86741-0.07783-0.48657-0.77602 0.04459
  -2  -1  -5  107.55   17.66  59 0.58312-0.84528-0.07696-0.01741-0.77506 0.48553
  -1  -7  -8   25.40   20.06  58 0.58002-0.72600-0.07896-0.57742-0.77727 0.32759
  -1   0  -2  114.54   23.96  58 0.57826-0.70709-0.08010 0.08035-0.77852 0.66212
   0  -8  -7    8.62   21.37  58 0.58142-0.60229-0.07806-0.67428-0.77627 0.38825
   0  -6  -3   51.60   17.59  59 0.58151-0.58985-0.07801-0.48398-0.77621 0.60948
   0  -4  -1  326.90   19.43  59 0.58178-0.58439-0.07783-0.29736-0.77601 0.71938
   1  -9  -7    6.98   23.38  58 0.58071-0.47780-0.07852-0.76742-0.77677 0.39532
   1   5  -2  124.76   20.29  59 0.58639-0.46933-0.07484 0.54277-0.77269 0.67180
   2  -9  -5    6.63   26.38  59 0.58328-0.35056-0.07686-0.76859-0.77494 0.51066
   2   7  -4   16.46   21.67  59 0.58753-0.35476-0.07410 0.72911-0.77186 0.56803
   3  -2   3  122.23   20.77  59 0.58555-0.20626-0.07538-0.11326-0.77330 0.95830
   3   0   3   26.82   17.85  58 0.57879-0.19933-0.07976 0.07889-0.77814 0.96432
   3   4   1    6.66   16.64  58 0.57879-0.20659-0.07976 0.45424-0.77814 0.85552
   3   5   0  172.94   17.96  58 0.58054-0.21307-0.07863 0.54596-0.77690 0.79933
   3   7  -3  -14.68   18.80  59 0.58200-0.22380-0.07769 0.73218-0.77586 0.63294
   4  -5   2   10.51   27.84  60 0.59124-0.09122-0.07167-0.39731-0.76915 0.90499
   6  -6   1   16.32   34.00  59 0.58773 0.15452-0.07397-0.48792-0.77172 0.86479
   6   1   3   97.06   22.13  59 0.58594 0.16286-0.07513 0.16702-0.77302 0.98059
   6   3   2   18.65   19.68  58 0.58143 0.16332-0.07805 0.35779-0.77626 0.92833
   6   6  -1   -2.74   22.92  59 0.58200 0.15242-0.07769 0.63833-0.77586 0.76401
   7   2   2   -5.96   22.54  59 0.58120 0.28716-0.07821 0.26443-0.77643 0.93616
  -2  -5  -9  193.54   20.10  60 0.58954-0.86297-0.07277-0.39635-0.77033 0.26034
  -2  -4  -7   27.75   17.96  59 0.58795-0.85479-0.07381-0.30160-0.77149 0.37102
  -2  -3  -6  121.86   16.36  60 0.58951-0.85414-0.07279-0.20874-0.77035 0.42580
  -2   3  -8  171.51   21.76  60 0.59147-0.86398-0.07151 0.35108-0.76891 0.31480
  -2   4 -11   80.39   22.15  60 0.59513-0.87683-0.06910 0.44077-0.76620 0.14822
  -1  -6  -6   21.49   18.53  60 0.58912-0.72971-0.07304-0.49016-0.77064 0.43134
  -1  -1  -2  687.16   24.93  60 0.58979-0.72011-0.07260-0.02145-0.77014 0.65169
  -1   2  -3  789.10   33.77  61 0.59848-0.73095-0.06690 0.25445-0.76369 0.59261
   2  -8  -3   11.46   27.07  61 0.60027-0.36138-0.06571-0.68467-0.76233 0.60809
   3  -9  -4   -0.65   34.18  62 0.60339-0.24412-0.06364-0.78052-0.75996 0.55708
   3  -8  -2   37.28   33.37  62 0.60926-0.24385-0.05972-0.68990-0.75544 0.66355
   7  -4   2   -6.50   28.00  60 0.59333 0.27495-0.07028-0.30497-0.76753 0.92486
  -1  -7  -9   13.45   20.76  61 0.59722-0.74677-0.06766-0.58962-0.76456 0.25978
   0  -7  -5   24.23   21.83  61 0.59968-0.61366-0.06603-0.59019-0.76270 0.48529
   0  -5  -2    6.22   16.72  61 0.59722-0.60237-0.06766-0.40119-0.76456 0.65266
   1  -3   1  545.14   64.09  68 0.65308-0.52655-0.02934-0.25223-0.71877 0.77950
   2   6  -2   44.13   17.53  60 0.59564-0.35597-0.06870 0.62984-0.76574 0.67222
   3   1   3  799.78   20.22  61 0.59994-0.22143-0.06586 0.15809-0.76251 0.94890
   3   3   2  373.38   18.39  60 0.59477-0.21934-0.06927 0.35017-0.76639 0.89831
   3   6  -1   21.35   21.38  61 0.59848-0.23301-0.06683 0.62767-0.76361 0.73125
   3   8  -5   18.02   21.16  61 0.59684-0.24411-0.06791 0.81596-0.76484 0.51333
   4   2   3  208.16   17.18  61 0.59958-0.09869-0.06610 0.25275-0.76278 0.95639
   5   2   3  206.04   19.20  60 0.59474 0.02991-0.06929 0.25719-0.76641 0.96701
   5   7  -2   18.37   22.40  60 0.59586 0.01300-0.06855 0.72317-0.76557 0.69291
   6  -3   3   40.56   20.10  60 0.59642 0.15318-0.06819-0.21397-0.76516 0.97111
   7  -1   3   -6.60   24.11  61 0.60057 0.27128-0.06544-0.02929-0.76203 0.97574
   7   4   1   18.88   22.94  60 0.59566 0.26951-0.06869 0.44194-0.76573 0.87086
  -2  -5 -10    7.40   19.30  61 0.60255-0.87925-0.06413-0.40607-0.76051 0.19437
  -2   1  -6  437.51   22.94  62 0.60928-0.87460-0.05965 0.15246-0.75533 0.41128
  -2   4 -15   14.46   26.67  62 0.60813-0.90191-0.06042 0.43262-0.75622-0.08164
  -2   4 -12    0.90   23.64  62 0.60724-0.89197-0.06101 0.43406-0.75691 0.08378
  -1   6 -12   25.59   34.88  64 0.62228-0.78376-0.05085 0.61063-0.74500 0.07974
   0  -8  -8   -2.75   24.69  62 0.60662-0.63005-0.06143-0.69032-0.75740 0.31425
   1  -9  -8    9.67   25.91  61 0.60432-0.50449-0.06296-0.78663-0.75916 0.32150
   1   8  -9    9.34   36.64  64 0.62315-0.52984-0.05026 0.79983-0.74429 0.25784
   4   7  -2    2.54   20.68  62 0.60349-0.11879-0.06351 0.71927-0.75980 0.67970
   4   8  -4  -15.73   28.00  62 0.60724-0.12860-0.06101 0.81081-0.75691 0.56630
   5   5   1   14.70   19.63  62 0.60581 0.01265-0.06197 0.52948-0.75802 0.84958
   6  -5   2    4.55   25.77  61 0.60479 0.14137-0.06265-0.40637-0.75880 0.90783
   6   2   3   41.81   19.98  62 0.60542 0.14282-0.06222 0.24856-0.75831 0.96543
   7  -2   3   41.54   25.99  62 0.60813 0.26352-0.06042-0.12806-0.75622 0.96906
   7   0   3   10.04   22.26  61 0.60224 0.27006-0.06434 0.06315-0.76075 0.97470
   7   3   2   21.25   21.86  62 0.60662 0.26188-0.06143 0.34118-0.75740 0.91723
  -2  -5 -11    3.13   21.31  63 0.61160-0.89145-0.05810-0.41212-0.75353 0.13156
  -2  -4  -8  101.54   18.70  62 0.61051-0.88074-0.05883-0.31651-0.75438 0.29898
  -2  -2  -6  257.80   16.64  63 0.61457-0.87892-0.05609-0.13187-0.75119 0.40690
  -2   2  -7  242.78   21.65  63 0.61459-0.88361-0.05608 0.24164-0.75117 0.35261
  -2   4 -14   20.37   25.42  63 0.61341-0.90395-0.05688 0.42929-0.75211-0.03071
  -2   4 -13   34.24   24.67  63 0.61477-0.90172-0.05596 0.42815-0.75103 0.02378
  -1  -7 -10    5.47   21.63  63 0.61067-0.76346-0.05872-0.59809-0.75426 0.19364
  -1  -5  -5   28.79   16.87  63 0.61398-0.75123-0.05649-0.41329-0.75166 0.46842
  -1   3  -4  290.04   32.30  65 0.62799-0.76375-0.04695 0.32749-0.74034 0.51449
   1  -8  -5   18.98   23.02  63 0.61231-0.50299-0.05762-0.69379-0.75297 0.48200
   1  -7  -3    8.00   20.97  63 0.61524-0.49993-0.05564-0.60178-0.75066 0.59022
   2   2   2  412.99   18.27  62 0.60849-0.35546-0.06018 0.24723-0.75596 0.88103
   2   8  -6   25.90   27.64  64 0.62036-0.39414-0.05217 0.80074-0.74657 0.43270
   4   5   1   25.39   18.06  63 0.61268-0.11762-0.05737 0.52492-0.75268 0.83713
   5   4   2   51.51   17.69  62 0.60940 0.01186-0.05958 0.43414-0.75525 0.90161
   5   6   0    9.66   23.01  63 0.61469 0.00040-0.05602 0.61706-0.75110 0.78800
   6   5   1   18.78   20.30  63 0.61286 0.12731-0.05725 0.52316-0.75254 0.85030
   7   1   3   11.36   21.56  62 0.61129 0.26027-0.05831 0.15059-0.75378 0.96737
  -2  -5 -14   55.89   23.16  63 0.61879-0.90764-0.05330-0.41739-0.74786-0.03834
  -2  -5 -13   14.20   22.35  64 0.61935-0.90506-0.05291-0.41755-0.74740 0.01623
  -2  -5 -12   26.38   21.34  63 0.61690-0.89973-0.05458-0.41586-0.74937 0.07320
  -2  -3  -7  360.40   17.85  64 0.61959-0.88751-0.05275-0.22800-0.74722 0.34771
  -1  -7 -11   -6.61   22.06  64 0.61874-0.77512-0.05332-0.60431-0.74789 0.13219
  -1  -6  -7  101.76   18.34  63 0.61763-0.76027-0.05408-0.50986-0.74879 0.35492
  -1  -3  -3  311.90   19.61  64 0.61917-0.75127-0.05304-0.22717-0.74755 0.57484
  -1   6 -14   20.70   35.25  65 0.63036-0.79770-0.04538 0.60489-0.73841-0.03709
  -1   6 -13   19.87   33.21  65 0.62835-0.79337-0.04676 0.60746-0.74007 0.01891
   4   4   2  155.25   17.66  63 0.61638-0.11930-0.05493 0.43013-0.74978 0.88834
   4   6   0   59.24   21.76  64 0.62281-0.13122-0.05055 0.61137-0.74461 0.77413
   5  -4   3   26.03   22.52  64 0.62240 0.00397-0.05084-0.32519-0.74494 0.94321
   6   4   2   24.89   20.42  63 0.61792 0.12731-0.05388 0.42763-0.74855 0.90206
   6   6   0   -9.58   21.74  64 0.62028 0.11591-0.05228 0.61187-0.74666 0.78965
  -2  -4  -9   16.83   17.29  65 0.62680-0.90043-0.04775-0.32819-0.74125 0.23061
  -2  -1  -6  404.04   19.33  65 0.62817-0.89307-0.04681-0.04611-0.74013 0.39593
  -2   0  -6    3.77   17.32  65 0.62824-0.89350-0.04677 0.04628-0.74007 0.39576
  -2   3  -9  141.51   21.42  65 0.62710-0.90221-0.04755 0.32717-0.74101 0.23304
  -1  -7 -12   34.22   21.61  65 0.62556-0.78375-0.04861-0.60742-0.74227 0.07408
  -1  -4  -4  173.52   17.68  65 0.62659-0.76195-0.04790-0.32633-0.74142 0.51329
   0  -8  -9  -28.40   22.84  65 0.62543-0.65213-0.04869-0.70169-0.74238 0.24358
   0  -1   0    8.53   35.74  65 0.62881-0.62857-0.04637-0.04716-0.73960 0.73927
   1   2   1 3444.46   36.06  64 0.62556-0.49902-0.04860 0.23514-0.74227 0.80561
   2  -9  -6  -20.04   27.26  65 0.63009-0.40178-0.04549-0.79948-0.73854 0.41878
   3  -3   3  164.12   22.96  66 0.63391-0.25452-0.04285-0.23849-0.73534 0.92035
   5  -1   4  168.80   18.46  64 0.62528 0.00216-0.04879-0.04543-0.74250 0.99733
   5   0   4  267.24   18.66  64 0.62532 0.00194-0.04877 0.04794-0.74247 0.99751
   5   3   3   -2.94   18.34  64 0.62482 0.00017-0.04911 0.32945-0.74288 0.94376
   7  -3   3    2.99   25.67  65 0.62786 0.24334-0.04702-0.23504-0.74038 0.95265
   7   2   3   27.57   22.29  65 0.62847 0.24330-0.04661 0.23262-0.73988 0.95452
  -1  -6  -8   40.66   21.91  66 0.63582-0.78388-0.04148-0.52394-0.73367 0.28371
   0  -8 -10   -8.43   26.00  66 0.63701-0.66713-0.04065-0.71045-0.73267 0.17872
   0  -7  -6   17.17   19.05  66 0.63470-0.65187-0.04226-0.61483-0.73462 0.40216
   1   6  -3   45.67   23.12  66 0.63989-0.52734-0.03864 0.59999-0.73021 0.57396
   3   2   3  102.68   15.43  65 0.63058-0.25194-0.04511 0.23110-0.73807 0.92487
   3   7  -2   94.79   19.56  65 0.63297-0.27095-0.04346 0.69779-0.73607 0.64965
   3   8  -4  -15.83   25.01  67 0.64080-0.28517-0.03800 0.78751-0.72943 0.53290
   4  -4   3  138.01   24.01  67 0.64184-0.13843-0.03727-0.33713-0.72853 0.92063
   4  -1   4  359.64   21.23  66 0.63687-0.13132-0.04075-0.05237-0.73279 0.98073
   4   0   4   98.81   16.86  66 0.63594-0.13127-0.04140 0.04068-0.73357 0.98163
   4   3   3   33.22   16.27  65 0.63383-0.13221-0.04286 0.32342-0.73535 0.92917
   5  -2   4    4.33   21.52  66 0.63811-0.00895-0.03989-0.14826-0.73173 0.98630
   5   1   4  150.95   18.39  66 0.63529-0.00730-0.04185 0.13616-0.73412 0.98911
   5   7  -1   -7.66   22.17  66 0.63390-0.02333-0.04281 0.69727-0.73529 0.71636
   6  -4   3   18.38   24.46  66 0.63606 0.11386-0.04131-0.33482-0.73347 0.93928
   6  -1   4   18.47   19.88  65 0.63398 0.11796-0.04276-0.05183-0.73522 0.99659
   6   0   4    4.27   19.26  65 0.63330 0.11834-0.04323 0.04234-0.73580 0.99731
   6   3   3    5.55   19.80  66 0.63285 0.11518-0.04355 0.32407-0.73618 0.94501
   7   4   2   27.31   25.57  66 0.63667 0.23131-0.04089 0.41420-0.73296 0.89315
  -2  -4 -15  -22.84   25.49  67 0.64434-0.93705-0.03543-0.34188-0.72632-0.11495
  -2  -4 -10  101.24   17.82  66 0.63862-0.91521-0.03945-0.33659-0.73126 0.16516
  -2  -3  -8  174.14   17.40  67 0.64129-0.91224-0.03758-0.24415-0.72897 0.27440
  -2  -2  -7  252.80   19.60  67 0.64448-0.91222-0.03534-0.15282-0.72621 0.32647
  -2   3 -16   16.32   28.02  67 0.64644-0.94327-0.03395 0.31269-0.72450-0.16940
   0  -8 -11   -6.47   26.23  66 0.64077-0.67512-0.03794-0.71870-0.72941 0.11900
   0  -6  -4    7.91   16.90  67 0.64063-0.65150-0.03804-0.52436-0.72953 0.50728
   1   7  -5    3.79   24.60  68 0.65219-0.54613-0.02987 0.68570-0.71941 0.45348
   2   4   1  178.50   17.81  66 0.63973-0.39131-0.03867 0.41327-0.73031 0.80057
   2   5   0  344.22   18.67  66 0.64034-0.39534-0.03824 0.50630-0.72978 0.74505
   2   7  -3   -0.21   21.95  67 0.64553-0.40978-0.03459 0.68965-0.72529 0.57624
   3   5   1   80.93   17.47  67 0.64267-0.27069-0.03661 0.50421-0.72777 0.80548
   4   8  -3   -1.19   25.48  67 0.64375-0.16170-0.03585 0.78420-0.72684 0.59209
   6   1   4  -13.00   19.46  67 0.64152 0.10906-0.03742 0.13017-0.72877 0.99049
  -2  -4 -14   14.96   22.01  68 0.64870-0.93791-0.03229-0.34476-0.72249-0.06348
  -2  -4 -13   21.84   19.49  68 0.65017-0.93652-0.03124-0.34575-0.72119-0.00986
  -2  -4 -12   26.36   19.49  68 0.64926-0.93251-0.03188-0.34493-0.72199 0.04600
  -2  -4 -11   73.86   17.80  67 0.64620-0.92550-0.03405-0.34191-0.72468 0.10469
  -2   1  -7  313.62   21.18  68 0.65103-0.91920-0.03063 0.12383-0.72043 0.32213
  -2   2  -8   51.04   20.83  68 0.65152-0.92339-0.03028 0.21655-0.72000 0.26615
  -2   3 -10    5.28   20.86  68 0.64899-0.92717-0.03208 0.31185-0.72223 0.15873
  -1  -5  -6   75.90   17.11  68 0.64792-0.78842-0.03284-0.43576-0.72318 0.38546
   1  -8  -6    7.73   23.55  69 0.65339-0.54684-0.02894-0.71883-0.71832 0.39295
   3   4   2   37.46   17.39  67 0.64724-0.27278-0.03332 0.40735-0.72378 0.85644
   4   1   4  370.36   19.26  67 0.64703-0.14371-0.03346 0.12723-0.72396 0.97216
   4   7  -1   -2.13   20.39  67 0.64604-0.15761-0.03417 0.68922-0.72483 0.69994
   6  -2   4   41.04   20.46  67 0.64688 0.10589-0.03357-0.15485-0.72409 0.98614
   7   3   3   18.58   22.77  67 0.64781 0.22021-0.03291 0.31152-0.72327 0.93634
  -2  -3  -9  165.52   17.68  69 0.65661-0.93061-0.02658-0.25564-0.71542 0.20586
  -2   3 -15   29.84   26.64  69 0.65646-0.95025-0.02668 0.30551-0.71555-0.12288
  -2   3 -11    9.69   21.69  69 0.65897-0.94161-0.02488 0.30533-0.71328 0.09353
  -1  -6  -9    9.61   18.27  68 0.65222-0.80236-0.02972-0.53418-0.71936 0.21496
   2  -9  -7   14.65   27.87  70 0.66085-0.43428-0.02352-0.82252-0.71156 0.33708
   3  -9  -5    7.40   31.62  69 0.66124-0.30487-0.02324-0.82489-0.71120 0.45398
   3   6   0   29.62   18.41  68 0.65440-0.28583-0.02817 0.58987-0.71742 0.74030
   4  -2   4  122.61   17.70  68 0.65414-0.14937-0.02835-0.16013-0.71765 0.96507
   5   2   4    3.47   19.14  68 0.65398-0.02545-0.02846 0.21551-0.71779 0.97391
   5   5   2   19.68   19.82  68 0.65305-0.03136-0.02913 0.49725-0.71863 0.86562
   5   6   1   16.91   19.02  69 0.65713-0.03898-0.02621 0.58755-0.71495 0.80683
   6   2   4   28.37   19.20  69 0.65807 0.09369-0.02553 0.21228-0.71410 0.97714
   6   5   2  -18.28   22.90  69 0.65544 0.08844-0.02742 0.49484-0.71647 0.86971
   7  -1   4  -34.56   22.27  69 0.65574 0.21844-0.02721-0.06730-0.71621 0.98415
   7   0   4    4.44   23.20  69 0.65515 0.21964-0.02763 0.02666-0.71674 0.98618
  -2  -3 -16   18.84   25.47  70 0.66162-0.95624-0.02296-0.26040-0.71086-0.18426
  -2  -2  -8   51.88   19.88  70 0.66535-0.93656-0.02025-0.16732-0.70741 0.25264
  -2  -1  -7  307.26   18.53  69 0.65965-0.92752-0.02439-0.07064-0.71266 0.31317
  -2   0  -7   58.88   17.34  70 0.66285-0.93117-0.02207 0.02176-0.70972 0.31069
  -2   3 -14   54.12   24.93  70 0.66287-0.95414-0.02205 0.30069-0.70970-0.07387
  -2   3 -13   39.59   23.53  70 0.66705-0.95463-0.01901 0.29831-0.70581-0.02295
  -2   3 -12   21.65   22.83  70 0.66553-0.95070-0.02012 0.30009-0.70724 0.03274
  -1  -6 -10  -26.33   20.68  70 0.66200-0.81575-0.02269-0.54145-0.71050 0.15007
  -1  -2  -3  725.42   21.10  70 0.66186-0.79431-0.02279-0.16421-0.71064 0.53779
   0  -7  -7   54.72   19.72  69 0.66072-0.68075-0.02361-0.63332-0.71168 0.32400
   1  -6  -2   99.84   21.64  70 0.66509-0.54736-0.02044-0.54213-0.70764 0.60249
   1   8  -8    5.22   34.31  71 0.67304-0.57629-0.01461 0.76120-0.70015 0.27019
   2  -8  -4   -3.77   26.54  69 0.66186-0.42587-0.02279-0.73281-0.71064 0.50171
   2   0   3 5419.11   38.70  70 0.66294-0.40783-0.02200 0.02079-0.70963 0.88830
   2   3   2 1331.44   23.06  69 0.66019-0.40886-0.02399 0.30469-0.71216 0.83706
   2   6  -1   42.48   17.37  69 0.66125-0.41953-0.02323 0.58457-0.71119 0.67241
   2   8  -5   10.33   26.07  70 0.66647-0.43737-0.01943 0.76726-0.70636 0.44781
   4   5   2   28.77   20.69  70 0.66424-0.16656-0.02106 0.48844-0.70844 0.84770
   5  -3   4   76.60   21.91  70 0.66790-0.04010-0.01839-0.26339-0.70502 0.95903
   5   4   3   44.41   16.81  69 0.65925-0.03533-0.02468 0.39852-0.71303 0.91448
   5   8  -2    3.49   26.82  70 0.66513-0.05760-0.02041 0.76974-0.70761 0.63442
   6   4   3   29.21   20.51  69 0.66195 0.08596-0.02272 0.39659-0.71055 0.91873
   6   6   1   -8.11   21.59  69 0.65954 0.08188-0.02447 0.58566-0.71276 0.81176
   7  -4   3    9.51   26.02  69 0.66193 0.20788-0.02274-0.35191-0.71057 0.92187
   7   1   4   35.72   22.11  70 0.66204 0.21365-0.02266 0.11548-0.71047 0.98098
  -2  -3 -15    1.68   23.69  70 0.66765-0.96032-0.01858-0.26508-0.70523-0.13551
  -2  -3 -14   55.39   24.35  71 0.67364-0.96224-0.01417-0.26856-0.69955-0.08496
  -2  -3 -10   -5.42   17.72  71 0.66793-0.94430-0.01837-0.26389-0.70496 0.13904
  -2   2 -16   44.70   26.22  71 0.67320-0.97015-0.01450 0.19965-0.69998-0.19473
  -1  -6 -14   13.61   25.61  71 0.66965-0.83519-0.01711-0.54752-0.70334-0.07622
  -1  -6 -13   -2.49   25.74  71 0.67203-0.83440-0.01536-0.54881-0.70109-0.02419
  -1  -6 -12   15.29   21.15  71 0.67009-0.83051-0.01678-0.54927-0.70292 0.03208
  -1  -6 -11  -14.60   20.94  71 0.66865-0.82511-0.01784-0.54611-0.70429 0.08900
  -1  -5  -7   63.22   17.26  71 0.67133-0.81524-0.01587-0.45438-0.70175 0.30839
  -1  -4  -5  167.63   18.04  71 0.66895-0.80676-0.01762-0.35768-0.70401 0.42121
  -1   5  -8   92.77   29.74  73 0.68384-0.83378-0.00658 0.47207-0.68963 0.24302
   0  -5  -3  580.82   20.55  71 0.67017-0.67835-0.01673-0.45174-0.70285 0.53730
   1  -7  -4   19.83   21.94  71 0.67329-0.56113-0.01443-0.64335-0.69989 0.48439
   2  -7  -2   42.00   25.40  72 0.67885-0.43652-0.01031-0.64641-0.69453 0.59678
   2  -1   3  652.51   22.09  71 0.67023-0.41471-0.01669-0.07731-0.70280 0.88131
   3   3   3  111.70   16.32  70 0.66707-0.28960-0.01900 0.29845-0.70577 0.89275
   4   2   4   97.99   17.46  70 0.66683-0.16270-0.01917 0.20521-0.70600 0.95509
   4   4   3  142.63   20.09  71 0.67211-0.17206-0.01530 0.39039-0.70101 0.89471
   4   6   1   82.98   19.09  71 0.66965-0.17469-0.01711 0.57848-0.70334 0.78784
   5   7   0   23.92   24.62  71 0.67332-0.05790-0.01440 0.67058-0.69985 0.73753
   6  -3   4   24.21   23.56  71 0.67037 0.08162-0.01658-0.26511-0.70266 0.96296
   7  -2   4   29.47   23.17  70 0.66875 0.20696-0.01777-0.17087-0.70419 0.97299
  -2  -3 -13    9.92   21.26  71 0.67547-0.96192-0.01281-0.27027-0.69783-0.03283
  -2  -3 -12    0.64   19.73  72 0.67564-0.95912-0.01269-0.27030-0.69766 0.02125
  -2  -3 -11   24.70   17.25  71 0.67379-0.95328-0.01406-0.26818-0.69944 0.07972
  -2  -2 -16    5.18   24.17  72 0.67677-0.97309-0.01185-0.17810-0.69657-0.19911
  -2   1  -8  213.71   21.10  72 0.67861-0.95059-0.01048 0.10196-0.69479 0.23989
  -2   2  -9   39.44   16.66  72 0.67531-0.94980-0.01293 0.19857-0.69798 0.18986
  -1  -3  -4  302.71   19.57  72 0.67728-0.81201-0.01147-0.27063-0.69608 0.46833
   0  -7  -8   28.22   24.24  72 0.67807-0.70167-0.01088-0.64692-0.69531 0.25270
   0  -6  -5   19.64   20.13  72 0.68076-0.69474-0.00888-0.55309-0.69269 0.41591
   0  -3  -1 2461.66   35.81  72 0.67891-0.68132-0.01026-0.27176-0.69449 0.63838
   1  -8  -7   14.98   21.18  72 0.67567-0.57268-0.01267-0.73893-0.69764 0.31675
   1   4   0   53.59   16.96  71 0.67394-0.55267-0.01395 0.38704-0.69930 0.70748
   2   1   3  637.75   21.18  72 0.67677-0.42083-0.01185 0.10554-0.69658 0.87611
   3   0   4  352.71   18.97  72 0.67757-0.29571-0.01125 0.01167-0.69579 0.93693
   3   7  -1   20.63   22.24  71 0.67681-0.31254-0.01182 0.66367-0.69654 0.66372
   3   8  -3   11.35   24.53  72 0.67793-0.31983-0.01099 0.75748-0.69545 0.55362
   4   8  -2    0.15   26.02  72 0.68016-0.19521-0.00933 0.75785-0.69328 0.61358
   5   3   4   88.45   18.33  72 0.67700-0.04922-0.01168 0.29213-0.69635 0.95181
   6   3   4    2.59   23.54  72 0.67903 0.07221-0.01017 0.29058-0.69438 0.95762
   7   2   4   33.48   22.54  71 0.67412 0.20084-0.01381 0.20030-0.69913 0.96937
   7   4   3    0.92   23.33  72 0.67607 0.19438-0.01237 0.38598-0.69725 0.91250
  -2  -2 -15  101.15   21.12  73 0.68425-0.97767-0.00628-0.18456-0.68915-0.15205
  -2  -2  -9   22.67   17.35  72 0.67963-0.95404-0.00974-0.17875-0.69370 0.18347
  -2  -1  -8  214.84   17.79  72 0.68155-0.95218-0.00831-0.08644-0.69182 0.23742
  -2   2 -15   60.13   22.49  73 0.68356-0.97766-0.00680 0.19026-0.68984-0.14903
   1   5  -1  136.39   17.62  72 0.68196-0.56357-0.00800 0.47614-0.69142 0.64460
   3  -1   4  286.99   19.30  73 0.68376-0.30186-0.00665-0.08679-0.68964 0.93030
   3   1   4  288.18   21.37  73 0.68587-0.30502-0.00506 0.09881-0.68754 0.92876
  -2  -2 -14   89.87   21.03  74 0.69058-0.98072-0.00152-0.18766-0.68277-0.10240
  -2  -2 -10  341.34   19.04  74 0.68928-0.96647-0.00250-0.18533-0.68409 0.11938
  -2  -1 -16   64.94   23.61  74 0.68848-0.98349-0.00311-0.09304-0.68489-0.20991
  -2   0 -16   29.11   23.02  74 0.69086-0.98759-0.00131-0.00135-0.68249-0.21296
  -2   0  -8   13.62   15.76  73 0.68668-0.95782-0.00447 0.00352-0.68670 0.23239
  -2   1 -16   77.94   23.24  73 0.68745-0.98399-0.00389 0.09382-0.68593-0.20835
  -2   2 -14   83.46   24.55  74 0.69115-0.98205-0.00109 0.18510-0.68220-0.10157
  -2   2 -10  343.18   18.87  74 0.68889-0.96679-0.00280 0.18827-0.68448 0.12064
  -1  -5  -8   77.80   18.39  74 0.68919-0.83653-0.00257-0.46577-0.68417 0.23557
  -1   1  -3 1135.24   31.63  74 0.69509-0.82798 0.00192 0.09207-0.67817 0.50578
   0  -7  -9   -3.27   20.38  74 0.69003-0.71771-0.00194-0.65632-0.68333 0.18422
   0  -4  -2 1174.21   24.20  74 0.68910-0.69467-0.00264-0.37203-0.68427 0.57273
   0   4  -2 1158.57   35.97  75 0.69759-0.70451 0.00384 0.37028-0.67559 0.56674
   1  -8  -8    6.10   24.33  75 0.69539-0.59514 0.00214-0.75238-0.67787 0.24151
   4  -3   4   47.43   21.54  74 0.69312-0.18781 0.00042-0.28278-0.68019 0.92719
   4   3   4   38.43   19.51  74 0.69291-0.18892 0.00025 0.27976-0.68040 0.93020
   4   7   0  -10.75   19.96  74 0.68837-0.19787-0.00320 0.65963-0.68501 0.71555
   5   0   5    4.00   18.93  74 0.69058-0.05902-0.00152 0.00110-0.68277 0.99328
   6   0   5   11.76   19.90  73 0.68966 0.06451-0.00222 0.00142-0.68371 0.99997
   7  -3   4    3.36   26.42  74 0.69152 0.18324-0.00080-0.28136-0.68182 0.94990
   7   3   4    2.95   22.15  73 0.68920 0.18138-0.00257 0.28098-0.68417 0.95215
  -2  -2 -13   -2.02   19.85  75 0.69507-0.98109 0.00193-0.19135-0.67799-0.05317
  -2  -2 -12   10.08   19.03  74 0.69547-0.97928 0.00223-0.19168-0.67757 0.00176
  -2  -2 -11  111.02   18.43  74 0.69479-0.97445 0.00171-0.19036-0.67828 0.05906
  -2  -1 -15   12.99   21.56  74 0.69584-0.98915 0.00252-0.09883-0.67720-0.16342
  -2  -1  -9   48.73   17.31  74 0.69547-0.96956 0.00223-0.09723-0.67758 0.16759
  -2   1 -15   28.49   22.17  75 0.69685-0.99051 0.00329 0.08775-0.67615-0.16365
  -2   1  -9   42.87   17.16  75 0.69628-0.97096 0.00286 0.08808-0.67674 0.16774
  -2   2 -13   -2.06   19.01  75 0.69576-0.98351 0.00245 0.18302-0.67728-0.05302
  -2   2 -12    2.30   22.36  75 0.69794-0.98223 0.00413 0.18119-0.67502 0.00087
  -2   2 -11  110.89   18.32  75 0.69580-0.97723 0.00249 0.18166-0.67723 0.05778
  -1  -4  -6   66.86   16.59  75 0.69849-0.83887 0.00455-0.38179-0.67445 0.33604
  -1  -1  -3 1128.69   25.02  74 0.69374-0.82636 0.00091-0.09400-0.67935 0.50638
   0  -7 -10    9.18   23.60  75 0.69818-0.72855 0.00431-0.66303-0.67477 0.12119
   1   3   1  530.66   21.31  74 0.69553-0.56961 0.00228 0.27781-0.67751 0.74125
   2   7  -2   52.42   21.20  75 0.69898-0.46014 0.00493 0.65072-0.67394 0.58038
   3   5   2    8.34   20.00  75 0.69903-0.32426 0.00497 0.46327-0.67388 0.80711
   5  -5   3   -1.05   27.06  77 0.70742-0.08088 0.01149-0.48166-0.66501 0.86454
   5  -1   5   13.07   19.17  74 0.69528-0.06366 0.00209-0.09608-0.67777 0.98766
   5   1   5   -4.42   18.22  75 0.69548-0.06484 0.00224 0.09116-0.67757 0.98876
   5   5   3   13.72   20.80  74 0.69616-0.07205 0.00276 0.46484-0.67686 0.87882
   5   6   2  -31.25   20.96  75 0.69658-0.07676 0.00308 0.55781-0.67643 0.82300
   5   8  -1   45.77   24.02  75 0.69703-0.08601 0.00343 0.74468-0.67596 0.65903
   6  -6   2    5.24   33.78  76 0.70765 0.03951 0.01166-0.57592-0.66476 0.81524
   6  -5   3    9.86   28.53  75 0.70211 0.04794 0.00735-0.47745-0.67066 0.87680
   6  -1   5   11.93   20.85  74 0.69522 0.05965 0.00204-0.09633-0.67784 0.99497
   6   1   5    3.18   19.79  75 0.69535 0.05871 0.00214 0.09105-0.67771 0.99619
   6   5   3   -6.37   22.72  75 0.69562 0.05121 0.00235 0.46549-0.67742 0.88684
   6   6   2   12.70   23.67  75 0.69589 0.04814 0.00255 0.55846-0.67715 0.83168
  -2  -1 -14    8.07   20.08  75 0.70244-0.99264 0.00758-0.10388-0.67041-0.11519
  -2  -1 -10  -11.66   17.40  76 0.70303-0.98139 0.00804-0.10360-0.66979 0.10347
  -2   0 -15    6.62   21.43  76 0.70235-0.99364 0.00752-0.01041-0.67050-0.16846
  -2   0  -9  431.77   18.69  76 0.70187-0.97598 0.00714-0.00878-0.67101 0.16150
  -2   1 -14   -0.10   23.82  75 0.70344-0.99496 0.00836 0.08287-0.66936-0.11597
  -2   1 -10   10.34   20.93  76 0.70724-0.98445 0.01132 0.08054-0.66530 0.10119
  -1  -5 -15   64.95   24.80  76 0.70206-0.87005 0.00729-0.47802-0.67081-0.16362
  -1  -5  -9   15.67   18.50  75 0.70100-0.85073 0.00647-0.47610-0.67193 0.16746
   0  -7 -12   -4.22   25.78  76 0.70541-0.74148 0.00990-0.66753-0.66726 0.00281
   0  -7 -11   15.53   22.20  76 0.70317-0.73623 0.00815-0.66666-0.66964 0.06097
   1  -8  -9   -6.61   24.89  76 0.70606-0.60944 0.01040-0.76221-0.66656 0.17479
   1  -5  -1  142.81   20.56  76 0.70702-0.58573 0.01115-0.47985-0.66554 0.61562
   2   2   3 1027.54   21.66  76 0.70263-0.44733 0.00773 0.17922-0.67021 0.85027
   2   5   1   54.91   21.13  76 0.70590-0.45790 0.01028 0.45631-0.66674 0.73821
   3  -9  -6    2.50   27.80  77 0.70881-0.35718 0.01256-0.85416-0.66361 0.35134
   3  -8  -3   11.75   31.33  77 0.71205-0.34970 0.01510-0.76672-0.66010 0.51305
   3   2   4   65.02   16.41  76 0.70400-0.32347 0.00880 0.17819-0.66876 0.91025
   3   6   1   23.52   18.11  76 0.70374-0.33249 0.00859 0.55241-0.66904 0.74714
   3   9  -5    5.99   26.94  76 0.70745-0.35564 0.01149 0.82978-0.66508 0.41430
   5  -6   2   11.12   33.41  78 0.71808-0.09418 0.01989-0.58387-0.65344 0.79697
   6   2   5   65.48   22.81  76 0.70636 0.04839 0.01063 0.17638-0.66625 0.98503
   6   4   4   12.36   20.01  75 0.70235 0.04542 0.00752 0.36479-0.67050 0.93259
   7   0   5   18.37   22.37  76 0.70398 0.17363 0.00878-0.00962-0.66879 0.99302
  -2  -1 -13    0.33   19.14  77 0.70785-0.99388 0.01179-0.10788-0.66469-0.06603
  -2  -1 -12   45.53   18.46  77 0.70923-0.99273 0.01287-0.10911-0.66321-0.01149
  -2  -1 -11   36.55   18.10  77 0.70845-0.98878 0.01226-0.10795-0.66404 0.04392
  -2   0 -14   -0.64   20.32  76 0.70718-0.99787 0.01126-0.01406-0.66541-0.11997
  -2   0 -13   19.03   22.25  77 0.71277-0.99970 0.01566-0.01814-0.65935-0.07025
  -2   0 -10   87.45   17.80  77 0.70999-0.98771 0.01346-0.01485-0.66238 0.09876
  -2   1 -13   27.42   20.20  76 0.70912-0.99704 0.01279 0.07846-0.66332-0.06665
  -2   1 -12   42.30   21.94  77 0.71295-0.99644 0.01581 0.07532-0.65915-0.01460
  -2   1 -11   34.65   21.42  77 0.71119-0.99231 0.01441 0.07722-0.66107 0.04211
  -1  -5 -14   -0.41   21.40  77 0.70772-0.87287 0.01168-0.48193-0.66483-0.11448
  -1  -5 -13   33.45   21.31  77 0.71004-0.87330 0.01351-0.48508-0.66232-0.06286
  -1  -5 -12   -8.64   23.08  77 0.71199-0.87186 0.01504-0.48604-0.66020-0.01055
  -1  -5 -11    5.45   18.67  77 0.70999-0.86772 0.01347-0.48550-0.66238 0.04546
  -1  -5 -10   11.09   18.88  77 0.70851-0.86106 0.01230-0.48203-0.66398 0.10461
  -1   0  -3   33.37   20.62  77 0.70867-0.84041 0.01243-0.01186-0.66380 0.49294
  -1   4  -6   67.01   28.04  79 0.72277-0.86564 0.02365 0.34950-0.64821 0.31200
  -1   5 -15   67.70   32.06  78 0.71595-0.88729 0.01818 0.44560-0.65585-0.17470
   0  -6  -6   42.85   17.89  77 0.70823-0.72536 0.01208-0.57500-0.66428 0.33150
   0   3  -1 2426.85   44.54  77 0.71405-0.71735 0.01668 0.26471-0.65794 0.60435
   1  -7  -5    2.26   22.33  78 0.71422-0.60455 0.01681-0.67259-0.65776 0.38653
   1   0   2  120.05   24.12  77 0.70970-0.58028 0.01324-0.01391-0.66269 0.77981
   1   7  -4   15.72   24.40  77 0.71282-0.60344 0.01570 0.63723-0.65930 0.44878
   2  -8  -5   11.69   22.98  77 0.71055-0.47828 0.01391-0.76543-0.66178 0.39730
   2  -2   3 1055.20   27.46  77 0.71375-0.45732 0.01644-0.20468-0.65828 0.83681
   2   4   2  144.28   20.07  77 0.71194-0.45979 0.01501 0.35912-0.66026 0.78667
   2   8  -4   -4.22   22.95  77 0.70990-0.47776 0.01340 0.73420-0.66248 0.45921
   3  -2   4   47.42   20.61  77 0.71185-0.32888 0.01494-0.20351-0.66036 0.90088
   3   4   3   17.50   17.18  76 0.70718-0.32916 0.01126 0.36344-0.66541 0.85325
   4   0   5   79.58   17.80  77 0.70943-0.20127 0.01302-0.01299-0.66299 0.96632
   5  -2   5   58.61   22.26  77 0.71272-0.08096 0.01563-0.20355-0.65940 0.96857
   5   2   5   43.10   20.00  76 0.70756-0.07648 0.01156 0.17567-0.66500 0.97631
   5   4   4   86.53   18.00  76 0.70611-0.08053 0.01042 0.36392-0.66656 0.92350
   5   7   1   12.66   22.19  76 0.70799-0.09063 0.01189 0.64273-0.66454 0.75728
   6  -4   4   26.17   27.76  77 0.71394 0.03788 0.01659-0.39170-0.65807 0.91829
   6  -2   5   49.79   24.20  77 0.71068 0.04461 0.01401-0.20198-0.66163 0.97845
   7  -1   5   -4.94   23.14  77 0.70906 0.16823 0.01273-0.10695-0.66339 0.98749
   7   1   5   13.46   23.31  76 0.70766 0.17030 0.01164 0.08138-0.66489 0.99045
  -2   0 -12   81.83   18.88  78 0.71517-0.99894 0.01763-0.02057-0.65672-0.01722
  -2   0 -11   29.04   18.17  78 0.71472-0.99529 0.01727-0.01921-0.65722 0.03759
  -1  -3  -5  680.47   20.35  78 0.71579-0.85385 0.01812-0.29975-0.65604 0.37344
  -1   5  -9   -1.67   27.64  80 0.72758-0.87934 0.02761 0.43845-0.64270 0.14230
   0  -5  -4  188.98   20.60  78 0.71835-0.72919 0.02016-0.48910-0.65319 0.43234
   1  -8 -10   22.09   22.91  78 0.71468-0.62051 0.01724-0.76829-0.65726 0.11061
   1   6  -2  103.71   20.43  77 0.71506-0.59964 0.01754 0.54303-0.65685 0.55641
   1   8  -7   15.79   34.92  79 0.72682-0.62719 0.02699 0.71967-0.64358 0.26840
   2   6   0   21.73   19.42  78 0.71964-0.47437 0.02119 0.54218-0.65175 0.66865
   3  -5   2    9.90   38.49  81 0.73608-0.35928 0.03459-0.50297-0.63272 0.76159
   3   8  -2   40.36   23.28  78 0.71683-0.35540 0.01894 0.72833-0.65489 0.56888
   4  -1   5   50.16   19.99  78 0.71733-0.20847 0.01935-0.11238-0.65432 0.95754
   4   1   5   24.35   17.29  77 0.71294-0.20597 0.01586 0.07772-0.65918 0.96252
   4   5   3   15.50   17.18  77 0.71265-0.21151 0.01563 0.45273-0.65949 0.85496
   4   6   2   21.03   19.00  77 0.71347-0.21591 0.01628 0.54522-0.65859 0.79910
   4   8  -1    4.00   22.52  78 0.71492-0.22800 0.01743 0.73153-0.65699 0.63232
   5  -4   4   96.33   25.09  78 0.72041-0.09137 0.02181-0.39601-0.65087 0.90518
   7   2   5  -28.16   23.85  78 0.71558 0.16090 0.01796 0.16835-0.65626 0.98075
  -1  -4  -7   81.59   17.68  78 0.71890-0.86292 0.02069-0.39666-0.65251 0.25889
  -1  -2  -4  195.03   18.99  78 0.71941-0.85467 0.02109-0.20895-0.65194 0.42390
  -1   5 -14   16.64   29.11  79 0.72672-0.89558 0.02699 0.43918-0.64364-0.13284
   1   1   2  717.90   24.78  78 0.71949-0.59037 0.02115 0.07170-0.65186 0.76938
   3  -7  -1    3.71   31.11  81 0.73403-0.36593 0.03298-0.69023-0.63509 0.59837
   3   7   0   55.12   19.53  79 0.72235-0.35456 0.02346 0.63080-0.64862 0.67235
   4  -8  -2   26.77   38.37  83 0.74353-0.25615 0.04089-0.78926-0.62365 0.53827
   4   4   4   -9.68   17.70  79 0.72190-0.21847 0.02309 0.35106-0.64914 0.89827
   6   3   5   35.85   21.82  79 0.72198 0.03210 0.02316 0.25707-0.64904 0.96719
   7  -2   5   35.63   26.69  78 0.72219 0.15583 0.02333-0.21148-0.64881 0.97137
   0  -6  -7   24.02   17.99  80 0.72710-0.74735 0.02738-0.59052-0.64313 0.25552
   0   6  -5   13.24   35.36  82 0.74242-0.75899 0.04004 0.52006-0.62494 0.35221
   1  -6  -3   55.20   22.23  80 0.73129-0.61607 0.03081-0.59336-0.63825 0.47790
   1  -4   0   53.33   24.50  81 0.73427-0.61072 0.03326-0.40863-0.63474 0.63971
   2   9  -7    6.13   30.34  80 0.73326-0.51090 0.03242 0.80888-0.63594 0.26795
   3   3   4  122.24   16.62  80 0.72891-0.34719 0.02886 0.25162-0.64103 0.88335
   4   2   5  726.37   19.57  79 0.72523-0.21779 0.02586 0.16196-0.64528 0.94919
   4   7   1   15.35   19.94  79 0.72542-0.23096 0.02602 0.62898-0.64506 0.73096
   5   3   5   53.11   18.13  79 0.72594-0.09500 0.02645 0.25447-0.64445 0.95651
   5   8   0   11.15   24.69  80 0.72812-0.11387 0.02822 0.72005-0.64194 0.68015
   6   6   3   36.75   25.68  80 0.73092 0.01683 0.03050 0.53121-0.63869 0.84882
   7   3   5   52.57   26.36  80 0.73049 0.14689 0.03015 0.25000-0.63919 0.96481
  -1  -4 -15   32.12   21.26  81 0.73307-0.90066 0.03230-0.40834-0.63604-0.19542
  -1  -4  -8   53.88   17.93  81 0.73299-0.88010 0.03224-0.40762-0.63613 0.18726
  -1   5 -13   33.00   24.35  81 0.73801-0.90316 0.03639 0.42953-0.63016-0.09094
  -1   5 -10   27.70   24.76  82 0.74160-0.89723 0.03938 0.42723-0.62582 0.06993
   1  -7  -6   52.79   22.29  81 0.73817-0.63183 0.03652-0.69328-0.62997 0.30380
   2  -8  -6    8.62   25.56  82 0.73944-0.50987 0.03757-0.78808-0.62844 0.30891
   2   3   3  154.55   18.01  81 0.73465-0.47925 0.03360 0.24665-0.63418 0.81486
   3  -4   3   19.31   25.85  82 0.74061-0.36063 0.03856-0.41385-0.62702 0.81163
   3   9  -4  -12.92   26.63  82 0.73967-0.38505 0.03777 0.80538-0.62816 0.43296
   5   5   4   10.63   22.82  81 0.73665-0.10936 0.03525 0.43262-0.63180 0.88915
   5   6   3   14.95   20.74  81 0.73458-0.11068 0.03354 0.52774-0.63426 0.83685
   6  -3   5   14.75   25.40  81 0.73866 0.01677 0.03693-0.31869-0.62938 0.94576
   6   5   4   -8.60   22.95  81 0.73309 0.01712 0.03232 0.43594-0.63601 0.90114
  -1  -4 -14   61.77   19.78  81 0.73848-0.90431 0.03677-0.41387-0.62961-0.14879
  -1  -4 -13   32.27   22.65  82 0.74337-0.90624 0.04086-0.41797-0.62366-0.10021
  -1  -4  -9  294.33   19.34  82 0.74089-0.89205 0.03878-0.41393-0.62669 0.12313
  -1  -3  -6  131.44   17.72  82 0.74125-0.88321 0.03909-0.32091-0.62625 0.28741
  -1   5 -12  -12.20   26.12  83 0.74530-0.90680 0.04249 0.42375-0.62129-0.04534
  -1   5 -11    2.03   25.70  84 0.75056-0.90801 0.04696 0.41738-0.61472 0.00590
   0  -6  -8  -25.15   18.76  82 0.73944-0.76349 0.03757-0.60103-0.62845 0.18475
   0   5  -3  567.29   31.00  82 0.74667-0.75695 0.04364 0.42390-0.61959 0.45656
   0   7 -13   29.04   38.36  84 0.75338-0.79618 0.04937 0.60408-0.61115-0.10230
   1  -1   2  685.28   32.16  82 0.74242-0.61312 0.04006-0.13485-0.62483 0.74115
   2  -7  -3   -1.17   24.65  84 0.75030-0.51207 0.04673-0.70110-0.61505 0.46126
   4  -2   5  781.27   21.30  81 0.73990-0.23153 0.03796-0.22610-0.62789 0.93025
   5   7   2    4.52   24.34  82 0.74219-0.12160 0.03987 0.61533-0.62510 0.77350
   6   0   6  -18.10   23.33  82 0.74253 0.01502 0.04015-0.04054-0.62470 0.99810
   6   1   6    3.28   22.68  82 0.74146 0.01505 0.03926 0.05385-0.62599 0.99788
  -1  -4 -12   43.56   18.61  83 0.74603-0.90630 0.04314-0.42050-0.62043-0.04898
  -1  -4 -11   55.57   19.00  83 0.74675-0.90417 0.04375-0.42097-0.61954 0.00536
  -1  -4 -10  131.40   18.62  83 0.74581-0.89979 0.04295-0.41849-0.62070 0.06268
  -1  -3 -16   23.21   24.12  83 0.74610-0.91915 0.04320-0.32770-0.62035-0.26894
  -1   4 -16   32.04   24.31  83 0.74597-0.92046 0.04308 0.32845-0.62051-0.26605
   0  -6 -14   16.40   22.09  83 0.74568-0.78767 0.04284-0.60575-0.62087-0.14945
   0  -6 -13   23.44   24.80  83 0.74837-0.78844 0.04512-0.61093-0.61753-0.10110
   0  -6  -9   26.98   19.58  83 0.74716-0.77419 0.04410-0.60835-0.61903 0.12121
   0  -5  -5   44.91   20.47  83 0.74964-0.76397 0.04621-0.51540-0.61593 0.33933
   0   1   0    5.88   36.93  83 0.75085-0.75170 0.04723 0.04450-0.61441 0.61421
   1   2   2 1625.74   27.42  83 0.74657-0.61765 0.04360 0.14258-0.61976 0.73766
   2   7  -1   20.02   18.19  82 0.74518-0.50352 0.04242 0.61263-0.62149 0.58315
   2   8  -3   19.10   22.53  84 0.75111-0.51611 0.04745 0.70130-0.61408 0.46605
   3   5   3   91.83   17.12  83 0.74740-0.37011 0.04430 0.42369-0.61873 0.80642
   3   6   2   19.09   20.71  83 0.74886-0.37445 0.04554 0.51612-0.61691 0.75038
   4   3   5   68.47   17.23  82 0.74470-0.23712 0.04202 0.23926-0.62207 0.92758
   4   8   0   14.39   26.47  83 0.74726-0.25631 0.04418 0.70416-0.61890 0.64999
   5  -3   5   36.17   22.51  82 0.74605-0.11460 0.04316-0.32446-0.62041 0.92938
   5   0   6   35.98   18.46  83 0.74705-0.11243 0.04400-0.04410-0.61917 0.98442
   5   1   6   36.73   18.24  83 0.74766-0.11290 0.04451 0.04914-0.61842 0.98451
   5   4   5   60.47   18.10  83 0.74732-0.11805 0.04423 0.32997-0.61883 0.92976
   6  -1   6   -6.43   24.01  83 0.74897 0.00756 0.04563-0.13946-0.61677 0.98842
   6   4   5   18.48   19.81  83 0.74568 0.01143 0.04284 0.33360-0.62087 0.94313
   7  -3   5   -4.95   27.22  83 0.74864 0.12919 0.04535-0.32686-0.61719 0.94079
   7   0   6   11.38   26.38  83 0.74852 0.13193 0.04525-0.04590-0.61733 0.99594
  -1  -2 -17   15.44   24.16  84 0.75277-0.92946 0.04883-0.23972-0.61192-0.33232
  -1  -1  -4 1589.87   25.41  84 0.75185-0.88799 0.04805-0.14227-0.61308 0.38444
  -1   2  -4  199.27   23.02  84 0.75488-0.89127 0.05065 0.13594-0.60922 0.38202
   0  -6 -12    0.79   21.44  84 0.75189-0.78877 0.04808-0.61285-0.61303-0.05094
   0  -6 -11   22.54   20.29  83 0.75234-0.78630 0.04847-0.61384-0.61247 0.00423
   0  -6 -10   -2.45   19.31  84 0.75153-0.78215 0.04777-0.61200-0.61350 0.05970
   0  -4  -3  336.76   18.73  83 0.75070-0.75908 0.04706-0.42226-0.61454 0.44796
   0   7 -10    9.85   43.91  89 0.77947-0.81228 0.07248 0.58061-0.57603 0.02823
   1  -7  -7   27.47   22.58  84 0.75360-0.65064 0.04955-0.70771-0.61087 0.23088
   1   5   0    7.33   20.17  84 0.75450-0.63235 0.05032 0.41680-0.60971 0.61828
   2  -8  -7   -8.26   24.74  84 0.75505-0.53007 0.05080-0.80346-0.60900 0.23339
   2  -6  -1   36.05   25.28  85 0.76041-0.51596 0.05545-0.61820-0.60205 0.55871
   3   8  -1   -3.84   24.13  85 0.75581-0.39082 0.05145 0.70038-0.60803 0.57774
   4  -5   3   13.92   29.64  86 0.76452-0.26102 0.05905-0.52890-0.59661 0.78875
   4   6   3   11.34   19.19  84 0.75287-0.25211 0.04892 0.51273-0.61180 0.80731
   6   2   6   51.94   20.49  83 0.74989 0.00791 0.04638 0.14068-0.61556 0.98940
   7   1   6   24.39   22.98  83 0.74945 0.13140 0.04599 0.04695-0.61612 0.99629
  -1  -3 -15    3.99   20.95  85 0.75749-0.92567 0.05290-0.33536-0.60581-0.22512
  -1  -3  -7   58.00   16.63  85 0.75865-0.90315 0.05390-0.33565-0.60430 0.21152
  -1  -2  -5 1016.81   20.68  84 0.75537-0.89385 0.05106-0.23912-0.60855 0.32514
  -1   3  -5  672.56   28.79  86 0.76548-0.90502 0.05989 0.21998-0.59529 0.31362
  -1   4 -15    5.20   25.99  86 0.76323-0.93303 0.05791 0.31341-0.59829-0.23248
   0   7 -12   28.64   36.67  87 0.77006-0.80903 0.06396 0.58909-0.58909-0.06924
   0   7 -11   -0.46   39.62  89 0.78276-0.81831 0.07549 0.57650-0.57128-0.03107
   1   4   1 1296.70   24.15  84 0.75755-0.63192 0.05295 0.32192-0.60573 0.66948
   2   9  -6    8.02   29.77  85 0.76047-0.53521 0.05549 0.78401-0.60193 0.28927
   3  -8  -4   16.85   27.45  85 0.76222-0.40373 0.05702-0.80935-0.59962 0.39782
   3   0   5   21.15   17.36  84 0.75697-0.37149 0.05244-0.05230-0.60649 0.90386
   3   1   5  100.89   17.73  84 0.75588-0.37099 0.05151 0.04217-0.60789 0.90506
   3   4   4    7.31   17.76  84 0.75771-0.37665 0.05309 0.32101-0.60553 0.84746
   4  -4   4    0.56   23.41  86 0.76610-0.25898 0.06044-0.43704-0.59445 0.84308
   4   5   4   14.84   18.48  84 0.75508-0.25089 0.05081 0.41751-0.60892 0.85939
   4   7   2   20.28   23.50  85 0.75932-0.26271 0.05449 0.59865-0.60343 0.74315
   5  -1   6   36.75   19.77  84 0.75662-0.12194 0.05214-0.14619-0.60694 0.97249
   5   2   6    8.58   18.47  84 0.75595-0.12090 0.05157 0.13599-0.60780 0.97530
   5   8   1   21.37   24.59  84 0.75748-0.14034 0.05289 0.69516-0.60583 0.69879
   7  -1   6  -22.15   25.16  85 0.75713 0.12364 0.05259-0.14687-0.60627 0.98635
   7   2   6    4.79   22.99  85 0.75653 0.12515 0.05207 0.13499-0.60705 0.98895
  -1  -3 -14   22.28   20.25  86 0.76342-0.93040 0.05811-0.34195-0.59815-0.18122
  -1  -2 -16    4.03   23.35  86 0.76410-0.93796 0.05870-0.24939-0.59725-0.29311
  -1  -1 -17   41.54   26.42  86 0.76727-0.94219 0.06151-0.15799-0.59299-0.34849
   1  -7  -8   19.50   19.77  86 0.76493-0.66565 0.05943-0.71721-0.59614 0.16019
   2  -8  -8   -8.45   25.56  86 0.76665-0.54501 0.06096-0.81367-0.59383 0.16303
   2   0   4 1421.63   27.13  86 0.76608-0.50770 0.06045-0.06078-0.59460 0.82860
   2   1   4  840.63   21.83  86 0.76396-0.50587 0.05859 0.03460-0.59743 0.83170
   2   5   2   62.41   17.64  85 0.76140-0.51102 0.05633 0.41007-0.60082 0.72706
   2   6   1   43.55   20.42  86 0.76735-0.51972 0.06158 0.50046-0.59288 0.66418
   3   2   5   42.88   16.31  86 0.76459-0.38020 0.05914 0.12912-0.59659 0.89317
   3   7   1   -5.91   19.32  86 0.76267-0.39239 0.05745 0.59892-0.59914 0.67742
   3   9  -3    0.77   26.65  86 0.76657-0.40839 0.06089 0.78088-0.59394 0.45287
   6  -2   6   51.03   24.83  86 0.76723-0.00965 0.06147-0.24880-0.59305 0.96542
   6   3   6  -15.67   21.89  86 0.76279-0.00595 0.05756 0.22343-0.59898 0.97360
   6   6   4   22.53   24.31  86 0.76347-0.01301 0.05815 0.50386-0.59808 0.86343
  -1  -3 -13   21.69   19.24  87 0.76993-0.93357 0.06373-0.34732-0.58944-0.13493
  -1  -3  -8  580.83   18.76  87 0.76944-0.91751 0.06329-0.34430-0.59011 0.14158
  -1   2 -17    8.30   24.23  87 0.76945-0.94661 0.06330 0.12094-0.59009-0.35283
  -1   3 -16  -14.23   25.75  87 0.77176-0.94538 0.06536 0.21320-0.58694-0.30112
  -1   4  -7   77.39   23.61  88 0.77671-0.92243 0.06984 0.30349-0.58006 0.18923
   0  -5  -6   25.11   17.14  87 0.76996-0.78790 0.06375-0.53302-0.58940 0.25790
   1  -7  -9   97.25   23.24  87 0.77195-0.67497 0.06553-0.72343-0.58668 0.09631
   1  -6  -4  111.95   17.79  87 0.76974-0.65846 0.06356-0.62639-0.58970 0.37437
   1   7  -3  -14.13   21.78  87 0.77168-0.66003 0.06529 0.59023-0.58705 0.43023
   1   8  -6    6.58   30.09  87 0.77476-0.67193 0.06807 0.67916-0.58279 0.26227
   2   4   3   63.66   17.45  87 0.77058-0.51576 0.06431 0.30898-0.58855 0.76986
   3  -3   4  139.52   20.27  87 0.77009-0.38776 0.06388-0.34547-0.58922 0.82933
   3  -1   5  102.67   17.04  87 0.77034-0.38563 0.06410-0.15895-0.58888 0.88455
   4   0   6  139.99   17.91  87 0.77062-0.26005 0.06434-0.06542-0.58850 0.94663
   4   1   6  -12.11   17.82  87 0.76916-0.25901 0.06304 0.03072-0.59049 0.94912
   4   4   5  164.70   17.77  86 0.76693-0.26087 0.06106 0.31362-0.59350 0.89797
   5   3   6   35.33   19.74  86 0.76873-0.13481 0.06266 0.21843-0.59107 0.95810
   5   6   4   61.30   22.56  86 0.76912-0.14226 0.06301 0.49832-0.59054 0.84778
   6   5   5   22.25   21.73  86 0.76717-0.01364 0.06127 0.40670-0.59319 0.91274
   7  -2   6   -7.30   27.89  87 0.77171 0.10819 0.06532-0.25295-0.58700 0.96511
  -1  -3 -12   10.52   18.64  88 0.77505-0.93477 0.06827-0.35153-0.58245-0.08648
  -1  -3 -11  213.56   20.81  88 0.77763-0.93469 0.07062-0.35258-0.57883-0.03456
  -1  -3  -9   67.30   17.26  88 0.77501-0.92655 0.06824-0.34916-0.58250 0.07954
  -1  -2 -15  -22.05   22.21  88 0.77493-0.94487 0.06817-0.25867-0.58261-0.25241
  -1   0 -17    0.60   24.90  88 0.77459-0.94950 0.06786-0.07126-0.58309-0.35901
  -1   0  -4 3564.37   35.57  88 0.77417-0.90984 0.06748-0.06704-0.58367 0.35625
  -1   1 -17    4.66   25.06  88 0.77470-0.95139 0.06796 0.02258-0.58293-0.36102
  -1   4 -14   47.91   21.15  88 0.77521-0.94332 0.06842 0.30250-0.58222-0.19388
   0  -5 -15   -6.70   23.14  88 0.77367-0.81918 0.06703-0.53759-0.58436-0.24305
   0  -3  -2  152.29   18.98  87 0.77358-0.77956 0.06695-0.34764-0.58448 0.47289
   0  -2  -1 1098.79   30.00  88 0.77541-0.77887 0.06860-0.25611-0.58194 0.52518
   1  -7 -12  -23.97   23.76  88 0.77390-0.68673 0.06723-0.72456-0.58405-0.07318
   1  -7 -11   18.30   22.43  88 0.77497-0.68479 0.06820-0.72668-0.58256-0.01897
   1  -7 -10    6.22   21.36  88 0.77482-0.68133 0.06807-0.72607-0.58277 0.03638
   1   6  -1   76.60   21.22  87 0.77509-0.65610 0.06831 0.49195-0.58239 0.53737
   2  -8 -10   14.91   26.00  89 0.77986-0.56370 0.07266-0.82134-0.57566 0.03749
   2  -8  -9   22.03   22.76  88 0.77505-0.55506 0.06827-0.81971-0.58245 0.09778
   2   2   4   78.48   16.87  87 0.77479-0.51759 0.06804 0.11819-0.58280 0.81718
   4   2   6   11.67   18.27  87 0.77490-0.26440 0.06814 0.11922-0.58266 0.94094
   4   8   1   16.22   25.14  88 0.77683-0.28372 0.06989 0.67695-0.57995 0.66540
   5  -2   6   -7.60   22.32  88 0.77719-0.14264 0.07021-0.25785-0.57945 0.94471
   5   5   5    9.09   21.44  87 0.77367-0.14362 0.06703 0.40129-0.58436 0.89680
   5   7   3   -1.96   23.48  88 0.77413-0.15149 0.06744 0.58868-0.58373 0.78686
   6  -5   4   -7.16   29.55  87 0.77459-0.02567 0.06786-0.53342-0.58309 0.84032
  -1  -3 -10   58.54   16.47  88 0.77831-0.93173 0.07125-0.35339-0.57777 0.01893
  -1  -2  -6   86.23   16.03  88 0.77827-0.91994 0.07121-0.25784-0.57783 0.23933
  -1  -1 -16   -9.65   20.86  89 0.77924-0.95131 0.07209-0.16857-0.57646-0.31122
  -1   1  -4 1571.38   28.36  89 0.77990-0.91572 0.07270 0.02088-0.57552 0.34841
   0  -5 -14  -15.24   22.84  89 0.78049-0.82368 0.07324-0.54480-0.57469-0.19936
   0  -5  -7  171.19   21.14  89 0.78342-0.80422 0.07594-0.54512-0.57047 0.18388
   1  -5  -2  131.64   20.60  90 0.78532-0.66749 0.07770-0.54673-0.56771 0.46269
   1   3   2 2083.00   28.22  89 0.78154-0.65310 0.07420 0.20565-0.57318 0.69146
   2  -7  -4   18.95   24.96  90 0.78575-0.55054 0.07810-0.73507-0.56708 0.35832
   3   3   5  398.55   18.69  89 0.78117-0.39773 0.07386 0.20647-0.57371 0.87074
   4  -3   5   61.22   21.51  89 0.78208-0.27292 0.07471-0.35595-0.57240 0.87506
   4  -1   6   19.46   19.95  89 0.78250-0.27150 0.07509-0.16858-0.57180 0.92970
   6  -4   5  -11.37   24.90  89 0.78293-0.02950 0.07548-0.45029-0.57118 0.88748
   6   4   6   20.54   22.80  88 0.77901-0.02253 0.07189 0.30253-0.57678 0.95119
  -1  -2 -14   65.75   20.88  89 0.78471-0.95055 0.07712-0.26689-0.56861-0.20983
  -1  -1  -5  432.70   19.99  90 0.78615-0.92482 0.07846-0.17199-0.56651 0.28394
  -1   0 -16   75.99   22.93  90 0.78637-0.95988 0.07866-0.08298-0.56619-0.32186
  -1   1 -16    8.14   24.82  89 0.78567-0.96251 0.07801 0.01300-0.56721-0.32556
  -1   2 -16   18.58   22.57  89 0.78502-0.95852 0.07741 0.10666-0.56816-0.31921
  -1   3 -15    2.56   22.66  90 0.78583-0.95684 0.07817 0.20039-0.56697-0.26626
  -1   4 -13   10.22   24.00  90 0.78590-0.95109 0.07823 0.29401-0.56687-0.15496
   0  -5 -13   13.17   20.52  89 0.78633-0.82658 0.07863-0.55101-0.56624-0.15332
   0  -4  -4  156.46   18.39  90 0.78702-0.79902 0.07927-0.45417-0.56523 0.34346
   2  -1   4  825.26   25.22  90 0.78769-0.52915 0.07990-0.17429-0.56424 0.79780
   2   7   0   -4.65   18.33  89 0.78527-0.54073 0.07765 0.57681-0.56778 0.58413
   2   8  -2   15.65   22.03  89 0.78579-0.54781 0.07812 0.66982-0.56704 0.47382
   2   9  -5   10.77   28.61  91 0.79121-0.56294 0.08321 0.75903-0.55901 0.30090
   3   6   3   72.92   20.35  90 0.78818-0.41114 0.08036 0.48137-0.56352 0.75204
   3   8   0   12.15   20.75  90 0.78571-0.41851 0.07806 0.67071-0.56714 0.59146
   4   6   4  -23.07   21.75  90 0.78823-0.28568 0.08041 0.48121-0.56343 0.81353
   5   4   6   29.49   19.40  90 0.78575-0.15262 0.07809 0.29622-0.56709 0.93396
   6   0   7   98.67   21.99  90 0.78653-0.02625 0.07881-0.07932-0.56595 0.99302
   6   1   7   33.73   21.16  89 0.78503-0.02479 0.07742 0.01600-0.56814 0.99657
   7   1   7   63.15   27.18  90 0.78679 0.09487 0.07906 0.01384-0.56556 0.99924
  -1  -2 -13   14.11   19.58  91 0.79145-0.95490 0.08343-0.27338-0.55864-0.16533
  -1  -2  -7   20.90   16.21  91 0.79123-0.93598 0.08323-0.27190-0.55897 0.16559
  -1  -1 -15   57.80   21.25  90 0.78977-0.95925 0.08184-0.17847-0.56116-0.27218
  -1   4 -12   18.30   22.01  92 0.79594-0.95751 0.08770 0.28438-0.55184-0.11460
  -1   4  -8   45.25   23.45  92 0.79786-0.94703 0.08954 0.28334-0.54888 0.10260
   0  -5 -12  -10.32   21.05  91 0.79189-0.82852 0.08385-0.55501-0.55798-0.10512
   0  -5  -8   19.85   18.68  91 0.79102-0.81494 0.08302-0.55314-0.55929 0.11664
   0  -4 -16   20.34   25.03  90 0.79116-0.84166 0.08316-0.46232-0.55908-0.32495
   1  -6  -5   39.27   21.48  91 0.79435-0.68534 0.08618-0.64939-0.55426 0.28345
   3  -8  -5   13.39   24.82  91 0.79372-0.43851 0.08558-0.83591-0.55522 0.29794
   3   5   4   82.84   17.22  90 0.79025-0.41059 0.08229 0.38458-0.56044 0.80408
   3   9  -2   28.66   25.45  91 0.79393-0.43311 0.08578 0.75659-0.55490 0.46933
   4   3   6   20.96   16.26  90 0.78860-0.27814 0.08074 0.20045-0.56290 0.92297
   4   5   5   20.16   17.85  90 0.79161-0.28588 0.08358 0.38317-0.55840 0.86252
   4   7   3   40.74   22.80  91 0.79333-0.29330 0.08522 0.57031-0.55580 0.75228
   5   1   7   -0.32   21.40  92 0.79487-0.15608 0.08668 0.00724-0.55347 0.97721
   6   2   7  -20.55   20.17  91 0.78981-0.02904 0.08188 0.10550-0.56110 0.99116
   7   0   7   44.57   25.00  90 0.79047 0.09328 0.08251-0.08320-0.56011 0.99552
  -1  -2 -12  155.37   19.14  92 0.79720-0.95786 0.08888-0.27768-0.54995-0.11896
  -1   0 -15  -12.44   22.84  92 0.79847-0.96831 0.09011-0.09307-0.54798-0.28602
  -1   2 -15  -23.05   23.19  92 0.79847-0.96869 0.09011 0.09438-0.54798-0.28520
  -1   3 -14   28.53   22.26  93 0.80038-0.96725 0.09196 0.18540-0.54500-0.23021
   0  -5 -11   43.14   19.22  92 0.79587-0.82855 0.08761-0.55769-0.55198-0.05555
   0  -5 -10   19.08   19.19  92 0.79624-0.82652 0.08796-0.55865-0.55142-0.00151
   0  -5  -9  269.48   19.47  92 0.79579-0.82266 0.08753-0.55667-0.55211 0.05501
   2   3   4   20.71   15.74  91 0.79459-0.53632 0.08638 0.19549-0.55394 0.79029
   3   7   2   54.99   18.88  91 0.79620-0.42242 0.08792 0.56692-0.55148 0.68530
   4  -8  -3   21.02   32.36  93 0.80583-0.32137 0.09729-0.84840-0.53636 0.39620
   5  -5   4   29.76   30.08  93 0.80503-0.17548 0.09650-0.56598-0.53764 0.79140
   5  -4   5   61.65   23.25  92 0.79963-0.16720 0.09123-0.46720-0.54617 0.85496
   5   0   7   54.54   19.33  92 0.79631-0.15892 0.08803-0.08806-0.55132 0.97225
   5   2   7   91.10   19.01  92 0.79676-0.15994 0.08846 0.09819-0.55062 0.97196
   6  -6   3   12.26   37.32  94 0.80715-0.05795 0.09859-0.66226-0.53423 0.73948
   6  -3   6   -6.44   21.05  92 0.79614-0.03897 0.08787-0.36912-0.55157 0.92317
   6  -1   7   34.85   20.86  92 0.79662-0.03602 0.08833-0.18230-0.55084 0.97811
   6   3   7  -20.91   21.00  92 0.79690-0.03931 0.08859 0.19129-0.55041 0.97775
   6   5   6    7.97   25.01  93 0.80117-0.04187 0.09272 0.37809-0.54377 0.92260
   7  -1   7   44.53   26.44  92 0.79856 0.08457 0.09020-0.18441-0.54783 0.98167
  -1  -2 -11  226.13   18.89  93 0.80149-0.95870 0.09296-0.28138-0.54328-0.06986
  -1  -2 -10  256.86   17.62  93 0.80331-0.95768 0.09474-0.28269-0.54041-0.01842
  -1  -2  -9  416.07   18.07  93 0.80289-0.95411 0.09432-0.28180-0.54108 0.03777
  -1  -2  -8    6.76   15.63  92 0.79907-0.94695 0.09061-0.27949-0.54707 0.09841
  -1  -1 -14  -10.03   18.78  93 0.80014-0.96569 0.09165-0.18768-0.54541-0.23222
  -1   1 -15   48.41   20.54  93 0.80160-0.97202 0.09307-0.00237-0.54311-0.28993
  -1   4 -11   53.56   21.86  93 0.80209-0.96113 0.09355 0.27840-0.54233-0.06844
  -1   4 -10  104.65   21.22  94 0.80632-0.96213 0.09770 0.27346-0.53559-0.02210
  -1   4  -9  237.05   21.64  94 0.80580-0.95830 0.09718 0.27476-0.53643 0.03367
   0  -4 -15    6.09   22.57  93 0.80204-0.84838 0.09350-0.47160-0.54241-0.28574
   0   2   0 9868.34   83.07  92 0.80183-0.80181 0.09329 0.09442-0.54275 0.54409
   3  -2   5   31.93   20.51  93 0.80326-0.41776 0.09468-0.28286-0.54049 0.83659
   3   4   5  118.57   18.04  93 0.80211-0.41821 0.09357 0.28051-0.54230 0.84021
   5   6   5   14.69   21.94  92 0.80067-0.17117 0.09216 0.46915-0.54457 0.85738
   5   7   4    2.43   23.35  93 0.80183-0.17657 0.09329 0.56124-0.54274 0.79986
  -1  -1 -13    8.59   19.23  93 0.80629-0.97132 0.09766-0.19419-0.53558-0.18917
  -1  -1  -6  659.22   20.03  94 0.80614-0.94772 0.09752-0.19210-0.53582 0.19736
  -1   0 -14  -27.32   21.28  94 0.80878-0.97571 0.10013-0.10278-0.53155-0.24776
  -1   0  -5 2033.58   27.30  94 0.80792-0.94701 0.09927-0.10025-0.53295 0.24922
  -1   2  -5  997.54   26.52  95 0.81122-0.95092 0.10257 0.08395-0.52755 0.24411
  -1   3 -13   28.91   22.97  95 0.81102-0.97504 0.10237 0.17566-0.52788-0.19413
  -1   3  -6  120.59   23.04  95 0.81100-0.95392 0.10235 0.17656-0.52791 0.19043
   1  -6 -14  -15.24   23.99  94 0.80567-0.72457 0.09705-0.66134-0.53659-0.23043
   1  -6  -6   10.84   19.63  94 0.80981-0.70390 0.10116-0.66365-0.52986 0.20441
   1   8  -5   15.02   28.69  95 0.81348-0.70830 0.10485 0.64282-0.52379 0.25788
   2  -7  -5   32.40   21.82  94 0.80817-0.57606 0.09952-0.75664-0.53254 0.26866
   2   5   3  289.47   18.61  93 0.80624-0.55252 0.09761 0.36978-0.53567 0.71649
   2   6   2    1.46   17.91  94 0.80702-0.55699 0.09838 0.46276-0.53441 0.65966
   3  -8  -6  -10.87   25.29  93 0.80629-0.45304 0.09766-0.85379-0.53558 0.22232
   4  -2   6    8.42   21.54  94 0.80754-0.29601 0.09890-0.28627-0.53357 0.89144
   4   4   6   -0.15   18.80  94 0.80588-0.29664 0.09725 0.27751-0.53626 0.89673
   4   8   2    9.54   22.09  93 0.80591-0.30960 0.09728 0.65116-0.53621 0.67759
   5  -3   6   45.11   23.36  94 0.80996-0.17529 0.10131-0.38232-0.52962 0.89397
   5  -1   7   23.11   19.96  94 0.80754-0.17002 0.09890-0.19285-0.53357 0.95420
   5   3   7    4.78   20.94  94 0.80619-0.17044 0.09756 0.18314-0.53575 0.95771
   5   5   6    8.72   21.91  93 0.80629-0.17360 0.09766 0.37004-0.53559 0.90295
  -1   1 -14   16.31   19.37  95 0.81227-0.98018 0.10355-0.01241-0.52578-0.25314
  -1   2 -14   92.16   19.86  95 0.81099-0.97776 0.10225 0.08119-0.52791-0.24990
   0  -4 -14   95.99   20.43  95 0.81131-0.85376 0.10258-0.47989-0.52737-0.24525
   0  -4  -5    8.23   16.86  94 0.80975-0.82399 0.10102-0.47634-0.52994 0.25292
   1  -6 -13   26.17   22.71  95 0.81177-0.72794 0.10304-0.66840-0.52661-0.18546
   1   5   1   20.49   17.63  94 0.81139-0.68685 0.10266 0.36501-0.52724 0.59112
   1   7  -2   65.68   22.20  95 0.81398-0.69999 0.10527 0.54821-0.52293 0.42210
   2   9  -4  -13.60   28.84  96 0.81595-0.58589 0.10727 0.73482-0.51961 0.31500
   3  -7  -2   81.73   26.19  96 0.81801-0.45177 0.10938-0.76588-0.51609 0.42525
   3   1   6   46.05   17.93  94 0.81105-0.42486 0.10232-0.00862-0.52781 0.87944
   3   8   1  -14.97   23.93  95 0.81390-0.44497 0.10519 0.64305-0.52306 0.60107
   6  -2   7   -4.83   24.83  95 0.81437-0.05555 0.10567-0.29327-0.52227 0.94842
   6   4   7    7.01   23.70  95 0.81139-0.05248 0.10266 0.27124-0.52724 0.95767
  -1  -1 -12   96.32   16.97  95 0.81498-0.97448 0.10628-0.20202-0.52125-0.14655
  -1  -1  -7   48.08   17.08  96 0.81678-0.96138 0.10810-0.20330-0.51821 0.12570
  -1   0 -13  -11.91   18.06  96 0.81706-0.98183 0.10840-0.11081-0.51772-0.20764
  -1   1  -5  447.30   23.68  96 0.81842-0.95734 0.10979-0.01743-0.51540 0.23307
  -1   3 -12   22.17   21.05  96 0.81987-0.98143 0.11128 0.16744-0.51291-0.15475
   0  -4 -13  -16.40   21.86  96 0.81866-0.85797 0.11003-0.48721-0.51499-0.20402
   0  -3 -16   -4.04   23.00  96 0.81586-0.86411 0.10717-0.39099-0.51977-0.36345
   1  -6 -12   30.49   21.57  96 0.81746-0.73028 0.10881-0.67380-0.51704-0.13992
   1  -6  -7   59.42   21.37  96 0.81810-0.71480 0.10946-0.67329-0.51595 0.13580
   1   4   2  319.76   19.54  96 0.81766-0.69029 0.10900 0.26508-0.51671 0.63482
   2  -3   3  143.36   24.38  96 0.82085-0.56401 0.11229-0.39304-0.51121 0.69015
   2   4   4   87.89   17.93  96 0.81705-0.56007 0.10839 0.26651-0.51774 0.75297
   2   8  -1   38.10   22.66  95 0.81658-0.57674 0.10790 0.63921-0.51855 0.48022
   3  -8  -7    2.13   26.83  97 0.82103-0.47096 0.11248-0.86316-0.51089 0.14313
   3   0   6    9.78   16.77  96 0.81655-0.42876 0.10787-0.10788-0.51859 0.87040
   3   2   6   34.87   16.68  95 0.81471-0.42726 0.10600 0.08144-0.52171 0.87509
   3   9  -1   15.99   27.29  97 0.82023-0.45698 0.11165 0.73318-0.51228 0.48213
   4   1   7   -1.11   18.13  96 0.81606-0.30326 0.10737-0.01404-0.51943 0.93388
   4   2   7   42.90   17.84  96 0.81813-0.30557 0.10950 0.07831-0.51589 0.93038
  -1  -1 -11  163.79   17.75  97 0.82019-0.97655 0.11162-0.20729-0.51235-0.09976
  -1  -1 -10   87.11   16.84  97 0.82266-0.97664 0.11418-0.21117-0.50803-0.05077
  -1  -1  -8  326.10   18.12  97 0.82235-0.97008 0.11386-0.20957-0.50857 0.05983
  -1   1 -13   11.96   22.17  97 0.82344-0.98678 0.11500-0.02391-0.50665-0.21577
  -1   2 -13   25.40   19.38  97 0.82105-0.98531 0.11251 0.07229-0.51085-0.21199
   0  -4  -6   -0.15   16.89  97 0.82176-0.84018 0.11325-0.48965-0.50960 0.17611
   0  -3  -3  576.92   20.97  96 0.82057-0.82846 0.11201-0.39384-0.51168 0.34557
   0  -2 -17    6.03   24.20  97 0.82098-0.87371 0.11243-0.30347-0.51098-0.42805
   0   4  -1  324.28   26.49  97 0.82508-0.82979 0.11672 0.25764-0.50374 0.44960
   0   6 -14   25.71   30.78  98 0.82705-0.87252 0.11880 0.43893-0.50022-0.26861
   1  -6 -11   21.43   21.00  97 0.82137-0.73114 0.11284-0.67787-0.51029-0.09171
   1  -6  -8   24.10   21.47  97 0.82364-0.72339 0.11521-0.67816-0.50630 0.07042
   1  -5  -3  413.37   21.86  98 0.82549-0.71003 0.11715-0.58580-0.50302 0.34322
   1   1   3 1142.06   25.84  96 0.82086-0.68873 0.11231-0.01898-0.51119 0.68417
   1   6   0    3.64   21.17  97 0.82255-0.70169 0.11406 0.44740-0.50823 0.51756
   2  -7  -6    6.87   23.17  98 0.82499-0.59499 0.11662-0.76999-0.50391 0.18538
   2  -6  -2   51.72   23.82  97 0.82497-0.58277 0.11660-0.67939-0.50394 0.40576
   2   7   1   88.66   18.50  96 0.82050-0.57433 0.11193 0.54261-0.51181 0.58337
   3   6   4   27.06   17.94  96 0.82131-0.44175 0.11278 0.44795-0.51040 0.75368
   4   0   7    5.55   18.71  96 0.82069-0.30668 0.11213-0.11243-0.51148 0.92551
   4   6   5   44.00   20.33  96 0.81991-0.31423 0.11133 0.45002-0.51283 0.81915
   4   7   4   54.36   21.58  96 0.82116-0.31900 0.11263 0.54145-0.51065 0.76151
   5   4   7   17.15   20.08  97 0.82058-0.18320 0.11202 0.26318-0.51167 0.93650
   6   1   8   59.58   21.80  97 0.82172-0.05897 0.11320-0.02056-0.50968 0.99296
   6   2   8   39.48   25.10  97 0.82278-0.06101 0.11431 0.07175-0.50782 0.99077
  -1  -1  -9   30.34   16.98  97 0.82479-0.97492 0.11631-0.21121-0.50450 0.00134
  -1   0 -12  889.66   21.07  98 0.82585-0.98637 0.11743-0.11888-0.50260-0.16597
  -1   0  -6  882.46   21.84  98 0.82587-0.96774 0.11745-0.11785-0.50258 0.16493
  -1   3 -11  192.78   22.21  98 0.82809-0.98618 0.11981 0.15882-0.49856-0.11360
  -1   3  -7   49.46   19.67  98 0.82932-0.97499 0.12111 0.15842-0.49633 0.10467
   0  -4 -12   -5.52   19.08  98 0.82523-0.86099 0.11678-0.49343-0.50370-0.16010
   0  -3 -15    2.15   20.54  98 0.82610-0.87177 0.11770-0.40181-0.50215-0.32616
   1  -6 -10   41.57   19.32  97 0.82468-0.73055 0.11620-0.68005-0.50469-0.04186
   1  -6  -9    5.01   19.48  98 0.82572-0.72806 0.11729-0.68044-0.50284 0.01154
   1   2   3  800.17   22.36  97 0.82524-0.69346 0.11679 0.07061-0.50368 0.67709
   2  -7 -12   47.51   24.05  98 0.82645-0.61574 0.11806-0.77769-0.50153-0.14927
   2   1   5   91.12   17.91  98 0.82681-0.56665 0.11844-0.02596-0.50089 0.78989
   3  -8  -9   18.82   26.60  99 0.82968-0.48611 0.12150-0.87060-0.49567 0.01866
   3  -8  -8   52.26   23.09  98 0.82593-0.47888 0.11751-0.86909-0.50246 0.07923
   3   3   6  153.11   16.89  97 0.82406-0.43809 0.11555 0.16645-0.50579 0.85813
   3   5   5   54.93   18.28  98 0.82593-0.44295 0.11752 0.35028-0.50246 0.80103
   3   7   3    7.06   20.16  98 0.82668-0.45068 0.11831 0.53654-0.50111 0.69030
   4   3   7   29.81   17.79  98 0.82600-0.31303 0.11759 0.16290-0.50233 0.91730
   4   5   6   74.45   19.96  97 0.82539-0.31665 0.11695 0.35030-0.50342 0.86407
   5  -2   7   78.90   23.25  98 0.82840-0.19156 0.12013-0.30904-0.49801 0.91762
   5   7   5   19.81   25.47  98 0.82722-0.19987 0.11888 0.53343-0.50014 0.81199
   6   0   8   68.99   22.23  98 0.82597-0.06285 0.11756-0.11910-0.50238 0.98519
   6   5   7    3.61   23.57  98 0.82649-0.06818 0.11811 0.34861-0.50146 0.93098
  -1   0 -11   83.14   17.89  99 0.83166-0.98947 0.12382-0.12513-0.49186-0.12214
  -1   1 -12   86.26   18.35  99 0.83110-0.99228 0.12322-0.03127-0.49289-0.17520
  -1   2 -12  176.07   19.87  99 0.83021-0.99138 0.12227 0.06320-0.49452-0.17272
  -1   3 -10   60.20   21.52  99 0.83381-0.98882 0.12615 0.15248-0.48785-0.06882
   0  -4 -11  118.41   20.31  99 0.83004-0.86294 0.12209-0.49812-0.49484-0.11209
   0  -4  -7   75.48   17.31  99 0.83034-0.85113 0.12241-0.49734-0.49429 0.10674
   1  -5 -15  -14.96   24.25  99 0.82977-0.75145 0.12180-0.59320-0.49533-0.32734
   2  -7 -11  -12.77   23.08  99 0.83072-0.61713 0.12281-0.78170-0.49359-0.10305
   2  -7  -7   41.54   19.86  99 0.83024-0.60301 0.12230-0.77946-0.49448 0.12029
   2   2   5  648.42   18.54  98 0.82911-0.56879 0.12109 0.06543-0.49654 0.78668
   4  -8  -4   -1.84   28.86  98 0.83113-0.34739 0.12325-0.87963-0.49284 0.29704
   4   8   3   17.20   23.50  98 0.83017-0.33157 0.12223 0.62503-0.49460 0.69054
   5   1   8    7.66   19.13  99 0.83185-0.19169 0.12403-0.03109-0.49150 0.96832
   5   2   8   -5.43   22.57  99 0.83260-0.19288 0.12484 0.06172-0.49011 0.96704
   5   6   6   32.80   21.21  98 0.82884-0.19671 0.12080 0.44052-0.49704 0.86561
   6   3   8   51.88   23.39  98 0.82959-0.06712 0.12160 0.15840-0.49567 0.98040
  -1   0 -10  122.99   17.40 100 0.83610-0.99086 0.12870-0.12981-0.48350-0.07474
  -1   0  -7   44.92   17.89 100 0.83473-0.97986 0.12720-0.12805-0.48610 0.09339
  -1   1  -6  645.87   24.16 100 0.83661-0.97865 0.12927-0.03568-0.48252 0.14557
  -1   2 -11  256.94   21.92 100 0.83816-0.99581 0.13098 0.05434-0.47956-0.13262
  -1   2  -6   84.70   17.32 100 0.83456-0.97691 0.12702 0.06026-0.48641 0.15039
  -1   3  -9   87.75   21.06 100 0.83637-0.98851 0.12900 0.15053-0.48299-0.01923
  -1   3  -8  550.47   22.95 100 0.83538-0.98446 0.12792 0.15222-0.48486 0.03842
   0  -4 -10   21.23   17.02 100 0.83402-0.86308 0.12643-0.50153-0.48744-0.06376
   0  -4  -9  107.76   18.07 100 0.83454-0.86191 0.12700-0.50206-0.48645-0.01042
   0  -4  -8  253.63   18.59 100 0.83415-0.85793 0.12657-0.50143-0.48718 0.04465
   0  -3 -14   96.27   20.38 100 0.83521-0.87867 0.12773-0.41145-0.48518-0.28753
   0  -2 -16    6.44   23.24 100 0.83397-0.88246 0.12637-0.31677-0.48752-0.39551
   0  -1 -17   -3.26   23.82 100 0.83462-0.88715 0.12708-0.22434-0.48630-0.45208
   0   5  -2    3.45   25.27 101 0.84134-0.84927 0.13451 0.33283-0.47338 0.36487
   0   6  -4    7.42   33.51 103 0.84873-0.86336 0.14295 0.41779-0.45849 0.23996
   1   0   3   46.17   20.65 100 0.83487-0.70403 0.12736-0.12757-0.48582 0.65640
   2  -7 -10    4.76   22.73 100 0.83425-0.61720 0.12668-0.78423-0.48700-0.05388
   2  -7  -9   24.21   21.74  99 0.83458-0.61420 0.12704-0.78574-0.48637 0.00143
   2  -7  -8   -3.40   20.88 100 0.83425-0.61099 0.12668-0.78358-0.48700 0.05643
   2  -2   4   76.32   21.21 100 0.83676-0.57769 0.12942-0.31840-0.48225 0.71524
   2   0   5  130.98   19.16 100 0.83547-0.57450 0.12801-0.12882-0.48470 0.77341
   2   9  -3    8.12   26.16 100 0.83663-0.60298 0.12929 0.71112-0.48248 0.33414
   3  -1   6   58.53   17.31  99 0.83363-0.44501 0.12600-0.22098-0.48816 0.83975
   4  -1   7   15.09   17.13  99 0.83448-0.31978 0.12693-0.22099-0.48657 0.90046
   5   0   8  -10.36   22.50  99 0.83462-0.19662 0.12708-0.12749-0.48630 0.95877
   5   5   7   18.07   21.60  99 0.83462-0.19931 0.12708 0.33961-0.48630 0.90805
   6  -4   6    2.06   28.78 100 0.83848-0.07984 0.13133-0.50714-0.47894 0.84996
   6  -1   8   10.56   25.72 100 0.83683-0.07281 0.12951-0.22436-0.48210 0.96508
  -1   0  -9  157.28   17.02 101 0.83904-0.99007 0.13185-0.13303-0.47803-0.02518
  -1   0  -8   26.68   16.78 101 0.83894-0.98680 0.13174-0.13272-0.47823 0.03017
  -1   1 -11  177.82   17.98 101 0.83870-0.99602 0.13147-0.03988-0.47869-0.13411
   0   6 -13   -4.45   28.66 101 0.84281-0.88596 0.13607 0.42367-0.47064-0.24494
   1  -5 -14   24.25   23.20 100 0.83877-0.75750 0.13154-0.60277-0.47856-0.28800
   1  -4  -1  160.19   22.36 101 0.84194-0.71991 0.13509-0.51040-0.47237 0.42376
   1   3   3  302.06   19.86 101 0.83976-0.70856 0.13265 0.14793-0.47663 0.64973
   1   8  -4   -7.11   25.02 102 0.84360-0.73635 0.13697 0.61093-0.46907 0.25675
   2   3   5   56.53   16.64 100 0.83896-0.57998 0.13176 0.14795-0.47819 0.76779
   2   6   3   45.00   20.53 101 0.84058-0.58774 0.13357 0.42661-0.47503 0.65589
   3   4   6  124.88   18.16 100 0.83828-0.45257 0.13101 0.24270-0.47950 0.83233
   3   8   2    6.81   20.81 100 0.83893-0.46625 0.13173 0.61560-0.47824 0.61178
   3   9   0    9.02   26.03 102 0.84244-0.47629 0.13565 0.70983-0.47139 0.49612
   4   4   7    3.96   18.36 100 0.83820-0.32543 0.13092 0.24303-0.47965 0.89503
   5  -6   3    7.89   44.13 103 0.85018-0.22383 0.14453-0.70711-0.45567 0.65353
   5   3   8    5.87   21.01 100 0.83839-0.19906 0.13112 0.14887-0.47930 0.95638
   6   4   8    5.42   25.19 100 0.83875-0.07689 0.13153 0.24136-0.47860 0.96237
  -1   1 -10   91.37   16.86 102 0.84366-0.99826 0.13710-0.04574-0.46896-0.08831
  -1   1  -7   43.90   16.93 102 0.84478-0.99011 0.13837-0.04718-0.46673 0.07405
  -1   2 -10  272.96   17.73 102 0.84360-0.99853 0.13703 0.04771-0.46909-0.08868
  -1   2  -7   35.59   19.69 102 0.84484-0.99040 0.13844 0.04752-0.46661 0.07496
   0  -3 -13   14.57   18.35 102 0.84378-0.88354 0.13723-0.42075-0.46874-0.24940
   0  -3  -4 1037.98   23.11 102 0.84477-0.85616 0.13836-0.41981-0.46675 0.24573
   0  -2 -15   52.44   20.03 102 0.84446-0.89086 0.13801-0.32829-0.46736-0.36132
   0   0 -17   -7.56   23.77 102 0.84354-0.89671 0.13696-0.13994-0.46921-0.46935
   0   3   0   -2.07   21.49 102 0.84704-0.84830 0.14096 0.14022-0.46215 0.46310
   0   5 -15   -4.47   27.09 103 0.84685-0.89486 0.14074 0.32318-0.46254-0.36080
   1  -5  -4  103.27   20.89 102 0.84684-0.73404 0.14073-0.60997-0.46255 0.24801
   1  -4 -16  -38.80   26.40 102 0.84548-0.77081 0.13917-0.51729-0.46531-0.41232
   2   5   4   51.61   16.78 101 0.84279-0.58626 0.13612 0.33164-0.47069 0.70693
   2   8   0   -2.81   19.22 101 0.84301-0.59979 0.13636 0.61137-0.47027 0.48642
   4  -4   5  184.27   25.77 103 0.84813-0.33888 0.14222-0.51671-0.45992 0.76300
   6  -5   5   26.79   30.97 102 0.84735-0.09198 0.14132-0.61115-0.46151 0.77721
   6  -3   7   -0.83   26.00 102 0.84490-0.08303 0.13850-0.42175-0.46649 0.89508
  -1   1  -9   27.38   17.44 103 0.84744-0.99839 0.14155-0.04962-0.46098-0.03997
  -1   1  -8  319.53   18.71 103 0.84758-0.99603 0.14171-0.04947-0.46069 0.01383
  -1   2  -9  435.72   18.87 103 0.84729-0.99908 0.14138 0.04435-0.46129-0.04116
  -1   2  -8   10.69   16.82 103 0.84765-0.99676 0.14179 0.04462-0.46055 0.01291
   0  -2  -2 5639.68   46.76 103 0.84878-0.85466 0.14310-0.33065-0.45823 0.34656
   0  -1 -16   39.24   21.90 103 0.84739-0.89696 0.14149-0.23796-0.46108-0.42141
   0   1 -17    5.26   24.60 103 0.84796-0.90214 0.14215-0.05129-0.45991-0.47878
   0   2 -17   15.94   28.64 104 0.85115-0.90299 0.14586 0.03741-0.45330-0.47898
   0   4 -16   26.81   28.24 103 0.84909-0.90056 0.14346 0.22772-0.45759-0.42263
   1  -5 -13   43.52   21.23 103 0.84694-0.76200 0.14098-0.61134-0.46200-0.24897
   1   7  -1  103.03   20.60 102 0.84793-0.73112 0.14212 0.51195-0.45998 0.41407
   2  -5   0  350.69   29.35 104 0.85449-0.60696 0.14982-0.61863-0.44619 0.45789
   2   7   2   27.29   21.47 103 0.84863-0.59895 0.14292 0.51166-0.45855 0.58492
   3  -7  -3    2.81   23.40 104 0.85064-0.48768 0.14527-0.80239-0.45435 0.30764
   4  -8  -5   -8.36   29.94 104 0.85157-0.37274 0.14636-0.89833-0.45241 0.20111
   4  -3   6   11.59   21.45 103 0.84960-0.33597 0.14405-0.42745-0.45654 0.81646
   4   6   6   -9.57   20.36 102 0.84657-0.33782 0.14055 0.42049-0.46276 0.82371
   4   7   5    4.02   21.36 103 0.84692-0.34245 0.14095 0.51445-0.46205 0.76824
   5  -1   8   23.12   23.51 102 0.84796-0.20723 0.14215-0.23680-0.45992 0.93476
   5   4   8   -6.65   20.02 103 0.84761-0.20937 0.14175 0.23147-0.46063 0.93763
   0  -3 -12   37.17   18.51 104 0.85146-0.88728 0.14632-0.42910-0.45254-0.20979
   1  -5 -12   35.24   19.09 104 0.85244-0.76510 0.14746-0.61964-0.45049-0.20716
   1   5   2  141.31   17.06 103 0.85172-0.72470 0.14661 0.32008-0.45201 0.57092
   2  -6  -3  194.11   23.34 104 0.85459-0.61556 0.15002-0.71231-0.44588 0.29268
   2   4   5  186.65   20.05 104 0.85337-0.59375 0.14856 0.22473-0.44851 0.73920
   3   1   7  240.43   17.80 104 0.85276-0.46279 0.14784-0.05563-0.44981 0.85658
   3   2   7   62.84   17.96 104 0.85227-0.46236 0.14727 0.03889-0.45084 0.85830
   3   6   5   21.72   18.01 103 0.85033-0.46771 0.14498 0.41688-0.45493 0.75421
   3   7   4   19.35   19.74 103 0.85164-0.47276 0.14652 0.50759-0.45218 0.69565
   4   1   8   74.77   18.14 104 0.85253-0.33514 0.14758-0.05545-0.45028 0.91962
   4   2   8   30.11   19.45 103 0.85190-0.33527 0.14683 0.03955-0.45162 0.92087
   4   5   7   34.06   19.57 104 0.85285-0.34148 0.14795 0.31905-0.44961 0.86494
   4   8   4   21.68   23.05 104 0.85251-0.35099 0.14755 0.59990-0.45033 0.70140
   5   6   7   24.94   21.90 104 0.85222-0.21827 0.14720 0.41195-0.45095 0.87279
   5   7   6  -10.94   24.68 103 0.85099-0.21974 0.14575 0.50794-0.45355 0.82151
   6  -2   8   37.71   26.68 104 0.85454-0.08972 0.14996-0.34015-0.44599 0.92805
   6   1   9   17.66   24.96 104 0.85275-0.08685 0.14784-0.05607-0.44981 0.98785
   6   2   9   12.18   23.29 103 0.85150-0.08613 0.14635 0.03900-0.45248 0.98915
   0  -3 -11  300.50   17.52 105 0.85730-0.89130 0.15312-0.43430-0.44023-0.16740
   0  -2 -14  118.87   20.26 105 0.85530-0.89771 0.15071-0.33964-0.44460-0.32722
   0   0 -16    4.07   21.63 105 0.85623-0.90689 0.15183-0.15484-0.44258-0.44157
   0   6 -12    8.64   27.05 106 0.86011-0.90002 0.15654 0.40275-0.43401-0.22578
   1  -4 -15   13.86   23.50 105 0.85598-0.77792 0.15153-0.52932-0.44312-0.37839
   1   6   1  118.07   20.32 105 0.85681-0.73294 0.15253 0.40836-0.44131 0.50566
   2   9  -2    0.22   24.59 106 0.85875-0.62265 0.15487 0.68859-0.43705 0.34359
   3  -3   5  411.17   23.62 105 0.85638-0.47104 0.15200-0.43398-0.44227 0.73716
   3   3   7  258.27   20.21 105 0.85783-0.46886 0.15376 0.12575-0.43907 0.84702
   3   5   6   73.15   18.88 104 0.85541-0.46986 0.15084 0.31617-0.44437 0.79817
   4  -8  -6   -2.01   30.45 107 0.86213-0.38586 0.15903-0.90849-0.42945 0.12439
   4  -2   7   50.26   21.51 105 0.85804-0.34361 0.15401-0.34367-0.43863 0.85116
   4   3   8   -2.77   17.95 105 0.85623-0.34166 0.15183 0.12751-0.44258 0.91092
   5  -4   6   20.26   25.87 105 0.85791-0.22277 0.15385-0.52912-0.43891 0.80221
   6   3   9   46.37   24.05 105 0.85608-0.09074 0.15165 0.12732-0.44291 0.98147
   0  -3  -5  151.72   18.73 105 0.85815-0.87292 0.15415-0.43463-0.43835 0.16144
   0  -1 -15  -15.04   20.97 106 0.85920-0.90480 0.15543-0.25168-0.43601-0.39186
   0   3 -16   -4.67   23.15 106 0.85993-0.91075 0.15632 0.12131-0.43438-0.44664
   0   5 -14   12.47   25.30 106 0.86086-0.90739 0.15747 0.30884-0.43229-0.33967
   1  -5 -11   14.73   19.90 106 0.85960-0.76781 0.15593-0.62555-0.43511-0.16555
   1  -5  -5   64.16   17.73 105 0.85903-0.74894 0.15522-0.62422-0.43639 0.16649
   1   4   3  166.63   17.58 105 0.85982-0.72926 0.15619 0.21692-0.43462 0.60856
   2  -6 -13   12.82   24.70 106 0.85960-0.65079 0.15592-0.72031-0.43511-0.26933
   2  -1   5  105.36   18.01 105 0.85939-0.59833 0.15566-0.25067-0.43559 0.72396
   3  -6   0   14.54   29.89 108 0.86926-0.49733 0.16808-0.73108-0.41268 0.43154
   3   0   7  124.74   17.54 106 0.86083-0.47029 0.15743-0.15749-0.43236 0.83927
   3   8   3   17.83   22.82 106 0.86201-0.48697 0.15890 0.59043-0.42967 0.61938
   3   9   1    9.82   22.60 105 0.85929-0.49103 0.15554 0.68538-0.43582 0.51465
   4   0   8   13.91   17.88 106 0.85956-0.34219 0.15587-0.15676-0.43521 0.90469
   5  -3   7   -4.98   23.36 106 0.86095-0.22229 0.15758-0.44077-0.43208 0.85345
   5   5   8   36.69   21.82 106 0.86003-0.22196 0.15645 0.31019-0.43416 0.91185
   6   0   9   -4.75   22.62 106 0.85912-0.09277 0.15533-0.15719-0.43619 0.97569
   0  -3 -10  132.52   17.13 106 0.86275-0.89204 0.15980-0.44201-0.42799-0.12300
   0  -3  -6  612.90   20.17 107 0.86467-0.88206 0.16222-0.44417-0.42355 0.09250
   0  -2 -13   86.16   19.18 107 0.86376-0.90368 0.16107-0.35141-0.42566-0.29041
   0   1 -16   11.25   21.93 107 0.86345-0.91227 0.16068-0.07002-0.42638-0.45411
   0   2 -16   22.62   22.42 106 0.86329-0.91443 0.16048 0.02377-0.42674-0.45542
   0   4 -15    6.85   25.95 108 0.86615-0.91358 0.16409 0.20637-0.42009-0.40348
   1  -5 -10   31.95   18.65 107 0.86361-0.76920 0.16088-0.63094-0.42602-0.11991
   1  -5  -6  127.86   20.60 107 0.86477-0.75824 0.16234-0.63206-0.42333 0.09895
   1  -4 -14   -3.23   23.96 107 0.86528-0.78381 0.16298-0.54041-0.42213-0.34503
   1   8  -3   -1.51   24.82 108 0.86790-0.75808 0.16632 0.58208-0.41594 0.25990
   2  -6 -12    0.87   24.52 106 0.86416-0.65342 0.16157-0.73004-0.42475-0.22764
   2   8   1    0.29   22.77 107 0.86565-0.61999 0.16345 0.58448-0.42128 0.49289
   3  -7  -4    8.44   22.82 107 0.86562-0.50551 0.16341-0.82293-0.42134 0.21925
   3  -2   6   25.33   17.10 106 0.86340-0.47451 0.16062-0.34857-0.42649 0.77779
   4  -8  -7  -20.35   28.51 107 0.86502-0.39249 0.16266-0.91371-0.42274 0.06121
   4   4   8   82.14   22.37 107 0.86496-0.34996 0.16258 0.21135-0.42288 0.89245
   5   1   9   -8.53   20.40 107 0.86329-0.22088 0.16048-0.06825-0.42675 0.95848
   5   2   9   54.26   19.33 106 0.86218-0.21961 0.15910 0.02694-0.42929 0.96131
   5   3   9   30.70   24.18 107 0.86587-0.22307 0.16373 0.11622-0.42075 0.95419
   0  -3  -9   39.42   16.27 107 0.86587-0.89228 0.16374-0.44627-0.42063-0.07530
   0  -3  -8   55.95   16.37 108 0.86736-0.89155 0.16563-0.44745-0.41710-0.02457
   0  -3  -7  251.57   17.66 108 0.86742-0.88854 0.16571-0.44666-0.41696 0.03057
   0   0 -15   25.65   22.06 109 0.86982-0.91554 0.16880-0.17137-0.41120-0.41364
   1  -5  -9  205.79   18.39 108 0.86687-0.76951 0.16501-0.63411-0.41826-0.07175
   1  -5  -8   44.35   17.83 108 0.86772-0.76761 0.16609-0.63639-0.41625-0.01973
   1  -5  -7    1.14   17.40 108 0.86759-0.76400 0.16594-0.63606-0.41654 0.03577
   1  -3 -16   55.17   21.45 107 0.86651-0.79195 0.16455-0.44842-0.41912-0.45588
   2  -6  -4   52.90   20.92 109 0.87016-0.63345 0.16925-0.73179-0.41035 0.20257
   2   2   6  229.44   17.50 108 0.86787-0.60443 0.16628 0.01997-0.41589 0.76097
   2   6   4    0.94   18.00 108 0.86744-0.61227 0.16574 0.39517-0.41691 0.65225
   3  -4   4    9.27   25.34 108 0.87047-0.48704 0.16966-0.54511-0.40959 0.64957
   3   4   7  116.32   18.17 107 0.86696-0.47894 0.16513 0.20856-0.41805 0.82554
   4  -7  -1    3.90   33.10 110 0.87621-0.38378 0.17727-0.83456-0.39521 0.36547
   4   7   6   32.70   21.52 108 0.86764-0.35990 0.16599 0.48734-0.41643 0.77684
   5  -2   8   27.03   24.33 108 0.86785-0.22661 0.16627-0.35494-0.41592 0.89089
   5   0   9   24.66   23.12 108 0.86906-0.22572 0.16783-0.16929-0.41302 0.94417
   6  -1   9  -10.03   25.81 108 0.86902-0.10273 0.16777-0.26321-0.41312 0.95074
   0  -2 -12  161.00   17.85 109 0.87166-0.90854 0.17122-0.36073-0.40668-0.25533
   0  -1 -14   88.47   18.22 108 0.86988-0.91248 0.16891-0.26481-0.41102-0.36021
   0   6 -11   21.63   26.05 110 0.87419-0.91164 0.17457 0.38536-0.40036-0.20482
   1  -2 -17   29.65   24.98 109 0.87103-0.79980 0.17040-0.36106-0.40823-0.52246
   1   7   0   80.16   21.68 109 0.87382-0.75474 0.17409 0.47932-0.40128 0.41002
   2  -6 -11   -0.38   21.25 109 0.87117-0.65713 0.17058-0.73574-0.40789-0.18802
   2  -5 -15   43.26   24.28 109 0.87081-0.66950 0.17011-0.64258-0.40877-0.40651
   2   1   6  413.13   19.51 108 0.87012-0.60643 0.16922-0.07680-0.41044 0.75509
   2   3   6  133.39   16.39 109 0.87229-0.60934 0.17205 0.10840-0.40512 0.75036
   2   5   5   93.22   18.30 108 0.87091-0.61141 0.17025 0.29701-0.40851 0.69982
   2   7   3  116.25   21.98 109 0.87234-0.62084 0.17212 0.48184-0.40499 0.58622
   2   9  -1   16.17   28.35 110 0.87486-0.63621 0.17547 0.66610-0.39867 0.36027
   3  -7 -11   20.16   24.45 109 0.87107-0.53322 0.17045-0.83040-0.40812-0.18011
   4  -5   4   25.42   29.93 111 0.87833-0.37099 0.18018-0.65027-0.38969 0.63663
   4  -1   8   65.63   22.02 109 0.87282-0.35610 0.17275-0.26615-0.40381 0.87257
   4   6   7   51.71   20.46 108 0.86974-0.35816 0.16872 0.39225-0.41137 0.82777
   4   8   5    6.44   26.20 108 0.87079-0.36803 0.17009 0.57383-0.40881 0.71301
   5  -5   5   14.03   29.87 110 0.87660-0.24316 0.17782-0.64809-0.39421 0.70329
   5   4   9   15.33   21.02 108 0.87124-0.23095 0.17068 0.20127-0.40770 0.93821
   0  -1  -1  926.61   36.23 109 0.87360-0.87664 0.17370-0.26768-0.40182 0.34527
   0   1 -15  -15.18   20.59 110 0.87450-0.92211 0.17491-0.08382-0.39955-0.42871
   0   2 -15    0.58   23.49 111 0.87782-0.92410 0.17939 0.00475-0.39102-0.43399
   0   3 -15   20.41   20.54 110 0.87416-0.92210 0.17445 0.10353-0.40041-0.42556
   0   5 -13   46.77   23.95 111 0.87725-0.92008 0.17862 0.28679-0.39250-0.32273
   1  -4 -13   58.64   20.78 110 0.87413-0.78898 0.17441-0.55090-0.40048-0.30987
   1   2   4  185.90   18.76 109 0.87333-0.73934 0.17334 0.01319-0.40250 0.63024
   2  -6 -10   -0.25   22.44 110 0.87610-0.65871 0.17705-0.74154-0.39547-0.14510
   3  -7 -10   36.22   26.01 111 0.87739-0.53649 0.17881-0.83445-0.39213-0.13886
   3  -7  -5    6.25   22.22 110 0.87660-0.52007 0.17774-0.83423-0.39417 0.13746
   3   6   6   41.21   19.90 109 0.87393-0.48898 0.17414 0.38716-0.40100 0.75530
   3   7   5   22.03   20.03 109 0.87392-0.49248 0.17413 0.48033-0.40102 0.70007
   3   9   2   34.95   27.51 110 0.87699-0.50614 0.17826 0.66305-0.39318 0.52747
   4   5   8   37.92   23.12 110 0.87596-0.36135 0.17687 0.28968-0.39583 0.86600
   5   6   8  -72.08   25.56 110 0.87421-0.23742 0.17452 0.38580-0.40029 0.87852
   0  -2 -11  283.95   18.19 111 0.87869-0.91169 0.18056-0.37121-0.38880-0.21818
   0  -2  -3  362.37   20.43 111 0.87771-0.88616 0.17921-0.36701-0.39138 0.22454
   0  -1 -13   94.20   19.41 111 0.87855-0.91887 0.18037-0.27720-0.38916-0.32846
   0   0 -14   28.70   21.79 111 0.87931-0.92354 0.18141-0.18423-0.38716-0.38606
   0   4 -14   76.95   24.63 111 0.87939-0.92517 0.18153 0.18774-0.38694-0.38381
   1  -4  -2  210.85   21.22 111 0.87876-0.75938 0.18067-0.55648-0.38860 0.28461
   1  -3 -15   30.23   19.27 110 0.87693-0.79888 0.17815-0.46182-0.39341-0.42656
   1  -2   2 1637.98   51.78 112 0.88290-0.75223 0.18646-0.37521-0.37745 0.49389
   1  -1   3 1134.36   28.91 111 0.87860-0.74514 0.18044-0.27500-0.38903 0.56149
   1   1   4 1594.32   25.71 110 0.87721-0.74215 0.17854-0.08627-0.39267 0.62069
   1   3   4  294.53   19.61 111 0.87836-0.74444 0.18011 0.10097-0.38966 0.61777
   2  -6  -9   39.85   22.66 111 0.88027-0.65926 0.18275-0.74604-0.38460-0.09900
   2  -6  -5   50.46   17.68 111 0.87791-0.64412 0.17950-0.74275-0.39083 0.12847
   2  -5 -14    4.33   25.10 110 0.87784-0.67399 0.17939-0.65559-0.39103-0.37356
   3  -7  -9   21.61   24.94 111 0.87906-0.53445 0.18107-0.84040-0.38782-0.09026
   3  -7  -6   86.12   24.14 112 0.88102-0.52741 0.18380-0.84034-0.38259 0.07096
   3  -1   7  263.63   18.11 110 0.87706-0.48685 0.17833-0.27352-0.39306 0.79873
   3   5   7   45.76   18.94 111 0.87880-0.49069 0.18072 0.28577-0.38850 0.79603
   3   8   4   57.78   25.49 111 0.87954-0.50225 0.18174 0.56453-0.38655 0.63000
   6  -6   4   15.84   40.77 112 0.88347-0.13110 0.18727-0.75053-0.37588 0.63551
   6  -4   7    4.87   30.12 113 0.88350-0.11929 0.18732-0.56624-0.37579 0.80487
   6  -3   8    3.36   26.97 112 0.88120-0.11603 0.18405-0.46813-0.38209 0.86589
   6   1  10   18.84   26.75 111 0.87931-0.11028 0.18142-0.08986-0.38716 0.98159
   6   2  10    4.61   24.42 110 0.87741-0.10896 0.17881 0.00650-0.39214 0.98628
   0   4   0  287.50   22.40 112 0.88326-0.88502 0.18707 0.18752-0.37623 0.37815
   1  -4 -12   -7.57   19.00 112 0.88093-0.79301 0.18378-0.56064-0.38259-0.27432
   1  -2 -16    2.10   23.45 112 0.88182-0.80791 0.18504-0.37618-0.38016-0.49637
   1  -1 -17   44.66   25.79 113 0.88364-0.81222 0.18762-0.28459-0.37516-0.55298
   1   5   3  551.11   19.63 112 0.88135-0.75124 0.18437 0.28383-0.38145 0.55544
   1   6   2    5.89   20.40 112 0.88305-0.75698 0.18678 0.37444-0.37680 0.49617
   2  -6  -8   15.14   18.92 112 0.88175-0.65760 0.18493-0.74958-0.38036-0.04911
   2  -6  -7   21.62   21.71 112 0.88253-0.65513 0.18604-0.75051-0.37822 0.00385
   2  -6  -6  128.69   18.76 112 0.88155-0.65131 0.18465-0.74825-0.38091 0.06177
   2   0   6    4.37   16.82 112 0.88113-0.61624 0.18407-0.18437-0.38203 0.72791
   2   4   6   72.27   17.59 112 0.88128-0.61912 0.18427 0.19041-0.38164 0.72714
   3  -7  -8   28.85   21.42 112 0.88135-0.53348 0.18437-0.84274-0.38146-0.04123
   3  -7  -7   15.48   20.07 111 0.88127-0.53052 0.18426-0.84333-0.38166 0.01390
   3   2   8   16.20   17.79 111 0.88141-0.48839 0.18445 0.00210-0.38129 0.84353
   4   1   9    4.38   18.37 112 0.88148-0.36259 0.18455-0.09207-0.38110 0.90476
   4   2   9  -16.23   17.98 112 0.88044-0.36111 0.18310 0.00337-0.38390 0.91055
   4   3   9    7.40   19.49 112 0.88196-0.36327 0.18523 0.09455-0.37979 0.90536
   5  -1   9    6.63   19.89 112 0.88113-0.23714 0.18407-0.27956-0.38203 0.91392
   5   5   9   19.70   23.52 112 0.88115-0.24050 0.18408 0.28219-0.38200 0.91511
   0  -2 -10   -2.62   17.18 113 0.88451-0.91482 0.18891-0.37807-0.37269-0.18053
   0   1 -14   76.75   22.25 113 0.88620-0.93023 0.19136-0.10111-0.36790-0.40383
   0   3 -14   30.35   23.93 114 0.88714-0.93200 0.19273 0.08505-0.36521-0.40554
   0   5  -1  103.16   22.93 113 0.88767-0.89337 0.19351 0.27434-0.36369 0.30951
   0   6 -10    4.59   25.19 113 0.88697-0.92216 0.19249 0.36801-0.36569-0.18481
   1  -3 -14   36.04   19.13 113 0.88571-0.80487 0.19064-0.47484-0.36931-0.39674
   1   8  -2   14.75   23.49 112 0.88472-0.77181 0.18921 0.55760-0.37211 0.27135
   2   8   2   -3.94   19.81 113 0.88424-0.63676 0.18852 0.55968-0.37344 0.49937
   3   1   8   56.25   17.53 112 0.88411-0.49077 0.18834-0.09550-0.37379 0.83611
   3   3   8   68.82   16.80 112 0.88418-0.49182 0.18844 0.09138-0.37360 0.83724
   5   2  10   68.58   23.74 113 0.88608-0.24063 0.19118-0.00552-0.36825 0.95535
   6  -2   9    8.06   26.26 113 0.88655-0.11723 0.19186-0.38221-0.36692 0.90669
   6   0  10    3.46   23.47 113 0.88451-0.11571 0.18891-0.19090-0.37269 0.96574
   0  -1 -12  271.57   19.14 114 0.88748-0.92390 0.19323-0.28925-0.36424-0.29747
   0   2 -14   83.25   23.38 114 0.88854-0.93358 0.19480-0.01175-0.36117-0.41040
   0   5 -12   22.63   26.10 114 0.88994-0.93073 0.19690 0.26936-0.35702-0.30433
   0   6  -3   45.76   30.68 115 0.89229-0.90448 0.20048 0.35981-0.34992 0.18651
   1  -4 -11   28.27   19.63 114 0.88744-0.79638 0.19318-0.56988-0.36435-0.23643
   2  -5 -13   40.52   22.08 114 0.88779-0.67962 0.19369-0.66526-0.36335-0.34132
   2   6   5   10.39   20.53 115 0.89022-0.63154 0.19732 0.36621-0.35619 0.64977
   2   9   0   23.21   25.13 114 0.88907-0.64797 0.19559 0.64460-0.35960 0.37652
   4   0   9  -13.71   18.71 114 0.88808-0.36866 0.19411-0.19502-0.36252 0.88529
   4   4   9   17.34   19.53 113 0.88740-0.36919 0.19311 0.18023-0.36449 0.89039
   4   6   8   46.05   20.38 113 0.88801-0.37490 0.19401 0.36453-0.36272 0.83204
   4   7   7    8.59   21.08 114 0.88756-0.37576 0.19334 0.46330-0.36403 0.78298
   4   8   6   16.01   26.56 115 0.88994-0.38254 0.19689 0.55320-0.35703 0.72084
   5   1  10   -3.69   21.80 114 0.88795-0.24274 0.19392-0.10189-0.36290 0.94885
   5   3  10   18.65   23.22 114 0.88767-0.24275 0.19351 0.08572-0.36369 0.95141
   0  -2  -9   54.73   16.09 114 0.88982-0.91658 0.19669-0.38540-0.35745-0.13877
   0  -2  -4  570.54   20.97 114 0.89005-0.90121 0.19705-0.38561-0.35674 0.13461
   0   0 -13    5.77   17.43 115 0.89042-0.92981 0.19761-0.19985-0.35564-0.35856
   0   4 -13   -7.06   22.33 115 0.89202-0.93491 0.20005 0.17183-0.35079-0.36523
   1  -2 -15   19.78   23.41 115 0.89267-0.81481 0.20105-0.39112-0.34880-0.47063
   1   0 -17    9.31   23.12 115 0.89112-0.82146 0.19866-0.20268-0.35355-0.57771
   1   4   4  139.52   17.40 114 0.88925-0.75569 0.19584 0.17859-0.35912 0.58813
   2   7   4    7.07   19.25 115 0.89140-0.63656 0.19909 0.45542-0.35269 0.58966
   3  -6 -13   12.55   24.40 114 0.89084-0.55955 0.19825-0.76528-0.35437-0.34455
   3   0   8  208.37   20.60 115 0.89208-0.49866 0.20013-0.20023-0.35062 0.81228
   3   4   8   46.61   18.01 114 0.89003-0.49850 0.19701 0.17695-0.35682 0.82027
   3   7   6   34.99   22.78 115 0.89145-0.50764 0.19917 0.45374-0.35254 0.70594
   3   9   3  -37.30   27.30 115 0.89198-0.51853 0.19998 0.64263-0.35092 0.53951
   4  -3   7   31.44   21.72 114 0.89082-0.37499 0.19821-0.48043-0.35444 0.76716
   5   4  10    9.42   25.73 115 0.89202-0.24781 0.20005 0.17264-0.35080 0.93863
   6  -5   6    5.86   35.23 115 0.89388-0.13450 0.20293-0.67291-0.34505 0.71532
   0  -2  -8  518.74   18.32 116 0.89360-0.91725 0.20242-0.39078-0.34610-0.09635
   0  -1 -11  205.10   17.90 116 0.89470-0.92855 0.20413-0.29978-0.34267-0.26485
   0   2   1 1058.53   29.87 116 0.89401-0.89160 0.20306-0.01523-0.34482 0.40119
   1  -4 -10   59.98   18.74 115 0.89315-0.79875 0.20171-0.57799-0.34752-0.19767
   1  -4  -3   93.78   20.86 116 0.89443-0.77856 0.20371-0.57942-0.34351 0.18355
   1  -3 -13   82.31   18.88 116 0.89402-0.81015 0.20307-0.48690-0.34480-0.36669
   1  -1 -16   11.35   21.81 116 0.89390-0.82013 0.20287-0.30026-0.34519-0.53091
   1   0   4 3534.14   34.95 115 0.89354-0.75746 0.20231-0.20322-0.34630 0.57444
   1   7   1   44.29   18.18 115 0.89355-0.77123 0.20234 0.45127-0.34626 0.41073
   2  -5 -12    1.97   19.35 116 0.89421-0.68292 0.20336-0.67600-0.34421-0.30797
   2  -4 -15   31.80   22.62 116 0.89330-0.69196 0.20195-0.57945-0.34703-0.46595
   2   5   6   -5.53   17.32 116 0.89342-0.63219 0.20213 0.26597-0.34668 0.69316
   3   6   7    8.43   18.67 115 0.89281-0.50498 0.20118 0.35950-0.34858 0.75759
   4  -2   8   20.32   18.35 115 0.89330-0.37508 0.20194-0.39041-0.34706 0.81572
   4   5   9   18.53   23.12 116 0.89541-0.37761 0.20526 0.26200-0.34039 0.86700
   5  -3   8  -20.09   25.00 116 0.89503-0.25351 0.20466-0.48745-0.34161 0.81714
   5   0  10   12.20   21.72 116 0.89428-0.24792 0.20348-0.20496-0.34398 0.93022
   6  -1  10   18.80   26.72 115 0.89388-0.12593 0.20285-0.29824-0.34523 0.93613
   0  -2  -7  294.71   17.49 116 0.89623-0.91661 0.20646-0.39472-0.33799-0.04932
   0  -2  -6    3.80   16.57 116 0.89665-0.91441 0.20714-0.39559-0.33663 0.00478
   0  -2  -5  951.29   21.56 116 0.89539-0.90985 0.20512-0.39324-0.34069 0.06347
   0   1 -13   75.53   18.62 117 0.89665-0.93709 0.20713-0.11644-0.33665-0.38004
   0   3 -13   31.51   22.83 117 0.89836-0.94051 0.20991 0.06863-0.33103-0.38608
   0   6  -9   49.17   28.50 119 0.90190-0.93301 0.21583 0.34271-0.31894-0.17573
   1  -4  -9   -4.42   17.43 117 0.89695-0.80044 0.20762-0.58493-0.33565-0.15673
   1   1 -17   -1.20   23.45 117 0.89672-0.82691 0.20725-0.11741-0.33642-0.59519
   1   8 -11    7.53   38.98 119 0.90339-0.81823 0.21840 0.52703-0.31365-0.28348
   2  -5  -1   70.25   20.15 117 0.89862-0.65235 0.21034-0.67939-0.33016 0.28867
   2  -2   5  632.73   23.97 117 0.89757-0.63475 0.20862-0.39607-0.33364 0.62301
   2   2   7  255.81   17.08 116 0.89591-0.62967 0.20595-0.01879-0.33904 0.73970
   2   3   7  385.02   18.09 117 0.89704-0.63128 0.20777 0.07346-0.33536 0.73581
   3  -6 -12    7.55   25.30 117 0.89764-0.56272 0.20874-0.77591-0.33341-0.31083
   3   8   5   21.67   20.52 116 0.89597-0.51541 0.20605 0.54163-0.33883 0.63827
   4  -7  -2   11.87   27.92 118 0.90056-0.41154 0.21357-0.86952-0.32358 0.23877
   4  -4   6   10.80   24.85 117 0.89895-0.38665 0.21089-0.58567-0.32904 0.68544
   5  -4   7    0.03   26.50 118 0.90057-0.26079 0.21357-0.59071-0.32357 0.74428
   5  -2   9   47.30   24.56 117 0.89744-0.25252 0.20842-0.39750-0.33405 0.86437
   0   0 -12  340.76   17.95 117 0.89878-0.93544 0.21059-0.21275-0.32972-0.33146
   0   2 -13   60.64   19.26 118 0.89959-0.94083 0.21193-0.02831-0.32698-0.38984
   0   3   1 2307.52   33.06 117 0.89896-0.89736 0.21089 0.07098-0.32911 0.38528
   1   2 -17  -10.01   23.74 118 0.89927-0.82982 0.21140-0.02767-0.32807-0.60310
   1   8  -1   19.30   21.64 118 0.90074-0.78511 0.21385 0.53442-0.32306 0.27742
   2  -5 -11   10.69   22.18 118 0.90016-0.68612 0.21289-0.68622-0.32503-0.27143
   2  -3 -16    5.60   21.81 118 0.90028-0.70238 0.21309-0.49815-0.32462-0.54529
   2  -1   6  428.74   22.56 118 0.90015-0.63456 0.21286-0.30730-0.32509 0.66960
   2   1   7  290.61   18.69 117 0.89937-0.63207 0.21157-0.11795-0.32771 0.72804
   2   8   3   24.83   19.76 118 0.89957-0.64818 0.21190 0.53595-0.32704 0.50897
   3  -2   7   40.74   20.98 118 0.90140-0.50929 0.21497-0.40295-0.32076 0.72753
   3   5   8   35.61   18.74 117 0.89879-0.50693 0.21061 0.25756-0.32967 0.79451
   4  -1   9    5.97   21.87 118 0.90073-0.38000 0.21384-0.30850-0.32309 0.84733
   5   5  10  -14.80   24.15 118 0.89910-0.25573 0.21111 0.25576-0.32865 0.91771
   0  -1 -10   53.71   17.12 119 0.90172-0.93193 0.21556-0.31070-0.31965-0.23208
   0   4 -12   16.66   22.62 118 0.90258-0.94346 0.21703 0.15661-0.31662-0.34701
   0   5 -11   33.06   22.37 119 0.90385-0.94003 0.21923 0.24630-0.31209-0.29284
   1  -4  -8   52.06   16.50 118 0.90134-0.80083 0.21492-0.59091-0.32095-0.11425
   1  -4  -7  168.11   20.51 119 0.90374-0.80067 0.21904-0.59454-0.31247-0.06756
   1  -4  -4  754.55   20.76 119 0.90174-0.78925 0.21559-0.59093-0.31957 0.10445
   1  -3 -12    0.01   17.76 119 0.90176-0.81419 0.21562-0.49884-0.31952-0.33708
   1  -2 -14   20.18   19.37 119 0.90183-0.82049 0.21575-0.40553-0.31925-0.44571
   1   0 -16  -10.93   21.45 119 0.90220-0.82900 0.21637-0.21995-0.31798-0.55909
   1   2   5  970.42   21.03 119 0.90307-0.76566 0.21787-0.03184-0.31489 0.59785
   1   5   4   31.17   17.53 119 0.90253-0.76933 0.21695 0.25083-0.31679 0.54580
   1   6   3  118.88   17.58 118 0.90211-0.77241 0.21622 0.34480-0.31828 0.49279
   2  -4 -14   21.00   21.67 118 0.90134-0.69682 0.21492-0.59306-0.32095-0.43882
   2  -2 -17   23.61   27.02 120 0.90427-0.70963 0.21996-0.41047-0.31057-0.61063
   2   4   7    8.68   18.25 118 0.90203-0.63597 0.21609 0.15799-0.31855 0.71951
   2   9   1   18.46   21.39 119 0.90205-0.65730 0.21613 0.62518-0.31848 0.39043
   3  -6  -1   32.82   24.44 120 0.90478-0.53591 0.22087-0.78410-0.30868 0.27217
   3  -3   6  144.33   24.00 119 0.90461-0.51602 0.22057-0.50231-0.30931 0.65974
   4   2  10   28.40   19.03 118 0.90151-0.37830 0.21520-0.02846-0.32037 0.90223
   4   3  10   -1.11   21.81 119 0.90187-0.38057 0.21581 0.06419-0.31913 0.89992
   4   7   8   -3.08   23.71 119 0.90203-0.38897 0.21609 0.43837-0.31855 0.78972
   0   1 -12  278.63   18.57 120 0.90549-0.94355 0.22201-0.13052-0.30629-0.35539
   1  -4  -6  260.91   18.10 120 0.90475-0.79931 0.22071-0.59585-0.30899-0.01551
   1  -4  -5  273.13   18.44 120 0.90461-0.79542 0.22046-0.59562-0.30952 0.03958
   1  -1 -15   20.11   20.47 120 0.90440-0.82708 0.22008-0.31674-0.31029-0.50837
   1   3   5  675.14   20.11 119 0.90418-0.76747 0.21970 0.06001-0.31109 0.59463
   2   6   6   46.11   20.18 120 0.90592-0.64386 0.22278 0.33880-0.30469 0.65164
   3  -6 -11   15.56   21.77 120 0.90457-0.56618 0.22039-0.78458-0.30965-0.27770
   3  -1   8   71.70   20.00 120 0.90623-0.51280 0.22334-0.31864-0.30352 0.76474
   3   2   9   42.03   17.58 119 0.90371-0.50776 0.21887-0.03246-0.31279 0.83069
   3   3   9   30.37   18.47 119 0.90443-0.50879 0.22013 0.06056-0.31019 0.82915
   3   9   4   39.88   24.44 120 0.90462-0.52758 0.22047 0.62111-0.30949 0.55422
   4   1  10   17.22   18.90 120 0.90438-0.38150 0.22006-0.12720-0.31035 0.89187
   4   4  10   -9.75   20.83 120 0.90487-0.38415 0.22092 0.15246-0.30855 0.88843
   4   6   9   14.00   22.99 120 0.90483-0.38764 0.22084 0.34019-0.30873 0.83564
   5  -1  10    5.05   21.93 119 0.90445-0.25762 0.22018-0.31497-0.31009 0.89584
   5   2  11   30.79   22.84 120 0.90519-0.25673 0.22148-0.03543-0.30739 0.94965
   5   3  11   35.71   22.02 120 0.90531-0.25781 0.22169 0.05768-0.30696 0.94872
   6  -3   9   23.82   27.98 120 0.90622-0.13920 0.22333-0.50576-0.30354 0.83982
   0  -1  -9  545.88   18.60 121 0.90721-0.93517 0.22515-0.31922-0.29972-0.19654
   0   0 -11   36.91   17.22 120 0.90665-0.94025 0.22412-0.22612-0.30187-0.30358
   1  -3 -11   60.16   17.24 121 0.90790-0.81809 0.22642-0.51025-0.29707-0.30447
   1  -3   0   87.10   25.75 122 0.91020-0.78546 0.23074-0.51313-0.28794 0.29309
   1   1 -16  -20.09   22.37 121 0.90748-0.83512 0.22564-0.13567-0.29869-0.57869
   1   4 -16    5.21   24.48 121 0.90728-0.83581 0.22527 0.14611-0.29946-0.57615
   1   7   2  100.58   21.49 121 0.90892-0.78302 0.22831 0.42582-0.29308 0.41391
   2  -5 -10   46.57   18.84 120 0.90659-0.68919 0.22401-0.69414-0.30209-0.23646
   2   7   5  153.03   19.45 120 0.90658-0.64877 0.22400 0.42994-0.30211 0.59423
   3  -5 -14    7.02   24.27 121 0.90723-0.57885 0.22518-0.69692-0.29966-0.45291
   3   1   9   25.10   17.46 120 0.90684-0.51018 0.22446-0.13104-0.30115 0.81898
   3   4   9   30.87   17.90 121 0.90760-0.51239 0.22586 0.14817-0.29823 0.81665
   3   6   8   24.05   21.98 121 0.90843-0.51726 0.22741 0.33426-0.29499 0.75982
   3   7   7   22.11   20.23 120 0.90662-0.51912 0.22407 0.43041-0.30198 0.71116
   4  -7  -9   24.09   24.04 121 0.90723-0.43955 0.22518-0.88436-0.29965-0.17138
   4  -7  -3   12.99   24.72 121 0.90785-0.42158 0.22632-0.88556-0.29727 0.15728
   5  -7   0   17.74   40.84 125 0.91610-0.29826 0.24268-0.89937-0.26238 0.29448
   5   1  11   12.28   22.40 120 0.90725-0.25843 0.22521-0.13262-0.29959 0.94010
   5   4  11   13.21   26.74 121 0.90784-0.26116 0.22630 0.14625-0.29731 0.93866
   6  -2  10   -8.31   26.24 121 0.90840-0.13885 0.22734-0.41605-0.29513 0.88751
   0  -1  -2 1371.54   34.20 122 0.90956-0.91574 0.22953-0.32374-0.29043 0.17778
   0   2 -12  150.16   18.50 122 0.90938-0.94728 0.22921-0.04429-0.29112-0.36963
   0   3 -12   43.70   18.46 122 0.90927-0.94762 0.22898 0.04936-0.29160-0.36907
   0   4   1  334.91   22.23 122 0.91137-0.91008 0.23304 0.14117-0.28300 0.33999
   0   5   0   -3.05   21.95 122 0.91116-0.91331 0.23262 0.23441-0.28389 0.28533
   0   6  -8    5.96   29.41 122 0.91224-0.94076 0.23475 0.32618-0.27936-0.16078
   0   6  -2   59.82   25.60 123 0.91275-0.92159 0.23577 0.32438-0.27718 0.16949
   1  -2 -13   21.09   18.20 122 0.90948-0.82560 0.22938-0.41943-0.29075-0.41987
   1   1   5  440.06   19.76 121 0.90863-0.77069 0.22778-0.13563-0.29412 0.57673
   1   2 -16   34.67   25.68 122 0.91095-0.83836 0.23220-0.04884-0.28478-0.58907
   1   3 -16   51.81   25.73 122 0.91118-0.83883 0.23266 0.04333-0.28381-0.58929
   1   4   5  162.47   17.44 121 0.90944-0.77278 0.22932 0.14400-0.29088 0.57505
   1   8   0   10.37   24.55 123 0.91181-0.79279 0.23390 0.51411-0.28118 0.29070
   2  -5  -9  121.91   21.00 122 0.91096-0.69070 0.23223-0.70197-0.28472-0.19889
   2  -4 -13    5.70   20.25 122 0.90948-0.70175 0.22938-0.60528-0.29075-0.41068
   2  -3 -15   37.54   22.00 122 0.90925-0.70781 0.22895-0.51329-0.29166-0.52221
   2  -3   4    5.88   25.38 123 0.91326-0.65316 0.23679-0.51864-0.27499 0.50874
   2   0   7   81.85   17.22 121 0.90884-0.64191 0.22818-0.22917-0.29329 0.69243
   2   5   7  272.50   18.79 122 0.90964-0.64406 0.22969 0.23783-0.29009 0.69160
   3  -6 -10  -15.53   22.66 121 0.90889-0.56789 0.22827-0.79398-0.29309-0.23990
   3   8   6   13.93   21.98 122 0.90948-0.52619 0.22938 0.51980-0.29075 0.64635
   4  -7  -8   19.09   26.98 122 0.91102-0.44070 0.23235-0.88937-0.28447-0.13043
   4   0  10   12.83   19.38 121 0.90964-0.38641 0.22968-0.23023-0.29011 0.86853
   4   5  10   33.86   19.85 122 0.91010-0.38978 0.23057 0.23591-0.28824 0.86820
   6  -4   8   27.10   28.96 122 0.91006-0.14509 0.23049-0.60666-0.28840 0.76935
   0  -1  -8   30.76   17.87 123 0.91193-0.93655 0.23423-0.32897-0.28064-0.16042
   0   1   1  960.13   37.11 122 0.91081-0.90765 0.23204-0.13776-0.28531 0.34241
   0   5 -10   22.78   24.87 123 0.91334-0.94807 0.23706 0.23015-0.27460-0.27696
   1  -1 -14   10.66   20.32 123 0.91248-0.83250 0.23533-0.33227-0.27830-0.48750
   1   0 -15   -3.10   20.93 123 0.91188-0.83536 0.23414-0.23763-0.28084-0.54076
   1   5 -15   10.15   28.07 123 0.91329-0.83902 0.23695 0.22650-0.27484-0.54240
   1   6 -14   15.43   30.17 124 0.91468-0.83758 0.23982 0.31721-0.26868-0.49325
   2  -5  -2   36.70   20.92 123 0.91268-0.67009 0.23573-0.70522-0.27745 0.17964
   2  -2 -16   -8.06   21.50 123 0.91211-0.71456 0.23460-0.42675-0.27986-0.59244
   2  -1 -17  -16.17   26.48 123 0.91285-0.71877 0.23606-0.33414-0.27674-0.64841
   2   8   4   -2.01   19.89 123 0.91174-0.65769 0.23387 0.51459-0.28142 0.51735
   2   9   2   20.41   25.79 123 0.91235-0.66449 0.23506 0.60620-0.27887 0.40596
   3  -6  -9   26.90   24.16 124 0.91387-0.56929 0.23814-0.80139-0.27228-0.20461
   4  -7  -7  -12.30   25.61 123 0.91273-0.44003 0.23582-0.89387-0.27726-0.08436
   4  -7  -4   63.95   24.32 123 0.91319-0.42935 0.23675-0.89432-0.27526 0.08059
   5   0  11   15.31   23.42 124 0.91392-0.26238 0.23825-0.23970-0.27205 0.91716
   0   0 -10  207.14   17.00 123 0.91337-0.94417 0.23703-0.23816-0.27477-0.27604
   0   1 -11  197.62   18.60 124 0.91387-0.94781 0.23805-0.14639-0.27258-0.33405
   0   4 -11  121.39   22.11 124 0.91433-0.95045 0.23900 0.13287-0.27054-0.33587
   1  -3 -10   76.95   18.05 124 0.91395-0.82064 0.23822-0.52113-0.27222-0.27247
   2  -5  -8   10.09   17.78 124 0.91433-0.69072 0.23902-0.70991-0.27051-0.15874
   2  -4 -12   32.75   21.68 125 0.91565-0.70469 0.24177-0.61816-0.26458-0.38305
   2   2   8   39.54   16.76 124 0.91471-0.64509 0.23979-0.05266-0.26884 0.72435
   2   3   8  156.49   17.51 124 0.91446-0.64452 0.23927 0.04092-0.26997 0.72634
   2  10  -1    9.73   31.11 124 0.91516-0.67663 0.24074 0.69076-0.26679 0.22837
   3  -6  -2   35.44   24.48 125 0.91634-0.54986 0.24325-0.80673-0.26136 0.17118
   3  -5 -13   47.23   22.18 123 0.91375-0.58247 0.23781-0.71009-0.27310-0.42486
   3   0   9   14.80   18.15 123 0.91373-0.51665 0.23777-0.23798-0.27319 0.79042
   3   5   9   80.35   19.50 123 0.91327-0.51889 0.23683 0.22990-0.27521 0.79443
   3   9   5  -10.25   27.19 124 0.91495-0.53532 0.24029 0.60202-0.26777 0.56643
   4  -7  -6   28.49   21.56 124 0.91411-0.43712 0.23855-0.89709-0.27152-0.03401
   4  -7  -5   14.07   24.48 124 0.91452-0.43476 0.23940-0.89702-0.26968 0.01956
   4   7   9   -0.25   24.46 123 0.91398-0.39715 0.23829 0.41511-0.27208 0.79744
   0  -1  -7  390.16   18.10 125 0.91595-0.93709 0.24259-0.33714-0.26295-0.12304
   1  -2 -12   16.27   18.29 125 0.91625-0.82951 0.24322-0.43340-0.26157-0.39443
   1   1 -15   20.67   22.49 125 0.91736-0.84128 0.24565-0.15567-0.25629-0.56341
   1   6   4   90.77   16.90 124 0.91601-0.78338 0.24272 0.31765-0.26267 0.49300
   1   8 -10   -4.98   38.88 128 0.92303-0.83453 0.25913 0.48479-0.22645-0.31459
   2  -5  -7  119.06   21.24 125 0.91751-0.69004 0.24598-0.71607-0.25558-0.11731
   2  -3 -14  -25.25   20.47 125 0.91620-0.71220 0.24313-0.52817-0.26176-0.49931
   3  -6  -8   83.47   23.94 125 0.91710-0.56970 0.24508-0.80868-0.25754-0.16341
   3  -4 -15    0.92   24.94 125 0.91608-0.59114 0.24286-0.62139-0.26235-0.54514
   4  -3   8   -0.05   22.40 125 0.91791-0.39934 0.24688-0.52874-0.25360 0.72181
   4  -2   9   21.05   22.57 125 0.91697-0.39513 0.24479-0.43363-0.25816 0.78356
   4   2  11   12.55   19.01 125 0.91675-0.39140 0.24431-0.05769-0.25921 0.89459
   4   3  11   22.51   21.64 124 0.91614-0.39129 0.24300 0.03702-0.26205 0.89627
   4   6  10  -26.38   25.74 125 0.91697-0.39733 0.24479 0.31635-0.25816 0.83967
   5  -5   6   19.11   30.94 125 0.91831-0.28149 0.24778-0.71743-0.25164 0.61597
   5  -3   9    3.61   25.02 125 0.91781-0.27315 0.24665-0.52876-0.25410 0.78402
   0  -1  -6  381.55   18.47 126 0.91875-0.93702 0.24881-0.34309-0.24942-0.08161
   0  -1  -3  517.67   24.07 126 0.91859-0.92763 0.24846-0.34225-0.25021 0.08382
   0   0  -9  242.21   20.16 126 0.91908-0.94685 0.24958-0.25145-0.24773-0.24785
   0   2 -11  281.52   18.29 126 0.91770-0.95205 0.24645-0.06214-0.25459-0.35172
   0   3 -11  333.41   19.07 126 0.91808-0.95354 0.24730 0.03061-0.25273-0.35320
   1  -3  -9   13.43   17.43 126 0.91859-0.82191 0.24846-0.53158-0.25021-0.24050
   1   4 -15    0.86   25.46 126 0.91859-0.84406 0.24846 0.12235-0.25021-0.56932
   1   5   5   53.46   17.18 125 0.91747-0.78159 0.24595 0.22202-0.25569 0.54052
   2  -5  -6  159.63   21.34 127 0.91954-0.68917 0.25065-0.72020-0.24538-0.07192
   2  -5  -3  201.71   18.63 126 0.91810-0.67934 0.24736-0.71637-0.25261 0.10028
   2   1   8  211.01   18.30 126 0.91833-0.64853 0.24787-0.15412-0.25148 0.70648
   2   4   8   91.65   17.84 125 0.91721-0.64883 0.24538 0.12945-0.25694 0.71327
   2   6   7    7.70   18.28 126 0.91825-0.65343 0.24768 0.31371-0.25191 0.65388
   2   7   6   64.03   19.79 125 0.91796-0.65710 0.24703 0.40733-0.25334 0.60012
   3  -6  -7   28.31   22.93 126 0.91910-0.56843 0.24962-0.81519-0.24764-0.12017
   3   3  10   67.47   18.04 126 0.91860-0.52082 0.24848 0.03225-0.25014 0.82266
   3   7   8   -3.95   21.37 126 0.91795-0.52811 0.24702 0.40773-0.25336 0.71710
   3   8   7    8.56   25.03 127 0.91983-0.53234 0.25132 0.50016-0.24390 0.65594
   4   4  11  -10.12   21.55 125 0.91795-0.39355 0.24702 0.12624-0.25336 0.88780
   5  -2  10   28.38   22.72 125 0.91773-0.27043 0.24652-0.43502-0.25445 0.83992
   5   3  12   -3.38   26.40 126 0.91890-0.26835 0.24917 0.03040-0.24863 0.94639
   0  -1  -5   87.68   17.47 127 0.92054-0.93566 0.25307-0.34727-0.24010-0.03665
   0   1 -10   57.62   17.11 127 0.92033-0.95220 0.25257-0.16069-0.24120-0.31004
   1  -1 -13   29.23   19.46 127 0.91984-0.83647 0.25141-0.34809-0.24378-0.46694
   1   0 -14   33.31   18.74 127 0.91997-0.84047 0.25172-0.25513-0.24309-0.52286
   1   2 -15   33.12   21.38 127 0.92003-0.84446 0.25186-0.06827-0.24278-0.57742
   1   3 -15   28.11   24.12 127 0.92093-0.84539 0.25401 0.02277-0.23802-0.58034
   1   3   6  118.17   18.15 127 0.92015-0.77997 0.25213 0.02792-0.24218 0.58074
   1   7 -12   -8.24   30.31 128 0.92176-0.83911 0.25604 0.39776-0.23348-0.42097
   1   7   3   27.23   18.06 126 0.91958-0.79131 0.25080 0.40294-0.24511 0.42009
   1   8   1   15.90   21.45 127 0.92058-0.79848 0.25317 0.49561-0.23989 0.30466
   2  -5  -5  291.44   17.90 127 0.92026-0.68760 0.25239-0.72200-0.24160-0.02250
   2  -5  -4   26.41   17.08 127 0.92011-0.68352 0.25204-0.72222-0.24238 0.03406
   2  -4 -11   -0.64   17.89 127 0.92018-0.70605 0.25222-0.63104-0.24199-0.35499
   2  -2 -15   -3.41   20.66 127 0.91996-0.71927 0.25168-0.44325-0.24317-0.57279
   2   0 -17   31.96   24.22 127 0.91959-0.72555 0.25082-0.25515-0.24508-0.67815
   2   9   3   25.81   24.02 128 0.92117-0.67043 0.25459 0.58913-0.23671 0.41978
   3  -6  -6   29.93   21.30 127 0.92085-0.56676 0.25382-0.81976-0.23843-0.07445
   3  -6  -3   -2.42   21.99 127 0.92066-0.55829 0.25335-0.81686-0.23948 0.09166
   3  -5 -12   -2.59   21.73 127 0.91958-0.58471 0.25079-0.72198-0.24515-0.39843
   3   2  10    4.37   18.45 126 0.91903-0.51985 0.24953-0.06256-0.24791 0.82101
   3   4  10    6.68   18.79 126 0.92014-0.52251 0.25212 0.12113-0.24220 0.81421
   3   6   9   65.89   20.94 126 0.91972-0.52576 0.25114 0.30998-0.24438 0.76371
   4  -1  10   -0.60   20.01 127 0.91954-0.39650 0.25070-0.34535-0.24534 0.82482
   4   1  11   86.06   20.63 126 0.91937-0.39423 0.25031-0.15747-0.24619 0.88090
   5  -1  11   10.30   26.80 127 0.92113-0.27120 0.25449-0.34945-0.23695 0.87831
   5   2  12  -14.41   22.77 127 0.91980-0.26631 0.25132-0.06472-0.24396 0.94491
   0  -1  -4  787.28   23.16 127 0.92093-0.93301 0.25406-0.34801-0.23798 0.01550
   0   3   2  144.43   19.03 127 0.92143-0.91655 0.25527 0.02540-0.23529 0.34741
   0   4 -10   19.92   21.14 129 0.92337-0.95635 0.26019 0.11055-0.22427-0.32540
   0   6  -7   26.87   29.08 130 0.92508-0.94978 0.26482 0.29485-0.21379-0.17032
   0   6  -1   91.96   23.62 128 0.92346-0.92949 0.26043 0.29994-0.22371 0.17020
   1  -2 -11  142.34   16.51 128 0.92221-0.83223 0.25721-0.44708-0.23096-0.36960
   1  -1   4 1563.97   28.43 128 0.92162-0.78509 0.25574-0.35042-0.23424 0.46150
   1   0   5 2011.36   27.24 127 0.92087-0.78155 0.25391-0.25514-0.23831 0.52157
   1   2   6   72.26   17.21 127 0.92108-0.78019 0.25442-0.06723-0.23717 0.57638
   1   9  -5   12.91   44.58 131 0.92700-0.82416 0.27038 0.57043-0.20107-0.06538
   1   9  -4   13.40   33.63 129 0.92464-0.81842 0.26359 0.57693-0.21658 0.00568
   2  -1 -16   20.86   21.39 127 0.92115-0.72410 0.25459-0.35248-0.23679-0.63156
   2  -1   7  301.28   22.22 128 0.92259-0.65431 0.25818-0.35177-0.22878 0.62836
   2   5   8   61.95   19.19 127 0.92162-0.65351 0.25575 0.21241-0.23421 0.69052
   2   8   5   17.85   20.40 127 0.92122-0.66377 0.25477 0.49359-0.23640 0.52887
   2  10   0   17.96   26.65 128 0.92177-0.68063 0.25613 0.67799-0.23338 0.25048
   3  -6  -5   63.78   21.36 128 0.92238-0.56546 0.25763-0.82164-0.23000-0.02653
   3  -6  -4   62.73   21.82 128 0.92247-0.56262 0.25787-0.82122-0.22948 0.02833
   3  -4 -14  -12.41   21.32 128 0.92192-0.59363 0.25650-0.63650-0.23254-0.52326
   3  -4   5   97.53   26.35 129 0.92393-0.53713 0.26168-0.63613-0.22090 0.51699
   3   1  10  132.72   18.94 128 0.92186-0.52226 0.25635-0.16214-0.23288 0.80539
   4  -6 -11  -31.55   24.32 129 0.92324-0.46294 0.25986-0.82226-0.22501-0.35338
   4   5  11   -9.08   22.17 128 0.92157-0.39827 0.25561 0.21154-0.23452 0.87011
   5   1  12   -1.31   24.45 128 0.92157-0.27009 0.25561-0.16305-0.23452 0.93136
   0   0  -8   11.91   16.13 128 0.92354-0.94916 0.26070-0.26245-0.22314-0.22003
   0   2   2 5518.58   46.27 128 0.92318-0.91776 0.25976-0.07174-0.22525 0.33709
   0   5  -9  282.99   22.78 129 0.92433-0.95389 0.26281 0.20291-0.21836-0.27836
   0   5   1  105.18   20.77 129 0.92433-0.92383 0.26282 0.20511-0.21835 0.27453
   1  -3  -8  138.93   16.22 128 0.92277-0.82256 0.25869-0.54150-0.22766-0.20737
   1   4   6   57.10   17.79 128 0.92268-0.78296 0.25847 0.11630-0.22815 0.56727
   1   5 -14    9.93   25.88 129 0.92343-0.84624 0.26040 0.20403-0.22382-0.54014
   1   9  -3    5.10   32.85 129 0.92486-0.81489 0.26426 0.57471-0.21508 0.05945
   2  -3 -13   -8.05   18.71 129 0.92296-0.71537 0.25918-0.54265-0.22656-0.47705
   2   1 -17   20.91   24.65 129 0.92350-0.73058 0.26059-0.17160-0.22338-0.70062
   3  -2   8   19.22   18.05 128 0.92306-0.52799 0.25944-0.44712-0.22598 0.68768
   3  -1   9   36.42   17.72 129 0.92356-0.52566 0.26076-0.35444-0.22301 0.73986
   3   5  10  -18.00   19.44 129 0.92353-0.52679 0.26068 0.20597-0.22318 0.79517
   4   0  11   38.82   23.80 129 0.92419-0.39805 0.26242-0.26294-0.21926 0.85342
   5  -7  -1    9.51   32.39 131 0.92675-0.31143 0.26968-0.92705-0.20269 0.17979
   5  -4   8   13.75   25.25 129 0.92383-0.28153 0.26147-0.63764-0.22140 0.69628
   0   2 -10    4.50   16.43 129 0.92463-0.95623 0.26355-0.07830-0.21689-0.33398
   0   3 -10  154.43   21.23 130 0.92572-0.95773 0.26661 0.01224-0.20994-0.34082
   0   4   2 1192.52   26.89 130 0.92551-0.92126 0.26602 0.10828-0.21127 0.32307
   1   1 -14   29.31   18.99 130 0.92498-0.84549 0.26452-0.17410-0.21469-0.55050
   1   6 -13   21.20   24.80 130 0.92524-0.84539 0.26525 0.29284-0.21304-0.49533
   1   6   5  195.86   21.45 130 0.92560-0.79005 0.26626 0.29494-0.21073 0.49559
   2  -4 -10   42.82   18.79 130 0.92511-0.70826 0.26490-0.64249-0.21382-0.32563
   2  -2   6  237.18   21.30 130 0.92508-0.65892 0.26480-0.45303-0.21405 0.55828
   2   0   8   -6.87   17.14 130 0.92510-0.65484 0.26487-0.26476-0.21389 0.66775
   2   2 -17   13.21   26.68 131 0.92611-0.73347 0.26773-0.08530-0.20736-0.71423
   3  -5 -11   -7.05   19.48 130 0.92456-0.58720 0.26338-0.73356-0.21728-0.37036
   4  -4   7   38.82   25.66 131 0.92671-0.41031 0.26951-0.64531-0.20328 0.61583
   0   1  -9  555.99   19.29 131 0.92638-0.95454 0.26857-0.17613-0.20573-0.29020
   1  -3  -7   91.20   17.30 130 0.92614-0.82293 0.26786-0.54979-0.20735-0.17268
   1  -1 -12  144.08   18.61 131 0.92622-0.83921 0.26808-0.36386-0.20684-0.44755
   1   0 -13  154.16   19.26 131 0.92667-0.84409 0.26941-0.27220-0.20378-0.50664
   1   1   6  615.04   19.65 130 0.92568-0.78436 0.26654-0.17348-0.21037 0.54895
   1   4 -14   46.62   24.41 131 0.92731-0.84924 0.27135 0.09993-0.19932-0.56562
   1   5   6   57.07   20.57 131 0.92704-0.78825 0.27052 0.19560-0.20122 0.54055
   1   7   4   38.83   21.98 131 0.92718-0.79532 0.27095 0.38224-0.20024 0.43005
   1   8   2   28.65   24.03 131 0.92698-0.80165 0.27035 0.47775-0.20164 0.32124
   1   9  -2    9.20   31.04 132 0.92882-0.81674 0.27621 0.56633-0.18804 0.08707
   2  -2 -14   18.98   20.03 131 0.92643-0.72238 0.26871-0.45960-0.20540-0.55431
   2   0 -16   19.83   22.78 130 0.92648-0.73012 0.26885-0.27318-0.20506-0.66536
   2   2   9   31.96   17.03 131 0.92693-0.65481 0.27018-0.08266-0.20201 0.71281
   2   3   9  161.13   17.90 130 0.92619-0.65468 0.26799 0.01237-0.20704 0.71813
   2   6   8   21.45   22.08 131 0.92710-0.65922 0.27070 0.29078-0.20081 0.65800
   2   7   7   19.87   20.58 130 0.92634-0.66190 0.26843 0.38612-0.20605 0.60795
   2   9   4  -14.60   25.10 131 0.92706-0.67335 0.27059 0.57149-0.20108 0.43701
   2  10   1  -14.02   27.74 131 0.92694-0.68251 0.27024 0.66615-0.20188 0.27234
   3  -3 -15   26.04   22.60 131 0.92662-0.60180 0.26926-0.55519-0.20413-0.60560
   3   0  10    8.10   21.67 131 0.92742-0.52734 0.27169-0.27216-0.19854 0.77226
   3   7   9  -23.83   23.08 131 0.92640-0.53341 0.26862 0.38612-0.20560 0.72439
   3   8   8   32.23   22.77 130 0.92644-0.53716 0.26873 0.47686-0.20536 0.66825
   4  -6 -10  -12.59   23.43 131 0.92640-0.46214 0.26862-0.83424-0.20560-0.32201
   4  -5   5    1.38   33.47 132 0.92915-0.41886 0.27732-0.74638-0.18544 0.48711
   4   3  12  109.40   21.17 131 0.92682-0.39938 0.26987 0.01013-0.20272 0.89303
   5   0  12  -16.08   23.61 131 0.92616-0.27414 0.26792-0.26928-0.20720 0.90510
   0   0  -7 1020.81   22.02 132 0.92810-0.95004 0.27399-0.27435-0.19330-0.19283
   1  -3  -1  210.96   22.72 132 0.92781-0.80671 0.27305-0.55421-0.19548 0.14557
   1  -2 -10  156.58   17.04 131 0.92728-0.83410 0.27139-0.45971-0.19932-0.34570
   1   2 -14   29.95   19.94 131 0.92758-0.84847 0.27233-0.08832-0.19714-0.56795
   1   3 -14   70.36   23.42 132 0.92842-0.84992 0.27502 0.00257-0.19092-0.57359
   2  -3 -12   27.25   19.37 132 0.92784-0.71721 0.27314-0.55735-0.19527-0.45443
   2  -1 -15   16.66   22.27 132 0.92761-0.72693 0.27242-0.36973-0.19694-0.61716
   2   4   9   16.58   17.97 131 0.92741-0.65569 0.27182 0.10305-0.19833 0.71096
   2   8   6   40.96   24.75 132 0.92804-0.66720 0.27378 0.47413-0.19380 0.54087
   3  -5 -10   39.02   22.29 132 0.92845-0.58755 0.27511-0.74574-0.19071-0.34136
   3  -4 -13   -4.17   22.13 132 0.92759-0.59601 0.27237-0.65018-0.19707-0.50155
   3  -3   7  277.04   22.41 132 0.92779-0.53623 0.27301-0.55477-0.19559 0.60071
   3   6  10   33.82   22.39 132 0.92795-0.53070 0.27349 0.28739-0.19446 0.76844
   4  -5 -13   15.73   25.72 132 0.92773-0.47275 0.27280-0.74489-0.19607-0.49497
   4   2  12    1.26   21.92 132 0.92756-0.39971 0.27228-0.08579-0.19727 0.88834
   4   4  12  -12.12   24.31 132 0.92767-0.40076 0.27263 0.10099-0.19647 0.88735
   5  -7  -7   -7.91   25.42 132 0.92767-0.33097 0.27263-0.93176-0.19647-0.15906
   0   6   0  334.92   24.71 133 0.92999-0.93269 0.28037 0.28103-0.17835 0.18074
   1  -3  -6  335.11   18.85 132 0.92865-0.82274 0.27575-0.55706-0.18919-0.13584
   2  -4  -9   18.97   18.02 133 0.92900-0.70839 0.27690-0.65382-0.18650-0.29758
   3  -2 -16   19.67   23.72 133 0.92893-0.60722 0.27669-0.46767-0.18699-0.67440
   3   2  11   13.58   19.42 133 0.92920-0.52703 0.27759-0.09056-0.18487 0.81362
   3   3  11   80.31   19.35 132 0.92853-0.52703 0.27535 0.00469-0.19011 0.81909
   3   4  11   -7.91   20.27 133 0.92910-0.52835 0.27725 0.09652-0.18567 0.81335
   4  -6  -9   47.59   24.45 133 0.92961-0.46196 0.27903-0.84497-0.18149-0.28970
   4  -2  10   -4.31   23.43 133 0.92983-0.40557 0.27982-0.46783-0.17965 0.75846
   4   1  12  -19.40   23.68 133 0.92955-0.40121 0.27879-0.18592-0.18206 0.87201
   4   5  12   87.31   26.91 133 0.92960-0.40275 0.27897 0.18846-0.18165 0.87290
   5  -7  -6   10.00   27.28 134 0.92996-0.33067 0.28026-0.93686-0.17860-0.11928
   5  -7  -2   21.17   28.20 134 0.93045-0.31798 0.28206-0.93904-0.17435 0.09637
   0   2  -9   48.43   18.19 134 0.93012-0.95870 0.28096-0.09605-0.17685-0.31933
   0   4  -9   96.89   21.61 134 0.93028-0.95978 0.28155 0.08966-0.17547-0.32077
   0   5  -8   16.47   23.82 135 0.93169-0.95870 0.28712 0.17914-0.16222-0.27781
   1  -3  -5  715.02   21.06 134 0.93039-0.82107 0.28197-0.56428-0.17448-0.09573
   1   1 -13   20.98   21.77 134 0.93091-0.84805 0.28394-0.19335-0.16980-0.53891
   1   3   7   41.09   16.49 133 0.92999-0.78715 0.28049 0.00007-0.17796 0.57171
   1   9  -1   11.91   28.31 134 0.93077-0.81546 0.28341 0.55798-0.17106 0.12534
   2   1 -16    4.30   23.30 134 0.93012-0.73350 0.28096-0.19145-0.17685-0.69167
   2   1   9   52.43   16.60 133 0.92966-0.65577 0.27928-0.18586-0.18081 0.69229
   2   5   9  177.36   20.00 133 0.92976-0.65893 0.27965 0.18729-0.17994 0.69205
   4  -1  11   71.99   22.88 134 0.93067-0.40400 0.28302-0.37759-0.17199 0.80694
   5  -7  -5    6.24   25.69 134 0.93058-0.32682 0.28266-0.94198-0.17283-0.07079
   5  -7  -4   17.10   29.16 136 0.93174-0.32585 0.28731-0.94360-0.16175-0.02620
   5  -7  -3   24.43   28.26 135 0.93162-0.32250 0.28680-0.94338-0.16297 0.03000
   5  -2  11   16.59   22.28 133 0.92998-0.27950 0.28045-0.46876-0.17806 0.81849
   0   0  -6 1144.78   23.90 135 0.93141-0.94991 0.28572-0.28670-0.16567-0.16548
   0   1  -8   46.33   17.87 135 0.93106-0.95580 0.28431-0.19238-0.16903-0.27135
   0   3  -9   17.54   21.32 135 0.93146-0.96063 0.28590-0.00810-0.16524-0.33069
   0   3   3  579.24   21.09 135 0.93154-0.92397 0.28625-0.00602-0.16439 0.33015
   0   5   2    9.54   20.09 135 0.93150-0.92784 0.28607 0.18205-0.16483 0.27663
   1  -3  -4  377.89   22.98 135 0.93169-0.81956 0.28686-0.56853-0.16292-0.05138
   1  -3  -2  155.39   21.84 135 0.93149-0.81316 0.28603-0.56748-0.16492 0.06080
   1  -2  -9  247.06   17.48 135 0.93115-0.83474 0.28467-0.47337-0.16816-0.32122
   1  -1 -11   80.73   17.27 134 0.93094-0.84109 0.28381-0.37912-0.17021-0.42882
   1   0 -12    7.73   20.96 135 0.93155-0.84582 0.28628-0.28913-0.16433-0.49276
   1   2   7   39.04   15.61 134 0.93111-0.78761 0.28448-0.09684-0.16861 0.56262
   1   4   7   83.60   17.67 134 0.93095-0.78929 0.28387 0.09046-0.17006 0.56326
   1   5 -13   45.08   21.26 135 0.93125-0.85076 0.28507 0.17852-0.16722-0.54204
   1   6   6    2.77   21.18 135 0.93174-0.79310 0.28709 0.27421-0.16238 0.50184
   1   7 -11   42.11   29.54 136 0.93224-0.84610 0.28921 0.36250-0.15728-0.44037
   1   8   3    6.45   22.32 135 0.93170-0.80343 0.28691 0.46151-0.16282 0.33756
   2  -2 -13    3.87   19.22 135 0.93129-0.72385 0.28522-0.47559-0.16685-0.53725
   2   9   5   15.78   26.19 134 0.93122-0.67401 0.28496 0.55240-0.16748 0.45799
   3  -5  -9  -15.66   19.70 135 0.93133-0.58742 0.28539-0.75693-0.16644-0.31258
   3  -4 -12   -3.23   18.92 135 0.93158-0.59714 0.28640-0.66466-0.16403-0.47900
   3  -3 -14    8.34   22.82 135 0.93131-0.60356 0.28531-0.57072-0.16664-0.58807
   3   1  11  112.02   19.06 135 0.93128-0.52862 0.28517-0.19155-0.16698 0.79488
   3   5  11    4.42   21.06 134 0.93108-0.53034 0.28438 0.18320-0.16886 0.79811
   4  -5 -12   19.44   23.76 135 0.93144-0.47345 0.28583-0.75867-0.16540-0.47132
   4  -3   9   -2.36   22.04 135 0.93177-0.41145 0.28719-0.56863-0.16215 0.68457
   5  -3  10    7.65   25.11 134 0.93117-0.28328 0.28473-0.56706-0.16803 0.75342
   5  -1  12  -20.01   23.91 135 0.93127-0.27894 0.28514-0.37984-0.16705 0.86315
   0   4   3  325.80   22.15 136 0.93265-0.92514 0.29129 0.08269-0.15237 0.31966
   0   6  -6   47.15   34.19 139 0.93470-0.95579 0.30278 0.25664-0.12416-0.20474
   1  -3  -3   78.27   17.60 136 0.93212-0.81729 0.28886-0.56988-0.15823-0.00106
   1   6 -12   19.21   24.97 136 0.93276-0.84949 0.29180 0.26742-0.15114-0.50331
   1   7   5   -1.68   22.54 137 0.93275-0.79839 0.29174 0.36570-0.15129 0.43756
   1   8  -9   -0.64   35.44 138 0.93381-0.84238 0.29723 0.44903-0.13788-0.34979
   1   9   0   -1.36   27.69 136 0.93290-0.81409 0.29245 0.54857-0.14956 0.15892
   2  -4  -8   -5.14   17.25 136 0.93198-0.70815 0.28827-0.66422-0.15965-0.26984
   2  -3 -11  192.81   18.39 136 0.93199-0.71809 0.28832-0.57104-0.15954-0.43350
   2  -1 -14    7.59   20.51 136 0.93233-0.72865 0.28978-0.38700-0.15602-0.60341
   2   0 -15   10.30   21.03 136 0.93209-0.73154 0.28875-0.29234-0.15849-0.65488
   2   2 -16   -2.94   22.36 136 0.93202-0.73518 0.28844-0.10499-0.15924-0.70939
   2   3 -16   10.91   25.13 136 0.93256-0.73715 0.29086-0.01411-0.15342-0.71562
   2   7   8   19.28   20.97 135 0.93202-0.66460 0.28844 0.36635-0.15924 0.61635
   3   7  10   11.69   23.33 136 0.93218-0.53566 0.28913 0.36575-0.15758 0.73264
   4  -6  -8   46.57   21.09 136 0.93220-0.46112 0.28923-0.85459-0.15734-0.25784
   4  -4 -14  -10.99   24.42 136 0.93225-0.48087 0.28945-0.66921-0.15683-0.59157
   0   1   2 1336.44   34.02 136 0.93276-0.92655 0.29164-0.19828-0.15155 0.26371
   0   2   3  359.45   21.10 137 0.93339-0.92491 0.29474-0.10857-0.14401 0.31030
   1   0   6  928.06   22.38 136 0.93278-0.79070 0.29174-0.29310-0.15131 0.48923
   1   2 -13   44.79   18.93 136 0.93297-0.85057 0.29261-0.10834-0.14921-0.56064
   1   4 -13   86.57   23.47 137 0.93335-0.85264 0.29455 0.07602-0.14448-0.56412
   1   5   7   62.48   17.97 136 0.93303-0.79110 0.29291 0.17414-0.14847 0.54311
   2  -1   8  214.75   21.55 137 0.93332-0.66218 0.29440-0.38904-0.14486 0.59905
   2   3  10   32.19   17.58 137 0.93303-0.65752 0.29294-0.01183-0.14839 0.71537
   2   4  10   84.33   17.83 137 0.93333-0.65862 0.29445 0.07898-0.14473 0.71101
   2   6   9   13.42   19.53 136 0.93279-0.66182 0.29178 0.26986-0.15121 0.66361
   2   8   7    2.81   21.03 137 0.93293-0.66976 0.29245 0.45680-0.14960 0.55141
   3  -2 -15   10.72   22.05 137 0.93305-0.60888 0.29305-0.48469-0.14814-0.66005
   3  -2   9   33.52   21.38 137 0.93361-0.53571 0.29593-0.48441-0.14112 0.65705
   3  -1 -16   10.26   22.35 137 0.93330-0.61282 0.29427-0.39261-0.14516-0.71834
   3  -1  10  134.64   18.85 137 0.93315-0.53266 0.29351-0.38833-0.14701 0.71833
   3   6  11   30.51   24.52 137 0.93349-0.53310 0.29528 0.26680-0.14270 0.77369
   4  -6   1   94.28   33.87 140 0.93508-0.43666 0.30539-0.86854-0.11769 0.19806
   4   0  12  -15.35   21.08 137 0.93291-0.40407 0.29236-0.29331-0.14980 0.84082
   4   3  13  -21.70   22.29 137 0.93317-0.40332 0.29361-0.01398-0.14677 0.89093
   5   0  13   20.24   25.94 137 0.93346-0.27769 0.29510-0.29626-0.14314 0.89546
   0   0  -5  101.90   19.27 138 0.93367-0.94928 0.29708-0.29783-0.13833-0.13656
   0   2  -8  505.39   22.47 138 0.93411-0.95940 0.29969-0.11424-0.13190-0.30885
   0   6   1   92.60   20.18 137 0.93367-0.93394 0.29706 0.26332-0.13837 0.19582
   1  -2  -8  210.41   16.86 138 0.93370-0.83468 0.29725-0.48655-0.13793-0.29643
   1   1   7   50.16   17.60 138 0.93368-0.78962 0.29714-0.20360-0.13819 0.53156
   1   3 -13   85.65   20.10 138 0.93361-0.85192 0.29675-0.01924-0.13915-0.56991
   2  -4  -7   79.50   17.86 138 0.93387-0.70740 0.29824-0.67520-0.13548-0.23661
   2   0   9  436.82   19.56 137 0.93359-0.66075 0.29665-0.29701-0.13939 0.64875
   2   2  10  349.50   19.57 137 0.93354-0.65895 0.29634-0.11050-0.14015 0.70514
   3  -5  -8    4.78   19.27 138 0.93367-0.58602 0.29709-0.76769-0.13831-0.28377
   3   3  12   -8.45   22.99 138 0.93399-0.52968 0.29895-0.01854-0.13373 0.81697
   4  -6  -7   17.35   24.61 137 0.93369-0.45956 0.29720-0.86380-0.13804-0.22313
   4  -5 -11   56.03   25.13 138 0.93417-0.47334 0.30004-0.77121-0.13104-0.44888
   4   2  13   44.46   22.63 138 0.93368-0.40214 0.29712-0.11071-0.13823 0.88435
   4   4  13   23.47   22.84 137 0.93349-0.40248 0.29612 0.07815-0.14070 0.88864
   0   1  -7  377.65   19.60 139 0.93426-0.95625 0.30026-0.20751-0.13060-0.25498
   0   4  -8  240.09   21.57 140 0.93490-0.96136 0.30473 0.06960-0.11948-0.32099
   1  -1 -10   19.90   16.32 138 0.93411-0.84123 0.29936-0.39502-0.13280-0.41219
   1  -1   5  429.17   20.64 139 0.93450-0.79514 0.30182-0.39703-0.12672 0.40800
   1   1 -12   99.07   18.43 139 0.93455-0.84985 0.30221-0.21086-0.12576-0.52862
   1   8   4   29.90   23.18 139 0.93454-0.80288 0.30209 0.44616-0.12606 0.35589
   1   9   1   -3.85   24.03 139 0.93469-0.81297 0.30319 0.53837-0.12333 0.18788
   2  -3 -10  111.08   19.13 139 0.93451-0.71897 0.30188-0.58417-0.12658-0.41218
   2  -3   5   54.98   23.08 139 0.93492-0.67134 0.30482-0.58709-0.11924 0.40734
   2  -2 -12   32.14   18.51 139 0.93440-0.72429 0.30117-0.49155-0.12834-0.52100
   2   1 -15    2.10   20.96 139 0.93433-0.73436 0.30074-0.21065-0.12940-0.68484
   2   5  10   -0.08   19.94 139 0.93437-0.66017 0.30098 0.16701-0.12880 0.69541
   2   9   6   15.61   26.28 139 0.93456-0.67422 0.30226 0.53823-0.12563 0.47258
   3  -4 -11   -0.17   20.43 139 0.93433-0.59671 0.30074-0.67813-0.12940-0.45892
   3  -3 -13   13.47   21.94 139 0.93448-0.60385 0.30172-0.58658-0.12697-0.57108
   3   0  11   63.44   18.98 138 0.93421-0.53072 0.29994-0.30068-0.13137 0.75932
   3   2  12   23.84   19.06 139 0.93454-0.52901 0.30211-0.11521-0.12599 0.80896
   3   4  12   50.25   20.52 138 0.93430-0.52971 0.30056 0.07356-0.12985 0.81437
   5  -5   7   10.19   32.25 139 0.93502-0.29509 0.30564-0.77518-0.11720 0.53643
   5  -4   9   53.13   26.37 139 0.93471-0.28861 0.30330-0.67965-0.12304 0.65335
   0   3  -8   42.93   20.90 140 0.93527-0.96108 0.30734-0.02813-0.11297-0.32764
   0   5   3  579.29   19.82 139 0.93500-0.92783 0.30506 0.16197-0.11869 0.28644
   1   0 -11  219.07   19.22 140 0.93497-0.84618 0.30485-0.30581-0.11922-0.48073
   1   3   8  545.77   18.97 139 0.93493-0.78896 0.30455-0.02512-0.11997 0.56861
   1   4   8   44.84   18.08 140 0.93512-0.78924 0.30608 0.06755-0.11615 0.56594
   1   6   7  123.36   21.17 140 0.93515-0.79319 0.30632 0.25417-0.11555 0.51087
   2  -2   7  241.95   21.42 140 0.93509-0.66586 0.30584-0.49481-0.11675 0.51563
   2   0 -14   76.67   22.79 140 0.93523-0.73243 0.30702-0.31021-0.11379-0.64496
   2   1  10    9.43   17.76 140 0.93512-0.65851 0.30608-0.21237-0.11615 0.68236
   2   5 -15    2.40   28.35 140 0.93518-0.73726 0.30651 0.15802-0.11506-0.69752
   2   7   9   28.16   23.83 140 0.93527-0.66464 0.30736 0.34808-0.11292 0.62583
   3  -5  -7   12.50   21.59 139 0.93508-0.58436 0.30572-0.77888-0.11706-0.25134
   3  -5   2    7.15   37.77 145 0.93619-0.55821 0.32525-0.79407-0.06679 0.19644
   3   5  12   36.15   22.88 139 0.93497-0.53056 0.30487 0.16226-0.11919 0.80204
   4  -6  -6   39.66   23.55 140 0.93518-0.45844 0.30656-0.87133-0.11495-0.19017
   4  -4 -13   34.27   23.49 140 0.93503-0.48057 0.30530-0.68430-0.11810-0.57325
   4   1  13   38.45   23.21 139 0.93491-0.40262 0.30440-0.21135-0.12036 0.86559
   0   0  -4 1230.78   26.26 141 0.93547-0.94777 0.30859-0.30873-0.11012-0.11229
   0   3   4 1083.27   25.55 141 0.93567-0.92489 0.31059-0.02947-0.10506 0.32645
   0   5  -7  184.75   26.50 143 0.93607-0.95941 0.31610 0.15057-0.09098-0.29411
   0   6   2   60.89   21.27 141 0.93577-0.93263 0.31179 0.24929-0.10201 0.21364
   1  -2   3  772.21   33.46 141 0.93580-0.80200 0.31215-0.50075-0.10110 0.27260
   1   2   8    4.67   16.71 140 0.93549-0.78820 0.30875-0.12123-0.10973 0.55730
   1   5 -12   27.74   22.66 141 0.93563-0.85150 0.31015 0.15382-0.10618-0.54882
   1   7   6   26.35   19.15 140 0.93536-0.79726 0.30762 0.34627-0.11258 0.45305
   2  -4  -6   45.48   16.89 141 0.93550-0.70575 0.30884-0.68496-0.10950-0.20795
   2  -1 -13   37.39   18.62 140 0.93541-0.72861 0.30807-0.40449-0.11144-0.59100
   2   2 -15   12.57   21.32 140 0.93549-0.73645 0.30878-0.12532-0.10966-0.70447
   2   8   8   -3.65   22.46 141 0.93550-0.66865 0.30891 0.43956-0.10933 0.56531
   3  -2 -14   24.83   22.42 141 0.93560-0.60819 0.30992-0.50154-0.10677-0.64721
   3   0 -16   -0.62   23.81 141 0.93554-0.61522 0.30931-0.31380-0.10831-0.75597
   3   1  12  107.01   22.42 141 0.93568-0.52974 0.31070-0.21734-0.10480 0.78766
   4  -2  11   26.09   24.42 141 0.93576-0.40844 0.31159-0.49968-0.10252 0.73704
   4  -1  12    9.02   25.50 142 0.93584-0.40587 0.31259-0.40754-0.09998 0.79187
   5  -6  -9   22.35   24.51 141 0.93552-0.34459 0.30910-0.87554-0.10883-0.35542
   5  -2  12   -6.15   28.71 140 0.93549-0.28399 0.30875-0.49529-0.10973 0.80152
   0   4   4  168.71   18.48 141 0.93586-0.92580 0.31232 0.06163-0.10066 0.32154
   1  -2  -7  602.43   18.37 141 0.93576-0.83282 0.31120-0.49986-0.10351-0.27668
   1   2 -12   24.13   17.96 142 0.93592-0.85054 0.31305-0.12833-0.09879-0.55606
   1   5   8  101.98   18.71 141 0.93589-0.79052 0.31274 0.15478-0.09960 0.54890
   1   9   2   30.65   24.39 142 0.93592-0.81039 0.31316 0.52796-0.09851 0.21791
   2   3 -15   41.28   22.02 141 0.93589-0.73749 0.31271-0.03543-0.09966-0.71449
   2   4 -15   25.25   23.46 142 0.93590-0.73730 0.31288 0.05773-0.09923-0.71337
   2   6  10  -13.68   19.13 142 0.93582-0.66187 0.31186 0.25110-0.10183 0.67009
   3  -4 -10   54.72   21.30 142 0.93604-0.59541 0.31488-0.69212-0.09412-0.43766
   3  -3   8   58.39   22.01 142 0.93591-0.54010 0.31299-0.59458-0.09894 0.56013
   3  -1 -15    3.31   22.47 142 0.93590-0.61220 0.31290-0.41039-0.09919-0.70839
   3   6  12   -4.69   26.55 142 0.93601-0.53283 0.31443 0.24706-0.09526 0.77982
   4  -6  -5   31.74   23.23 142 0.93601-0.45619 0.31432-0.87860-0.09555-0.15438
   4  -5 -10  -13.67   21.50 142 0.93592-0.47176 0.31305-0.78416-0.09879-0.42664
   4  -4   8   57.08   23.96 142 0.93600-0.41678 0.31424-0.68959-0.09576 0.56365
   0   1  -6  435.59   20.31 143 0.93619-0.95547 0.31690-0.22327-0.08907-0.24136
   0   2  -7  287.46   21.56 143 0.93630-0.95847 0.31952-0.13311-0.08228-0.30337
   0   7  -2   66.41   30.00 144 0.93636-0.94533 0.32374 0.33023-0.07126-0.03772
   1  -1  -9  307.18   16.95 142 0.93613-0.84038 0.31575-0.40972-0.09202-0.39777
   1   3 -12    5.82   21.64 142 0.93618-0.85217 0.31672-0.03739-0.08953-0.56856
   1   4 -12   10.85   23.27 142 0.93618-0.85282 0.31665 0.05568-0.08970-0.56637
   1   6 -11   12.11   26.34 143 0.93630-0.84989 0.31964 0.23983-0.08196-0.51738
   1   7 -10   21.59   27.02 144 0.93633-0.84720 0.32062 0.33095-0.07943-0.46455
   1   8   5   25.34   19.95 142 0.93617-0.80081 0.31642 0.43160-0.09031 0.37485
   2  -4  -5  278.98   21.35 143 0.93625-0.70454 0.31808-0.69311-0.08602-0.17752
   2  -3  -9  206.82   17.98 143 0.93616-0.71716 0.31636-0.59826-0.09045-0.39294
   2  -2 -11   17.61   16.90 143 0.93619-0.72330 0.31693-0.50730-0.08899-0.50590
   2   3  11   -2.14   18.44 142 0.93612-0.65725 0.31548-0.03443-0.09272 0.71470
   2   4  11   98.07   19.07 142 0.93615-0.65832 0.31611 0.05818-0.09111 0.71288
   2   9   7   10.20   27.75 143 0.93625-0.67271 0.31814 0.52395-0.08585 0.48857
   3  -5  -6  209.80   18.17 143 0.93620-0.58408 0.31705-0.78677-0.08869-0.22297
   3  -4   6  128.35   26.43 144 0.93635-0.54689 0.32216-0.69733-0.07541 0.42617
   3  -3 -12   39.78   18.75 143 0.93622-0.60235 0.31752-0.60187-0.08746-0.55559
   4  -6   0   45.74   28.48 145 0.93636-0.44100 0.32375-0.88659-0.07123 0.09836
   4  -3 -14    5.74   22.15 143 0.93620-0.48449 0.31706-0.60252-0.08865-0.65981
   4   0  13   27.79   25.04 143 0.93627-0.40264 0.31875-0.31975-0.08428 0.83225
   5  -3  11   41.40   26.68 143 0.93624-0.28471 0.31787-0.60000-0.08656 0.72780
   0   0  -3  465.62   26.36 143 0.93630-0.94569 0.31969-0.31923-0.08196-0.08393
   0   2   4  569.43   21.27 143 0.93631-0.92463 0.32014-0.13382-0.08079 0.30233
   0   5   4  193.43   20.82 144 0.93635-0.92633 0.32217 0.14586-0.07551 0.29715
   0   7  -1   21.20   24.13 144 0.93636-0.94226 0.32278 0.33124-0.07389 0.02099
   1   0   7   56.09   17.69 144 0.93633-0.79155 0.32072-0.31996-0.07928 0.47246
   1   1 -11   72.78   17.31 144 0.93634-0.84794 0.32143-0.23057-0.07743-0.52265
   2   1 -14   16.01   20.73 144 0.93632-0.73353 0.32056-0.22996-0.07971-0.67894
   2   2  11   99.76   19.22 143 0.93630-0.65824 0.31983-0.13415-0.08160 0.70189
   2   5  11   23.15   21.19 144 0.93633-0.65833 0.32087 0.14712-0.07889 0.70124
   3  -1  11   77.46   21.61 144 0.93635-0.53288 0.32204-0.41634-0.07585 0.70324
   3   1 -16   -6.82   22.04 144 0.93633-0.61592 0.32087-0.23095-0.07889-0.78616
   3   3  13   -9.32   21.70 144 0.93633-0.52836 0.32071-0.04032-0.07930 0.81696
   3   4  13   24.19   20.64 144 0.93633-0.52893 0.32091 0.05261-0.07880 0.81642
   4  -6  -4   20.55   22.36 144 0.93633-0.45272 0.32087-0.88520-0.07889-0.11520
   4  -4 -12   30.98   22.18 144 0.93632-0.47897 0.32045-0.69878-0.07999-0.55611
   4  -3  10   -3.44   23.62 143 0.93632-0.41145 0.32053-0.60124-0.07978 0.65766
   4   2  14   12.19   24.70 143 0.93631-0.40133 0.32017-0.13349-0.08071 0.88167
   5  -6  -8   33.64   23.74 144 0.93633-0.34260 0.32082-0.88578-0.07902-0.32946
   0   1   3  538.76   24.36 144 0.93633-0.92720 0.32333-0.23026-0.07259 0.23912
   0   6   3   43.45   20.60 145 0.93632-0.92978 0.32550 0.23654-0.06686 0.23395
   0   7   0   -7.48   23.40 145 0.93629-0.93925 0.32710 0.32748-0.06264 0.06417
   1  -2  -6  685.58   20.31 145 0.93633-0.83067 0.32415-0.51300-0.07041-0.25423
   1   0 -10   73.88   17.96 144 0.93633-0.84371 0.32332-0.32484-0.07259-0.47160
   1   1   8  349.19   17.76 144 0.93633-0.78887 0.32252-0.22904-0.07469 0.52322
   1   3   9   91.32   19.91 145 0.93632-0.78764 0.32570-0.04504-0.06634 0.56913
   1   4   9  273.04   21.20 145 0.93631-0.78801 0.32605 0.04948-0.06541 0.56912
   1   6   8   19.78   19.02 144 0.93633-0.79118 0.32401 0.23765-0.07080 0.52064
   1   7   7   15.43   20.15 144 0.93633-0.79464 0.32355 0.33141-0.07202 0.46675
   1   9   3   13.31   24.61 145 0.93633-0.80812 0.32447 0.51743-0.06957 0.24413
   2  -1 -12   86.98   17.91 145 0.93633-0.72663 0.32476-0.42231-0.06883-0.58006
   2  -1   9   52.10   17.01 144 0.93633-0.66183 0.32383-0.41793-0.07127 0.58120
   2   0 -13   39.33   21.55 145 0.93632-0.73024 0.32550-0.32849-0.06687-0.63784
   2   0  10   84.02   17.94 144 0.93633-0.65973 0.32326-0.32419-0.07277 0.63773
   2   7  10    9.90   21.64 145 0.93633-0.66226 0.32448 0.33035-0.06957 0.63687
   2   8   9   12.22   25.94 146 0.93629-0.66642 0.32706 0.42461-0.06273 0.57795
   3  -5  -5   95.40   21.59 145 0.93629-0.57973 0.32684-0.79657-0.06331-0.19230
   3  -2  10   24.54   21.29 145 0.93630-0.53533 0.32639-0.51367-0.06453 0.63626
   3   0  12   -1.03   22.36 145 0.93632-0.53059 0.32576-0.32620-0.06617 0.74958
   3   2  13   12.72   21.22 145 0.93633-0.52744 0.32457-0.13753-0.06931 0.80684
   3   5  13   12.93   22.34 145 0.93632-0.52891 0.32525 0.14225-0.06753 0.80661
   4  -6  -3    8.29   22.36 145 0.93632-0.45030 0.32571-0.88957-0.06631-0.07311
   4  -6  -2   67.01   25.01 146 0.93624-0.44707 0.32855-0.89237-0.05879-0.02538
   4  -6  -1   -1.81   25.00 147 0.93616-0.44504 0.33042-0.89187-0.05378 0.02491
   4  -5  -9    0.16   22.77 144 0.93633-0.46802 0.32401-0.79823-0.07079-0.40212
   4  -2 -15   24.49   23.95 145 0.93633-0.48890 0.32420-0.51509-0.07029-0.72988
   5  -5 -11  -13.85   26.55 146 0.93627-0.35378 0.32771-0.79608-0.06101-0.50937
   0   3  -7  228.87   21.98 146 0.93613-0.95859 0.33064-0.05043-0.05323-0.33261
   0   4  -7   78.41   21.31 147 0.93610-0.95917 0.33111 0.04170-0.05197-0.33335
   0   7  -3   26.33   39.87 148 0.93541-0.94739 0.33900 0.31414-0.03054-0.13331
   2  -4  -4  100.82   17.38 145 0.93626-0.69974 0.32713-0.70336-0.06259-0.14495
   2  -4   1  162.94   29.10 148 0.93584-0.68453 0.33476-0.71013-0.04213 0.10951
   2   1  11   28.31   20.66 146 0.93617-0.65690 0.32969-0.23695-0.05578 0.67635
   2   2 -14   51.76   22.88 146 0.93617-0.73387 0.32977-0.14565-0.05556-0.70299
   2   5 -14   26.08   26.69 146 0.93612-0.73502 0.33078 0.13390-0.05284-0.70503
   2   6  11   29.79   20.43 146 0.93622-0.65866 0.32858 0.23181-0.05872 0.67958
   3  -4  -9  148.30   18.39 146 0.93623-0.59345 0.32827-0.70536-0.05955-0.41669
   3  -2 -13  -14.53   19.72 146 0.93625-0.60545 0.32754-0.51754-0.06149-0.63627
   3   0 -15   24.30   23.00 146 0.93621-0.61289 0.32885-0.33248-0.05802-0.74936
   3   2 -16   11.87   26.81 147 0.93610-0.61682 0.33119-0.14833-0.05175-0.80601
   4   1  14   79.10   24.87 145 0.93624-0.40085 0.32779-0.23477-0.06084 0.86069
   0   0  -2   18.96   27.69 146 0.93615-0.94215 0.33008-0.33062-0.05486-0.05420
   0   3   5  139.61   18.97 146 0.93614-0.92178 0.33018-0.04924-0.05459 0.33195
   0   4   5   14.87   17.18 146 0.93614-0.92278 0.33029 0.04466-0.05430 0.33138
   0   7   1   15.26   21.02 147 0.93594-0.93611 0.33345 0.32063-0.04579 0.10266
   1  -1  -8  378.59   17.57 147 0.93606-0.83752 0.33168-0.42551-0.05056-0.38478
   1  -1   6  632.23   24.19 147 0.93593-0.79316 0.33361-0.42875-0.04536 0.38282
   1   2   9  456.57   18.50 146 0.93607-0.78627 0.33154-0.14480-0.05094 0.55470
   1   5   9    8.63   19.20 146 0.93610-0.78751 0.33094 0.13720-0.05255 0.55726
   1   8   6   25.45   20.71 146 0.93610-0.79859 0.33099 0.41808-0.05241 0.39258
   2  -3  -8  209.67   18.04 146 0.93611-0.71294 0.33078-0.61258-0.05298-0.37558
   3  -3 -11   -9.76   20.68 147 0.93596-0.59860 0.33321-0.61667-0.04643-0.54176
   3  -1 -14  -12.55   20.83 147 0.93610-0.60854 0.33109-0.42764-0.05214-0.70040
   5  -6  -7  -17.87   22.12 147 0.93608-0.33943 0.33132-0.89557-0.05153-0.30304
   0   1  -5   83.10   18.02 148 0.93577-0.95191 0.33544-0.24178-0.04038-0.23513
   0   5   5   54.79   21.43 148 0.93560-0.92318 0.33715 0.12955-0.03572 0.31194
   1   2 -11  156.28   18.30 147 0.93588-0.84656 0.33415-0.14869-0.04388-0.55645
   1   5 -11   39.06   23.29 148 0.93577-0.84900 0.33537 0.12993-0.04056-0.55927
   1   8  -8   21.73   34.55 150 0.93489-0.83970 0.34266 0.40396-0.02055-0.41263
   1   9   4    0.68   21.78 148 0.93581-0.80471 0.33492 0.50779-0.04181 0.26999
   2  -4  -3  118.09   16.66 148 0.93582-0.69710 0.33482-0.71006-0.04206-0.11068
   2  -2 -10   40.63   15.93 148 0.93587-0.71931 0.33431-0.52294-0.04345-0.49367
   2  -2   8   61.83   19.98 148 0.93561-0.66410 0.33709-0.52525-0.03589 0.48989
   2   3 -14   21.57   20.67 147 0.93584-0.73395 0.33463-0.05680-0.04260-0.71636
   2   3  12   28.13   19.97 148 0.93578-0.65378 0.33532-0.05461-0.04070 0.71687
   2   4 -14   17.19   22.05 148 0.93578-0.73420 0.33530 0.03609-0.04076-0.71780
   2   4  12    4.26   20.19 148 0.93579-0.65491 0.33514 0.03905-0.04119 0.71740
   3  -5  -4  267.06   18.77 148 0.93580-0.57681 0.33504-0.80429-0.04148-0.15943
   3   1  13   26.43   21.03 147 0.93590-0.52701 0.33394-0.24071-0.04446 0.78320
   4  -4 -11    6.89   20.67 148 0.93577-0.47478 0.33544-0.71293-0.04038-0.54001
   4  -3 -13   41.90   20.81 147 0.93588-0.48195 0.33413-0.61808-0.04394-0.64590
   4  -1  13   -6.23   24.41 148 0.93564-0.40322 0.33679-0.43128-0.03670 0.78140
   5  -4  10   36.53   29.84 148 0.93549-0.28720 0.33814-0.71407-0.03301 0.61828
   0   2  -6   -1.68   20.79 150 0.93493-0.95348 0.34215-0.15603-0.02205-0.30777
   0   2   5  980.86   22.34 149 0.93525-0.92088 0.33983-0.15247-0.02845 0.30483
   0   6   4    9.58   17.40 148 0.93547-0.92617 0.33798 0.22383-0.03354 0.25552
   0   7   2   61.94   21.78 149 0.93505-0.93261 0.34129 0.31345-0.02442 0.13552
   1  -2  -5  504.25   20.40 148 0.93547-0.82672 0.33801-0.52557-0.03346-0.23610
   1   3 -11   44.07   20.83 149 0.93516-0.84718 0.34052-0.06164-0.02655-0.57351
   1   6   9   42.73   18.58 149 0.93529-0.78719 0.33948 0.22109-0.02941 0.53315
   1   7   8   13.38   20.69 148 0.93543-0.79084 0.33829 0.31654-0.03267 0.48220
   2  -4  -2   99.49   19.92 149 0.93504-0.69233 0.34139-0.71730-0.02415-0.07323
   2   1 -13   56.72   17.91 149 0.93529-0.72949 0.33951-0.24884-0.02932-0.67566
   2   2  12   10.02   21.36 149 0.93516-0.65305 0.34052-0.15351-0.02654 0.70323
   2   5  12   16.93   21.37 148 0.93540-0.65441 0.33859 0.12902-0.03185 0.70845
   2   7  11   18.76   25.74 149 0.93505-0.65844 0.34132 0.31479-0.02432 0.64826
   2   8  10   30.55   26.58 150 0.93503-0.66201 0.34141 0.40903-0.02410 0.59338
   3   4  14   34.45   25.62 149 0.93522-0.52464 0.34007 0.03327-0.02778 0.82044
   4  -5  -8   11.46   19.93 149 0.93540-0.46469 0.33859-0.80848-0.03185-0.38272
   4  -5   6   66.34   34.23 151 0.93406-0.42009 0.34725-0.81640-0.00777 0.36621
   4  -2  12   24.73   22.18 148 0.93541-0.40492 0.33853-0.52665-0.03202 0.72129
   4   0  14    1.25   25.78 149 0.93514-0.40002 0.34062-0.34141-0.02627 0.82552
   5  -6  -6   22.96   25.94 149 0.93509-0.33421 0.34099-0.90620-0.02526-0.27305
   5  -5 -10   26.48   22.54 149 0.93535-0.34764 0.33904-0.81078-0.03063-0.48814
   0   6  -5   15.53   35.51 154 0.93169-0.94929 0.35725 0.20283 0.02092-0.29592
   1   0  -9  290.54   17.93 149 0.93508-0.83899 0.34137-0.34264-0.02416-0.46577
   1   1 -10   15.34   17.39 150 0.93497-0.84221 0.34212-0.25006-0.02208-0.52183
   1   1   9   47.11   19.52 150 0.93479-0.78432 0.34326-0.24958-0.01892 0.52141
   1   4 -11    7.59   18.23 150 0.93497-0.84688 0.34212 0.03015-0.02208-0.57716
   1   4  10  105.47   17.41 150 0.93474-0.78301 0.34359 0.03054-0.01800 0.57720
   1   8   7   12.44   24.39 150 0.93479-0.79388 0.34330 0.40492-0.01881 0.41330
   1   9   5   14.32   26.75 151 0.93444-0.80045 0.34535 0.49665-0.01309 0.29756
   2  -4  -1  685.49   27.02 151 0.93440-0.68924 0.34560-0.72101-0.01238-0.02949
   2  -4   0   22.38   22.96 151 0.93440-0.68667 0.34562-0.72062-0.01232 0.02542
   2  -3   6  140.87   23.02 151 0.93437-0.66855 0.34575-0.62680-0.01196 0.35607
   2  -1 -11  379.31   18.43 150 0.93492-0.72250 0.34241-0.43755-0.02129-0.57238
   2   6 -13    6.41   27.04 150 0.93468-0.73108 0.34398 0.21563-0.01692-0.68758
   3  -5  -3   13.10   17.67 150 0.93492-0.57220 0.34242-0.81213-0.02127-0.12468
   3  -4  -8   22.78   18.49 150 0.93496-0.58790 0.34218-0.71840-0.02194-0.39952
   3  -3   9   41.83   21.86 150 0.93449-0.53596 0.34510-0.62711-0.01377 0.53046
   3  -2 -12   38.28   20.73 150 0.93473-0.60085 0.34364-0.53412-0.01786-0.62542
   3   1 -15   26.56   20.43 150 0.93505-0.61211 0.34157-0.25139-0.02360-0.78195
   3   3  14   61.31   21.48 149 0.93505-0.52362 0.34158-0.06107-0.02359 0.81915
   4  -2 -14    6.58   20.92 150 0.93497-0.48507 0.34212-0.53126-0.02208-0.71958
   4  -1 -15   -1.49   22.74 150 0.93496-0.48714 0.34220-0.43954-0.02188-0.77991
   5  -4 -12  -46.79   26.45 150 0.93468-0.35332 0.34393-0.72181-0.01704-0.61303
   0   1   4  786.96   23.06 150 0.93464-0.92252 0.34452-0.25134-0.01548 0.23717
   0   3   6  651.55   20.38 151 0.93423-0.91781 0.34682-0.06623-0.00902 0.33933
   0   4   6    2.86   16.94 151 0.93444-0.91858 0.34564 0.02904-0.01233 0.34325
   0   5  -6   16.97   22.77 151 0.93378-0.95442 0.34904 0.11770-0.00274-0.32823
   1   0   8   39.91   17.29 150 0.93465-0.78747 0.34447-0.34515-0.01560 0.46320
   1   3  10   85.95   17.40 150 0.93461-0.78254 0.34468-0.06397-0.01502 0.57468
   1   5  10    3.25   21.71 151 0.93414-0.78274 0.34724 0.12060-0.00784 0.56741
   1   6 -10   -3.94   25.88 151 0.93410-0.84439 0.34747 0.21343-0.00719-0.53860
   2  -3  -7  181.12   17.71 150 0.93458-0.70799 0.34484-0.62698-0.01458-0.35795
   2   0 -12  178.43   17.88 150 0.93458-0.72447 0.34486-0.34738-0.01451-0.63298
   2   0  11  -11.85   18.54 151 0.93443-0.65512 0.34571-0.34602-0.01213 0.63219
   2   6  12   23.04   23.50 150 0.93449-0.65399 0.34537 0.21535-0.01310 0.68935
   3  -5  -2   52.63   20.99 152 0.93379-0.56816 0.34901-0.81834-0.00284-0.08712
   3  -5   1   77.34   25.95 152 0.93331-0.55875 0.35119-0.82002 0.00337 0.07185
   3  -1  12   86.70   19.76 151 0.93438-0.52789 0.34600-0.43995-0.01133 0.69391
   3   0 -14    5.29   23.34 151 0.93414-0.60719 0.34724-0.35022-0.00784-0.74478
   3   0  13   94.91   23.48 151 0.93406-0.52622 0.34767-0.34799-0.00664 0.74389
   3   2  14   -9.76   21.56 151 0.93446-0.52369 0.34557-0.15921-0.01254 0.80596
   4  -4   9   26.47   26.47 151 0.93375-0.41179 0.34919-0.72438-0.00234 0.52541
   5  -5   8   16.16   35.31 152 0.93348-0.29156 0.35043-0.81932 0.00120 0.47299
   5  -3  12   11.64   28.31 151 0.93416-0.27954 0.34716-0.63029-0.00807 0.70544
   0   5   6   21.64   19.88 152 0.93330-0.91787 0.35139 0.11791 0.00395 0.32904
   0   6   5   18.51   17.83 151 0.93375-0.92094 0.34938 0.21202-0.00179 0.27860
   0   7   3   31.45   17.90 151 0.93385-0.92794 0.34888 0.30464-0.00320 0.16965
   1  -1  -7  367.45   17.76 152 0.93388-0.83179 0.34874-0.44291-0.00358-0.37567
   1   2  10  281.54   18.13 152 0.93351-0.78137 0.35047-0.16388 0.00133 0.55664
   1   7  -9   85.41   27.46 153 0.93249-0.83934 0.35468 0.29726 0.01339-0.50298
   1  10  -1   -1.86   34.04 154 0.93188-0.81700 0.35689 0.58005 0.01982-0.06705
   1  10   0   25.25   30.11 152 0.93311-0.81432 0.35217 0.58242 0.00619 0.00203
   1  10   1   -0.59   31.25 152 0.93303-0.81043 0.35254 0.58105 0.00723 0.05611
   2  -2  -9   76.70   17.20 152 0.93362-0.71484 0.34996-0.53848-0.00012-0.48190
   2  -1  10    8.57   17.58 151 0.93394-0.65659 0.34844-0.44252-0.00445 0.57042
   2   1  12   40.79   18.62 152 0.93362-0.65079 0.34998-0.25658-0.00008 0.67586
   2   2 -13   55.51   19.72 152 0.93361-0.72818 0.35001-0.16591 0.00001-0.70375
   3  -5  -1  164.88   24.25 153 0.93277-0.56452 0.35358-0.82263 0.01022-0.04586
   3  -3 -10  133.45   19.42 152 0.93383-0.59402 0.34900-0.63176-0.00285-0.52769
   3  -1 -13  114.88   19.00 152 0.93387-0.60359 0.34880-0.44465-0.00344-0.69307
   3   2 -15   34.75   22.31 152 0.93371-0.61101 0.34954-0.16550-0.00133-0.80646
   4  -5  -7   33.63   22.62 152 0.93365-0.46032 0.34982-0.82069-0.00054-0.35957
   4  -4 -10   55.48   19.48 152 0.93372-0.46958 0.34948-0.72741-0.00150-0.52364
   4  -3 -12  -15.51   20.51 152 0.93377-0.47611 0.34924-0.63304-0.00217-0.63460
   4  -3  11    2.22   24.41 153 0.93303-0.40384 0.35254-0.63670 0.00723 0.63053
   5  -6  -5   41.27   25.15 152 0.93346-0.33062 0.35070-0.91495 0.00198-0.24467
   1  -2  -4  465.22   20.47 152 0.93327-0.82162 0.35175-0.53930 0.00498-0.21938
   1  -2   4  200.77   23.19 153 0.93277-0.79642 0.35379-0.54194 0.01082 0.21543
   1   7   9   14.89   21.03 153 0.93305-0.78580 0.35267 0.30259 0.00759 0.49752
   1   9   6  -11.19   26.18 153 0.93257-0.79471 0.35456 0.48633 0.01304 0.32422
   2   3  13   47.42   19.21 153 0.93281-0.64796 0.35362-0.07336 0.01035 0.72065
   2   4  13   25.69   20.49 152 0.93307-0.64842 0.35258 0.02128 0.00734 0.72400
   2   5 -13   20.71   24.37 153 0.93256-0.72819 0.35460 0.11060 0.01315-0.71607
   2   7 -12   19.40   27.39 153 0.93270-0.72615 0.35406 0.29864 0.01161-0.65969
   3  -5   0  149.36   24.11 154 0.93227-0.56049 0.35569-0.82481 0.01632 0.00336
   3  -2  11   48.56   18.96 152 0.93312-0.52909 0.35236-0.54041 0.00673 0.62101
   3   1  14   63.37   24.75 153 0.93260-0.52057 0.35446-0.26162 0.01276 0.78145
   3   3 -15   16.19   25.43 153 0.93251-0.61016 0.35479-0.07706 0.01372-0.82097
   5  -5  -9    7.34   22.25 153 0.93307-0.34259 0.35259-0.82285 0.00737-0.47014
   0   1  -4  801.60   28.38 154 0.93177-0.94442 0.35752-0.26348 0.02146-0.24306
   0   2   6    2.39   16.83 153 0.93221-0.91458 0.35597-0.16857 0.01695 0.31424
   0   3  -6  633.89   23.72 154 0.93205-0.95132 0.35653-0.07611 0.01859-0.34981
   0   7   4   37.31   21.58 154 0.93185-0.92236 0.35724 0.29682 0.02066 0.20129
   1  -1   7   48.38   17.53 154 0.93185-0.78692 0.35723-0.45162 0.02061 0.37172
   1   2 -10  156.20   17.51 153 0.93238-0.84035 0.35531-0.16943 0.01504-0.55957
   1   6  10   -6.63   18.91 154 0.93238-0.78196 0.35533 0.20742 0.01511 0.54520
   1   8   8    8.95   21.95 153 0.93232-0.78802 0.35554 0.39247 0.01572 0.43355
   1  10  -2    7.82   37.74 155 0.93091-0.81758 0.36031 0.57281 0.02964-0.13189
   1  10   2    2.21   26.82 154 0.93180-0.80678 0.35740 0.57739 0.02112 0.09727
   2   3 -13   12.01   20.16 154 0.93215-0.72683 0.35617-0.07764 0.01754-0.72131
   2   4 -13   22.15   23.13 154 0.93195-0.72730 0.35689 0.01593 0.01963-0.72536
   2   5  13   16.25   23.30 153 0.93236-0.64844 0.35540 0.11203 0.01532 0.71655
   2   7  12   24.86   24.90 153 0.93224-0.65250 0.35582 0.29889 0.01654 0.66091
   3  -4  -7   99.99   18.09 153 0.93228-0.58288 0.35568-0.73105 0.01612-0.38199
   3  -4   7  127.89   27.31 155 0.93060-0.53840 0.36129-0.73613 0.03253 0.37421
   3   4 -15   -1.10   24.16 154 0.93217-0.60971 0.35611 0.01582 0.01736-0.82500
   4  -2 -13    5.18   20.77 154 0.93203-0.47718 0.35660-0.54733 0.01879-0.71198
   4   0 -15   39.48   27.15 155 0.93139-0.48493 0.35878-0.36130 0.02515-0.82158
   5  -3 -13   -0.50   25.38 153 0.93236-0.35490 0.35540-0.63998 0.01532-0.69955
   0   4  -6    2.44   19.22 155 0.93070-0.95063 0.36100 0.01258 0.03155-0.36226
   0   4   7   77.05   17.17 154 0.93124-0.91146 0.35931 0.01494 0.02658 0.36025
   0   6   6   32.65   21.31 155 0.93081-0.91550 0.36069 0.20051 0.03064 0.30029
   1   0  -8   64.58   17.61 155 0.93106-0.83206 0.35989-0.36101 0.02830-0.46376
   1   4  11   57.58   19.45 155 0.93118-0.77591 0.35950 0.01463 0.02716 0.58691
   1   5 -10   42.72   21.98 156 0.93027-0.83942 0.36231 0.10298 0.03542-0.57978
   1  10   3   11.23   30.54 155 0.93063-0.80195 0.36124 0.57174 0.03226 0.14091
   2  -3  -6    5.90   16.79 154 0.93138-0.70204 0.35886-0.64088 0.02528-0.34316
   2  -2   9   35.12   20.24 155 0.93049-0.65571 0.36165-0.54942 0.03348 0.47685
   2  -1 -10  303.34   17.60 155 0.93098-0.71445 0.36014-0.45602 0.02903-0.56724
   2   1 -12   88.90   18.58 155 0.93115-0.72159 0.35959-0.26940 0.02740-0.67569
   2   2  13    4.97   20.40 155 0.93129-0.64673 0.35915-0.17250 0.02612 0.70514
   2   6  13    0.32   27.02 156 0.93014-0.64689 0.36268 0.20094 0.03654 0.69984
   3  -2 -11  206.77   18.95 155 0.93084-0.59365 0.36058-0.55069 0.03032-0.61699
   3   1 -14   -7.77   21.60 155 0.93110-0.60445 0.35978-0.26879 0.02796-0.78161
   3   3  15   -7.71   25.43 154 0.93131-0.51707 0.35908-0.07919 0.02592 0.82205
   4  -1 -14   39.39   21.94 155 0.93113-0.48071 0.35968-0.45645 0.02766-0.77350
   4  -1  14   56.55   24.47 154 0.93135-0.39596 0.35897-0.45465 0.02559 0.77301
   5  -6  -4    9.50   25.01 154 0.93123-0.32495 0.35935-0.92389 0.02671-0.21425
   5  -4 -11   15.46   24.57 155 0.93123-0.34716 0.35936-0.73564 0.02673-0.59905
   6  -6  -6    0.41   28.74 156 0.93025-0.20701 0.36236-0.92574 0.03559-0.32603
   0   1   5   73.79   13.38 155 0.93067-0.91552 0.36107-0.26767 0.03154 0.24529
   0   3   7  220.38   18.06 155 0.93054-0.91072 0.36148-0.07998 0.03276 0.35350
   0   5   7  174.55   18.47 155 0.93006-0.91110 0.36289 0.10520 0.03694 0.34899
   1   0   9  159.97   17.20 156 0.92977-0.77967 0.36371-0.36299 0.03937 0.46350
   1   1  -9  341.86   18.18 155 0.93036-0.83398 0.36200-0.27023 0.03430-0.52454
   1   1  10   88.69   17.51 155 0.93019-0.77786 0.36251-0.26923 0.03582 0.52208
   1   3 -10   69.07   17.55 156 0.92985-0.83798 0.36351-0.08592 0.03877-0.58373
   1   3  11  179.19   17.18 155 0.93058-0.77658 0.36135-0.07981 0.03238 0.58066
   1   5  11  -13.37   20.29 156 0.93019-0.77640 0.36252 0.10538 0.03583 0.57841
   1   9   7   22.50   27.34 156 0.92947-0.78838 0.36454 0.47534 0.04187 0.35150
   2   0 -11   15.37   18.96 156 0.93004-0.71715 0.36295-0.36484 0.03711-0.63091
   3  -3  -9   48.37   17.07 156 0.92974-0.58582 0.36381-0.64689 0.03969-0.51713
   3   2  15    5.48   25.75 156 0.92964-0.51527 0.36409-0.17776 0.04052 0.80799
   4  -5  -6   50.03   19.66 156 0.93019-0.45412 0.36250-0.83177 0.03579-0.33957
   4  -4  -9   29.49   19.87 156 0.92973-0.46257 0.36382-0.74070 0.03971-0.50983
   4  -2  13    3.15   21.74 155 0.93031-0.39707 0.36217-0.55039 0.03481 0.70931
   5  -5  -8   -6.61   25.09 156 0.92939-0.33554 0.36478-0.83570 0.04257-0.45085
   0   2  -5  919.36   23.44 157 0.92881-0.94460 0.36628-0.18009 0.04695-0.32330
   0   7   5   19.99   18.69 156 0.92894-0.91655 0.36595 0.28867 0.04597 0.23073
   1  -2  -3  702.75   22.09 157 0.92867-0.81383 0.36667-0.55437 0.04811-0.20725
   1  -1  -6  302.46   18.22 157 0.92882-0.82352 0.36626-0.46064 0.04688-0.37126
   1   2  11  228.31   18.27 157 0.92839-0.77414 0.36739-0.17919 0.05027 0.56236
   1   4 -10   46.51   17.84 157 0.92875-0.83736 0.36644 0.00311 0.04742-0.59182
   1   7  10   -5.55   22.78 156 0.92922-0.77852 0.36521 0.28927 0.04374 0.51565
   1   8   9   28.74   25.30 157 0.92840-0.78148 0.36735 0.38042 0.05016 0.45416
   1  10   4    6.76   27.88 156 0.92891-0.79708 0.36603 0.56417 0.04619 0.18138
   2  -2  -8   19.82   16.29 157 0.92882-0.70581 0.36626-0.55494 0.04687-0.47518
   2   0  12  103.10   19.01 156 0.92904-0.64724 0.36569-0.36558 0.04516 0.63017
   3  -1 -12   20.83   17.61 157 0.92893-0.59520 0.36599-0.46191 0.04608-0.68805
   3  -1  13   26.32   23.25 157 0.92848-0.51920 0.36713-0.46127 0.04951 0.68766
   3   0 -13   26.70   20.41 157 0.92895-0.59853 0.36594-0.36829 0.04591-0.74237
   3   0  14   10.33   23.79 156 0.92884-0.51743 0.36623-0.36634 0.04678 0.74207
   4  -3 -11   24.77   18.81 157 0.92908-0.46907 0.36559-0.64800 0.04488-0.62359
   5  -6  -3  -15.74   24.98 157 0.92828-0.31928 0.36766-0.93151 0.05109-0.18490
   5  -4  11    6.29   29.47 158 0.92787-0.27669 0.36867-0.74567 0.05416 0.58734
   0   0   2   21.75   28.42 158 0.92760-0.92150 0.36924-0.36979 0.05584 0.05307
   0   2   7  285.67   17.72 158 0.92709-0.90684 0.37042-0.18400 0.05945 0.32645
   0   6   7   15.78   21.52 158 0.92671-0.90852 0.37131 0.18947 0.06215 0.32438
   0   8   0  103.39   29.08 158 0.92599-0.92932 0.37290 0.37326 0.06704-0.06629
   0   8   1   11.23   25.59 158 0.92663-0.92712 0.37149 0.37651 0.06272-0.00654
   0   8   2   34.06   24.76 159 0.92565-0.92374 0.37364 0.37598 0.06934 0.04220
   1   6  11  -25.20   20.40 158 0.92774-0.77482 0.36888 0.19296 0.05476 0.56001
   2  -1  11   30.27   18.60 157 0.92774-0.64760 0.36888-0.46358 0.05476 0.56522
   2   1  13   13.08   19.66 157 0.92777-0.64249 0.36882-0.27559 0.05456 0.67707
   2   2 -12   17.82   20.85 158 0.92713-0.71800 0.37035-0.18526 0.05922-0.70871
   2   3  14   61.01   20.87 158 0.92714-0.63952 0.37032-0.09014 0.05915 0.72670
   2   4  14   22.49   22.18 157 0.92761-0.64066 0.36921 0.00471 0.05577 0.73149
   2   5  14   28.30   25.99 159 0.92649-0.64010 0.37181 0.09677 0.06368 0.72640
   2   6 -12   12.14   25.24 158 0.92665-0.71919 0.37143 0.18599 0.06254-0.70856
   3  -4  -6   40.98   17.48 157 0.92773-0.57451 0.36891-0.74466 0.05484-0.36601
   3  -3  10   50.29   22.81 158 0.92719-0.52644 0.37019-0.65164 0.05874 0.51241
   3   2 -14   11.97   20.36 158 0.92741-0.60092 0.36969-0.18543 0.05721-0.80895
   4   1 -15   18.73   24.22 157 0.92771-0.48083 0.36896-0.27881 0.05499-0.85614
   5  -3 -12   34.46   24.88 158 0.92673-0.34622 0.37127-0.65453 0.06205-0.68955
   6  -6  -5   22.27   28.06 158 0.92706-0.19886 0.37050-0.93688 0.05970-0.29650
   0   4   8  245.31   19.02 158 0.92625-0.90475 0.37222 0.00096 0.06500 0.37577
   0   7   6   15.74   22.63 159 0.92498-0.91041 0.37495 0.27997 0.07344 0.25860
   1  10  -3   -1.61   54.43 161 0.92193-0.81175 0.38079 0.55037 0.09179-0.24925
   2  -3  -5   62.00   16.85 159 0.92566-0.69335 0.37351-0.65478 0.06897-0.33198
   2  -3   7  375.21   22.99 159 0.92581-0.65724 0.37319-0.65484 0.06799 0.33009
   3  -2  12    6.50   23.14 158 0.92615-0.52033 0.37246-0.55892 0.06573 0.61325
   3   1  15   -7.30   23.68 159 0.92609-0.51200 0.37258-0.27989 0.06612 0.78162
   4  -5  -5   11.15   21.81 159 0.92565-0.44586 0.37354-0.84351 0.06907-0.31855
   4  -3  12  113.94   26.27 159 0.92523-0.39533 0.37442-0.65752 0.07178 0.61592
   4  -2 -12   21.95   20.58 158 0.92606-0.46880 0.37265-0.56376 0.06633-0.70357
   5  -6  -2  -12.17   25.93 160 0.92470-0.31263 0.37551-0.93866 0.07518-0.15373
   5  -4 -10   -7.86   22.77 159 0.92609-0.33833 0.37258-0.74948 0.06612-0.58562
   0   1   6  419.68   19.26 159 0.92502-0.90744 0.37492-0.28238 0.07314 0.25698
   0   3   8   36.18   17.06 159 0.92518-0.90267 0.37459-0.09438 0.07213 0.36897
   0   5   8   24.64   18.21 159 0.92503-0.90357 0.37491 0.09326 0.07311 0.36937
   0   8   3   14.21   22.66 159 0.92486-0.91896 0.37525 0.37225 0.07417 0.09212
   1  -2   5  987.51   27.17 160 0.92414-0.78426 0.37670-0.56542 0.07869 0.20326
   1  -1   8  332.13   18.56 160 0.92458-0.77656 0.37582-0.47053 0.07595 0.37131
   1   2  -9  246.73   21.08 160 0.92400-0.82864 0.37697-0.19105 0.07955-0.56936
   1   3  12   15.75   18.49 160 0.92434-0.76638 0.37629-0.09572 0.07743 0.59184
   1   4  12   20.61   18.61 160 0.92476-0.76775 0.37545 0.00001 0.07478 0.59797
   1   5  12  -12.33   21.73 160 0.92454-0.76763 0.37590 0.09147 0.07621 0.59220
   1   6  -9   28.04   24.59 161 0.92303-0.82930 0.37882 0.18063 0.08537-0.57427
   1   7  11   -1.70   25.26 159 0.92456-0.77014 0.37586 0.27520 0.07608 0.53472
   1   9   8   -2.61   25.34 160 0.92483-0.78209 0.37531 0.46718 0.07437 0.37391
   2   2  14   59.84   21.92 159 0.92465-0.63691 0.37569-0.18905 0.07553 0.71058
   2   3 -12   56.38   21.51 160 0.92355-0.71432 0.37784-0.09956 0.08227-0.73023
   2   5 -12   -0.48   23.97 160 0.92403-0.71637 0.37691 0.08985 0.07934-0.73022
   3  -2 -10   -0.56   17.07 160 0.92401-0.58354 0.37695-0.56612 0.07946-0.61122
   3   3 -14    7.74   21.28 159 0.92486-0.59867 0.37526-0.09746 0.07419-0.82626
   3   4 -14   27.86   25.03 159 0.92429-0.59845 0.37640-0.00422 0.07777-0.83255
   3   5 -14    9.69   23.81 160 0.92454-0.59895 0.37590 0.08876 0.07621-0.82749
   4  -4  -8    6.25   21.16 161 0.92340-0.45356 0.37812-0.75372 0.08317-0.49719
   4  -4  10    5.31   27.69 161 0.92213-0.39643 0.38047-0.75890 0.09060 0.49053
   4  -1 -13   22.22   20.47 160 0.92439-0.47033 0.37620-0.47314 0.07714-0.76867
   4   0 -14   23.33   22.35 160 0.92477-0.47386 0.37544-0.37823 0.07475-0.81931
   4   2 -15   41.53   26.50 160 0.92352-0.47695 0.37790-0.19422 0.08247-0.88166
   5  -6   3   10.25   37.91 163 0.91924-0.29156 0.38540-0.94888 0.10641 0.09228
   5  -5  -7   -4.26   23.98 160 0.92390-0.32681 0.37716-0.84704 0.08014-0.43436
   5  -2 -13   54.07   26.12 160 0.92380-0.34611 0.37736-0.56765 0.08078-0.76424
   0   0   3  465.69   26.46 160 0.92339-0.91380 0.37826-0.37969 0.08349 0.08230
   0   8  -1    6.71   28.10 162 0.91981-0.92657 0.38456 0.36439 0.10359-0.15823
   0   8   4   30.42   23.79 161 0.92248-0.91355 0.37994 0.36782 0.08879 0.13260
   1   0  -7   61.09   16.90 161 0.92273-0.82114 0.37949-0.38046 0.08737-0.46661
   1   0  10  142.22   20.36 161 0.92211-0.76892 0.38061-0.38162 0.09093 0.46720
   1   1  11  176.09   18.64 160 0.92320-0.76780 0.37861-0.28572 0.08459 0.52865
   1   8  10   16.30   24.56 160 0.92322-0.77351 0.37857 0.36946 0.08447 0.47502
   2  -1  -9  256.68   17.33 160 0.92353-0.70329 0.37799-0.47219 0.08265-0.56669
   2   1 -11  387.52   18.29 161 0.92298-0.71028 0.37902-0.28696 0.08588-0.67943
   2   4 -12   13.56   21.82 161 0.92227-0.71354 0.38033-0.00821 0.09004-0.73837
   2   7 -11    1.37   28.36 161 0.92218-0.71218 0.38048 0.27369 0.09052-0.68530
   3  -3  -8   68.82   17.40 161 0.92297-0.57736 0.37904-0.66189 0.08594-0.50598
   3   1 -13  116.55   19.88 161 0.92300-0.59349 0.37899-0.28724 0.08578-0.78238
   4  -3 -10   10.05   18.21 161 0.92248-0.45839 0.37995-0.66323 0.08882-0.61418
   5  -6  -1    6.94   26.44 162 0.92087-0.30569 0.38279-0.94522 0.09788-0.11997
   5  -1 -14   17.72   24.00 161 0.92297-0.34852 0.37905-0.47600 0.08598-0.82489
   6  -6  -4   22.89   27.46 161 0.92210-0.19182 0.38063-0.94526 0.09097-0.27205
   6  -5  -8    5.67   27.39 162 0.92149-0.20625 0.38171-0.85027 0.09443-0.49417
   0   2   8  497.18   17.85 162 0.92067-0.89787 0.38305-0.19680 0.09881 0.34204
   0   6   8  -16.52   18.43 162 0.92153-0.90087 0.38157 0.18037 0.09406 0.34731
   0   7   7   34.85   21.93 162 0.92074-0.90283 0.38293 0.27052 0.09841 0.28824
   1  -2  -2 3233.34   39.20 162 0.92032-0.80233 0.38363-0.57094 0.10069-0.20531
   1   1  -8  359.45   18.54 162 0.92110-0.82277 0.38232-0.28946 0.09646-0.53124
   1   2  12  186.75   19.65 162 0.92125-0.76274 0.38206-0.19585 0.09565 0.57255
   1   6  12   18.37   22.19 161 0.92175-0.76518 0.38118 0.17993 0.09284 0.57681
   1   8  -7    9.29   33.02 164 0.91737-0.81862 0.38832 0.35871 0.11592-0.49505
   2  -2  -7  105.45   17.14 162 0.92096-0.69564 0.38256-0.57042 0.09725-0.47029
   2  -2  10  340.80   19.27 161 0.92148-0.64447 0.38165-0.56974 0.09433 0.47013
   2   0 -10   74.87   17.94 162 0.92142-0.70538 0.38176-0.38351 0.09468-0.63193
   2   0  13    9.78   20.20 162 0.92087-0.63529 0.38271-0.38314 0.09773 0.63284
   3  -4  -5   81.38   17.21 162 0.92129-0.56588 0.38199-0.75726 0.09543-0.35105
   3  -1 -11   23.22   17.54 162 0.92089-0.58374 0.38268-0.47859 0.09762-0.68523
   3   0 -12   12.93   21.43 162 0.92044-0.58691 0.38345-0.38564 0.10009-0.74174
   4  -2  14   23.17   27.13 162 0.92075-0.38517 0.38291-0.57141 0.09836 0.70057
   5  -5   9  -11.20   36.13 164 0.91775-0.27322 0.38774-0.85809 0.11403 0.41580
   0   1  -3  546.73   30.25 163 0.91878-0.92840 0.38625-0.29168 0.10903-0.27536
   0   3  -5  146.32   21.94 164 0.91779-0.93382 0.38778-0.10728 0.11402-0.39042
   0   3   9   36.88   19.85 163 0.91861-0.89309 0.38652-0.10544 0.10988 0.38693
   0   4   9   97.68   17.41 162 0.92031-0.89539 0.38377-0.01035 0.10097 0.39559
   0   5   9  280.23   19.17 162 0.91948-0.89431 0.38513 0.08169 0.10537 0.39135
   0   8   5   -6.16   22.96 163 0.91885-0.90758 0.38614 0.36382 0.10864 0.16713
   1  -1  -5 1123.96   22.50 163 0.91957-0.81098 0.38499-0.47861 0.10491-0.37546
   1   3  -9    4.51   20.43 163 0.91854-0.82373 0.38663-0.10706 0.11027-0.60023
   1   7  -8   23.39   26.80 164 0.91656-0.81985 0.38962 0.26334 0.12006-0.55396
   2  -1  12   43.17   21.67 163 0.91873-0.63515 0.38632-0.48112 0.10925 0.56593
   2   1  14    9.21   20.45 163 0.91948-0.63149 0.38513-0.29219 0.10540 0.68127
   2   3  15   15.75   23.91 162 0.91963-0.62855 0.38488-0.10493 0.10458 0.73476
   2   4  15   19.53   21.78 162 0.92024-0.63049 0.38388-0.01026 0.10133 0.74056
   2   8 -10    0.34   30.70 164 0.91683-0.70330 0.38923 0.35495 0.11878-0.65478
   3  -4   8   35.94   24.47 164 0.91760-0.52188 0.38807-0.76320 0.11498 0.34644
   3  -1  14   48.92   26.57 163 0.91925-0.50691 0.38550-0.47971 0.10657 0.68546
   3   0  15  114.41   24.21 163 0.91939-0.50414 0.38528-0.38689 0.10588 0.74194
   4  -5  -4   27.61   17.79 163 0.91965-0.43669 0.38486-0.85473 0.10451-0.29880
   4  -5   7   29.36   34.13 165 0.91544-0.39919 0.39123-0.86085 0.12540 0.28746
   5  -6   0   24.18   26.76 164 0.91776-0.29955 0.38782-0.95059 0.11416-0.08099
   5  -6   1   11.79   29.26 164 0.91630-0.29458 0.39001-0.95416 0.12135-0.03294
   5  -6   2    9.40   33.10 164 0.91624-0.29123 0.39009-0.95453 0.12161 0.02208
   5  -4  -9   14.23   23.58 163 0.91898-0.32769 0.38593-0.76368 0.10797-0.57205
   5  -3 -11    7.96   21.76 163 0.91948-0.33486 0.38513-0.66874 0.10540-0.68026
   6  -4 -10   49.04   26.69 163 0.91842-0.20840 0.38682-0.76335 0.11088-0.62153
   0   0   4 1219.21   26.72 163 0.91840-0.90569 0.38672-0.38817 0.11077 0.11079
   0   1   7  401.73   18.38 163 0.91833-0.89748 0.38683-0.29420 0.11112 0.27534
   0   5  -5   49.19   25.61 166 0.91307-0.92971 0.39434 0.07208 0.13608-0.41194
   1   4  13   23.10   20.71 164 0.91769-0.75743 0.38781-0.01394 0.11434 0.61055
   1   5  -9  177.49   22.07 164 0.91703-0.82219 0.38881 0.07751 0.11760-0.60821
   1   5  13   19.27   20.99 164 0.91704-0.75702 0.38879 0.07848 0.11755 0.60703
   1   7  12   18.50   22.32 164 0.91726-0.76091 0.38845 0.26482 0.11645 0.55190
   2  -3  -4  114.94   18.07 164 0.91737-0.68153 0.38829-0.67036 0.11590-0.32330
   3   2 -13   17.42   20.28 164 0.91738-0.58763 0.38828-0.20339 0.11587-0.81338
   4  -2 -11   27.97   19.89 164 0.91695-0.45623 0.38891-0.57855 0.11796-0.69854
   4   1 -14    5.81   20.44 164 0.91769-0.46833 0.38780-0.29689 0.11431-0.85586
   5  -5  -6   15.11   24.18 164 0.91652-0.31707 0.38955-0.85851 0.12006-0.41715
   6  -6  -3   11.12   27.14 163 0.91723-0.18411 0.38850-0.95422 0.11659-0.24261
   0   6   9   58.27   18.46 164 0.91574-0.89135 0.39074 0.17001 0.12392 0.37300
   0   7   8   45.79   19.97 165 0.91551-0.89408 0.39108 0.26311 0.12503 0.31653
   0   8   6   18.99   23.48 165 0.91470-0.90071 0.39221 0.35757 0.12881 0.20352
   1  -2   6   79.75   20.61 165 0.91452-0.77240 0.39245-0.58070 0.12962 0.20668
   1  -1   9   49.48   16.82 165 0.91546-0.76469 0.39114-0.48536 0.12525 0.37754
   1   3  13   41.09   18.96 164 0.91632-0.75610 0.38991-0.11039 0.12116 0.60249
   1   4  -9   -4.80   17.64 165 0.91564-0.82097 0.39089-0.01772 0.12441-0.61424
   2  -3   8  189.71   21.37 165 0.91376-0.64217 0.39348-0.67592 0.13309 0.32039
   2   2 -11   -1.38   18.92 165 0.91581-0.70265 0.39065-0.20472 0.12360-0.71770
   2   2  15   73.79   22.88 164 0.91581-0.62536 0.39064-0.20480 0.12359 0.71708
   3  -3  11   74.13   22.88 165 0.91561-0.51164 0.39093-0.67321 0.12454 0.50200
   3  -2  13   -2.85   23.92 165 0.91460-0.50628 0.39234-0.58046 0.12926 0.60694
   3   6 -13   -2.82   29.22 165 0.91529-0.58700 0.39138 0.16756 0.12603-0.82316
   4  -4  -7   94.40   18.88 165 0.91551-0.44259 0.39108-0.76755 0.12503-0.48413
   4   0 -13   64.50   20.49 165 0.91503-0.46121 0.39174-0.39437 0.12724-0.81787
   5  -2 -12   37.83   25.29 165 0.91428-0.33396 0.39277-0.58183 0.13070-0.75777
   6  -5  -7   -1.58   26.76 165 0.91477-0.19432 0.39210-0.86306 0.12846-0.47497
   0   0   5  106.83   18.89 166 0.91258-0.89728 0.39495-0.39635 0.13799 0.13651
   0   2   9   52.31   16.63 166 0.91331-0.88722 0.39399-0.20686 0.13476 0.36149
   0   4  -5   13.52   22.11 167 0.91085-0.92777 0.39715-0.02277 0.14551-0.42190
   0   4  10   31.89   17.92 166 0.91316-0.88490 0.39419-0.02010 0.13543 0.41651
   1   0  11  105.65   16.94 166 0.91273-0.75643 0.39475-0.39638 0.13733 0.47560
   1   1  12   86.35   18.23 165 0.91426-0.75626 0.39271-0.30091 0.13045 0.53713
   1   6  13   10.00   23.40 165 0.91417-0.75466 0.39283 0.16780 0.13085 0.59350
   2   6 -11   -0.94   24.77 167 0.91134-0.70018 0.39653 0.16033 0.14339-0.73329
   3  -4  -4  173.82   20.61 166 0.91253-0.55378 0.39501-0.77036 0.13821-0.33961
   3  -3  -7   65.72   17.58 166 0.91330-0.56408 0.39400-0.67640 0.13479-0.50007
   3  -2  -9   74.01   18.24 165 0.91392-0.57057 0.39318-0.58097 0.13202-0.60817
   3   3 -13   -1.37   21.34 166 0.91328-0.58362 0.39403-0.11505 0.13490-0.83394
   4  -5  -3    8.00   20.95 166 0.91200-0.42594 0.39570-0.86565 0.14056-0.27964
   4  -3  -9    8.26   19.20 165 0.91340-0.44618 0.39387-0.67781 0.13436-0.60566
   4  -3  13   11.22   25.99 166 0.91288-0.37982 0.39456-0.67665 0.13667 0.60697
   4  -1 -12   -0.02   18.86 166 0.91395-0.45667 0.39313-0.48826 0.13187-0.76620
   4   2 -14   38.30   25.05 166 0.91247-0.46237 0.39509-0.21068 0.13847-0.88467
   5  -1 -13  -12.50   22.19 166 0.91328-0.33513 0.39403-0.49073 0.13490-0.82058
   5   0 -14   52.96   22.22 165 0.91402-0.34039 0.39304-0.39593 0.13155-0.86954
   0   1   8   54.83   17.04 167 0.91051-0.88686 0.39738-0.30452 0.14631 0.29491
   0   2  -4  597.09   25.94 167 0.91017-0.92276 0.39779-0.21046 0.14774-0.36931
   0   3  10  171.97   17.12 167 0.91081-0.88261 0.39700-0.11608 0.14501 0.40595
   0   5  10    3.26   17.42 167 0.91119-0.88506 0.39652 0.07326 0.14338 0.41187
   0   8   7   15.14   23.34 166 0.91075-0.89315 0.39707 0.34920 0.14527 0.24034
   1   2  13   15.36   18.83 166 0.91185-0.75079 0.39569-0.20907 0.14055 0.58369
   2  -2  11  117.60   22.09 167 0.90969-0.62970 0.39837-0.58625 0.14973 0.47093
   2  -1  -8  209.62   16.46 166 0.91212-0.68935 0.39534-0.48954 0.13936-0.56754
   2   0  14   16.02   23.06 168 0.90934-0.62099 0.39879-0.40014 0.15118 0.63736
   2   1 -10  240.20   21.09 167 0.91000-0.69303 0.39800-0.30669 0.14846-0.68745
   2   3 -11  187.93   21.53 167 0.90967-0.69645 0.39839-0.12037 0.14981-0.74352
   3   1 -12   37.90   19.06 167 0.91102-0.57764 0.39674-0.30523 0.14413-0.78618
   3   4 -13    7.11   21.78 166 0.91119-0.58273 0.39652-0.02422 0.14338-0.84255
   3   5 -13   11.55   22.78 167 0.91101-0.58225 0.39676 0.06835 0.14418-0.84064
   6  -6  -2   12.53   26.51 166 0.91087-0.17467 0.39693-0.96200 0.14477-0.21537
   0   6  10   -7.83   18.66 168 0.90857-0.88178 0.39974 0.16122 0.15399 0.39688
   0   7   9   -0.51   20.09 167 0.90891-0.88521 0.39933 0.25477 0.15258 0.34407
   0   8  -2   12.78   39.81 171 0.90019-0.90960 0.40870 0.33809 0.18586-0.29609
   1   0  -6  428.01   19.53 168 0.90815-0.80217 0.40022-0.40125 0.15568-0.48113
   1   2  -8  215.35   17.86 168 0.90889-0.80946 0.39935-0.21388 0.15267-0.58803
   1   4  14   41.55   20.88 168 0.90856-0.74540 0.39975-0.02643 0.15404 0.62492
   1   5  14   22.77   21.05 168 0.90809-0.74548 0.40030 0.06619 0.15595 0.62262
   2  -2  -6  329.94   19.14 168 0.90876-0.67886 0.39951-0.58856 0.15320-0.47054
   2   0  -9  582.82   18.70 168 0.90863-0.68878 0.39967-0.40214 0.15375-0.63721
   2   1  15   44.36   22.02 167 0.90881-0.61821 0.39945-0.30702 0.15299 0.68787
   2   3  16    8.56   24.28 167 0.90901-0.61625 0.39921-0.11992 0.15218 0.74360
   2   5 -11   26.36   22.20 168 0.90781-0.69638 0.40062 0.06571 0.15706-0.75132
   3  -1 -10   44.50   17.41 168 0.90878-0.56860 0.39949-0.49483 0.15314-0.68481
   3   0 -11   74.78   17.92 168 0.90797-0.57110 0.40043-0.40266 0.15640-0.74354
   4  -4  11    9.37   25.52 168 0.90827-0.38074 0.40008-0.77610 0.15521 0.47821
   4   3 -14   43.23   25.19 168 0.90782-0.45776 0.40060-0.12266 0.15700-0.90363
   5  -5  -5   34.24   24.25 168 0.90753-0.30458 0.40094-0.87001 0.15820-0.40045
   5  -4  -8    5.32   21.46 168 0.90872-0.31451 0.39956-0.77578 0.15339-0.56125
   5  -3 -10   -8.94   21.39 168 0.90891-0.32078 0.39933-0.68220 0.15258-0.67196
   6  -4  -9   34.72   24.07 168 0.90902-0.19466 0.39920-0.77606 0.15215-0.60852
   0   0   6 1161.58   23.84 169 0.90569-0.88734 0.40298-0.40405 0.16528 0.16579
   0   8   8    5.12   25.04 168 0.90560-0.88436 0.40308 0.34222 0.16562 0.27450
   0   9   2   23.99   27.22 170 0.90351-0.90189 0.40533 0.43624 0.17361-0.06310
   0   9   3    7.13   24.18 169 0.90565-0.90019 0.40303 0.43734 0.16544 0.00024
   0   9   4   11.56   24.19 169 0.90417-0.89651 0.40463 0.43660 0.17113 0.04981
   1   3  14  -14.59   20.85 169 0.90632-0.74342 0.40229-0.12248 0.16283 0.61595
   2  -1  13   -3.46   20.74 169 0.90647-0.62173 0.40212-0.49695 0.16223 0.56836
   2   4 -11    2.97   18.87 169 0.90637-0.69390 0.40223-0.02996 0.16263-0.75547
   3  -1  15  -30.91   23.30 169 0.90637-0.49240 0.40223-0.49737 0.16263 0.68486
   4   1 -13   14.63   23.58 170 0.90441-0.45093 0.40437-0.31331 0.17020-0.85803
   4   4 -14    1.18   26.67 168 0.90637-0.45573 0.40223-0.02956 0.16263-0.91271
   5   1 -14   37.53   22.38 168 0.90601-0.33071 0.40263-0.31248 0.16404-0.90651
   6  -6  -1   -5.73   30.06 170 0.90394-0.16521 0.40487-0.96886 0.17198-0.18903
   6  -5  -6   29.36   27.36 169 0.90574-0.18153 0.40293-0.87471 0.16508-0.45707
   0   2  10   -7.32   16.99 170 0.90402-0.87618 0.40467-0.21781 0.17144 0.38006
   0   4  11  108.00   20.10 169 0.90435-0.87429 0.40432-0.03126 0.17019 0.43660
   0   5  11   31.33   19.43 169 0.90401-0.87373 0.40469 0.06264 0.17150 0.43551
   0   9   5   -2.22   24.71 170 0.90186-0.89139 0.40691 0.43427 0.17947 0.09651
   1  -2  -1 3629.53   43.86 169 0.90405-0.78222 0.40465-0.59260 0.17136-0.22103
   1  -2   7   17.52   16.85 170 0.90373-0.75883 0.40498-0.59252 0.17255 0.22040
   1  -1  -4  186.11   19.11 170 0.90330-0.79207 0.40544-0.49882 0.17418-0.38799
   1  -1  10   92.52   17.45 169 0.90403-0.75089 0.40467-0.49981 0.17144 0.38620
   1   1  -7  388.64   19.31 169 0.90443-0.80226 0.40424-0.31058 0.16991-0.54956
   1   1  13   38.91   19.41 170 0.90351-0.74214 0.40521-0.31226 0.17338 0.55037
   1   6  -8   27.39   24.22 171 0.90130-0.80473 0.40748 0.15238 0.18151-0.61702
   1   6  14    9.69   22.87 169 0.90466-0.74318 0.40399 0.15648 0.16903 0.61080
   2  -3  -3  958.97   22.71 169 0.90433-0.66506 0.40434-0.68571 0.17028-0.32303
   2   2  16    7.70   23.35 170 0.90402-0.61186 0.40467-0.21912 0.17144 0.72520
   2   7 -10    9.18   27.56 171 0.90124-0.68749 0.40754 0.24551 0.18174-0.72044
   3  -4   9   48.01   25.39 171 0.90055-0.50151 0.40823-0.78416 0.18424 0.33225
   4  -5  -2   88.90   21.61 170 0.90181-0.41317 0.40696-0.87608 0.17965-0.26283
   4  -4  -6  110.62   18.84 170 0.90404-0.42763 0.40466-0.78055 0.17138-0.47456
   4  -2 -10   56.86   18.09 169 0.90446-0.44073 0.40421-0.59284 0.16979-0.69479
   5  -2 -11   27.49   23.88 170 0.90224-0.31775 0.40653-0.59648 0.17809-0.75184
   0   1   9  558.93   18.76 170 0.90137-0.87608 0.40736-0.31438 0.18114 0.31418
   0   3  11  384.68   18.84 170 0.90148-0.87167 0.40725-0.12730 0.18075 0.42472
   0   6  11   48.67   19.06 171 0.90063-0.87074 0.40809 0.15162 0.18381 0.42204
   0   7  10   17.54   21.31 170 0.90142-0.87535 0.40731 0.24696 0.18098 0.37099
   0   9   1   16.10   27.09 171 0.89855-0.90008 0.41011 0.43143 0.19119-0.13610
   1   0  12  975.31   21.73 170 0.90129-0.74342 0.40743-0.40780 0.18143 0.48654
   1   2  14   85.04   21.11 171 0.90100-0.73707 0.40773-0.22148 0.18250 0.59679
   2  -3   9  159.39   22.02 171 0.89960-0.62514 0.40910-0.69117 0.18750 0.32225
   3  -4  -3   47.18   20.50 171 0.90043-0.53772 0.40829-0.78448 0.18455-0.33009
   3  -3  -6  102.04   20.47 171 0.89975-0.54597 0.40895-0.69112 0.18695-0.49796
   3  -3  12   31.32   24.53 171 0.89980-0.49277 0.40891-0.69221 0.18680 0.49668
   3  -2  -8   24.57   18.16 171 0.90030-0.55269 0.40842-0.59692 0.18499-0.60738
   3  -2  14    7.99   24.98 171 0.90008-0.48809 0.40864-0.59761 0.18580 0.60661
   3   2 -12   40.66   18.25 170 0.90227-0.56932 0.40645-0.22162 0.17788-0.82017
   4  -3  -8   54.46   17.43 171 0.90029-0.42890 0.40843-0.69212 0.18505-0.60002
   4  -1 -11   59.98   19.02 171 0.90064-0.43989 0.40809-0.50386 0.18379-0.76434
   4   0 -12  -12.51   19.15 171 0.90097-0.44344 0.40775-0.41020 0.18259-0.81835
   5  -1 -12    2.43   24.60 171 0.89978-0.31794 0.40893-0.50534 0.18686-0.81707
   5   0 -13   -4.58   22.76 171 0.90097-0.32255 0.40775-0.41075 0.18259-0.86805
   6  -6   0   12.50   30.17 172 0.89726-0.15490 0.41132-0.97599 0.19564-0.15601
   0   0   7 1105.58   22.68 172 0.89797-0.87695 0.41066-0.41185 0.19304 0.19232
   0   8   9    3.51   22.94 171 0.89844-0.87514 0.41022 0.33673 0.19142 0.30454
   0   9   6   -2.65   22.24 172 0.89844-0.88499 0.41022 0.43158 0.19142 0.13825
   1   3  -8  140.48   17.71 172 0.89835-0.80061 0.41030-0.13095 0.19172-0.62582
   1   4  15    7.04   21.83 172 0.89798-0.73270 0.41066-0.03835 0.19302 0.63898
   1   5  15   64.34   27.56 172 0.89772-0.73237 0.41090 0.05484 0.19392 0.63876
   2   0  15   21.10   23.88 172 0.89666-0.60581 0.41187-0.41348 0.19753 0.64425
   2   2 -10   15.24   16.90 171 0.89846-0.68252 0.41020-0.22453 0.19135-0.72995
   3   6 -12   19.44   26.32 172 0.89598-0.56461 0.41250 0.14613 0.19984-0.84194
   5  -5  -4   41.10   23.63 173 0.89630-0.29069 0.41220-0.88065 0.19875-0.38554
   5  -5  10    6.78   35.54 173 0.89384-0.24551 0.41440-0.88526 0.20696 0.37823
   5  -4  -7    7.10   22.99 173 0.89614-0.29993 0.41235-0.78771 0.19930-0.55113
   6  -4  -8  -13.59   23.30 172 0.89775-0.17995 0.41087-0.78853 0.19382-0.59565
   6  -3 -10  -10.95   24.61 172 0.89855-0.18691 0.41011-0.69354 0.19102-0.70383
   0   2  11  300.11   17.69 173 0.89450-0.86403 0.41384-0.22607 0.20482 0.40042
   0   4  12   26.73   19.48 173 0.89527-0.86122 0.41316-0.03967 0.20227 0.45933
   0   5  12   -4.85   19.47 173 0.89516-0.86214 0.41325 0.05304 0.20262 0.45735
   0   9   7   24.50   25.05 173 0.89376-0.87759 0.41449 0.42713 0.20726 0.17925
   1   3  15   27.71   22.29 173 0.89517-0.72852 0.41325-0.13374 0.20260 0.63096
   2  -2  12    2.53   19.28 173 0.89582-0.61344 0.41267-0.60109 0.20043 0.47462
   2  -1  -7  152.00   16.81 173 0.89553-0.66986 0.41292-0.50810 0.20138-0.57329
   2   1  16   61.91   24.05 172 0.89588-0.60250 0.41261-0.32062 0.20023 0.69603
   2   8  -9   26.74   28.42 174 0.89234-0.67649 0.41571 0.33038 0.21188-0.69530
   3   1 -11  -13.95   17.68 173 0.89504-0.55758 0.41336-0.32158 0.20302-0.79292
   3   3 -12   17.15   19.82 173 0.89528-0.56250 0.41315-0.13472 0.20222-0.84429
   4  -5   8   15.72   35.05 175 0.88760-0.36810 0.41957-0.89010 0.22671 0.24187
   4   2 -13  -11.40   20.61 173 0.89564-0.44340 0.41283-0.22891 0.20102-0.88856
   5  -3  -9   27.29   20.85 173 0.89564-0.30465 0.41283-0.69588 0.20104-0.66410
   6  -5  -5   -1.00   24.87 173 0.89428-0.16733 0.41403-0.88416 0.20555-0.44283
   0   1  10   70.26   18.03 174 0.89206-0.86338 0.41593-0.32162 0.21283 0.33798
   0   3  12   65.41   18.11 174 0.89187-0.85787 0.41609-0.13561 0.21344 0.44760
   0   6  12   20.61   23.64 174 0.89114-0.85865 0.41669 0.14388 0.21574 0.44649
   0   7  11   -3.39   22.37 174 0.89306-0.86468 0.41507 0.23968 0.20957 0.39689
   0   8  10   21.40   27.12 174 0.89034-0.86528 0.41736 0.33057 0.21827 0.33386
   0   9   0    3.79   33.09 176 0.88693-0.89136 0.42008 0.42005 0.22881-0.22913
   1  -2   8   11.92   16.89 173 0.89274-0.74474 0.41535-0.60282 0.21061 0.23737
   1  -1  11  156.31   18.61 174 0.89212-0.73659 0.41588-0.50951 0.21263 0.40002
   1   1  14  -27.36   22.55 174 0.89123-0.72732 0.41663-0.32406 0.21548 0.56294
   1   4  -8   21.48   16.98 174 0.89243-0.79475 0.41561-0.04299 0.21163-0.64689
   1   5  -8   55.60   21.04 174 0.89232-0.79471 0.41570 0.04941 0.21196-0.64709
   1   9  -5    4.22   43.67 179 0.87539-0.77102 0.42828 0.41038 0.26182-0.53100
   2  -2  -5  191.18   21.60 174 0.89125-0.65893 0.41660-0.60446 0.21539-0.47772
   2  -1  14    7.36   21.58 174 0.89263-0.60438 0.41544-0.51062 0.21097 0.57548
   2   1  -9  254.27   21.00 174 0.89094-0.67135 0.41686-0.32601 0.21638-0.69894
   3  -1  -9  110.39   16.50 174 0.89253-0.54927 0.41553-0.51207 0.21131-0.68668
   3   4 -12   10.72   23.58 173 0.89276-0.56113 0.41534-0.04304 0.21057-0.85538
   3   5 -12    8.80   25.20 174 0.89092-0.55922 0.41688 0.04740 0.21645-0.85665
   4  -5  -1   76.69   21.27 175 0.89010-0.39800 0.41755-0.88727 0.21902-0.24604
   4  -4  12   25.36   29.48 174 0.88975-0.35788 0.41784-0.79428 0.22013 0.46785
   6  -6   1    0.76   30.70 175 0.88963-0.14439 0.41794-0.98171 0.22051-0.12541
   6  -2 -11   30.93   22.66 174 0.89210-0.18340 0.41589-0.60715 0.21269-0.78116
   0   0   8   15.07   17.53 175 0.88950-0.86580 0.41794-0.41804 0.22061 0.22080
   0   9   8   22.81   26.90 174 0.88915-0.86976 0.41823 0.42068 0.22171 0.21866
   1   0  13   -7.59   19.05 175 0.88916-0.72740 0.41822-0.41884 0.22168 0.50066
   1   2  15   12.65   20.48 174 0.88967-0.72259 0.41780-0.23224 0.22009 0.60998
   2   0  -8  126.14   17.41 175 0.88955-0.66770 0.41790-0.41945 0.22045-0.64741
   2   3 -10  104.04   17.84 175 0.88931-0.67476 0.41810-0.13991 0.22122-0.75906
   2   6 -10    1.78   23.13 176 0.88665-0.67215 0.42019 0.13594 0.22935-0.76348
   3   0 -10   45.06   16.72 174 0.89081-0.55055 0.41687-0.41901 0.21651-0.74876
   4  -4  -5   55.45   18.00 175 0.89009-0.40981 0.41746-0.79342 0.21876-0.46741
   4  -2  -9  110.60   19.20 175 0.88895-0.42219 0.41839-0.60856 0.22233-0.69145
   4   3 -13   28.14   23.29 175 0.88954-0.43643 0.41791-0.14021 0.22049-0.91049
   5   1 -13   28.91   24.31 175 0.88940-0.31213 0.41802-0.32798 0.22093-0.90646
   6  -6   2    8.41   33.24 176 0.88468-0.13598 0.42169-0.98689 0.23525-0.08499
   6  -1 -12  -15.52   26.66 175 0.88941-0.18423 0.41801-0.51539 0.22088-0.84500
  -1   4   4  774.19   23.47 176 0.88486-0.99803 0.42166-0.04782 0.23487-0.02052
  -1   5   4  108.23   20.07 176 0.88464-0.99866 0.42182 0.04530 0.23551-0.02078
   1   2  -7  618.63   23.57 176 0.88441-0.78278 0.42199-0.23522 0.23619-0.61572
   1   4  16   44.49   26.61 176 0.88519-0.71658 0.42141-0.04854 0.23389 0.65592
   1   7  -7   40.56   26.00 177 0.88350-0.78411 0.42267 0.22931 0.23888-0.61974
   2  -3  -2 1267.88   27.40 176 0.88556-0.64297 0.42113-0.70271 0.23278-0.33064
   2  -3  10   14.07   20.96 176 0.88488-0.60736 0.42164-0.70317 0.23480 0.32998
   3  -4  -2   40.27   20.55 176 0.88388-0.51776 0.42239-0.79829 0.23776-0.32775
   4   1 -12    7.17   19.28 176 0.88679-0.43107 0.42019-0.32921 0.22909-0.86123
   4   4 -13    4.15   23.23 176 0.88647-0.43369 0.42044-0.04875 0.23005-0.92167
   4   5 -13    5.98   25.10 176 0.88607-0.43427 0.42074 0.04370 0.23124-0.92191
   5  -5  -3   12.79   23.47 176 0.88412-0.27407 0.42221-0.89232 0.23704-0.36925
   5  -2 -10    8.71   21.54 176 0.88660-0.29921 0.42033-0.60993 0.22966-0.74755
   6  -6   3    0.63   37.46 175 0.88557-0.13120 0.42112-0.99044 0.23274-0.02656
   6  -6   4   10.34   41.12 179 0.87545-0.12141 0.42825-0.99191 0.26152-0.00105
  -1   4   3   69.37   20.67 177 0.88169-0.99791 0.42394-0.05085 0.24406-0.08519
  -1   4   5  278.30   18.29 176 0.88443-0.99471 0.42194-0.04801 0.23606 0.03426
  -1   4   6  216.11   20.55 177 0.88182-0.98955 0.42385-0.05005 0.24369 0.07987
  -1   5   3  420.39   22.54 177 0.88225-0.99881 0.42354 0.04356 0.24245-0.08399
  -1   5   5   53.04   17.07 176 0.88447-0.99543 0.42191 0.04448 0.23595 0.03358
  -1   5   6  111.84   20.61 177 0.88236-0.99010 0.42346 0.04394 0.24212 0.08161
   0   2  12  153.86   18.20 176 0.88360-0.84958 0.42255-0.23622 0.23850 0.42303
   0   4  13   16.61   18.60 177 0.88379-0.84781 0.42242-0.04812 0.23795 0.48143
   0   5  13   48.08   20.45 176 0.88447-0.84869 0.42191 0.04433 0.23595 0.48110
   0   6  -4   12.59   34.37 180 0.87092-0.88566 0.43108 0.12914 0.27351-0.49424
   0   7  12   19.38   23.69 176 0.88420-0.85209 0.42211 0.23150 0.23674 0.42525
   0   8  11   18.65   24.31 176 0.88340-0.85331 0.42271 0.32306 0.23911 0.36649
   1   0  -5  115.86   18.36 176 0.88423-0.77578 0.42209-0.42204 0.23665-0.50623
   1   3  16   38.51   26.01 177 0.88155-0.71283 0.42404-0.14465 0.24446 0.64620
   2   0  16   38.07   25.28 177 0.88178-0.58813 0.42388-0.42574 0.24379 0.65312
   2   4 -10   28.90   18.69 176 0.88370-0.66869 0.42249-0.05015 0.23823-0.77640
   2   5 -10   33.04   19.68 177 0.88337-0.66861 0.42272 0.04230 0.23918-0.77741
   3  -4  10   24.74   23.44 177 0.88147-0.48018 0.42410-0.80016 0.24470 0.32729
   3  -3  -5   62.61   17.52 177 0.88231-0.52673 0.42350-0.70572 0.24227-0.49711
   3  -3  13    7.44   21.60 177 0.88299-0.47334 0.42301-0.70583 0.24030 0.49743
   3  -2  -7  699.24   19.29 177 0.88207-0.53262 0.42367-0.61246 0.24297-0.60881
   3  -2  15   21.89   24.19 177 0.88342-0.46832 0.42269-0.61193 0.23904 0.60888
   3   2 -11  220.70   21.42 177 0.88179-0.54560 0.42387-0.23961 0.24377-0.83029
   3   7 -11    1.67   27.04 178 0.88038-0.54664 0.42487 0.22696 0.24781-0.83502
   4  -3  -7   11.19   18.36 177 0.88373-0.41005 0.42247-0.70476 0.23815-0.59739
   4  -1 -10   34.30   18.43 177 0.88316-0.41930 0.42288-0.51868 0.23980-0.76492
   4   0 -11   41.28   18.42 177 0.88317-0.42278 0.42287-0.42541 0.23977-0.82048
   5  -4  -6   52.36   22.36 177 0.88162-0.28213 0.42399-0.80043 0.24425-0.54092
   5  -1 -11   13.81   21.72 177 0.88299-0.29883 0.42301-0.51958 0.24030-0.81428
   5   0 -12    3.43   21.79 176 0.88394-0.30329 0.42231-0.42556 0.23753-0.86681
   6  -5  -4   26.23   24.60 177 0.88196-0.15138 0.42375-0.89542 0.24327-0.42443
   6  -4  -7   11.82   22.17 177 0.88343-0.16290 0.42268-0.79944 0.23901-0.58489
   6  -3  -9   -4.44   23.92 176 0.88394-0.16967 0.42231-0.70641 0.23753-0.69431
  -1   5   7   16.78   20.02 178 0.87796-0.98332 0.42656 0.04125 0.25441 0.12537
  -1   6   5   30.00   21.10 178 0.87817-0.98947 0.42641 0.13297 0.25382 0.01513
   0   0   9  248.29   18.32 177 0.88007-0.85373 0.42511-0.42537 0.24851 0.24771
   0   1  11  202.56   18.67 177 0.88114-0.85015 0.42436-0.33054 0.24547 0.36012
   0   3  -4 1029.74   29.01 178 0.87787-0.89096 0.42662-0.14497 0.25465-0.47573
   0   3  13   15.90   18.88 177 0.88036-0.84362 0.42491-0.14506 0.24769 0.46981
   0   6  13   22.21   21.31 177 0.88081-0.84555 0.42459 0.13594 0.24642 0.47144
   1  -2   9  446.69   18.87 177 0.88054-0.73001 0.42478-0.61256 0.24718 0.25563
   1  -1  12   90.28   21.25 178 0.87841-0.71940 0.42626-0.52118 0.25317 0.41569
   1   1  -6  277.78   19.25 178 0.87880-0.77350 0.42599-0.33234 0.25207-0.57765
   2  -2  13   13.74   19.86 178 0.88033-0.59456 0.42493-0.61370 0.24776 0.48326
   4  -5   0  146.79   24.71 179 0.87565-0.38054 0.42810-0.89726 0.26077-0.23529
   5  -3  -8   94.41   19.73 178 0.87980-0.28617 0.42530-0.70899 0.24926-0.65707
   5   2 -13   50.76   22.13 178 0.87898-0.30215 0.42586-0.24204 0.25157-0.93639
  -1   3   4  357.93   20.05 179 0.87537-0.98813 0.42827-0.14811 0.26137-0.04653
  -1   3   5  739.04   21.24 178 0.87645-0.98620 0.42756-0.14726 0.25843 0.01132
  -1   4   7  163.65   17.94 178 0.87763-0.98250 0.42676-0.05336 0.25517 0.12396
  -1   5   2  124.62   20.82 179 0.87394-0.99370 0.42919 0.03796 0.26521-0.16030
  -1   6   4  100.58   18.21 178 0.87704-0.99173 0.42716 0.13332 0.25680-0.04271
  -1   6   6   15.75   18.17 179 0.87632-0.98474 0.42764 0.13302 0.25877 0.06529
   0  10   4   20.41   31.87 180 0.87272-0.86625 0.42996 0.50431 0.26846-0.04816
   0  10   5   20.76   28.36 179 0.87524-0.86485 0.42835 0.50316 0.26171 0.01306
   1  -1  -3  187.69   20.24 179 0.87549-0.76023 0.42819-0.52154 0.26104-0.42166
   1   0  14   26.61   22.08 179 0.87514-0.71030 0.42841-0.42936 0.26198 0.51613
   1   1  15   39.23   21.19 178 0.87723-0.71034 0.42704-0.33487 0.25628 0.57821
   1   2  16    6.27   25.57 179 0.87461-0.70515 0.42876-0.24326 0.26342 0.62601
   1   8  -6   14.47   30.26 181 0.86965-0.76804 0.43186 0.31400 0.27651-0.60089
   2  -1  15   25.51   22.64 179 0.87688-0.58585 0.42727-0.52288 0.25723 0.58442
   4   2 -12   16.16   20.54 178 0.87646-0.42003 0.42755-0.24307 0.25840-0.89485
   6  -2 -10   51.23   24.95 179 0.87484-0.16403 0.42860-0.61894 0.26278-0.77484
  -1   3   6  329.19   19.02 179 0.87448-0.98138 0.42883-0.14908 0.26336 0.06188
  -1   4   2  188.98   21.53 179 0.87267-0.99187 0.42998-0.05575 0.26818-0.16408
  -1   4   8   34.43   17.58 180 0.87250-0.97404 0.43009-0.05625 0.26863 0.16581
  -1   5   8   47.36   18.96 179 0.87296-0.97516 0.42980 0.03748 0.26742 0.16705
  -1   6   3   49.92   17.81 179 0.87323-0.99066 0.42963 0.13009 0.26671-0.10787
  -1   6   7   53.04   19.03 179 0.87298-0.97850 0.42979 0.13041 0.26736 0.11179
   0   1  -2 1318.19   42.69 180 0.87230-0.87864 0.43021-0.33571 0.26915-0.38080
   0   2  13   67.24   18.10 180 0.87186-0.83473 0.43049-0.24406 0.27032 0.44636
   0   4  14   60.55   21.32 179 0.87294-0.83344 0.42982-0.05716 0.26748 0.50412
   0   5  14   25.50   23.48 180 0.87296-0.83454 0.42980 0.03673 0.26742 0.50489
   0   7  13   42.54   24.93 180 0.87317-0.83972 0.42967 0.22437 0.26685 0.45119
   0  10   3    4.80   30.45 179 0.87232-0.86708 0.43021 0.49949 0.26912-0.10464
   2  -1  -6   98.42   16.49 180 0.87218-0.64269 0.43029-0.52516 0.26947-0.58765
   2   2  -9   85.57   17.39 179 0.87377-0.65456 0.42929-0.24279 0.26526-0.74842
   2   7  -9   -0.51   23.85 180 0.87088-0.65376 0.43110 0.22328 0.27288-0.75788
   3   1 -10   43.43   18.67 180 0.87220-0.53228 0.43028-0.33967 0.26942-0.80123
   3   3 -11   -6.18   19.23 180 0.87213-0.53619 0.43032-0.15184 0.26962-0.85705
   3   6 -11   24.20   25.78 180 0.87024-0.53566 0.43149 0.12745 0.27455-0.86252
   4  -4  -4   88.49   17.57 180 0.87285-0.39016 0.42987-0.80611 0.26770-0.46085
   5   3 -13   35.20   26.16 180 0.87137-0.29467 0.43080-0.15355 0.27162-0.95719
   6  -1 -11   14.28   25.85 180 0.87123-0.16347 0.43088-0.52816 0.27196-0.84003
   6   0 -12    9.20   23.93 180 0.87242-0.16811 0.43014-0.43396 0.26883-0.89220
  -1   3   3   68.89   17.16 180 0.86939-0.98536 0.43201-0.15164 0.27661-0.11831
  -1   3   7   68.59   17.62 180 0.87060-0.97504 0.43128-0.15053 0.27348 0.10592
  -1   6   8   24.36   21.47 181 0.86836-0.97079 0.43263 0.12741 0.27927 0.15474
   0   0  10  148.95   17.16 180 0.86960-0.84088 0.43188-0.43227 0.27606 0.27418
   0   1  12  292.48   19.13 180 0.86934-0.83543 0.43204-0.33867 0.27673 0.38417
   0   3  14   15.49   18.93 181 0.86817-0.82857 0.43274-0.15291 0.27973 0.49248
   0   6  14   33.79   24.38 180 0.86954-0.83178 0.43192 0.12815 0.27621 0.49623
   1  -2  10  301.11   21.14 181 0.86764-0.71410 0.43306-0.62087 0.28109 0.27721
   1   3  -7   89.42   20.41 182 0.86620-0.76509 0.43390-0.15422 0.28474-0.66385
   2  -3  11   -6.68   22.06 182 0.86571-0.58511 0.43418-0.71868 0.28596 0.33777
   3  -1  -8  118.33   16.48 180 0.87062-0.52411 0.43126-0.52610 0.27341-0.69423
   3   0  -9  101.11   16.48 181 0.86802-0.52450 0.43283-0.43465 0.28012-0.75712
   4  -5   9   13.30   36.39 182 0.86226-0.34045 0.43612-0.90548 0.29448 0.22804
   4  -4  13   -6.10   31.20 181 0.86807-0.33558 0.43280-0.80830 0.27999 0.46217
   4  -2  -8   21.35   18.00 181 0.86909-0.39854 0.43219-0.62153 0.27739-0.69250
   4   3 -12   42.03   22.63 181 0.86746-0.41135 0.43316-0.15549 0.28155-0.91828
   5  -5  -2   32.62   22.84 181 0.86887-0.25608 0.43233-0.90262 0.27795-0.35516
   5  -2  -9   24.52   17.97 181 0.86862-0.27689 0.43247-0.62318 0.27859-0.74369
   5   1 -12   -5.36   22.33 181 0.86878-0.28829 0.43238-0.34220 0.27817-0.90770
   6  -5  -3   16.31   25.54 181 0.86686-0.13305 0.43351-0.90481 0.28306-0.40917
   6  -4  -6   30.40   24.06 181 0.86700-0.14380 0.43343-0.81023 0.28272-0.57376
  -1   3   8  143.81   17.17 181 0.86546-0.96674 0.43421-0.15426 0.28622 0.14823
  -1   4   9   20.85   17.95 182 0.86542-0.96468 0.43423-0.06020 0.28631 0.20367
  -1   5   9  181.36   18.46 181 0.86615-0.96612 0.43381 0.03315 0.28448 0.20511
  -1   6   2   97.33   20.82 182 0.86277-0.98359 0.43572 0.12403 0.29287-0.18814
  -1   7   5    9.63   21.77 182 0.86333-0.97635 0.43541 0.21984 0.29151-0.02214
  -1   7   6   80.50   21.45 182 0.86382-0.97366 0.43514 0.21685 0.29029 0.03432
   1  -2   0 1124.61   36.08 182 0.86389-0.73897 0.43510-0.62279 0.29011-0.28485
   1  -1  13   20.22   21.15 183 0.86266-0.70120 0.43578-0.53123 0.29315 0.43327
   1   6  -7   51.68   24.22 183 0.86195-0.76277 0.43618 0.12380 0.29488-0.67508
   2  -2  -4  547.61   20.92 182 0.86588-0.63012 0.43396-0.62122 0.28516-0.49342
   2  -2  14   70.07   25.23 182 0.86311-0.57474 0.43554-0.62507 0.29205 0.49318
   2   1  -8  205.60   17.64 182 0.86465-0.64354 0.43467-0.34139 0.28824-0.71617
   3  -4  11    5.82   25.97 183 0.86027-0.45569 0.43709-0.81430 0.29894 0.32902
   3  -3  14   65.76   25.48 182 0.86388-0.45087 0.43510-0.71854 0.29015 0.50154
   3   4 -11    7.26   20.00 181 0.86620-0.53081 0.43378-0.06197 0.28437-0.87188
   3   5 -11   18.25   21.42 181 0.86561-0.53084 0.43412 0.03119 0.28583-0.87392
   4  -3  -6  122.40   21.24 182 0.86345-0.38732 0.43535-0.71718 0.29121-0.59600
   4   1 -11   80.35   20.33 182 0.86552-0.40616 0.43417-0.34240 0.28607-0.86648
   5  -4  -5   40.33   22.27 182 0.86417-0.25994 0.43494-0.81227 0.28943-0.53257
   6  -3  -8   -6.84   22.70 182 0.86604-0.14818 0.43387-0.71684 0.28476-0.68707
  -1   6   9   18.95   18.56 182 0.86193-0.96193 0.43611 0.12460 0.29480 0.19473
  -1   7   4   13.14   21.14 183 0.86075-0.97666 0.43676 0.21834 0.29768-0.08374
  -1   7   7   35.47   19.28 182 0.86160-0.96791 0.43629 0.21773 0.29561 0.08353
   0   4  15   26.60   23.36 182 0.86074-0.81795 0.43676-0.06448 0.29769 0.52691
   0   5  15  -18.70   22.73 183 0.86105-0.81975 0.43659 0.02908 0.29694 0.52791
   0   9  -1   18.18   41.90 186 0.84714-0.85487 0.44356 0.39723 0.32903-0.38482
   0  10   2   20.38   30.83 184 0.85685-0.85731 0.43882 0.49711 0.30696-0.19721
   1   1  16   12.35   21.80 182 0.86209-0.69239 0.43602-0.34368 0.29442 0.59460
   2  -1  16   84.11   25.10 183 0.85937-0.56519 0.43750-0.53392 0.30099 0.59523
   2   0  -7  -14.78   16.59 183 0.86249-0.63610 0.43580-0.43654 0.29345-0.66630
   2   3  -9  237.43   21.27 183 0.86006-0.64246 0.43713-0.15719 0.29933-0.78218
   3  -4  -1   13.27   17.57 183 0.86161-0.49261 0.43629-0.81189 0.29558-0.33088
   4  -5   1   27.81   24.26 184 0.85724-0.35829 0.43861-0.90847 0.30603-0.22420
   4  -1  -9   25.31   19.35 183 0.86141-0.39422 0.43640-0.53266 0.29608-0.76690
   4   0 -10   45.54   17.98 183 0.86033-0.39695 0.43698-0.43947 0.29868-0.82426
   4   4 -12   27.69   21.70 183 0.86168-0.40612 0.43625-0.06531 0.29542-0.93154
   4   5 -12   27.38   22.60 183 0.86081-0.40586 0.43672 0.02763 0.29752-0.93384
   5  -3  -7  115.10   22.71 183 0.85983-0.26342 0.43725-0.72016 0.29989-0.65290
   5  -1 -10   18.73   21.44 182 0.86241-0.27484 0.43585-0.53261 0.29364-0.81267
   5   0 -11  103.09   20.58 183 0.86240-0.27958 0.43586-0.43842 0.29367-0.86680
  -1   2   5  506.19   20.47 184 0.85653-0.96594 0.43903-0.25265 0.30760-0.03820
  -1   2   6  701.23   20.28 184 0.85717-0.96359 0.43870-0.25237 0.30610 0.01856
  -1   3   9    6.49   17.14 183 0.85844-0.95745 0.43803-0.15740 0.30310 0.18707
  -1   4  10   42.24   18.41 183 0.85783-0.95404 0.43835-0.06448 0.30453 0.24038
  -1   5   1  138.96   22.79 184 0.85389-0.97672 0.44036 0.02713 0.31373-0.26495
  -1   5  10   14.05   18.68 183 0.85868-0.95565 0.43790 0.02950 0.30252 0.24246
  -1   7   3   -0.40   20.52 183 0.85783-0.97383 0.43835 0.21232 0.30453-0.14659
  -1   7   8   27.78   19.63 184 0.85750-0.96104 0.43852 0.21537 0.30532 0.12892
   0  -1   5   93.53   19.16 183 0.85863-0.84319 0.43793-0.53231 0.30264-0.02858
   0  -1   6  417.62   20.41 183 0.85850-0.83983 0.43800-0.53307 0.30295 0.02708
   0   0  11   41.51   17.45 183 0.85811-0.82590 0.43821-0.43912 0.30388 0.30334
   0   1  13   95.35   18.74 184 0.85682-0.81942 0.43887-0.34633 0.30691 0.40906
   0   2  -3  382.41   25.93 184 0.85642-0.86637 0.43908-0.25128 0.30786-0.47370
   0   2  14   91.45   20.41 183 0.85844-0.81884 0.43803-0.25251 0.30310 0.46907
   1   0  15   30.54   21.01 183 0.85868-0.69194 0.43790-0.43940 0.30251 0.53237
   1   2  17   -0.70   24.23 183 0.85884-0.68714 0.43782-0.25235 0.30213 0.64250
   1   4  -7  150.60   20.69 185 0.85419-0.75357 0.44021-0.06636 0.31304-0.69252
   2  -3  -1   76.16   20.76 184 0.85594-0.61007 0.43932-0.72124 0.30897-0.35136
   2   6  -9   45.86   23.35 184 0.85533-0.63780 0.43964 0.11893 0.31041-0.79434
   2   8  -8    8.64   28.11 184 0.85483-0.63666 0.43989 0.30724 0.31155-0.74184
   3  -3  -4  330.82   19.04 183 0.85852-0.49899 0.43799-0.71928 0.30291-0.50426
   3  -2  -6    7.15   17.51 183 0.85788-0.50460 0.43832-0.62711 0.30441-0.61576
   5   2 -12   27.87   24.62 184 0.85534-0.27579 0.43963-0.25606 0.31038-0.93921
   6   1 -12   26.88   22.11 184 0.85700-0.15242 0.43878-0.34940 0.30649-0.93075
  -1   2   7  600.05   19.26 184 0.85482-0.95850 0.43994-0.25356 0.31140 0.06802
  -1   3   2  154.60   18.33 184 0.85452-0.97370 0.44009-0.15942 0.31210-0.20807
  -1   6  10    2.92   19.01 185 0.85386-0.95234 0.44042 0.12056 0.31361 0.23166
  -1   7   9   83.81   22.40 185 0.85189-0.95294 0.44139 0.21160 0.31811 0.17147
   0  -1   4  760.10   28.45 185 0.85214-0.83901 0.44127-0.53648 0.31754-0.09774
   0  -1   7  405.88   19.77 184 0.85504-0.83342 0.43983-0.53475 0.31088 0.07523
   0   3  15   32.59   20.58 184 0.85435-0.81255 0.44018-0.16089 0.31250 0.51522
   0   4  -4  164.15   24.06 186 0.84944-0.86286 0.44256-0.06802 0.32363-0.54501
   1  -2  11  223.53   18.87 184 0.85387-0.69694 0.44042-0.62959 0.31360 0.29893
   1   5  -7    1.96   20.93 185 0.85218-0.75207 0.44125 0.02539 0.31746-0.69765
   2  -3  12   24.67   23.16 185 0.85053-0.56745 0.44204-0.72478 0.32118 0.35459
   2   4  -9    0.05   20.29 185 0.85184-0.63388 0.44141-0.06864 0.31823-0.80243
   3   2 -10   -8.72   17.66 185 0.85453-0.51447 0.44009-0.25453 0.31207-0.84375
   4  -4  -3   37.98   21.16 185 0.85101-0.36485 0.44182-0.81806 0.32012-0.45849
   5  -5  -1   24.46   22.62 185 0.85044-0.23442 0.44209-0.91225 0.32141-0.34317
   6  -2  -9   50.77   21.58 185 0.85409-0.14018 0.44031-0.62991 0.31309-0.76897
  -1   2   4  469.59   20.54 185 0.85140-0.96355 0.44169-0.25620 0.31940-0.10535
  -1   2   8  233.08   17.13 185 0.85036-0.95107 0.44219-0.25693 0.32174 0.11202
  -1   3  10   86.79   18.05 185 0.85090-0.94657 0.44193-0.16411 0.32051 0.22342
  -1   4   1  150.64   21.64 185 0.84960-0.97200 0.44255-0.06914 0.32344-0.27422
  -1   4  11  -16.43   19.87 186 0.84954-0.94247 0.44258-0.06914 0.32358 0.27510
  -1   5  11   11.20   19.32 185 0.85039-0.94412 0.44217 0.02479 0.32166 0.27813
   0  -1   8   63.99   17.73 186 0.84933-0.82458 0.44268-0.53743 0.32404 0.11727
   0   5  -4  186.62   27.53 188 0.84144-0.85474 0.44624 0.02080 0.34124-0.56375
   1  -1  14   20.72   23.09 186 0.84713-0.68228 0.44370-0.53954 0.32891 0.45229
   2   5  -9  111.67   18.70 186 0.84986-0.63282 0.44243 0.02351 0.32286-0.80677
   2   9  -7   22.02   35.04 187 0.84377-0.62259 0.44522 0.39455 0.33625-0.71066
   3   7 -10   35.46   25.20 186 0.84756-0.51126 0.44351 0.20861 0.32798-0.86082
   4   2 -11  -13.68   19.35 186 0.85031-0.39023 0.44221-0.25717 0.32185-0.90269
   6  -5  -2   12.15   21.25 186 0.84973-0.11333 0.44249-0.91359 0.32315-0.39342
   6  -4  -5    0.07   24.79 185 0.84926-0.12187 0.44271-0.82137 0.32419-0.56096
   6  -1 -10  -11.60   22.98 186 0.84988-0.13867 0.44242-0.53911 0.32281-0.83584
   6   0 -11    3.02   22.88 186 0.85022-0.14265 0.44225-0.44522 0.32204-0.88943
  -1   2   9  239.97   17.64 187 0.84493-0.94279 0.44476-0.25708 0.33377 0.15513
  -1   6  11   -6.34   21.16 187 0.84620-0.94119 0.44419 0.11677 0.33099 0.26823
  -1   7  10   14.59   21.67 186 0.84581-0.94302 0.44437 0.20909 0.33185 0.21228
  -1   8   5   16.03   22.95 187 0.84267-0.95514 0.44576 0.30107 0.33863-0.07061
  -1   8   6    4.13   23.65 187 0.84439-0.95412 0.44500 0.30231 0.33492-0.01149
  -1   8   7   54.23   23.46 187 0.84382-0.95055 0.44526 0.30171 0.33617 0.04228
   0   0  12  371.46   19.72 186 0.84602-0.81103 0.44427-0.44562 0.33138 0.33007
   0   2  15   -3.79   22.21 187 0.84515-0.80184 0.44466-0.25907 0.33329 0.49294
   0   4  16   33.24   24.17 186 0.84611-0.80069 0.44423-0.07196 0.33119 0.55069
   0  10   1   -5.43   36.51 190 0.83342-0.83632 0.44961 0.48772 0.35792-0.30444
   1   0  -4  602.86   21.23 187 0.84508-0.73284 0.44470-0.44527 0.33344-0.54861
   1   1  17    7.63   25.47 187 0.84523-0.67255 0.44462-0.35332 0.33310 0.61171
   1   2  -6  724.96   20.78 187 0.84585-0.74039 0.44434-0.25773 0.33175-0.65732
   2  -2  15   55.37   27.20 187 0.84514-0.55285 0.44467-0.63382 0.33330 0.50759
   3  -3  15  -15.94   28.65 187 0.84318-0.42872 0.44554-0.72808 0.33755 0.50863
   3   1  -9   86.71   20.98 187 0.84295-0.49974 0.44564-0.35362 0.33803-0.81453
   4  -2  -7  251.42   18.00 187 0.84456-0.37119 0.44493-0.63508 0.33455-0.69350
   5  -4  -4   -2.23   22.18 187 0.84341-0.23582 0.44544-0.82271 0.33704-0.52594
   5  -2  -8   65.08   19.68 187 0.84528-0.25177 0.44460-0.63475 0.33299-0.74094
   5   1 -11  -15.13   20.23 187 0.84506-0.26010 0.44470-0.35381 0.33348-0.91002
   5   3 -12    8.35   23.09 187 0.84576-0.26585 0.44439-0.16649 0.33195-0.96190
   6  -3  -7   23.79   21.28 187 0.84573-0.12528 0.44440-0.72803 0.33201-0.67811
   7  -4  -5   31.60   26.73 187 0.84291 0.00603 0.44566-0.82255 0.33812-0.56663
  -1   3  11   44.99   18.76 187 0.84222-0.93518 0.44611-0.16596 0.33942 0.26027
  -1   4  12  -22.37   21.62 188 0.83937-0.93007 0.44734-0.07394 0.34547 0.30905
  -1   5  12   45.41   20.52 188 0.84117-0.93164 0.44657 0.01999 0.34167 0.31316
  -1   6   1   70.67   21.22 187 0.84073-0.96357 0.44676 0.11390 0.34260-0.29529
  -1   7   2   59.58   22.28 188 0.84014-0.96087 0.44701 0.20663 0.34385-0.24118
  -1   8   8   -3.24   21.14 188 0.84111-0.94468 0.44660 0.30111 0.34180 0.09086
   0  -1   9  564.94   19.30 188 0.84145-0.81503 0.44645-0.54006 0.34106 0.15507
   0   1  14   68.98   19.18 187 0.84271-0.80247 0.44590-0.35372 0.33838 0.43446
   0   3  16  -15.25   21.85 188 0.84075-0.79557 0.44675-0.16845 0.34256 0.53790
   1  -2  12  159.78   22.17 188 0.83915-0.68041 0.44743-0.63529 0.34592 0.32287
   1   0  16   69.31   23.14 187 0.84229-0.67232 0.44608-0.44842 0.33927 0.55022
   2   2  -8   29.50   17.30 188 0.84076-0.61904 0.44675-0.26071 0.34254-0.77107
   3  -4  12   31.87   25.60 188 0.84036-0.43306 0.44691-0.82322 0.34338 0.33922
   3  -1  -7   43.27   15.78 187 0.84292-0.49307 0.44581-0.54126 0.33794-0.70345
   3   3 -10  170.00   19.03 188 0.84159-0.50256 0.44639-0.16852 0.34076-0.87264
   4  -5   2   19.68   27.61 190 0.83343-0.33190 0.44976-0.91910 0.35774-0.22038
   4  -5  10   -1.56   35.15 189 0.83273-0.30779 0.45003-0.92028 0.35915 0.21941
   4   3 -11    6.92   22.84 188 0.83979-0.38001 0.44716-0.16840 0.34458-0.92779
   5   4 -12   17.81   25.97 188 0.83888-0.26015 0.44754-0.07681 0.34649-0.97473
   7  -3  -7    8.23   24.42 188 0.84129 0.00255 0.44652-0.73037 0.34142-0.68106
  -1   2   3  679.51   22.31 188 0.83835-0.95365 0.44778-0.26139 0.34746-0.18934
  -1   2  10  145.68   17.77 188 0.83714-0.93241 0.44828-0.26204 0.34998 0.19415
  -1   6  12    1.70   21.19 188 0.83763-0.92861 0.44808 0.11178 0.34896 0.30572
  -1   7  11    1.13   23.18 189 0.83726-0.93276 0.44823 0.20623 0.34972 0.24924
  -1   8   4   -3.50   22.43 188 0.83695-0.95205 0.44835 0.29862 0.35037-0.13725
  -1   8   9   -4.15   23.16 189 0.83635-0.93743 0.44860 0.29851 0.35162 0.13738
   1   1  -5 1158.41   23.39 189 0.83675-0.72861 0.44844-0.35395 0.35079-0.62116
   2  -1  -5  775.58   21.03 188 0.83848-0.60624 0.44772-0.54178 0.34719-0.60960
   3   0  -8  336.96   17.65 188 0.83836-0.49213 0.44777-0.44887 0.34742-0.76862
   3   6 -10   31.23   24.43 188 0.83688-0.49952 0.44838 0.11132 0.35052-0.88479
   4  -3  -5   69.23   17.22 188 0.83787-0.35808 0.44797-0.72994 0.34845-0.59690
   4   1 -10   52.34   18.36 188 0.83783-0.37495 0.44799-0.35638 0.34854-0.87310
   5  -3  -6   15.72   18.23 189 0.83681-0.23628 0.44841-0.73148 0.35066-0.64878
   5  -1  -9  135.02   19.49 189 0.83734-0.24803 0.44819-0.54300 0.34956-0.81264
   5   0 -10   35.16   19.89 189 0.83723-0.25009 0.44824-0.45031 0.34979-0.86785
  -1   3  12   10.02   18.39 190 0.83239-0.92234 0.45016-0.17033 0.35989 0.29548
  -1   5  13   68.73   23.86 190 0.83034-0.91841 0.45095 0.01579 0.36401 0.34647
  -1   8  10   15.07   25.92 190 0.83048-0.92854 0.45089 0.29619 0.36372 0.18045
   0  -1   3  528.95   30.07 190 0.83028-0.82017 0.45097-0.54575 0.36412-0.19956
   0  -1  10   59.32   17.41 190 0.83238-0.80235 0.45016-0.54492 0.35991 0.19186
   0   0  13  -19.64   18.28 190 0.83285-0.79542 0.44997-0.45130 0.35895 0.35786
   1  -1  15   48.16   25.47 189 0.83210-0.66409 0.45027-0.54508 0.36047 0.47296
   2  -3  13   19.94   20.41 189 0.83292-0.54690 0.44995-0.73242 0.35882 0.37183
   3  -4   0  334.76   21.65 190 0.83075-0.45962 0.45079-0.82562 0.36318-0.34373
   3   4 -10   43.79   19.42 189 0.83348-0.49463 0.44973-0.07730 0.35768-0.89021
   3   5 -10   24.13   19.58 190 0.83164-0.49339 0.45045 0.01558 0.36140-0.89455
   4  -1  -8  478.75   19.50 189 0.83370-0.36406 0.44964-0.54364 0.35723-0.77229
   4   0  -9  298.66   18.23 190 0.83246-0.36700 0.45013-0.45113 0.35975-0.83005
   4   4 -11   43.65   21.27 190 0.83197-0.37284 0.45032-0.07829 0.36073-0.94269
   4   5 -11   44.41   25.70 191 0.82920-0.37033 0.45138 0.01409 0.36628-0.94708
   4   6 -11   47.40   24.50 190 0.83299-0.37474 0.44992 0.10857 0.35867-0.93961
   5  -5   0   73.98   22.06 191 0.82874-0.21033 0.45155-0.92098 0.36719-0.33418
   6  -5  -1    9.61   25.52 191 0.82907-0.09039 0.45143-0.92074 0.36653-0.38137
   6  -2  -8  -11.54   20.95 190 0.83229-0.11427 0.45019-0.64009 0.36008-0.76335
   6   1 -11  -14.45   23.24 190 0.83239-0.12433 0.45016-0.35965 0.35989-0.92930
  -1   1   7  433.56   17.83 191 0.82659-0.92935 0.45238-0.35995 0.37176 0.00829
  -1   2  11  154.47   17.91 190 0.82874-0.92109 0.45159-0.26623 0.36751 0.23072
  -1   4  13   76.63   21.53 190 0.82876-0.91618 0.45158-0.07832 0.36748 0.34306
  -1   6  13  -21.16   22.79 191 0.82784-0.91558 0.45192 0.10817 0.36930 0.33941
  -1   7  12   18.05   23.65 190 0.82864-0.92064 0.45162 0.20219 0.36772 0.28729
  -1   8   3    6.08   25.70 191 0.82656-0.94346 0.45240 0.29292 0.37181-0.21416
   0   1  15   17.35   21.19 190 0.82879-0.78508 0.45157-0.35931 0.36742 0.45976
   0   2  16  -21.21   21.93 191 0.82917-0.78385 0.45143-0.26586 0.36667 0.51723
   1   7  -6   69.18   25.73 192 0.82430-0.72163 0.45321 0.19997 0.37621-0.70143
   2  -4   6   64.09   27.85 193 0.81780-0.55187 0.45545-0.83092 0.38855-0.04441
   2  -4   7   19.48   25.32 192 0.82058-0.55086 0.45451-0.83059 0.38332 0.01569
   2  -2  -3  333.76   19.55 190 0.82943-0.59101 0.45133-0.63842 0.36616-0.51894
   2  -2  16  -14.24   27.02 191 0.82573-0.53221 0.45270-0.64151 0.37343 0.52109
   2   0  -6   86.31   16.56 191 0.82700-0.59860 0.45223-0.45236 0.37095-0.68920
   2   1  -7  147.66   17.82 191 0.82844-0.60301 0.45170-0.35831 0.36811-0.74167
   2   7  -8   -3.94   23.13 191 0.82637-0.60628 0.45246 0.20109 0.37218-0.80151
   3  -3  -3   65.40   16.79 191 0.82807-0.46562 0.45184-0.73388 0.36884-0.51406
   3  -2  -5   38.54   16.79 191 0.82702-0.47056 0.45222-0.64091 0.37090-0.62718
   3   8  -9   11.84   27.75 190 0.82844-0.48892 0.45170 0.29480 0.36812-0.84703
   5   2 -11   55.86   21.95 191 0.82830-0.24513 0.45175-0.26719 0.36838-0.94293
   6  -4  -4   -7.82   24.41 191 0.82637-0.09722 0.45246-0.82847 0.37218-0.55410
   7  -2  -8    5.95   24.74 191 0.82803 0.01214 0.45185-0.64215 0.36893-0.76400
  -1   1   6  281.70   18.26 191 0.82500-0.93093 0.45298-0.36060 0.37496-0.05024
  -1   1   8  386.15   17.35 191 0.82440-0.92468 0.45319-0.36088 0.37611 0.05836
  -1   3  13   70.78   18.01 192 0.82173-0.90857 0.45413-0.17446 0.38123 0.32918
  -1   8  11   31.54   24.64 191 0.82405-0.91814 0.45332 0.29320 0.37679 0.22222
   0  -1  11  218.21   20.53 192 0.82195-0.78883 0.45406-0.54972 0.38082 0.22562
   1  -2  13   31.72   19.19 192 0.82385-0.66180 0.45339-0.64193 0.37717 0.34707
   1  -1  -2 3068.27   38.75 192 0.82359-0.70453 0.45348-0.54732 0.37768-0.48342
   1   0  17   23.76   23.85 192 0.82421-0.65185 0.45326-0.45563 0.37648 0.56907
   2   3  -8  182.68   20.94 192 0.82121-0.59950 0.45431-0.17393 0.38223-0.81094
   3   2  -9   73.46   20.80 192 0.82125-0.47939 0.45430-0.26835 0.38215-0.85863
   4  -4  -2   95.20   17.83 192 0.82390-0.33496 0.45337-0.82889 0.37707-0.46102
   6  -3  -6   -6.53   21.56 192 0.82329-0.09933 0.45358-0.73709 0.37825-0.67133
   6  -1  -9   15.90   20.36 192 0.82432-0.11238 0.45322-0.54898 0.37627-0.83199
   6   0 -10   40.60   20.74 191 0.82494-0.11545 0.45300-0.45568 0.37507-0.88664
   7  -4  -4   -0.10   24.09 192 0.82368 0.02934 0.45345-0.83036 0.37750-0.55332
   7  -1  -9   -0.38   26.60 193 0.81939 0.01395 0.45493-0.54992 0.38567-0.83257
  -1   1   5 1096.73   22.28 192 0.81898-0.92761 0.45509-0.36254 0.38642-0.11747
  -1   1   9  298.61   16.95 192 0.82032-0.91738 0.45463-0.36238 0.38389 0.10598
  -1   2  12   40.18   17.62 193 0.81895-0.90820 0.45510-0.26868 0.38648 0.26898
  -1   3   1  191.30   22.50 192 0.81887-0.94037 0.45513-0.17479 0.38664-0.33809
  -1   4  14   -1.41   20.38 193 0.81829-0.90181 0.45532-0.08287 0.38773 0.37504
  -1   5  14   44.39   23.26 193 0.81916-0.90391 0.45503 0.01152 0.38608 0.37923
  -1   9   6   -1.40   25.30 193 0.81601-0.92527 0.45608 0.38336 0.39197-0.06923
  -1   9   7    8.32   25.49 194 0.81493-0.92321 0.45643 0.38725 0.39396-0.01444
  -1   9   8    3.64   27.82 192 0.81869-0.92115 0.45519 0.38213 0.38696 0.04502
   0   0  14   40.58   19.03 192 0.81915-0.77825 0.45503-0.45611 0.38610 0.38636
   1  -3   7   45.76   19.47 193 0.81523-0.67053 0.45633-0.73779 0.39340-0.00069
   1   3  -6  338.24   21.94 193 0.81730-0.71253 0.45565-0.17644 0.38958-0.71467
   2  -4   8  115.45   23.63 193 0.81541-0.54444 0.45627-0.83128 0.39308 0.06198
   3  -4  13   33.41   25.36 193 0.81787-0.40812 0.45546-0.83231 0.38851 0.34957
   4   2 -10   57.72   19.88 193 0.81923-0.35702 0.45501-0.27069 0.38595-0.91075
   5  -4  -3   49.85   22.06 193 0.81771-0.20851 0.45552-0.83245 0.38881-0.52089
   5  -2  -7   19.07   19.72 192 0.81907-0.22217 0.45506-0.64484 0.38625-0.74022
   7  -3  -6   45.44   22.92 193 0.81933 0.02701 0.45497-0.73859 0.38576-0.67040
  -1   1  10   55.52   17.15 193 0.81429-0.90880 0.45669-0.36369 0.39519 0.14891
  -1   6  14   -0.88   22.25 194 0.81525-0.90146 0.45638 0.10498 0.39343 0.37271
  -1   7   1  105.69   27.16 194 0.80921-0.93222 0.45828 0.19512 0.40440-0.35654
   0   1  16   14.60   20.84 193 0.81419-0.76740 0.45673-0.36465 0.39537 0.48411
   0   2  17  -22.44   24.48 194 0.81363-0.76506 0.45690-0.27154 0.39639 0.54140
   1  -3   6  116.71   20.15 194 0.81178-0.66941 0.45749-0.73919 0.39978-0.06272
   1  -3   8  552.26   22.84 194 0.81337-0.66539 0.45699-0.73854 0.39688 0.05030
   1  -1  16   -6.66   23.00 194 0.81394-0.64386 0.45681-0.55194 0.39584 0.49273
   2  -3  14   49.84   24.92 194 0.81340-0.52471 0.45698-0.73979 0.39682 0.38949
   2   6  -8   -4.33   22.11 193 0.81444-0.59414 0.45664 0.10629 0.39491-0.82804
   4  -5   3    5.49   29.24 197 0.80069-0.29715 0.46076-0.92934 0.41939-0.22725
   4  -5  11    6.25   36.28 195 0.80701-0.28021 0.45894-0.92852 0.40833 0.22453
   4  -2  -6   61.98   17.21 194 0.81433-0.33903 0.45668-0.64545 0.39512-0.69901
   5   1 -10   40.50   19.05 194 0.81503-0.22861 0.45645-0.36495 0.39382-0.91241
   5   3 -11   36.44   20.69 193 0.81551-0.23353 0.45630-0.17841 0.39295-0.96639
   6   2 -11   16.76   22.33 194 0.81444-0.11053 0.45664-0.27270 0.39491-0.95972
  -1   2   2 3137.03   36.77 194 0.80939-0.92761 0.45827-0.27154 0.40407-0.30013
  -1   2  13   26.04   18.67 195 0.80862-0.89420 0.45851-0.27215 0.40545 0.30451
  -1   3  14   99.65   20.23 194 0.80982-0.89382 0.45814-0.17852 0.40329 0.36170
  -1   5  15   -0.25   26.51 196 0.80456-0.88812 0.45971 0.00845 0.41264 0.41183
  -1   9   5   -1.22   25.12 196 0.80456-0.91969 0.45971 0.38557 0.41264-0.14374
   0  -1  12  271.37   18.67 194 0.81020-0.77517 0.45803-0.55283 0.40262 0.25803
   1  -3   9  103.08   21.27 195 0.80666-0.65597 0.45910-0.74052 0.40893 0.09478
   1  -2  14  101.74   22.90 195 0.80717-0.64191 0.45894-0.64778 0.40803 0.37153
   1  10  -3    9.43   52.07 200 0.78103-0.67133 0.46577 0.46833 0.45190-0.61251
   2  -4   5  207.59   40.56 199 0.78718-0.52474 0.46433-0.83935 0.44202-0.15232
   2  -4   9   10.51   23.82 196 0.80354-0.52880 0.46001-0.83705 0.41443 0.09691
   2  -3   0  158.72   21.13 195 0.80613-0.55758 0.45925-0.74124 0.40988-0.39633
   2   4  -8   22.26   17.52 194 0.80916-0.58802 0.45835-0.08507 0.40448-0.83399
   3  -1  -6    4.03   16.50 195 0.80797-0.45533 0.45871-0.55345 0.40661-0.71806
   3   1  -8  117.22   17.23 195 0.80748-0.46150 0.45885-0.36695 0.40749-0.82952
   3   7  -9   -4.27   26.27 195 0.80678-0.46571 0.45906 0.19531 0.40873-0.88737
   4  -3  -4  105.09   17.01 195 0.80796-0.32590 0.45871-0.74149 0.40662-0.59994
   5  -5   1   19.04   25.55 196 0.80377-0.18268 0.45994-0.92961 0.41403-0.32547
   5  -3  -5   15.22   18.48 195 0.80932-0.20642 0.45830-0.74099 0.40419-0.64689
   5  -1  -8   32.84   19.08 195 0.80937-0.21612 0.45828-0.55401 0.40410-0.81283
   5   0  -9   17.87   19.10 195 0.80871-0.21882 0.45848-0.46073 0.40529-0.86934
   5   4 -11    7.92   24.22 195 0.80830-0.22613 0.45861-0.08706 0.40603-0.98061
   6  -5   0   -0.97   24.42 195 0.80768-0.06714 0.45879-0.92761 0.40713-0.36843
  -1   1   4  173.94   18.84 195 0.80433-0.91594 0.45972-0.36723 0.41273-0.19856
  -1   1  11   82.54   17.59 195 0.80607-0.89800 0.45921-0.36603 0.40966 0.19001
  -1   4  15   -8.50   23.72 196 0.80442-0.88602 0.45969-0.08680 0.41258 0.40730
  -1   5   0   12.92   23.23 196 0.80046-0.92575 0.46082 0.00602 0.41946-0.42649
  -1   8   2   21.06   25.64 196 0.80057-0.92171 0.46078 0.28576 0.41927-0.31596
   0   0  15   36.23   20.70 196 0.80401-0.76003 0.45981-0.46101 0.41328 0.41407
   1   6  -6   19.17   23.51 197 0.79821-0.69517 0.46143 0.09854 0.42332-0.74838
   2   5  -8   15.91   17.99 196 0.80421-0.58331 0.45975 0.00671 0.41294-0.84191
   2   8  -7    5.27   27.91 196 0.80026-0.57789 0.46087 0.28678 0.41980-0.79500
   3   0  -7  392.51   17.61 196 0.80198-0.45275 0.46039-0.46085 0.41683-0.78411
   3   3  -9   42.83   19.02 196 0.80411-0.46252 0.45978-0.18049 0.41312-0.89050
   4   1  -9   21.98   18.90 196 0.80479-0.33863 0.45958-0.36760 0.41192-0.88156
   4   3 -10   44.83   19.46 196 0.80441-0.34200 0.45969-0.18103 0.41259-0.93827
   5   5 -11   22.06   23.42 195 0.80506-0.22415 0.45950 0.00466 0.41144-0.98503
   6  -4  -3   -9.67   23.68 195 0.80442-0.06886 0.45969-0.83972 0.41258-0.53977
   6  -2  -7   10.59   20.99 196 0.80442-0.08484 0.45969-0.64874 0.41258-0.75839
   6   1 -10  -11.61   22.24 196 0.80389-0.09314 0.45984-0.36907 0.41349-0.92764
   6   3 -11  -24.34   25.12 196 0.80421-0.09748 0.45975-0.18185 0.41294-0.98191
   7  -4  -3  -26.99   27.10 196 0.80162 0.05533 0.46049-0.83804 0.41746-0.53834
   7  -2  -7   20.07   23.59 195 0.80442 0.03947 0.45969-0.65110 0.41258-0.75406
  -1   1  12   97.42   20.01 197 0.79655-0.88590 0.46190-0.36963 0.42613 0.22802
  -1   3  15   36.85   23.35 197 0.79682-0.87767 0.46182-0.18237 0.42567 0.39490
  -1   9   4   26.64   26.17 197 0.79568-0.91198 0.46213 0.37935 0.42761-0.21481
   0  -1  13  109.55   21.45 197 0.79722-0.75891 0.46172-0.55711 0.42501 0.29138
   1  -3   5  664.64   29.29 198 0.79376-0.65449 0.46263-0.74401 0.43083-0.14864
   1  -3  10   74.52   21.19 197 0.79783-0.64399 0.46155-0.74332 0.42396 0.13446
   1   4  -6  260.95   21.93 197 0.79662-0.69255 0.46188-0.08898 0.42601-0.75075
   1   8  -5   12.12   31.16 199 0.78763-0.68206 0.46417 0.28167 0.44097-0.71160
   2  -4  10  102.23   25.45 197 0.79410-0.51685 0.46254-0.83830 0.43027 0.13462
   3  -4  14    1.52   30.31 199 0.79074-0.37805 0.46340-0.84294 0.43586 0.35947
   4  -1  -7   32.80   17.66 196 0.80121-0.32834 0.46062-0.55574 0.41816-0.77802
   4   0  -8  355.97   18.80 197 0.79898-0.33119 0.46124-0.46233 0.42200-0.83725
   4   6 -10    9.99   26.24 198 0.79424-0.33302 0.46251 0.09579 0.43003-0.95456
   6  -1  -8    2.03   24.05 197 0.79748-0.08005 0.46165-0.55833 0.42455-0.82775
   6   0  -9  -19.43   24.59 198 0.79424-0.08397 0.46251-0.46425 0.43003-0.88403
  -1   2  14   35.48   18.61 197 0.79546-0.87939 0.46216-0.27592 0.42768 0.33866
   0   1  17   29.46   23.04 198 0.79471-0.74685 0.46236-0.37095 0.42894 0.51008
   0   7  -3   31.58   41.29 205 0.75621-0.76736 0.47065 0.18246 0.48889-0.65549
   0  10   0   -2.11   46.24 201 0.77432-0.77878 0.46717 0.46741 0.46182-0.46363
   1  -1  17   16.65   23.98 198 0.79345-0.62090 0.46268-0.55881 0.43106 0.51417
   1   5  -6  130.82   20.64 199 0.78949-0.68460 0.46369 0.00275 0.43763-0.76380
   2  -3  15   -3.29   26.86 198 0.79178-0.50106 0.46311-0.74647 0.43384 0.40788
   2  -1  -4 1621.58   25.28 198 0.79217-0.55704 0.46301-0.55728 0.43319-0.64069
   2   2  -7  100.03   17.36 197 0.79504-0.57084 0.46227-0.27512 0.42838-0.80100
   3   4  -9  154.50   19.35 198 0.79280-0.44989 0.46285-0.09133 0.43215-0.91038
   3   6  -9   57.14   20.25 198 0.79350-0.45182 0.46267 0.09617 0.43097-0.90976
   4  -4  -1   38.60   21.51 198 0.79035-0.29827 0.46348-0.83960 0.43621-0.46489
   4   4 -10   34.47   20.22 197 0.79480-0.33266 0.46233-0.09028 0.42879-0.95456
   4   5 -10   -2.70   23.77 199 0.78951-0.32879 0.46368 0.00033 0.43759-0.96033
   5   2 -10   19.11   19.63 198 0.79422-0.20987 0.46249-0.27805 0.42977-0.94632
   6  -3  -5   20.39   20.62 198 0.79458-0.06874 0.46239-0.74482 0.42916-0.66483
   7  -3  -5  -33.94   23.36 198 0.79453 0.05505 0.46240-0.74522 0.42925-0.65986
   7  -1  -8   31.86   24.80 198 0.79439 0.04488 0.46244-0.55852 0.42948-0.82404
   7   0  -9   26.63   26.05 197 0.79462 0.04181 0.46238-0.46562 0.42910-0.87996
  -1   1  13   -6.08   21.68 199 0.78575-0.87216 0.46474-0.37205 0.44384 0.26740
  -1   4   0   54.08   26.21 199 0.78334-0.90789 0.46531-0.09173 0.44772-0.45487
  -1   4  16   -9.97   23.85 199 0.78972-0.86957 0.46377-0.09096 0.43736 0.43859
  -1   6   0   13.51   25.36 199 0.78276-0.90812 0.46544 0.09472 0.44866-0.45589
   0   0  16  -35.66   20.50 199 0.78807-0.74191 0.46418-0.46558 0.44007 0.44040
   1  -3  11  194.78   22.89 199 0.78632-0.63109 0.46460-0.74571 0.44292 0.17100
   1  -2  15  -11.71   21.75 199 0.78896-0.62213 0.46396-0.65296 0.43863 0.39543
   1   2  -5  525.58   23.28 199 0.78530-0.67680 0.46485-0.27815 0.44458-0.71435
   3  -4   1   17.41   20.03 199 0.78655-0.41145 0.46455-0.84086 0.44256-0.36684
   3  -3  -2   24.36   20.34 199 0.78705-0.42179 0.46443-0.74611 0.44174-0.53257
   3  -2  -4  374.23   21.68 199 0.78620-0.42686 0.46463-0.65322 0.44311-0.64378
   3   5  -9   15.18   19.33 199 0.78884-0.44727 0.46399 0.00212 0.43881-0.91657
   5  -4  -2   49.17   21.94 199 0.78763-0.17614 0.46428-0.84160 0.44079-0.51646
   5  -2  -6   56.32   17.47 199 0.78697-0.18748 0.46445-0.65423 0.44187-0.73972
   6  -5   1   13.36   25.34 199 0.78568-0.04065 0.46475-0.93604 0.44396-0.34925
  -1   0   8   66.68   18.02 200 0.78222-0.88196 0.46556-0.46616 0.44944-0.01503
  -1   0   9  309.35   17.69 200 0.78148-0.87888 0.46573-0.46553 0.45061 0.03797
  -1   2  15   32.80   21.96 199 0.78335-0.86320 0.46530-0.27936 0.44763 0.37240
  -1   3  16   76.06   22.88 200 0.78280-0.86058 0.46543-0.18632 0.44850 0.42691
   0  -1  14   66.07   20.23 200 0.78331-0.74204 0.46531-0.55998 0.44769 0.32464
   2  -4  11   63.10   22.04 200 0.77941-0.50080 0.46620-0.84150 0.45390 0.16747
   2   9  -6  -14.18   31.04 201 0.77853-0.55287 0.46639 0.37418 0.45528-0.77447
   3   8  -8    9.90   26.06 200 0.77946-0.43609 0.46619 0.28098 0.45381-0.87778
   4  -5  12   11.13   36.32 201 0.77595-0.24681 0.46696-0.93728 0.45931 0.22997
   4   2  -9   95.46   19.04 200 0.78214-0.31630 0.46558-0.28149 0.44956-0.92032
   5   1  -9  100.82   18.12 200 0.78158-0.19150 0.46571-0.37543 0.45045-0.91461
   5   3 -10   40.66   22.93 200 0.78054-0.19499 0.46594-0.18768 0.45210-0.97107
   6   2 -10    8.04   23.37 200 0.78405-0.07410 0.46514-0.28013 0.44651-0.95907
  -1   0   7   25.41   17.79 200 0.77852-0.88152 0.46657-0.46691 0.45520-0.07547
  -1   0  10   71.28   18.03 201 0.77781-0.87156 0.46672-0.46761 0.45631 0.08782
  -1   9   3   -1.45   28.31 200 0.77776-0.89501 0.46673 0.37286 0.45638-0.29880
   0  -2   8  527.29   20.10 201 0.77698-0.75225 0.46690-0.65487 0.45761-0.01738
   0  -2   9   50.76   21.24 201 0.77599-0.74851 0.46712-0.65513 0.45916 0.03724
   1   0  -3 4952.64   42.32 201 0.77776-0.66326 0.46673-0.46629 0.45639-0.61613
   1   9  -4   20.74   36.60 204 0.76102-0.65339 0.47009 0.36841 0.48182-0.69724
   2   0  -5  136.63   17.27 201 0.77656-0.54521 0.46699-0.46699 0.45826-0.72136
   2   1  -6  114.85   17.46 201 0.77860-0.55024 0.46655-0.37447 0.45506-0.77231
   3   2  -8   13.29   16.74 200 0.77892-0.43337 0.46648-0.28054 0.45457-0.87692
   4  -2  -5   75.18   17.02 201 0.77770-0.30055 0.46674-0.65517 0.45648-0.70548
   5  -5   2    1.40   23.63 201 0.77577-0.15123 0.46716-0.93789 0.45950-0.31590
   5  -3  -4   71.44   19.00 201 0.77705-0.17216 0.46689-0.74972 0.45750-0.64487
   5  -1  -7   53.16   21.84 200 0.77703-0.17916 0.46689-0.56344 0.45753-0.81324
   6  -2  -6   33.68   22.41 201 0.77449-0.05218 0.46744-0.65672 0.46149-0.75268
   7  -4  -2   23.54   27.08 201 0.77569 0.08267 0.46718-0.84429 0.45962-0.52356
   7  -2  -6  -10.73   25.77 202 0.77266 0.06951 0.46782-0.65558 0.46430-0.74637
  -2   4   8   29.08   20.03 202 0.77065-0.99494 0.46819-0.09469 0.46716-0.04007
  -2   4   9   21.74   17.01 201 0.77197-0.99262 0.46792-0.09508 0.46514 0.01625
  -2   5   7  106.81   21.11 202 0.77119-0.99910 0.46808-0.00137 0.46633-0.09448
  -2   5   8    9.71   18.10 201 0.77418-0.99982 0.46746 0.00000 0.46174-0.03417
  -2   5   9  101.66   18.77 201 0.77441-0.99726 0.46741-0.00037 0.46138 0.02124
  -2   5  10   49.09   19.41 201 0.77240-0.99205 0.46783-0.00064 0.46448 0.07339
  -2   6   8  -16.08   21.72 202 0.76979-0.99606 0.46837 0.09315 0.46847-0.04207
  -2   6   9   47.62   23.46 202 0.77005-0.99388 0.46832 0.09304 0.46808 0.01433
  -1   0  11  199.86   18.62 202 0.77149-0.86291 0.46802-0.46840 0.46587 0.13365
  -1   1   3  189.61   20.85 201 0.77414-0.88848 0.46747-0.37524 0.46179-0.30337
  -1   1  14   10.73   20.86 201 0.77395-0.85704 0.46751-0.37488 0.46209 0.30389
   0  -2   7  287.53   18.55 202 0.77227-0.75070 0.46786-0.65553 0.46468-0.07964
   0  -2  10   -3.56   17.17 202 0.77187-0.74182 0.46794-0.65533 0.46529 0.08552
   0   0  17   -1.61   26.15 202 0.76963-0.72043 0.46840-0.47011 0.46871 0.46869
   0   3  -3  578.88   30.14 203 0.76591-0.77550 0.46914-0.18810 0.47434-0.64105
   1  -3  12   -1.09   18.48 202 0.77280-0.61389 0.46775-0.75009 0.46387 0.20485
   1  -2  16   10.68   25.09 202 0.77069-0.59998 0.46819-0.65671 0.46710 0.42139
   2  -2  -2   64.85   17.69 201 0.77451-0.53326 0.46739-0.65440 0.46122-0.55896
   2   7  -7   37.38   22.14 203 0.76713-0.54393 0.46890 0.18339 0.47249-0.84721
   4  -5   4   18.00   30.02 204 0.75891-0.25184 0.47044-0.93981 0.48470-0.23700
   4  -3  -3   16.20   19.61 203 0.76831-0.28374 0.46866-0.74968 0.47072-0.60892
   5   0  -8   90.49   18.24 202 0.77312-0.18076 0.46768-0.46948 0.46337-0.87127
   5   4 -10   11.40   21.97 202 0.77205-0.18655 0.46791-0.09628 0.46501-0.98592
   6  -4  -2   15.85   19.76 202 0.77272-0.03745 0.46777-0.84415 0.46399-0.53433
   6   1  -9  -18.76   19.94 202 0.77164-0.05667 0.46799-0.37706 0.46564-0.92541
   6   3 -10    0.19   22.07 202 0.77141-0.06030 0.46804-0.18974 0.46600-0.98142
  -2   4   7   75.48   17.98 203 0.76607-0.99368 0.46901-0.09532 0.47402-0.10232
  -2   4  10   23.46   18.21 202 0.76834-0.98782 0.46856-0.09489 0.47060 0.06756
  -2   4  11   -5.29   21.67 203 0.76388-0.98072 0.46943-0.09582 0.47729 0.11604
  -2   5  11   12.94   19.21 203 0.76721-0.98491 0.46879-0.00161 0.47230 0.12108
  -2   6   7    6.94   18.65 202 0.76694-0.99507 0.46884 0.09151 0.47272-0.10068
  -2   6  10   28.34   19.55 202 0.76795-0.98905 0.46864 0.09216 0.47119 0.06684
  -2   6  11   -6.53   23.30 202 0.76694-0.98194 0.46884 0.08905 0.47272 0.11760
  -1   0   6  403.53   18.59 202 0.76942-0.87493 0.46835-0.46935 0.46896-0.14521
  -1   2  16    4.99   23.43 203 0.76694-0.84600 0.46884-0.28357 0.47272 0.40443
   0  -2  11  285.21   21.24 203 0.76386-0.73192 0.46943-0.65688 0.47731 0.12994
   0  -1  15    2.44   20.75 203 0.76717-0.72369 0.46880-0.56413 0.47236 0.35496
   1   1  -4  170.41   20.63 202 0.76851-0.65754 0.46853-0.37538 0.47034-0.68418
   2  -4  12    8.79   23.62 202 0.76548-0.48215 0.46912-0.84448 0.47490 0.20034
   2   3  -7  221.12   18.32 202 0.76806-0.54275 0.46862-0.18914 0.47102-0.84464
   4   1  -8  458.00   19.28 203 0.76556-0.29593 0.46911-0.37778 0.47478-0.89026
   5   5 -10   14.38   24.19 203 0.76710-0.18226 0.46881-0.00390 0.47247-0.99143
   6  -3  -4   21.83   23.61 203 0.76510-0.03587 0.46920-0.75263 0.47547-0.65675
   6  -1  -7   16.02   19.34 202 0.76618-0.04446 0.46899-0.56619 0.47386-0.82301
   7  -3  -4   26.16   24.04 203 0.76670 0.08536 0.46889-0.75206 0.47307-0.64718
   7  -1  -7    9.14   23.70 202 0.76694 0.07667 0.46884-0.56641 0.47272-0.81455
   7   0  -8   -3.59   22.66 203 0.76588 0.07606 0.46905-0.47225 0.47430-0.87226
  -2   5   6  152.89   18.22 203 0.76217-0.99366 0.46977-0.00263 0.47983-0.16420
  -2   5  12   -1.51   20.12 204 0.76140-0.97592 0.46991-0.00273 0.48097 0.16645
  -2   6   6  140.55   22.42 204 0.75792-0.98949 0.47054 0.08876 0.48606-0.16982
  -2   6  12  -36.32   25.09 204 0.75842-0.97324 0.47045 0.09020 0.48534 0.16181
  -2   7   8   -2.28   24.01 203 0.76128-0.98444 0.46994 0.18060 0.48114-0.05604
  -2   7   9   14.21   23.18 204 0.75937-0.98275 0.47028 0.18304 0.48396-0.00220
  -2   7  10   39.87   23.90 204 0.75696-0.97845 0.47071 0.18404 0.48746 0.05079
  -1   0  12    5.65   16.96 203 0.76342-0.85179 0.46954-0.47038 0.47799 0.17757
  -1   1  15   19.83   21.57 204 0.76077-0.84102 0.47003-0.37787 0.48190 0.33904
   0  -2   6   -7.69   20.95 204 0.75874-0.74047 0.47040-0.65813 0.48488-0.15421
   1  -3  13   49.03   23.50 204 0.75938-0.59636 0.47028-0.75282 0.48394 0.24014
   3  -1  -5   72.27   17.39 204 0.76163-0.40701 0.46987-0.56389 0.48062-0.73624
   3   1  -7   19.92   16.84 204 0.76146-0.41244 0.46990-0.37747 0.48088-0.84792
   4  -1  -6   97.18   18.64 204 0.76108-0.28663 0.46997-0.56453 0.48144-0.78585
   4   3  -9    9.95   18.31 204 0.76259-0.29784 0.46970-0.19125 0.47922-0.94892
   4   7  -9    6.25   23.60 204 0.76188-0.29775 0.46983 0.18334 0.48027-0.95187
   5   2  -9    4.56   23.21 204 0.75862-0.16916 0.47042-0.28552 0.48505-0.95008
   6  -5   2    6.57   25.92 205 0.75582-0.00876 0.47091-0.94018 0.48912-0.33852
   6   0  -8    2.27   19.69 204 0.76128-0.04781 0.46994-0.47188 0.48114-0.88059
  -2   3   8  209.22   18.33 204 0.75592-0.98030 0.47100-0.19221 0.48886-0.06181
  -2   3   9  195.09   18.05 204 0.75781-0.97940 0.47068-0.19133 0.48613-0.00414
  -2   3  10  107.00   19.27 204 0.75638-0.97528 0.47092-0.19205 0.48819 0.04884
  -2   3  11  173.91   18.85 205 0.75285-0.96889 0.47153-0.19192 0.49328 0.09909
  -2   4   6   64.28   17.57 204 0.75639-0.98733 0.47092-0.09918 0.48819-0.17132
  -2   4  12   31.16   19.08 204 0.75767-0.97159 0.47070-0.09711 0.48632 0.16218
  -2   5  13   24.58   20.52 205 0.75465-0.96493 0.47122-0.00552 0.49069 0.21106
  -2   7   7   22.81   23.05 205 0.75241-0.98183 0.47160 0.18111 0.49390-0.12275
  -2   7  11   -1.34   22.72 204 0.75551-0.97207 0.47108 0.18200 0.48945 0.10220
  -1   0  13  120.83   20.12 205 0.75387-0.83933 0.47136-0.47228 0.49182 0.21795
  -1   2  17   15.61   26.85 205 0.75190-0.82705 0.47168-0.28655 0.49463 0.43741
  -1   8   1   19.03   28.38 206 0.74721-0.87166 0.47244 0.27515 0.50126-0.45458
   0  -2  12  158.37   19.12 205 0.75496-0.71848 0.47117-0.66008 0.49025 0.17117
   0  -1   2 1346.59   43.47 205 0.75182-0.74434 0.47170-0.56723 0.49474-0.38376
   3   0  -6  452.15   17.98 205 0.75504-0.40304 0.47116-0.47196 0.49014-0.80199
   3   3  -8   73.90   17.13 205 0.75593-0.41090 0.47100-0.19172 0.48885-0.91085
   3   7  -8    3.05   24.81 204 0.75571-0.41270 0.47104 0.18244 0.48916-0.91376
   4   0  -7    1.57   15.83 205 0.75671-0.28455 0.47087-0.47160 0.48771-0.84663
   4   4  -9   48.72   22.22 205 0.75134-0.28678 0.47177-0.09995 0.49542-0.96619
   5  -4  -1    2.35   21.76 205 0.75269-0.13729 0.47155-0.84745 0.49351-0.51632
  -2   3   7  188.92   18.22 205 0.75000-0.97756 0.47193-0.19211 0.49713-0.12535
  -2   3  12   73.25   18.34 206 0.74753-0.96008 0.47232-0.19357 0.50061 0.14680
  -2   4  13   26.95   21.34 205 0.75007-0.96080 0.47192-0.09921 0.49703 0.20626
  -2   5   5  313.79   21.42 206 0.74849-0.98246 0.47217-0.00627 0.49926-0.23760
  -2   6  13   19.41   23.48 205 0.75036-0.96266 0.47188 0.08772 0.49662 0.20642
  -2   7  12   17.81   23.51 205 0.74982-0.96374 0.47196 0.18043 0.49738 0.14944
  -1   0   5  113.47   18.86 205 0.75141-0.86014 0.47170-0.47205 0.49513-0.22596
  -1   1  16   43.42   24.52 206 0.74559-0.82325 0.47262-0.38129 0.50333 0.37383
   0  -1  16    7.28   22.60 205 0.75031-0.70348 0.47188-0.56780 0.49669 0.38656
   1  -2  17  -11.76   25.68 206 0.74934-0.57620 0.47204-0.66183 0.49807 0.44626
   2  -4  13   33.63   25.84 206 0.74738-0.46101 0.47235-0.84841 0.50082 0.23000
   2   4  -7  103.33   17.04 206 0.74988-0.52638 0.47195-0.09885 0.49730-0.87045
   2   6  -7   10.09   17.99 206 0.74922-0.52590 0.47206 0.08794 0.49824-0.87302
   4  -4   0   97.62   20.95 206 0.74702-0.25242 0.47240-0.84750 0.50133-0.47495
   4   5  -9   -4.23   22.42 206 0.74680-0.28174 0.47244-0.00632 0.50164-0.97295
   4   6  -9   36.01   22.78 205 0.75038-0.28638 0.47187 0.08710 0.49659-0.96827
   5  -2  -5    9.41   18.06 206 0.74934-0.14685 0.47204-0.66066 0.49807-0.74044
   6   2  -9   37.07   21.80 206 0.74907-0.03652 0.47208-0.28770 0.49845-0.95678
   7  -4  -1   40.17   23.73 206 0.74903 0.11278 0.47209-0.84967 0.49850-0.50709
  -2   4   5  293.28   21.45 207 0.74112-0.97472 0.47336-0.10050 0.50951-0.24784
  -2   4  14   23.70   24.64 207 0.74190-0.94851 0.47324-0.10143 0.50844 0.24830
  -2   5  14   26.20   23.15 207 0.74409-0.95277 0.47292-0.00708 0.50541 0.25288
  -2   6   5   52.60   21.60 206 0.74286-0.97746 0.47310 0.08688 0.50710-0.24600
  -2   6  14    3.03   22.85 207 0.74266-0.95086 0.47313 0.08546 0.50739 0.24818
  -2   7   6   17.15   23.18 207 0.74110-0.97410 0.47336 0.18129 0.50954-0.19304
  -2   8   9   41.44   27.04 207 0.73886-0.96318 0.47368 0.27291 0.51260-0.03126
  -2   8  10   13.33   27.67 206 0.74155-0.96081 0.47330 0.27092 0.50892 0.02623
  -1   0  14    6.46   19.40 207 0.74303-0.82513 0.47308-0.47444 0.50687 0.25755
  -1  10   4   19.12   31.87 208 0.73562-0.85183 0.47413 0.45918 0.51699-0.30542
   0  -2  13   65.65   19.52 206 0.74346-0.70442 0.47301-0.66206 0.50628 0.21083
   1  -3  14  -18.62   20.80 207 0.74316-0.57812 0.47306-0.75556 0.50670 0.27196
   1   3  -5  771.25   24.80 207 0.73981-0.63296 0.47354-0.19299 0.51129-0.78071
   1   7  -5   -9.87   26.68 208 0.73463-0.62866 0.47426 0.18020 0.51832-0.78980
   2   5  -7  122.66   18.00 207 0.74356-0.52066 0.47300-0.00687 0.50615-0.87993
   3   4  -8   18.82   17.90 207 0.74229-0.39763 0.47319-0.10028 0.50789-0.93124
   3   6  -8   45.15   22.30 207 0.73933-0.39602 0.47361 0.08494 0.51195-0.93430
   5  -5   3   11.68   26.66 207 0.74066-0.11315 0.47342-0.94412 0.51014-0.31083
   5   1  -8   25.80   17.78 207 0.74216-0.15110 0.47321-0.38256 0.50807-0.91685
   5   3  -9    7.15   22.24 207 0.74174-0.15212 0.47327-0.19455 0.50865-0.97502
   6  -4  -1   95.68   23.78 207 0.74095-0.00357 0.47338-0.84960 0.50974-0.52458
   6  -2  -5   36.37   21.41 206 0.74237-0.01459 0.47318-0.66398 0.50779-0.74551
   7  -2  -5   -0.51   22.77 207 0.74440 0.10470 0.47287-0.66160 0.50498-0.73467
  -2   2   9   88.65   20.45 208 0.73518-0.95592 0.47420-0.28845 0.51768-0.03539
  -2   2  10   15.43   16.66 208 0.73571-0.95365 0.47413-0.28774 0.51697 0.02078
  -2   3   6    8.39   17.25 208 0.73819-0.96929 0.47379-0.19320 0.51362-0.19613
  -2   3  13   21.40   20.67 207 0.73897-0.94980 0.47368-0.19429 0.51256 0.19141
  -2   8   8   17.93   26.41 209 0.73310-0.96193 0.47448 0.27496 0.52048-0.09291
  -1   2   1 4145.81   48.90 208 0.73668-0.85772 0.47400-0.28779 0.51566-0.46699
  -1   7   0   65.87   32.74 209 0.72616-0.85192 0.47534 0.17874 0.52965-0.53838
  -1   9   2   11.04   27.54 208 0.73304-0.85438 0.47448 0.36565 0.52056-0.41883
   1  -3   4  295.41   29.68 209 0.72833-0.59191 0.47508-0.75637 0.52680-0.29921
   2   2  -6  321.04   20.76 208 0.73445-0.50726 0.47430-0.28737 0.51867-0.83648
   3   5  -8   22.04   18.94 208 0.73664-0.39248 0.47400-0.00786 0.51572-0.93909
   4   2  -8   20.79   18.34 208 0.73724-0.26839 0.47392-0.28854 0.51490-0.93083
   5  -3  -3   49.78   17.96 208 0.73844-0.12982 0.47375-0.75583 0.51328-0.64515
   5  -1  -6   11.02   18.29 208 0.73623-0.13688 0.47406-0.56968 0.51626-0.81463
   7  -3  -3   12.85   23.33 208 0.73724 0.11800 0.47392-0.75748 0.51490-0.63389
   7   1  -8   -1.15   23.77 208 0.73774 0.10201 0.47385-0.38323 0.51422-0.91065
  -2   2   8   26.75   17.23 209 0.73116-0.95510 0.47473-0.28797 0.52308-0.09536
  -2   2  11  -24.84   18.40 209 0.73231-0.94846 0.47458-0.28827 0.52155 0.07125
  -2   3  14   39.01   20.79 209 0.73051-0.93770 0.47482-0.19557 0.52394 0.23463
  -2   4  15  -22.39   24.45 209 0.73078-0.93497 0.47478-0.10228 0.52358 0.28873
  -2   5  15    0.36   23.53 208 0.73371-0.93901 0.47440-0.00851 0.51968 0.29371
  -2   8   7   -4.35   25.19 209 0.72835-0.95771 0.47508 0.27226 0.52679-0.15693
  -1   0  15   -1.69   19.85 209 0.73066-0.80990 0.47480-0.47614 0.52375 0.29487
  -1   1  17  -20.10   24.85 209 0.73117-0.80522 0.47473-0.38313 0.52307 0.40702
   0  -2   5  950.92   23.78 209 0.73132-0.71525 0.47471-0.66240 0.52287-0.24767
   0  -2  14   79.03   20.84 209 0.73082-0.68907 0.47478-0.66316 0.52353 0.24916
   0  -1  17   15.71   24.57 208 0.73234-0.68269 0.47458-0.57057 0.52152 0.41695
   2  -4  14    4.83   25.33 210 0.72635-0.43748 0.47533-0.85271 0.52942 0.25742
   2   8  -6   25.08   23.49 209 0.72766-0.50206 0.47517 0.27173 0.52770-0.84780
   3  -5   9   71.20   34.52 210 0.71963-0.32224 0.47610-0.94502 0.53811-0.02012
   3  -3  -1   18.29   16.02 209 0.73091-0.36274 0.47476-0.75676 0.52341-0.55784
   3  -2  -3  216.22   17.65 208 0.73301-0.37210 0.47449-0.66162 0.52061-0.66623
   4  -2  -4  161.40   17.86 209 0.73221-0.25065 0.47460-0.66273 0.52168-0.71513
   5   0  -7   97.44   17.73 208 0.73311-0.13825 0.47448-0.47644 0.52049-0.87283
   5   4  -9   12.93   19.21 209 0.72938-0.14107 0.47496-0.10335 0.52544-0.99033
   5   6  -9    0.99   25.96 209 0.72844-0.14042 0.47507 0.08409 0.52668-0.99280
   6  -5   3   -4.37   27.43 210 0.72552 0.02427 0.47543-0.94436 0.53050-0.32436
   6  -3  -3  110.00   20.38 209 0.73085 0.00030 0.47477-0.75943 0.52349-0.64786
   6  -1  -6    9.68   23.08 209 0.72767-0.00582 0.47517-0.57097 0.52769-0.81874
   6   1  -8    1.12   19.05 209 0.73168-0.01864 0.47467-0.38366 0.52240-0.92204
   6   3  -9   29.06   23.04 208 0.73241-0.02044 0.47457-0.19694 0.52143-0.97943
   7  -1  -6   12.94   21.45 209 0.73168 0.11104 0.47467-0.57050 0.52240-0.80581
   7   0  -7    3.06   23.75 209 0.73117 0.11120 0.47473-0.47787 0.52307-0.86346
  -2   2  12   29.71   17.49 209 0.72814-0.94054 0.47518-0.28900 0.52710 0.12137
  -2   5   4   22.11   20.75 210 0.72434-0.96129 0.47564-0.00829 0.53208-0.32560
  -2   7   5   25.70   22.71 209 0.72516-0.96018 0.47554 0.17822 0.53100-0.26987
  -1  -1   9  283.28   20.97 210 0.72257-0.81929 0.47584-0.56927 0.53436-0.04420
  -1  -1  10   15.91   16.68 210 0.72350-0.81710 0.47574-0.56986 0.53316 0.01220
   1  -3  15   19.68   22.40 209 0.72551-0.55707 0.47550-0.75829 0.53055 0.30417
   2  -1  -3  866.08   22.25 210 0.72486-0.48584 0.47558-0.56985 0.53139-0.68405
   3  -5  10    4.99   32.96 211 0.71447-0.31285 0.47671-0.94727 0.54468 0.02837
   3  -4   2   43.27   22.65 211 0.71746-0.33993 0.47640-0.85235 0.54091-0.40916
   3   2  -7  687.06   19.39 210 0.72569-0.37639 0.47548-0.29014 0.53032-0.89720
   3   8  -7   15.07   24.85 211 0.71922-0.37347 0.47621 0.26966 0.53867-0.90726
   4  -3  -2   50.80   20.31 210 0.72287-0.23553 0.47581-0.75841 0.53398-0.61606
   5   5  -9  -18.01   22.82 210 0.72531-0.13697 0.47552-0.00996 0.53081-0.99634
   6   0  -7   14.98   21.33 210 0.72557-0.00690 0.47549-0.47773 0.53047-0.87648
   6   4  -9   13.74   25.00 210 0.72222-0.01080 0.47588-0.10490 0.53482-0.99335
   7  -4   0  -18.86   27.78 210 0.72177 0.14449 0.47593-0.85410 0.53540-0.49052
  -2   2   7   95.64   16.28 210 0.72177-0.94916 0.47588-0.28867 0.53548-0.16378
  -2   2  13   32.70   18.34 210 0.72067-0.93087 0.47601-0.29024 0.53690 0.16723
  -2   3   5   80.76   17.15 210 0.71982-0.95287 0.47610-0.19633 0.53799-0.27682
  -2   3  15   42.18   21.51 210 0.71980-0.92410 0.47610-0.19724 0.53801 0.27587
  -2   6   4   45.01   21.25 210 0.71903-0.95580 0.47618 0.08384 0.53900-0.33337
  -2   8   6   13.61   25.23 211 0.71580-0.94784 0.47652 0.26969 0.54310-0.22736
  -1  -1   8  375.07   21.30 211 0.71631-0.81595 0.47647-0.57042 0.54245-0.10757
  -1  -1  11   69.93   17.69 210 0.72121-0.81243 0.47595-0.56975 0.53621 0.06276
  -1  -1  12  109.82   20.44 211 0.71563-0.80402 0.47654-0.57071 0.54332 0.11178
  -1   0   4  606.44   21.41 211 0.71858-0.82988 0.47623-0.47705 0.53958-0.32490
   0  -2  15    4.23   22.73 211 0.71625-0.67164 0.47648-0.66534 0.54254 0.28502
   2  -3   1  118.66   24.69 212 0.71265-0.46132 0.47684-0.75831 0.54706-0.47874
   3  -5   8   31.38   43.63 214 0.69525-0.29995 0.47833-0.94800 0.56826-0.10597
   3  -5  11   -4.02   33.98 212 0.70802-0.30387 0.47728-0.94713 0.55281 0.07463
   4  -5   5    1.88   33.17 214 0.70033-0.19023 0.47794-0.94804 0.56219-0.25891
   4   1  -7   28.12   16.87 211 0.71903-0.24667 0.47618-0.38424 0.53900-0.89998
  -2   2  14   26.62   19.39 212 0.71263-0.91921 0.47681-0.29109 0.54696 0.21173
  -2   4   4  107.15   17.91 211 0.71453-0.95106 0.47662-0.10248 0.54458-0.33945
  -1   0  16  -14.64   20.18 212 0.71433-0.79182 0.47664-0.47895 0.54483 0.33266
  -1   1   2 3035.30   38.96 212 0.71171-0.82913 0.47690-0.38429 0.54811-0.44431
  -1   3   0   77.64   28.92 212 0.70516-0.82959 0.47750-0.19776 0.55620-0.56323
   1  -1  -1 1743.48   36.02 212 0.71301-0.59119 0.47677-0.57056 0.54648-0.59601
   1   4  -5  263.29   22.39 212 0.70831-0.60096 0.47722-0.10333 0.55234-0.82259
   2  -4  15   11.32   30.70 212 0.70716-0.41485 0.47733-0.85413 0.55375 0.28768
   2   1  -5  820.08   21.17 212 0.71251-0.48183 0.47682-0.38333 0.54711-0.81016
   4  -1  -5   -2.50   17.34 212 0.71328-0.23408 0.47675-0.57101 0.54615-0.79577
   4   0  -6   35.03   19.09 212 0.71021-0.23429 0.47704-0.47869 0.54998-0.85542
   4   3  -8   56.01   17.87 211 0.71430-0.24679 0.47665-0.19822 0.54487-0.95952
   4   7  -8   13.96   26.53 212 0.71055-0.24434 0.47701 0.17475 0.54956-0.96609
   5  -4   0   69.61   21.31 212 0.71198-0.09532 0.47688-0.85322 0.54777-0.51402
   5   2  -8   78.79   18.51 212 0.71419-0.12308 0.47666-0.29235 0.54501-0.95257
   6   2  -8  -21.93   23.04 212 0.70974 0.00635 0.47709-0.29241 0.55057-0.95383
   7  -2  -4   18.41   21.83 212 0.71267 0.13978 0.47681-0.66754 0.54691-0.72178
   7   2  -8   45.04   22.50 212 0.71403 0.12272 0.47667-0.29311 0.54521-0.93976
  -2   2   6  306.28   19.17 212 0.70679-0.93625 0.47741-0.29144 0.55424-0.23760
  -2   3  16   29.75   23.23 212 0.70748-0.90904 0.47734-0.19857 0.55339 0.31566
  -1  -1   7  383.01   19.06 213 0.70374-0.80582 0.47767-0.57202 0.55797-0.17807
  -1  -1  13    7.41   19.06 212 0.70801-0.79285 0.47730-0.57203 0.55274 0.15818
   1  -3  16   -8.45   24.45 213 0.70654-0.53565 0.47743-0.76035 0.55455 0.33480
   1   6  -5   27.35   20.54 213 0.70443-0.59814 0.47761 0.08188 0.55713-0.82829
   2   0  -4  661.37   19.93 213 0.70668-0.47148 0.47742-0.47777 0.55438-0.76240
   3  -1  -4  303.34   18.79 213 0.70426-0.34559 0.47763-0.57213 0.55734-0.75822
   3   1  -6  -13.82   16.48 213 0.70587-0.35335 0.47749-0.38482 0.55537-0.86839
   5  -5   4   23.86   27.01 214 0.69656-0.06648 0.47825-0.94766 0.56662-0.31183
   5  -2  -4   48.53   17.55 213 0.70703-0.10184 0.47738-0.66662 0.55395-0.74054
   6  -5   4   -3.35   29.79 213 0.70021 0.05400 0.47797-0.95044 0.56225-0.30120
   6  -4   0   22.51   19.75 212 0.70742 0.03424 0.47735-0.85481 0.55346-0.51329
   6  -2  -4   51.27   22.05 214 0.70129 0.02577 0.47788-0.66668 0.56094-0.74084
   7  -3  -2  -27.40   22.02 213 0.70614 0.15294 0.47746-0.76119 0.55504-0.62016
  -2   1   9  278.83   18.20 213 0.69995-0.92019 0.47795-0.38530 0.56251-0.08107
  -2   1  10  242.63   17.79 213 0.70283-0.92086 0.47771-0.38426 0.55904-0.02148
  -2   1  11  370.78   18.03 213 0.70258-0.91781 0.47773-0.38400 0.55934 0.03299
  -2   1  12  100.07   18.76 214 0.69976-0.91113 0.47797-0.38538 0.56275 0.08548
  -2   2  15   10.10   20.36 213 0.70175-0.90586 0.47780-0.29217 0.56035 0.25448
  -2   7   4    9.67   23.18 214 0.69583-0.93443 0.47827 0.17601 0.56745-0.36187
  -1  -1  14   53.47   20.02 214 0.69892-0.77981 0.47803-0.57326 0.56375 0.20199
  -1   0  17    8.45   24.59 214 0.70020-0.77378 0.47793-0.48001 0.56221 0.36833
  -1  10   3  -15.02   33.81 215 0.69069-0.80935 0.47863 0.45666 0.57351-0.41804
   0  -2  16   24.35   22.91 214 0.69975-0.65201 0.47797-0.66727 0.56275 0.32046
   0   4  -3  317.13   28.72 216 0.68743-0.69772 0.47885-0.10482 0.57730-0.74384
   1  -2   1 3531.39   73.19 215 0.68681-0.55853 0.47889-0.66676 0.57803-0.51666
   1   5  -5   84.88   20.42 214 0.69599-0.58969 0.47826-0.01180 0.56726-0.83760
   2   3  -6  -11.65   16.81 214 0.69993-0.47186 0.47795-0.19782 0.56254-0.88191
   2   9  -5    7.25   26.43 215 0.69478-0.46691 0.47835 0.36057 0.56869-0.83311
   3  -5  12   32.53   32.98 214 0.69372-0.28666 0.47842-0.94832 0.56995 0.11242
   3   3  -7   80.19   17.06 214 0.69885-0.35110 0.47804-0.19807 0.56383-0.93155
   4  -4   1   32.66   20.87 215 0.69377-0.19663 0.47842-0.85365 0.56988-0.48795
   4   4  -8   27.98   18.40 213 0.70078-0.23312 0.47788-0.10588 0.56151-0.97725
   4   6  -8   29.08   20.52 214 0.69918-0.23238 0.47801 0.08088 0.56344-0.98053
   5  -3  -2   49.33   20.83 214 0.69657-0.08414 0.47821-0.76171 0.56657-0.64343
   5   1  -7   35.58   17.34 214 0.69749-0.10206 0.47814-0.38688 0.56547-0.91933
   7  -1  -5   -3.10   21.54 214 0.69939 0.15039 0.47799-0.57479 0.56319-0.79426
   7   1  -7   -7.11   24.35 214 0.70075 0.14131 0.47789-0.38710 0.56156-0.90164
  -2   1   8  200.07   17.44 215 0.69238-0.91557 0.47853-0.38574 0.57154-0.14385
  -2   1  13   15.80   20.44 214 0.69414-0.90266 0.47841-0.38580 0.56946 0.13396
  -2   2  16   15.39   26.01 214 0.69259-0.89137 0.47852-0.29329 0.57128 0.29471
  -2   8   5   -0.97   23.14 214 0.69367-0.92897 0.47844 0.26837 0.57002-0.30943
  -2   9   7   24.76   27.19 215 0.69073-0.92137 0.47864 0.36191 0.57347-0.20281
   0   6  -3   56.22   30.14 218 0.67168-0.68193 0.47970 0.08011 0.59516-0.76273
   1   2  -4  504.42   23.67 215 0.69046-0.57988 0.47866-0.29079 0.57379-0.78879
   2  -2  -1  185.54   21.68 215 0.68893-0.44331 0.47876-0.66636 0.57558-0.61788
   2   7  -6   10.47   21.62 215 0.69096-0.46537 0.47863 0.17364 0.57320-0.89230
   3   0  -5   70.80   15.65 214 0.69598-0.34115 0.47827-0.47868 0.56728-0.82363
   3   7  -7   -3.48   19.85 215 0.69282-0.34681 0.47850 0.17418 0.57101-0.93950
   3   9  -6   14.86   27.16 215 0.69246-0.34451 0.47853 0.36077 0.57144-0.88542
   4   5  -8   18.23   19.35 215 0.69400-0.22687 0.47842-0.01339 0.56963-0.98444
   5  -1  -5   20.63   17.71 215 0.69178-0.08939 0.47857-0.57444 0.57224-0.81539
   5   3  -8   81.09   19.47 215 0.69426-0.10330 0.47840-0.20023 0.56931-0.97775
   6  -3  -2   30.98   20.05 215 0.69255 0.04245 0.47852-0.76210 0.57134-0.64112
   6   1  -7  -30.58   20.15 215 0.69337 0.02599 0.47846-0.38732 0.57037-0.91792
   6   3  -8    0.11   20.89 215 0.69241 0.02456 0.47853-0.20016 0.57150-0.97626
   7  -4   1   24.62   27.47 215 0.68928 0.17892 0.47874-0.85668 0.57516-0.47298
   7   0  -6   25.25   23.47 214 0.69450 0.15035 0.47838-0.48144 0.56903-0.85344
  -2   1  14  -17.73   21.55 216 0.68642-0.89220 0.47894-0.38659 0.57844 0.17942
  -2   3   4  113.80   18.30 215 0.68852-0.92490 0.47881-0.19943 0.57599-0.36875
  -2   5   3  203.30   22.37 216 0.68427-0.92408 0.47907-0.01213 0.58091-0.43017
  -1  -1  15    7.41   22.21 216 0.68669-0.76587 0.47893-0.57414 0.57812 0.24237
   4   2  -7  254.13   19.18 216 0.68531-0.21460 0.47901-0.29329 0.57971-0.94053
   5   0  -6   26.41   18.27 216 0.68767-0.08918 0.47887-0.48057 0.57699-0.87434
   6  -1  -5   87.61   19.50 216 0.68742 0.03727 0.47888-0.57482 0.57727-0.81287
   6   0  -6    2.09   20.58 216 0.68628 0.03685 0.47895-0.48139 0.57860-0.87133
  -2   1   7  175.92   16.86 217 0.67879-0.90459 0.47939-0.38688 0.58719-0.21553
  -2   2   5  176.41   18.86 216 0.68161-0.91407 0.47924-0.29330 0.58399-0.32246
  -2   6   3  191.11   23.14 217 0.67765-0.91794 0.47945 0.08014 0.58847-0.43776
  -1  -1   6  313.12   19.53 216 0.68111-0.78565 0.47926-0.57381 0.58456-0.26102
   0  -3  10  147.01   21.74 217 0.67523-0.64442 0.47957-0.76141 0.59119-0.04009
   0  -3  11  357.69   22.38 217 0.67601-0.64258 0.47953-0.76152 0.59032 0.01578
   0  -2  17   -3.03   24.44 217 0.68115-0.63143 0.47926-0.66931 0.58450 0.35396
   1   8  -4    6.39   28.15 218 0.66852-0.56049 0.47986 0.26618 0.59862-0.81448
   2   4  -6   51.13   20.41 217 0.67537-0.44830 0.47956-0.10686 0.59103-0.90941
   3  -5  13   15.99   30.62 217 0.67602-0.26621 0.47953-0.94945 0.59030 0.14685
   3   4  -7   98.02   18.48 217 0.68012-0.33303 0.47932-0.10681 0.58568-0.95269
   3   6  -7  -11.36   22.76 217 0.67713-0.33032 0.47947 0.08002 0.58906-0.95701
   4  -2  -3   37.02   16.65 217 0.67978-0.19457 0.47934-0.66803 0.58606-0.72480
   4   8  -7   -5.64   28.52 218 0.67354-0.20466 0.47964 0.26446 0.59307-0.95296
   5   4  -8    2.77   20.64 217 0.68129-0.08974 0.47925-0.10729 0.58434-0.99318
   5   5  -8   10.75   24.25 216 0.67919-0.08684 0.47937-0.01306 0.58673-0.99929
   5   6  -8   28.72   23.19 217 0.67971-0.08944 0.47934 0.07897 0.58614-0.99645
   6   4  -8    3.79   23.00 217 0.67919 0.03530 0.47937-0.10836 0.58673-0.98993
   7  -2  -3   43.46   24.26 217 0.67631 0.17857 0.47951-0.66998 0.58998-0.70908
   7   2  -7   -4.30   24.87 217 0.67694 0.16474 0.47948-0.29595 0.58928-0.93028
  -2   1  15   22.18   20.46 217 0.67554-0.87934 0.47965-0.38762 0.59088 0.22419
  -2   4   3  112.11   20.14 218 0.67248-0.91172 0.47979-0.10616 0.59429-0.44324
  -2   9   6   14.98   26.04 217 0.67233-0.90554 0.47980 0.36092 0.59445-0.27902
  -1  -1  16   15.87   22.59 218 0.67275-0.74907 0.47978-0.57551 0.59399 0.28273
   0  -3   9   34.67   20.88 218 0.66831-0.64080 0.47996-0.76131 0.59889-0.10150
   0  -3  12   34.00   18.80 218 0.67303-0.63633 0.47976-0.76158 0.59368 0.06899
   0  -2   4  590.31   26.11 218 0.67069-0.65715 0.47987-0.66826 0.59627-0.37489
   0   2  -2 5829.57   72.14 219 0.66698-0.67363 0.48002-0.29176 0.60035-0.71164
   1  -4  10   96.68   24.91 218 0.66749-0.51336 0.48000-0.85543 0.59979-0.04070
   1  -4  11   43.35   22.73 218 0.66885-0.51131 0.47994-0.85581 0.59830 0.01654
   2   6  -6  137.37   21.48 218 0.67179-0.44429 0.47982 0.07960 0.59506-0.91512
   3   5  -7   -0.89   18.82 218 0.67303-0.32606 0.47976-0.01392 0.59367-0.96118
   6  -5   5   16.66   31.62 219 0.66300 0.09357 0.48016-0.95098 0.60468-0.28822
   6  -4   1   -6.10   24.93 218 0.66971 0.07594 0.47991-0.85713 0.59735-0.50298
   6   5  -8    5.19   24.81 217 0.67473 0.03929 0.47969-0.01532 0.59178-0.99556
   7  -3  -1    1.36   25.01 219 0.66676 0.19065 0.48002-0.76132 0.60059-0.60777
  -2   1  16   -3.69   22.85 219 0.66587-0.86546 0.48014-0.38820 0.60156 0.26638
   0  -3  13   26.93   19.75 218 0.66628-0.62674 0.48012-0.76211 0.60111 0.11660
   0   5  -3  595.78   31.07 221 0.65320-0.66283 0.48051-0.01247 0.61512-0.78267
   1  -4  12   43.74   22.60 219 0.66540-0.50438 0.48016-0.85617 0.60207 0.06775
   2   5  -6  160.50   17.68 219 0.66654-0.43933 0.48011-0.01304 0.60083-0.92020
   3  -2  -2  477.53   19.85 219 0.66560-0.30034 0.48015-0.66783 0.60185-0.69272
   4  -3  -1   33.32   17.18 219 0.66652-0.17518 0.48011-0.76213 0.60085-0.62852
   4   1  -6  153.37   19.97 219 0.66274-0.18787 0.48025-0.38726 0.60496-0.90984
   5  -4   1   95.36   22.56 219 0.66466-0.04469 0.48018-0.85586 0.60288-0.51414
   5   2  -7   -1.96   18.60 218 0.66730-0.07211 0.48009-0.29522 0.59999-0.95425
   6   2  -7   -3.96   20.15 218 0.66673 0.05208 0.48011-0.29593 0.60062-0.94892
  -3   5  10   15.36   21.84 220 0.65616-0.99943 0.48042-0.01359 0.61182-0.08116
  -3   5  11   27.35   20.74 219 0.65978-0.99937 0.48033-0.01397 0.60796-0.02253
  -3   5  12    6.72   21.09 219 0.65998-0.99618 0.48032-0.01423 0.60774 0.03265
  -3   5  13   15.99   24.87 220 0.65621-0.99046 0.48042-0.01440 0.61177 0.08407
  -3   6  11   17.04   24.01 221 0.65415-0.99675 0.48047 0.08086 0.61395-0.02725
  -3   6  12   24.05   25.00 220 0.65710-0.99387 0.48040 0.07875 0.61082 0.02912
  -2   0  10   80.62   17.37 220 0.65723-0.87393 0.48040-0.48122 0.61069-0.07349
  -2   0  11   15.60   18.87 219 0.65969-0.87401 0.48033-0.48101 0.60806-0.01459
  -2   0  12  168.68   19.69 220 0.65915-0.87040 0.48034-0.48122 0.60864 0.03912
  -2   1   6   98.97   16.33 220 0.65706-0.88573 0.48040-0.38758 0.61086-0.29451
  -2   8   4   17.01   21.86 220 0.65791-0.89629 0.48038 0.26693 0.60996-0.40483
  -1  -1  17   -5.25   23.93 220 0.65882-0.73201 0.48035-0.57586 0.60899 0.32136
   0  -3  14   36.09   22.88 220 0.65638-0.61420 0.48042-0.76277 0.61158 0.16115
   1  -4   9  276.05   22.55 220 0.65815-0.50692 0.48037-0.85576 0.60971-0.10613
   1  -4  13   43.84   25.93 220 0.65688-0.49390 0.48040-0.85639 0.61106 0.11349
   1   1  -3  171.03   20.72 220 0.65650-0.54258 0.48041-0.38646 0.61146-0.77097
   3  -3   0   77.00   21.04 220 0.65595-0.28486 0.48043-0.76192 0.61204-0.59183
   3   2  -6  -16.48   16.92 220 0.66085-0.30892 0.48029-0.29385 0.60681-0.91824
   4  -1  -4   38.98   17.27 220 0.65737-0.17591 0.48039-0.57565 0.61053-0.80436
   4   3  -7   18.96   18.09 220 0.65911-0.18766 0.48034-0.20130 0.60868-0.96915
   5  -5   5    6.98   27.74 222 0.64710-0.01457 0.48061-0.94929 0.62131-0.31122
   5  -2  -3   55.32   18.67 220 0.65951-0.05136 0.48033-0.67014 0.60826-0.73984
   6  -2  -3   24.32   19.54 220 0.66013 0.07147 0.48031-0.66942 0.60759-0.73285
   7  -4   2   18.56   27.77 221 0.65381 0.21426 0.48048-0.85634 0.61430-0.45699
   7  -1  -4   19.48   21.87 220 0.66002 0.19154 0.48032-0.57657 0.60771-0.78189
   7   0  -5   -2.33   25.26 219 0.65969 0.19298 0.48033-0.48449 0.60806-0.84085
   7   1  -6   17.19   21.33 219 0.66117 0.18265 0.48028-0.38968 0.60647-0.89089
   7   3  -7   19.13   26.09 220 0.65853 0.18288 0.48036-0.20295 0.60930-0.95050
  -3   4  10   33.18   18.97 221 0.65138-0.99312 0.48058-0.10752 0.61690-0.08648
  -3   4  11    2.30   19.55 221 0.65336-0.99349 0.48054-0.10716 0.61482-0.02970
  -3   4  12   -4.30   20.21 220 0.65395-0.99053 0.48052-0.10772 0.61421 0.02673
  -3   4  13   -0.63   21.49 221 0.65205-0.98502 0.48056-0.10779 0.61621 0.07876
  -3   5   9    4.60   21.54 222 0.64753-0.99561 0.48065-0.01259 0.62091-0.14466
  -3   5  14   13.68   23.48 221 0.65102-0.98235 0.48058-0.01477 0.61728 0.13374
  -3   6  10    1.17   21.01 220 0.65366-0.99671 0.48053 0.07924 0.61451-0.08457
  -3   6  13   -0.84   24.08 221 0.65249-0.98829 0.48055 0.07918 0.61575 0.08021
  -2   0   9  571.15   21.25 221 0.64925-0.86985 0.48062-0.48074 0.61913-0.13625
  -2   0  13   18.06   19.11 220 0.65482-0.86356 0.48050-0.48188 0.61328 0.09068
  -2   0  14   46.43   22.90 221 0.64970-0.85462 0.48061-0.48185 0.61866 0.13950
  -2   1  17   -5.62   24.86 221 0.65219-0.84950 0.48056-0.38934 0.61605 0.30746
  -2   7   3    7.80   22.26 221 0.65037-0.89129 0.48060 0.17343 0.61796-0.46785
  -1  -2  11  173.45   21.05 221 0.64991-0.74072 0.48061-0.66818 0.61844-0.01825
  -1  -2  12   35.22   20.97 221 0.65014-0.73702 0.48060-0.66845 0.61820 0.03688
  -1   0   3 4856.14   39.46 220 0.65628-0.77007 0.48047-0.48173 0.61174-0.45289
   0  -3   8   37.07   17.20 221 0.65274-0.62747 0.48055-0.76246 0.61548-0.17406
   1   0  -2   92.40   23.77 220 0.65371-0.53803 0.48053-0.48076 0.61446-0.71670
   2   2  -5  176.35   18.77 220 0.65427-0.42339 0.48052-0.29378 0.61386-0.87664
   3   8  -6    4.34   25.26 220 0.65153-0.30286 0.48057 0.26577 0.61675-0.93125
   4   0  -5    9.27   17.25 221 0.65278-0.17427 0.48055-0.48177 0.61543-0.86484
   4   7  -7   10.04   22.71 220 0.65376-0.18401 0.48053 0.17209 0.61441-0.97683
   6  -3  -1   47.14   19.72 221 0.65174 0.08623 0.48057-0.76480 0.61652-0.63100
  -3   4   9  157.87   17.80 222 0.64410-0.98889 0.48070-0.10785 0.62441-0.14925
  -3   4  14    5.81   22.86 222 0.64600-0.97725 0.48068-0.10797 0.62246 0.12821
  -3   6   9   11.84   19.89 221 0.64659-0.99272 0.48067 0.07937 0.62185-0.14701
  -3   7  10   38.00   25.90 222 0.64095-0.98493 0.48073 0.17153 0.62763-0.09735
  -3   7  11   -2.24   23.67 222 0.64540-0.98558 0.48069 0.17311 0.62307-0.03933
  -2   2   4  539.21   19.65 222 0.64231-0.87815 0.48072-0.29401 0.62624-0.41930
  -2   9   5    6.96   27.28 222 0.64386-0.87918 0.48071 0.35923 0.62465-0.36477
  -1  -2  10  149.20   17.77 221 0.64606-0.73947 0.48068-0.66861 0.62240-0.07785
  -1  -2  13   13.95   19.16 222 0.64518-0.72958 0.48069-0.66921 0.62331 0.08761
  -1  -1   5 1124.91   23.74 222 0.64345-0.75088 0.48071-0.57562 0.62508-0.35519
  -1   9   1    0.69   38.01 225 0.62337-0.74782 0.48073 0.36040 0.64510-0.59969
   0  -3  15   25.53   24.04 221 0.64494-0.59940 0.48069-0.76286 0.62355 0.20407
   1  -4  14   47.89   24.80 221 0.64548-0.47942 0.48068-0.85685 0.62300 0.15661
   2   8  -5   11.05   22.96 222 0.64369-0.41481 0.48071 0.26829 0.62484-0.89162
   4   4  -7   60.41   17.93 222 0.64333-0.17240 0.48071-0.10799 0.62520-0.98641
   5  -3  -1  119.96   18.69 222 0.64585-0.03185 0.48068-0.76283 0.62261-0.64399
   5   1  -6    6.06   17.70 222 0.64570-0.04770 0.48068-0.38868 0.62277-0.92004
   5   3  -7  106.73   18.76 222 0.64442-0.04974 0.48070-0.20211 0.62409-0.97867
   6  -1  -4   91.93   19.53 222 0.64439 0.08310 0.48070-0.57719 0.62411-0.80525
   6   1  -6   16.58   18.27 222 0.64655 0.07305 0.48067-0.38935 0.62190-0.91193
   6   3  -7    4.27   21.57 221 0.64629 0.07223 0.48067-0.20267 0.62216-0.97080
  -3   3  10  175.75   21.73 223 0.63543-0.97734 0.48083-0.20048 0.63318-0.10461
  -3   3  11   -2.88   18.67 223 0.63897-0.97870 0.48081-0.20091 0.62962-0.04427
  -3   3  12   63.63   19.93 222 0.63995-0.97656 0.48080-0.20142 0.62862 0.01242
  -3   3  13    6.89   20.88 223 0.63837-0.97173 0.48081-0.20134 0.63022 0.06527
  -3   4  15    6.91   24.09 223 0.63882-0.96736 0.48081-0.10822 0.62977 0.17607
  -3   5   8   11.77   18.50 222 0.63882-0.98727 0.48081-0.01390 0.62977-0.20986
  -3   6   8   69.80   21.71 223 0.63528-0.98384 0.48083 0.07893 0.63333-0.21466
  -3   7   9  -10.19   25.65 223 0.63433-0.97965 0.48083 0.17266 0.63428-0.16128
  -2   0   8  117.17   17.05 223 0.63650-0.85954 0.48082-0.48113 0.63211-0.20518
  -2   0  15   -7.60   21.36 223 0.63941-0.84331 0.48081-0.48292 0.62916 0.18481
  -2   3   3  957.49   22.04 222 0.63876-0.87783 0.48081-0.20041 0.62983-0.47836
  -1  -2   9  235.98   18.47 223 0.63737-0.73356 0.48082-0.66828 0.63123-0.14137
  -1  -2  14   23.83   20.23 222 0.63869-0.72006 0.48081-0.66911 0.62989 0.13580
   1  -4   8   43.91   21.39 223 0.63535-0.48734 0.48083-0.85598 0.63326-0.18455
   3   1  -5   47.10   15.58 223 0.63553-0.28002 0.48083-0.38800 0.63308-0.88991
   4  -5   6   63.03   36.75 227 0.61036-0.09851 0.48059-0.94949 0.65749-0.29842
   4   5  -7    2.91   19.32 222 0.63852-0.16740 0.48081-0.01450 0.63007-0.99318
   4   6  -7   11.18   19.77 222 0.63967-0.16931 0.48080 0.07827 0.62890-0.99031
   5  -1  -4   52.54   18.15 222 0.63992-0.03502 0.48080-0.57578 0.62865-0.81568
   5   0  -5   88.89   17.98 223 0.63765-0.03619 0.48082-0.48431 0.63094-0.87326
   5   7  -7   29.33   24.75 223 0.63834-0.04505 0.48081 0.17121 0.63025-0.98576
   6  -5   6   -6.05   35.13 223 0.63320 0.12745 0.48083-0.95389 0.63541-0.26365
   6   0  -5   11.10   19.27 222 0.63976 0.08502 0.48080-0.48284 0.62882-0.86459
   7  -3   0   22.39   25.53 223 0.63287 0.22985 0.48083-0.76386 0.63574-0.58901
   7  -2  -2   28.61   22.01 223 0.63816 0.21991 0.48081-0.67094 0.63043-0.69440
   7   2  -6   11.68   20.80 222 0.63809 0.20996 0.48081-0.29670 0.63050-0.91860
  -3   3  14    2.89   20.95 224 0.63253-0.96434 0.48080-0.20122 0.63603 0.11623
  -3   3  15   42.94   25.43 224 0.62764-0.95454 0.48079-0.20200 0.64087 0.16514
  -3   4   8   21.35   18.40 223 0.63154-0.97987 0.48080-0.10724 0.63702-0.21673
  -2   0  16   20.63   22.65 224 0.63067-0.83002 0.48080-0.48240 0.63789 0.23075
  -1  -2  15   26.25   24.40 224 0.62831-0.70666 0.48079-0.67077 0.64021 0.18009
   0  -3  16    4.19   27.90 224 0.62831-0.58103 0.48079-0.76447 0.64021 0.24343
   0   8  -2   17.75   40.09 228 0.59946-0.60804 0.48028 0.26664 0.66754-0.78067
   1  -4  15   19.28   26.89 225 0.62612-0.45764 0.48078-0.86023 0.64236 0.19518
   1   9  -3    6.93   30.87 226 0.61737-0.50622 0.48069 0.35858 0.65082-0.81213
   2  -1  -2 1988.15   27.68 224 0.62834-0.38710 0.48079-0.57404 0.64018-0.73778
   3  -1  -3  115.67   18.58 224 0.63115-0.27006 0.48080-0.57445 0.63740-0.78317
   3   3  -6   92.73   16.95 224 0.62902-0.27843 0.48080-0.20094 0.63951-0.95169
   4  -4   2  176.83   22.45 224 0.62819-0.12817 0.48079-0.85605 0.64033-0.50311
   5   4  -7   14.40   19.51 223 0.63133-0.03633 0.48080-0.10852 0.63723-0.99359
   5   6  -7   -2.37   24.62 224 0.62934-0.03437 0.48080 0.07947 0.63920-0.99693
   6  -4   2   29.75   24.94 224 0.62575 0.12129 0.48078-0.85703 0.64272-0.49184
   6   4  -7    9.28   22.05 224 0.63180 0.08558 0.48080-0.10940 0.63677-0.98409
   6   5  -7   -5.49   25.53 224 0.62750 0.09049 0.48079-0.01533 0.64101-0.98956
  -3   3   9   36.53   17.02 224 0.62706-0.97166 0.48079-0.20180 0.64146-0.16672
  -3   5   7    2.56   21.39 225 0.62066-0.97241 0.48073-0.01269 0.64767-0.28358
  -3   7   8   15.41   23.33 225 0.61858-0.96912 0.48070 0.17402 0.64968-0.23001
  -2   1   5  806.36   21.29 225 0.62324-0.85519 0.48076-0.38744 0.64518-0.38362
  -1  -2   8  209.17   21.10 225 0.62047-0.72002 0.48073-0.66795 0.64786-0.21287
   0  -3   7  236.33   18.95 225 0.62394-0.60237 0.48076-0.76218 0.64451-0.25789
   1   3  -4  361.47   19.26 225 0.62433-0.51287 0.48077-0.20041 0.64413-0.85944
   2   1  -4 1654.53   24.73 225 0.62315-0.38749 0.48076-0.38778 0.64527-0.85356
   3  -4   3   25.28   25.26 226 0.61416-0.23408 0.48063-0.85646 0.65389-0.46711
   3   0  -4  829.49   19.47 225 0.62345-0.26469 0.48076-0.48231 0.64498-0.84559
   3   7  -6   94.47   23.70 225 0.62035-0.26916 0.48073 0.17059 0.64798-0.96151
   3   9  -5    8.95   27.26 225 0.62093-0.26862 0.48073 0.36073 0.64742-0.90772
   4   2  -6   62.61   17.86 225 0.62416-0.14914 0.48077-0.29495 0.64429-0.94916
   5   5  -7   16.41   20.64 225 0.62341-0.02922 0.48076-0.01517 0.64502-0.99955
   7  -4   3    7.79   27.24 225 0.62370 0.24996 0.48076-0.85877 0.64474-0.43248
   7  -1  -3   12.72   24.01 225 0.62154 0.23477 0.48074-0.57770 0.64683-0.76704
   7   1  -5   16.86   24.58 224 0.62402 0.22837 0.48076-0.39063 0.64443-0.87757
  -3   2  11  205.84   19.86 226 0.61591-0.95453 0.48071-0.29400 0.65223-0.06671
  -3   2  12   60.08   18.79 225 0.61760-0.95343 0.48073-0.29555 0.65062-0.01068
  -3   2  13    3.51   19.13 225 0.61729-0.94964 0.48073-0.29522 0.65092 0.04524
  -3   2  14   30.13   22.82 225 0.61516-0.94308 0.48069-0.29557 0.65295 0.09648
  -3   3   8   66.84   20.55 226 0.61329-0.96097 0.48066-0.20206 0.65472-0.23467
  -3   4   7  104.76   20.71 226 0.61330-0.96454 0.48066-0.10739 0.65471-0.28956
  -3   6   7   14.26   19.01 225 0.61720-0.96889 0.48073 0.07934 0.65100-0.28664
  -2   0   7    2.52   16.22 226 0.61576-0.84208 0.48070-0.48121 0.65238-0.27953
  -2   0  17   16.22   24.47 226 0.61673-0.81478 0.48072-0.48369 0.65145 0.27329
  -2   5   2   22.06   20.18 225 0.61666-0.85793 0.48072-0.01415 0.65152-0.55790
  -1  -2  16    6.21   23.50 225 0.61729-0.69304 0.48073-0.66999 0.65092 0.22490
  -1   8   0    3.71   46.72 230 0.58304-0.70873 0.47966 0.26717 0.68222-0.69140
  -1  10   2   20.95   42.41 229 0.59098-0.71226 0.48000 0.45478 0.67521-0.57531
   1  -4  16   31.46   29.11 226 0.61376-0.44248 0.48067-0.85774 0.65427 0.23553
   1   7  -4   10.61   23.38 226 0.61055-0.50134 0.48060 0.17371 0.65730-0.87386
   1  10  -2   11.34   36.45 228 0.59882-0.48463 0.48028 0.45345 0.66814-0.77521
   4  -2  -2  154.38   17.86 226 0.61643-0.12872 0.48071-0.66888 0.65174-0.73508
   4   8  -6    8.38   27.94 225 0.61593-0.14289 0.48071 0.26614 0.65221-0.96058
   5  -4   2   37.10   22.25 226 0.61121 0.01254 0.48062-0.85656 0.65668-0.51154
   5   2  -6   59.09   20.93 226 0.61359-0.01501 0.48066-0.29496 0.65443-0.95379
   6  -2  -2   39.27   20.04 226 0.61514 0.11936 0.48069-0.67074 0.65297-0.72274
   6   2  -6    1.38   19.81 226 0.61668 0.10415 0.48072-0.29529 0.65150-0.94197
   7   0  -4  -27.50   21.74 226 0.61591 0.23691 0.48071-0.48282 0.65223-0.82821
   7   3  -6  -17.66   23.25 226 0.61606 0.22877 0.48071-0.20265 0.65209-0.93824
  -3   2  10    0.01   18.40 227 0.60964-0.95127 0.48068-0.29447 0.65822-0.12808
  -3   2  15   14.80   20.50 226 0.60828-0.93419 0.48065-0.29576 0.65949 0.14547
  -3   8   9   -0.25   24.08 227 0.60918-0.95530 0.48067 0.26691 0.65865-0.18575
  -2   6   2   44.75   21.12 226 0.60845-0.85095 0.48065 0.07919 0.65934-0.56428
  -2   8   3   14.26   27.00 228 0.60122-0.84164 0.48045 0.26610 0.66602-0.51650
   2   0  -3   71.09   17.75 227 0.61009-0.37297 0.48069-0.48060 0.65779-0.80976
   2   3  -5   66.31   17.86 227 0.60962-0.37979 0.48068-0.20158 0.65824-0.92064
   2   9  -4   20.57   28.27 227 0.60510-0.37327 0.48056 0.36179 0.66244-0.87466
   3   4  -6   64.09   16.87 227 0.60822-0.25610 0.48064-0.10849 0.65955-0.97225
   3   6  -6   14.55   22.12 227 0.60372-0.25330 0.48053 0.07914 0.66372-0.97654
   5  -5   6   12.66   30.24 229 0.59283 0.04180 0.48017-0.94867 0.67361-0.30802
   5  -2  -2  108.15   20.32 227 0.60470 0.00523 0.48055-0.66950 0.66281-0.73917
   6  -3   0   28.39   21.92 227 0.60531 0.13562 0.48057-0.76369 0.66225-0.62110
  -3   2   9   57.88   17.60 228 0.60025-0.94377 0.48043-0.29449 0.66695-0.19178
  -3   2  16   25.10   22.58 228 0.59939-0.92308 0.48040-0.29544 0.66773 0.19381
  -3   7   7   25.08   23.73 227 0.60171-0.95315 0.48047 0.17257 0.66560-0.30159
  -2  -1  11  396.89   19.06 228 0.60132-0.81569 0.48046-0.57450 0.66596-0.07321
  -2  -1  12   81.50   19.39 227 0.60408-0.81583 0.48054-0.57466 0.66342-0.01641
  -2  -1  13   45.76   19.67 227 0.60255-0.81139 0.48050-0.57585 0.66484 0.03945
  -2  -1  14   -1.52   19.40 228 0.59908-0.80473 0.48039-0.57573 0.66801 0.09115
  -2   4   2  101.76   20.40 228 0.60060-0.84193 0.48044-0.10712 0.66662-0.57163
  -2   9   4  -11.01   28.49 229 0.59436-0.83185 0.48023 0.36152 0.67229-0.46846
  -1  -2  17   23.23   24.29 228 0.60206-0.67559 0.48048-0.67070 0.66529 0.26661
   2  -5  12    7.31   31.02 229 0.59115-0.30766 0.48011-0.95022 0.67516 0.00116
   2   7  -5   37.34   21.68 228 0.59978-0.37027 0.48041 0.17257 0.66737-0.93192
   3   5  -6  212.44   18.65 228 0.59970-0.24830 0.48041-0.01322 0.66744-0.98031
   4  -3   0  394.26   21.59 228 0.59966-0.10567 0.48041-0.76210 0.66749-0.64038
   4   1  -5   14.82   16.44 228 0.60045-0.12176 0.48044-0.38806 0.66676-0.91719
   6  -5   7   14.26   35.29 230 0.58752 0.17374 0.47996-0.94925 0.67839-0.25171
   6   1  -5   80.05   20.19 228 0.60042 0.12398 0.48043-0.38915 0.66678-0.90381
   7  -3   1  -20.44   27.05 228 0.59740 0.27175 0.48034-0.76381 0.66954-0.56895
   7  -2  -1   17.83   23.79 229 0.59601 0.26309 0.48029-0.66900 0.67079-0.67889
  -3   3   7   58.04   17.96 228 0.59399-0.94409 0.48024-0.20080 0.67274-0.30780
  -3   5   6  201.23   19.15 228 0.59557-0.94978 0.48030-0.01376 0.67132-0.36227
  -3   6   6    3.22   22.00 229 0.59157-0.94573 0.48015 0.07998 0.67491-0.36572
  -3   8   8   43.56   26.87 229 0.58948-0.94157 0.48007 0.26926 0.67677-0.25728
  -2  -1  10  235.23   18.38 229 0.59403-0.81109 0.48024-0.57454 0.67270-0.13396
  -2  -1  15   27.98   21.08 228 0.59410-0.79570 0.48025-0.57506 0.67264 0.14079
  -1  -2   7  608.72   20.47 229 0.59337-0.69521 0.48022-0.66796 0.67330-0.29334
   1  -4   7   91.81   23.58 229 0.58768-0.44257 0.47999-0.85531 0.67836-0.28444
   2  -5  11   17.37   26.83 229 0.58747-0.30698 0.47998-0.94955 0.67855-0.05761
   2  -5  13   25.39   28.69 230 0.58468-0.29803 0.47986-0.95132 0.68101 0.05133
   4  -1  -3   83.80   16.75 229 0.59222-0.10734 0.48018-0.57535 0.67433-0.81316
   4   3  -6  123.26   17.65 229 0.59528-0.12022 0.48029-0.20126 0.67158-0.97636
   4   7  -6   18.13   25.29 229 0.58857-0.11518 0.48003 0.17245 0.67758-0.98364
   5  -3   0  139.71   20.98 229 0.59013 0.02655 0.48009-0.76224 0.67619-0.64197
   5   1  -5    8.88   16.16 229 0.59125 0.01056 0.48014-0.38802 0.67520-0.91844
   6  -1  -3   81.95   19.23 229 0.59506 0.13550 0.48028-0.57560 0.67178-0.79652
   6   0  -4    0.69   18.34 229 0.59220 0.13628 0.48018-0.48208 0.67435-0.85567
   6   3  -6    0.30   19.56 229 0.59441 0.12434 0.48026-0.20251 0.67236-0.96281
   7   2  -5    4.28   22.08 228 0.59441 0.25515 0.48026-0.29611 0.67236-0.90493
  -3   1  12   63.59   18.21 229 0.58599-0.92046 0.47993-0.38737 0.67986-0.03866
  -3   1  13   73.07   19.85 230 0.58613-0.91813 0.47994-0.38768 0.67973 0.01678
  -3   1  14   -3.19   22.87 231 0.57914-0.91265 0.47961-0.38830 0.68584 0.06977
  -3   2   8   10.69   17.27 230 0.58362-0.93087 0.47983-0.29331 0.68194-0.26124
  -3   4   6   71.00   17.28 229 0.58720-0.94071 0.47999-0.10715 0.67879-0.36976
  -2  -1  16   -2.84   24.36 230 0.58319-0.78338 0.47981-0.57584 0.68231 0.18680
  -2   0   6   88.85   16.84 230 0.58510-0.81346 0.47989-0.48105 0.68064-0.36355
   1   4  -4  741.60   24.54 230 0.58103-0.47047 0.47971-0.10595 0.68419-0.89918
   2  -5  14   13.94   30.29 230 0.57978-0.29047 0.47964-0.94914 0.68528 0.10041
   2   4  -5  296.38   22.09 230 0.58141-0.35063 0.47972-0.10654 0.68387-0.94721
   3   2  -5   26.94   16.97 230 0.58490-0.23019 0.47988-0.29348 0.68082-0.93748
   4   0  -4  140.24   16.80 230 0.58697-0.10666 0.47998-0.48032 0.67900-0.87318
   5  -1  -3   20.06   17.22 229 0.58565 0.02328 0.47992-0.57545 0.68016-0.81324
   5   3  -6   20.33   19.15 230 0.58701 0.01071 0.47998-0.20101 0.67896-0.97691
   5   7  -6    0.54   25.44 230 0.58277 0.01459 0.47979 0.17358 0.68268-0.98312
   6  -4   3   24.13   24.92 230 0.58149 0.16843 0.47973-0.85584 0.68380-0.47760
   6   4  -6  -31.91   24.29 230 0.58298 0.13894 0.47980-0.10730 0.68250-0.97540
  -3   1  11   19.36   17.34 231 0.57965-0.91911 0.47953-0.38751 0.68548-0.09868
  -3   1  15   35.33   22.43 231 0.57870-0.90503 0.47949-0.38797 0.68630 0.12041
  -2  -1   9  290.53   17.50 230 0.58086-0.80010 0.47959-0.57474 0.68442-0.20256
  -2   2   3  322.58   19.48 230 0.58066-0.81869 0.47958-0.29422 0.68460-0.53318
  -2   7   2   51.68   25.45 231 0.57154-0.81388 0.47910 0.17354 0.69243-0.59847
  -1  -1   4  183.30   20.01 230 0.57931-0.68969 0.47952-0.57377 0.68577-0.47254
   0  -3   6  648.88   23.56 231 0.57251-0.55389 0.47916-0.76063 0.69160-0.36045
   1   6  -4  124.00   21.83 231 0.57428-0.46376 0.47925 0.08055 0.69010-0.90612
   2  -5  10    4.49   28.44 231 0.57288-0.29574 0.47918-0.94739 0.69129-0.12633
   2   6  -5   52.98   21.19 231 0.57648-0.34630 0.47937 0.07938 0.68821-0.95223
   3  -2  -1  227.14   18.42 231 0.57856-0.21186 0.47948-0.66769 0.68642-0.72076
   3   8  -5  -15.85   24.89 231 0.57368-0.22076 0.47922 0.26773 0.69061-0.94947
   4   4  -6  113.60   18.62 231 0.57834-0.10373 0.47947-0.10759 0.68661-0.99244
   4   6  -6   22.30   23.14 231 0.57519-0.10121 0.47930 0.08053 0.68932-0.99590
   5   0  -4  311.23   20.14 231 0.57991 0.02415 0.47955-0.48130 0.68525-0.87196
   6   5  -6   -9.03   22.83 231 0.57835 0.14363 0.47947-0.01319 0.68660-0.98046
   6   6  -6  -21.04   25.00 231 0.57979 0.14114 0.47954 0.07980 0.68535-0.97812
   7  -1  -2    8.54   21.68 231 0.57787 0.28023 0.47944-0.57536 0.68701-0.75100
   7   1  -4   16.43   20.75 230 0.57915 0.27574 0.47951-0.38840 0.68591-0.86234
  -3   1  10   64.32   17.50 231 0.57285-0.91377 0.47923-0.38703 0.69130-0.16075
  -3   1  16  -10.63   25.34 232 0.57082-0.89468 0.47912-0.38837 0.69302 0.16910
  -3   7   6   69.81   20.01 231 0.57230-0.92699 0.47920 0.17260 0.69177-0.38419
  -3   8   7   16.79   26.02 231 0.57132-0.92305 0.47915 0.26724 0.69260-0.32943
  -2  -1  17   -7.81   25.14 232 0.57212-0.76921 0.47919-0.57603 0.69192 0.23226
  -2   1   4 1664.82   25.27 231 0.57170-0.80648 0.47917-0.38664 0.69228-0.48587
   1   5  -4  107.93   20.95 233 0.56490-0.45468 0.47876-0.01099 0.69800-0.91349
   2   5  -5  314.83   18.46 232 0.57132-0.34123 0.47915-0.01155 0.69260-0.95670
   4   5  -6   53.62   18.75 232 0.57125-0.09769 0.47914-0.01231 0.69266-0.99887
   5   4  -6   58.46   19.40 232 0.57197 0.02573 0.47918-0.10636 0.69205-0.99078
   5   5  -6  -23.48   22.74 233 0.56367 0.03159 0.47869-0.01423 0.69903-0.99623
   5   6  -6   16.47   21.84 231 0.57080 0.02672 0.47912 0.08083 0.69304-0.99384
   6   2  -5    3.27   17.63 232 0.56985 0.15748 0.47906-0.29285 0.69385-0.93234
   7   0  -3    6.52   21.86 232 0.57082 0.28358 0.47912-0.48098 0.69302-0.81190
   7   3  -5   19.65   23.94 232 0.57112 0.27660 0.47914-0.20060 0.69277-0.92311
  -3   2   7  672.87   19.51 233 0.56059-0.91054 0.47852-0.29258 0.70160-0.33612
  -3   3   6  104.82   17.72 232 0.56485-0.91812 0.47879-0.20037 0.69806-0.38786
  -3   5   5   95.73   21.85 233 0.55956-0.91626 0.47845-0.01267 0.70245-0.44853
  -2  -1   8  196.37   17.56 233 0.56043-0.78301 0.47851-0.57366 0.70173-0.27348
  -1  -3  12   20.64   22.54 233 0.55762-0.64536 0.47832-0.76163 0.70404-0.04751
  -1  -3  13   89.74   22.64 233 0.56096-0.64451 0.47854-0.76145 0.70129 0.00895
  -1   1   1 1745.60   36.87 232 0.56660-0.68724 0.47890-0.38642 0.69660-0.64798
   0   1  -1  932.42   50.19 234 0.55730-0.56095 0.47830-0.38366 0.70430-0.75999
   3  -3   1  617.00   23.14 234 0.55579-0.18155 0.47820-0.75905 0.70554-0.63028
   6  -3   1    6.71   23.42 233 0.56069 0.18571 0.47853-0.76294 0.70151-0.60614
   6  -2  -1   73.66   19.31 233 0.56450 0.17201 0.47877-0.66705 0.69836-0.71254
  -3   1   9   91.20   16.58 233 0.55899-0.90331 0.47847-0.38593 0.70276-0.22731
  -3   6   5   51.48   21.69 234 0.55402-0.91096 0.47813 0.08137 0.70682-0.45335
  -2   3   2 1197.18   24.03 233 0.55594-0.79820 0.47826-0.19799 0.70525-0.60896
  -1  -3  11   43.04   21.19 234 0.55241-0.64243 0.47802-0.76042 0.70812-0.10692
  -1  -3  14   74.58   20.72 233 0.55758-0.63843 0.47838-0.76187 0.70392 0.06224
  -1  -3  15    6.45   24.90 234 0.55175-0.63002 0.47797-0.76110 0.70866 0.11278
   0  -4  12    4.63   22.77 235 0.55038-0.51414 0.47787-0.85571 0.70977-0.04526
   0  -4  13   10.69   23.98 234 0.55356-0.51421 0.47810-0.85519 0.70719 0.01173
   0  -4  14   77.75   24.81 234 0.55135-0.50822 0.47794-0.85503 0.70898 0.06414
   2  -2   0   40.79   17.56 233 0.55604-0.30937 0.47827-0.66536 0.70517-0.69117
   2   2  -4  507.73   19.69 234 0.55218-0.31841 0.47800-0.29023 0.70831-0.91659
   3   1  -4  309.22   16.89 234 0.55253-0.19505 0.47802-0.38395 0.70802-0.90977
   4  -4   3  129.35   21.41 235 0.54858-0.04598 0.47774-0.85265 0.71120-0.51838
   4   2  -5   91.55   17.49 234 0.55590-0.07969 0.47826-0.29153 0.70529-0.95484
   5  -5   7   19.62   31.48 236 0.54078 0.09793 0.47713-0.94716 0.71740-0.29688
   5  -4   3   39.96   22.11 234 0.55267 0.07394 0.47803-0.85351 0.70791-0.50800
   5   2  -5   27.44   18.20 234 0.55425 0.04744 0.47815-0.29231 0.70663-0.95009
   7  -3   2    0.12   22.91 234 0.55603 0.31476 0.47827-0.76055 0.70518-0.54853
   7  -2   0   19.51   22.73 234 0.55538 0.30870 0.47822-0.66743 0.70572-0.65848
   7   4  -5    5.46   23.26 233 0.55833 0.28929 0.47843-0.10663 0.70330-0.93415
  -3   0  13   -6.45   23.32 234 0.54574-0.87596 0.47754-0.47878 0.71340-0.01824
  -3   4   5   85.48   17.27 234 0.54939-0.90607 0.47782-0.10611 0.71049-0.45599
  -1  -3  16   34.22   27.35 235 0.54480-0.61950 0.47747-0.75946 0.71415 0.16050
  -1  -2   6  729.17   21.14 234 0.54944-0.65342 0.47782-0.66642 0.71044-0.38654
   0  -4  11  123.87   22.25 235 0.54590-0.51214 0.47755-0.85326 0.71327-0.10591
   0  -4  15   18.43   25.31 235 0.54540-0.50002 0.47752-0.85350 0.71367 0.11344
   2   8  -4   29.32   25.77 235 0.53968-0.30711 0.47706 0.27013 0.71818-0.92897
   3   3  -5   73.49   17.01 235 0.54750-0.19347 0.47768-0.19811 0.71199-0.96887
   3   7  -5   -6.44   23.15 235 0.54297-0.18869 0.47733 0.17802 0.71559-0.97527
   4  -2  -1   -9.36   20.25 235 0.54353-0.05137 0.47737-0.66502 0.71516-0.74385
   4   8  -5    9.31   23.48 235 0.54707-0.07074 0.47764 0.26838 0.71234-0.96427
   5  -2  -1   32.57   17.56 235 0.54598 0.06906 0.47756-0.66651 0.71321-0.73502
   6  -1  -2   34.91   18.87 235 0.54605 0.18928 0.47757-0.57331 0.71316-0.78406
   6   1  -4   45.09   19.98 235 0.54773 0.17953 0.47769-0.38502 0.71181-0.89311
   6   3  -5  -14.45   19.61 235 0.54624 0.18091 0.47758-0.19791 0.71300-0.95169
   7   2  -4    1.74   22.49 235 0.54707 0.30521 0.47764-0.29239 0.71234-0.88789
  -4   4  13   14.79   21.87 235 0.53959-0.99377 0.47704-0.10621 0.71827-0.03193
  -4   4  14   30.35   23.43 236 0.53712-0.99118 0.47684-0.10511 0.72020 0.02367
  -4   5  12   23.72   23.42 235 0.53975-0.99938 0.47706-0.01155 0.71814-0.08512
  -4   5  13   -4.16   22.98 236 0.54113-0.99959 0.47717-0.01038 0.71707-0.02838
  -3   0  12   29.93   19.83 235 0.54064-0.87575 0.47713-0.47883 0.71744-0.07566
  -3   0  14   11.06   20.68 235 0.54312-0.87221 0.47732-0.47944 0.71549 0.03647
  -3   0  15   28.50   22.94 236 0.53953-0.86577 0.47704-0.47948 0.71832 0.08884
  -3   1   8   99.23   17.22 235 0.53989-0.88638 0.47707-0.38470 0.71804-0.29837
  -3   8   6   -4.82   25.05 236 0.53623-0.89112 0.47676 0.27196 0.72090-0.41360
  -2  -2  13   55.68   22.58 236 0.53551-0.74357 0.47670-0.66587 0.72145-0.01705
  -2  -2  14    7.41   23.63 235 0.53871-0.74157 0.47697-0.66425 0.71896 0.03748
  -2   0   5  121.21   17.96 235 0.53964-0.77093 0.47705-0.47761 0.71824-0.45694
  -1  -3  10   86.11   17.92 236 0.53977-0.63239 0.47706-0.75936 0.71813-0.17256
  -1   0   2   92.30   23.72 236 0.53782-0.65402 0.47690-0.47835 0.71966-0.61627
   0  -4  16    0.53   28.63 237 0.53142-0.48343 0.47635-0.85467 0.72461 0.15936
   1   2  -3  711.93   22.44 235 0.54168-0.42753 0.47721-0.28974 0.71663-0.87618
   2  -5   9  200.61   34.77 237 0.52199-0.24786 0.47550-0.94464 0.73176-0.22021
   2  -3   2 1321.62   35.59 237 0.53112-0.27660 0.47633-0.75801 0.72484-0.60021
   3  -1  -2  160.42   18.65 235 0.54066-0.17659 0.47713-0.57056 0.71744-0.80749
   3   9  -4   10.21   26.44 236 0.53560-0.18039 0.47671 0.36164 0.72138-0.92477
   4  -5   7   32.29   36.48 239 0.51072 0.00459 0.47440-0.94379 0.74010-0.32584
   6  -4   4    2.04   24.72 237 0.53175 0.21852 0.47638-0.85082 0.72435-0.46323
   6   0  -3   10.73   19.03 235 0.54030 0.19129 0.47710-0.47887 0.71772-0.84370
  -4   4  11   16.37   23.08 237 0.52656-0.98948 0.47592-0.10348 0.72826-0.14986
  -4   4  12   21.70   21.65 236 0.53297-0.99349 0.47649-0.10430 0.72335-0.08980
  -4   5  11   26.34   22.93 236 0.53231-0.99557 0.47643-0.01064 0.72386-0.14600
  -4   6  11   54.11   26.90 237 0.52933-0.99223 0.47617 0.08249 0.72615-0.14922
  -3   0  11   98.22   19.05 236 0.53347-0.87196 0.47653-0.47769 0.72297-0.13758
  -3   0  16  -19.78   24.03 237 0.53252-0.85667 0.47645-0.47970 0.72370 0.13837
  -3   2   6   -4.28   19.65 238 0.52395-0.88041 0.47568-0.28870 0.73023-0.41913
  -3   7   5   12.33   22.05 237 0.53105-0.88861 0.47632 0.17704 0.72483-0.47199
  -2  -2  12   31.55   18.75 236 0.53231-0.74330 0.47643-0.66537 0.72387-0.07473
  -2  -2  15   22.49   21.87 236 0.53158-0.73329 0.47637-0.66564 0.72443 0.08974
  -2  -1   7  174.59   17.97 237 0.53123-0.75656 0.47634-0.57096 0.72470-0.35162
   0  -4  10   40.31   21.04 237 0.52983-0.49811 0.47622-0.85227 0.72577-0.17317
   0  -2   3  380.07   26.07 237 0.52818-0.51751 0.47607-0.66461 0.72703-0.56076
   1   8  -3    9.68   25.31 237 0.52473-0.41277 0.47576 0.27119 0.72965-0.89194
   3   0  -3   21.29   16.18 236 0.53458-0.17372 0.47663-0.47698 0.72211-0.86720
   4   1  -4   31.62   16.43 237 0.52832-0.04643 0.47608-0.38363 0.72692-0.92172
   5  -3   1   46.79   21.03 237 0.52975 0.09059 0.47621-0.75873 0.72583-0.63633
   5   1  -4   77.95   17.48 237 0.53030 0.07448 0.47626-0.38380 0.72541-0.91353
   5   3  -5   -4.85   21.89 237 0.52753 0.07447 0.47601-0.19627 0.72752-0.97152
   6   4  -5    9.64   22.03 237 0.53099 0.19390 0.47632-0.10404 0.72488-0.96334
   6   6  -5   63.20   27.30 237 0.52784 0.19587 0.47604 0.08280 0.72729-0.96557
   7  -1  -1   17.91   21.03 237 0.53168 0.32821 0.47638-0.57148 0.72435-0.73184
   7   1  -3    1.39   21.89 236 0.53168 0.32349 0.47638-0.38534 0.72435-0.84449
  -4   3  12   -9.97   23.21 237 0.52364-0.97840 0.47569-0.19787 0.73050-0.09954
  -4   3  13   -0.86   23.45 238 0.52364-0.97970 0.47569-0.19708 0.73050-0.04250
  -4   3  14  -16.77   23.93 238 0.52381-0.97756 0.47571-0.19739 0.73037 0.01299
  -4   5  10    8.31   21.50 238 0.52161-0.98753 0.47550-0.00966 0.73203-0.20941
  -3   0  10   68.65   17.35 237 0.52336-0.86356 0.47567-0.47669 0.73071-0.19987
  -3   3   5   63.92   17.00 237 0.52427-0.88040 0.47575-0.19630 0.73003-0.47594
  -2  -2  11   -5.27   17.80 238 0.52432-0.73829 0.47576-0.66457 0.72999-0.13688
  -2  -2  16   -0.89   23.08 238 0.52398-0.72333 0.47573-0.66571 0.73025 0.13866
  -2   9   3    2.88   32.04 239 0.50789-0.74902 0.47414 0.36713 0.74213-0.59396
  -1  -3   9    5.24   19.85 238 0.52019-0.61571 0.47537-0.75642 0.73309-0.24308
  -1   2   0 1109.55   38.99 238 0.51549-0.63971 0.47491-0.28743 0.73658-0.74390
   3   4  -5   83.20   17.97 238 0.52395-0.16961 0.47572-0.10327 0.73027-0.98723
   3   6  -5   62.83   19.15 238 0.52231-0.16735 0.47557 0.08384 0.73150-0.99027
   4  -3   1  149.49   21.63 238 0.52104-0.02433 0.47545-0.75762 0.73245-0.64919
   4   3  -5   45.20   18.14 238 0.52426-0.04638 0.47575-0.19673 0.73003-0.97954
   4   7  -5  -32.87   24.96 238 0.52002-0.04331 0.47535 0.17767 0.73321-0.98484
   5  -1  -2  104.17   18.03 238 0.52228 0.08881 0.47557-0.57126 0.73152-0.80773
   5   7  -5  -13.61   24.47 238 0.52330 0.07729 0.47566 0.17771 0.73076-0.97624
   6   5  -5    4.96   23.72 238 0.52432 0.20015 0.47576-0.00982 0.72999-0.96758
   7   0  -2   65.04   21.51 238 0.52452 0.33233 0.47578-0.47754 0.72984-0.79295
   7   3  -4    2.95   23.61 238 0.52432 0.32687 0.47576-0.19703 0.72999-0.90487
  -4   3  11   34.53   22.17 239 0.51322-0.97378 0.47473-0.19633 0.73827-0.16062
  -4   4  10   55.73   20.00 238 0.51589-0.98120 0.47499-0.10268 0.73630-0.21332
  -4   6  10   -5.20   22.37 239 0.51656-0.98343 0.47506 0.08524 0.73581-0.21444
  -3   1   7   24.05   15.61 239 0.51345-0.86234 0.47475-0.38209 0.73810-0.37310
  -2  -2  10   14.04   19.71 239 0.51230-0.72847 0.47464-0.66265 0.73894-0.20069
   0   9  -1   10.99   39.40 242 0.48502-0.49022 0.47163 0.36830 0.75826-0.81744
   3   5  -5   79.45   18.00 239 0.51578-0.16283 0.47498-0.00840 0.73639-0.99387
   4  -1  -2   87.41   17.62 239 0.51588-0.02964 0.47499-0.56859 0.73631-0.81987
   4   0  -3   23.00   16.82 239 0.51315-0.02835 0.47472-0.47554 0.73832-0.87730
   5   0  -3   50.77   17.33 238 0.51745 0.08947 0.47515-0.47606 0.73515-0.86681
   5   4  -5   62.62   21.70 239 0.50988 0.09017 0.47439-0.10244 0.74071-0.98395
   6  -2   0   12.02   20.09 239 0.51419 0.22687 0.47483-0.66390 0.73756-0.69708
   6   2  -4   16.72   19.72 239 0.51417 0.21375 0.47482-0.28945 0.73757-0.91913
   7  -3   3   44.63   23.65 238 0.51611 0.35739 0.47502-0.75841 0.73614-0.52328
   7  -2   1   15.70   27.51 239 0.51351 0.35418 0.47476-0.66468 0.73806-0.63605
   7   4  -4   -4.11   27.09 239 0.51144 0.33969 0.47455-0.10242 0.73957-0.91505
  -4   5   9    0.74   19.62 240 0.50687-0.97442 0.47406-0.00761 0.74292-0.27639
  -4   6   9   42.78   26.31 240 0.50361-0.97055 0.47371 0.08451 0.74527-0.27882
  -4   7  10   -1.53   26.85 240 0.50326-0.96906 0.47368 0.17993 0.74552-0.22469
  -3   0   9  105.38   16.69 240 0.50618-0.84920 0.47399-0.47505 0.74342-0.26810
  -3   5   4  257.38   18.56 239 0.50728-0.86660 0.47410-0.00791 0.74263-0.54461
  -2   8   2   20.37   27.73 241 0.49632-0.73901 0.47292 0.27338 0.75044-0.65673
   0  -4   9  112.94   20.99 240 0.50148-0.47358 0.47348-0.84899 0.74679-0.25014
   2   1  -3  840.35   21.73 240 0.50639-0.26946 0.47401-0.37994 0.74327-0.89599
   4   4  -5   19.93   18.10 240 0.50635-0.02878 0.47401-0.10094 0.74330-0.99411
   4   6  -5   25.22   23.60 240 0.50464-0.02822 0.47382 0.08542 0.74453-0.99641
   5   5  -5   61.60   20.34 240 0.50547 0.09522 0.47391-0.00797 0.74394-0.98884
   5   6  -5   38.36   21.46 240 0.50814 0.09185 0.47419 0.08477 0.74201-0.98615
   6  -3   2   -2.05   20.59 240 0.50721 0.24036 0.47410-0.75617 0.74268-0.59240
  -4   2  12   23.20   19.25 241 0.49701-0.95437 0.47303-0.28803 0.74995-0.11686
  -4   2  13   -0.94   21.99 241 0.49980-0.95654 0.47334-0.28848 0.74799-0.05919
  -4   2  14   24.00   21.06 240 0.50221-0.95521 0.47360-0.28902 0.74627-0.00188
  -4   2  15   34.28   23.37 240 0.50070-0.95092 0.47344-0.28914 0.74734 0.05225
  -4   3  10   67.02   18.97 240 0.49987-0.96452 0.47335-0.19500 0.74793-0.22526
  -4   4   9    6.59   19.82 240 0.50014-0.96792 0.47337-0.10086 0.74774-0.27994
  -3   4   4  167.82   20.44 241 0.49728-0.85592 0.47306-0.09997 0.74977-0.55155
  -3   6   4   80.12   18.28 240 0.49949-0.85936 0.47330 0.08526 0.74820-0.55040
  -2   5   1   59.09   22.73 241 0.49336-0.73820 0.47262-0.00688 0.75252-0.71311
   1  -5  13   41.20   27.54 241 0.49372-0.33007 0.47266-0.94283 0.75227-0.02736
   1  -5  14   10.58   29.67 243 0.48241-0.31615 0.47133-0.94701 0.76006 0.02413
   1  -4   6   62.81   28.45 243 0.48188-0.33881 0.47127-0.84698 0.76042-0.42126
   2   3  -4  118.22   18.13 241 0.49950-0.26555 0.47330-0.19385 0.74819-0.95624
   2   7  -4   14.21   22.78 241 0.49480-0.26185 0.47278 0.18077 0.75151-0.96166
   2   9  -3    6.37   25.79 241 0.49594-0.26072 0.47291 0.36768 0.75071-0.90733
   3   2  -4  349.68   18.15 241 0.49517-0.13736 0.47282-0.28635 0.75125-0.95280
   4   5  -5   32.28   18.48 241 0.49906-0.02185 0.47326-0.00694 0.74851-0.99943
   5  -5   8    3.29   34.45 244 0.47389 0.16626 0.47028-0.93854 0.76579-0.29050
   5  -4   4   69.57   25.52 242 0.48935 0.14017 0.47215-0.84777 0.75530-0.50016
   7   2  -3    8.78   23.03 241 0.49928 0.35537 0.47328-0.28789 0.74835-0.86800
  -4   2  11   38.04   22.48 242 0.48559-0.94856 0.47168-0.28632 0.75788-0.17820
  -4   7   9   60.46   27.06 242 0.48532-0.95433 0.47165 0.18067 0.75807-0.29185
  -3  -1  13  105.63   19.69 242 0.49027-0.82134 0.47223-0.56767 0.75466-0.05791
  -3  -1  14   10.57   20.40 241 0.49164-0.82011 0.47239-0.56828 0.75371-0.00146
  -3  -1  15  -17.38   22.36 242 0.49047-0.81575 0.47225-0.56829 0.75452 0.05211
  -3  -1  16   13.99   25.45 243 0.48391-0.80773 0.47148-0.56862 0.75903 0.10534
  -3   8   5    9.85   24.18 242 0.48756-0.84592 0.47191 0.27559 0.75653-0.50418
  -3   9   6   -7.82   30.41 241 0.49081-0.84219 0.47229 0.36271 0.75428-0.44761
  -2  -2   9   67.99   16.83 241 0.49087-0.71016 0.47230-0.66105 0.75424-0.27092
  -2  -1   6  116.93   17.57 242 0.48903-0.71729 0.47208-0.56693 0.75552-0.43728
  -2   1   3  802.10   21.96 241 0.49458-0.73215 0.47272-0.37999 0.75165-0.60052
  -1  -3   8  136.39   20.62 242 0.48703-0.58499 0.47185-0.75412 0.75690-0.32139
   0  -3   5  151.49   24.17 243 0.48209-0.46514 0.47126-0.75319 0.76027-0.48362
   1  -5  12   -3.25   27.18 242 0.48489-0.32451 0.47159-0.94190 0.75836-0.08800
   1  -5  15   49.49   29.29 242 0.48800-0.31758 0.47196-0.94282 0.75623 0.07878
   2  -1  -1  736.35   22.99 242 0.49124-0.24641 0.47234-0.56569 0.75399-0.79587
   3   8  -4   -9.93   25.20 242 0.48756-0.13158 0.47191 0.27443 0.75653-0.95963
   5   2  -4   54.75   17.69 242 0.49023 0.11337 0.47222-0.28641 0.75469-0.94268
   6  -4   5   11.60   24.62 241 0.49042 0.26634 0.47225-0.84975 0.75456-0.43757
   6  -1  -1   19.07   19.08 242 0.49047 0.24691 0.47225-0.56734 0.75452-0.76911
   6   1  -3   99.73   18.77 241 0.49253 0.23736 0.47249-0.38045 0.75309-0.87832
   6   3  -4   15.25   19.70 242 0.49046 0.23755 0.47225-0.19343 0.75453-0.93703
   7  -1   0   -8.85   21.87 242 0.48977 0.37574 0.47217-0.56790 0.75501-0.70935
  -4   3   9   13.78   19.03 242 0.48313-0.95056 0.47140-0.19220 0.75959-0.29149
  -4   4   8    5.68   21.63 243 0.47974-0.94856 0.47099-0.09897 0.76189-0.34993
  -4   5   8   16.98   20.21 242 0.48320-0.95501 0.47141-0.00515 0.75954-0.34745
  -4   6   8   40.83   23.45 243 0.47714-0.94984 0.47067 0.08945 0.76364-0.35171
  -3  -1  12   36.27   19.39 242 0.48379-0.81846 0.47148-0.56698 0.75914-0.11705
  -3   0   8  306.42   18.20 242 0.48210-0.82777 0.47127-0.47294 0.76029-0.33971
  -3   2   5   49.02   17.04 242 0.48298-0.83918 0.47138-0.28551 0.75969-0.50445
  -2   2   2   74.10   17.69 242 0.48302-0.72349 0.47139-0.28572 0.75967-0.66412
  -2   6   1   34.26   23.42 243 0.47644-0.72220 0.47058 0.08937 0.76410-0.72450
  -1  -2   5  507.47   20.26 242 0.48366-0.59055 0.47146-0.66028 0.75923-0.48939
   0  10   0    3.82   47.34 246 0.45174-0.45485 0.46730 0.46662 0.78015-0.78498
   2   0  -2  642.60   21.60 243 0.48211-0.24042 0.47128-0.47052 0.76028-0.85810
   2  10  -2   16.18   31.19 243 0.47578-0.23783 0.47050 0.46441 0.76455-0.86722
   3  -4   4    7.42   24.93 244 0.46763-0.08435 0.46945-0.84490 0.76994-0.52764
   4   2  -4  136.47   17.45 243 0.48103-0.00044 0.47115-0.28377 0.76102-0.95619
   4   8  -4  -16.70   27.24 243 0.47787 0.00236 0.47076 0.27708 0.76315-0.96060
   5  -2   0   64.05   17.57 243 0.47998 0.13762 0.47102-0.65935 0.76173-0.72794
   6   0  -2   44.03   18.65 243 0.48367 0.24887 0.47147-0.47293 0.75922-0.82881
   7  -3   4   19.91   27.34 244 0.47401 0.40172 0.47027-0.75314 0.76573-0.49687
   7   0  -1  -17.31   19.72 243 0.48086 0.38242 0.47112-0.47307 0.76113-0.77044
   7   1  -2  -17.02   22.09 243 0.48313 0.37454 0.47140-0.37939 0.75959-0.82338
  -4   1  14   -4.43   21.09 243 0.47405-0.92383 0.47025-0.37902 0.76566-0.02375
  -4   1  15  -13.17   22.31 244 0.47264-0.92070 0.47007-0.37918 0.76659 0.03112
  -4   2  10   76.74   19.87 243 0.47370-0.93802 0.47020-0.28464 0.76589-0.24226
  -3  -1  11   12.52   19.10 243 0.47443-0.81146 0.47030-0.56530 0.76540-0.17864
  -3   1   6   -6.09   16.85 244 0.47458-0.82732 0.47031-0.37727 0.76530-0.45597
  -3   7   4   22.89   23.21 244 0.46959-0.83054 0.46968 0.18410 0.76861-0.57153
  -2   0   4  658.07   20.56 243 0.47405-0.70840 0.47025-0.47163 0.76566-0.55822
  -2   4   1  694.29   24.84 243 0.47337-0.71881 0.47016-0.09608 0.76611-0.72553
  -1  -1   3  201.48   21.23 244 0.47251-0.58562 0.47005-0.56510 0.76668-0.60730
   0   7  -2   72.90   29.93 247 0.45106-0.45730 0.46718 0.18634 0.78053-0.89419
   1  -5  11   -8.83   26.55 245 0.46575-0.30831 0.46918-0.93918 0.77112-0.15677
   1   1  -2 3062.02   38.18 244 0.47090-0.35301 0.46985-0.37467 0.76775-0.87281
   1   9  -2    3.03   28.00 245 0.46376-0.34903 0.46891 0.37136 0.77242-0.88024
   2   4  -4   98.90   20.25 244 0.46817-0.23412 0.46950-0.09516 0.76954-0.97822
   2   6  -4   47.94   21.06 245 0.46678-0.23372 0.46931 0.09006 0.77045-0.97982
   3  -2   0  487.15   22.53 244 0.46939-0.09834 0.46965-0.65689 0.76874-0.74830
   6   4  -4   13.30   21.83 244 0.47472 0.25236 0.47033-0.09836 0.76521-0.94719
   6   5  -4   16.03   23.94 243 0.47212 0.25678 0.47000-0.00363 0.76694-0.95117
   6   6  -4   23.91   23.89 244 0.47337 0.25295 0.47016 0.08828 0.76611-0.94872
   7  -2   2   28.81   24.15 244 0.46832 0.40117 0.46951-0.65917 0.76944-0.61162
   7   3  -3   24.98   20.69 244 0.47488 0.37627 0.47035-0.19291 0.76510-0.88389
  -4   1  12    9.51   18.13 245 0.46262-0.92041 0.46879-0.37717 0.77314-0.13912
  -4   1  13   14.42   19.85 244 0.46741-0.92399 0.46942-0.37817 0.77002-0.07952
  -4   7   8  -10.44   26.36 245 0.46095-0.93201 0.46856 0.18476 0.77422-0.36429
  -3   3   4  336.33   18.99 244 0.46829-0.82775 0.46954-0.19027 0.76945-0.56987
  -2  -2   8   34.60   16.65 245 0.46245-0.68454 0.46877-0.65627 0.77325-0.34609
   0  -4   8  245.27   24.15 245 0.45692-0.43295 0.46802-0.84306 0.77680-0.33418
   0   3  -2  157.15   27.12 246 0.45560-0.46159 0.46784-0.18754 0.77764-0.88946
   1   7  -3  -15.41   23.94 246 0.45721-0.34421 0.46806 0.18649 0.77662-0.93854
   2   5  -4   22.03   20.23 246 0.45710-0.22372 0.46804-0.00200 0.77669-0.98528
   4  -4   4    6.90   23.86 245 0.45948 0.04723 0.46837-0.84455 0.77517-0.52619
   4  -2   0  118.57   20.61 245 0.45900 0.03449 0.46830-0.65662 0.77547-0.74737
   5  -3   2   52.87   21.39 245 0.46276 0.15958 0.46881-0.75131 0.77305-0.62775
   5   1  -3   16.63   17.94 245 0.46515 0.14304 0.46913-0.37703 0.77150-0.90438
   5   3  -4   89.48   17.94 245 0.46280 0.14091 0.46881-0.19059 0.77302-0.96163
   5   7  -4   42.54   24.98 244 0.46409 0.14075 0.46898 0.18540 0.77219-0.96432
   6  -2   1   -7.88   22.68 245 0.46083 0.28469 0.46855-0.65744 0.77430-0.67892
   7   4  -3  -14.53   24.62 245 0.46485 0.39021 0.46908-0.09712 0.77169-0.89284
  -4   2   9  109.74   20.09 246 0.45537-0.92213 0.46781-0.28175 0.77768-0.30986
  -4   3   8   70.89   18.60 245 0.45877-0.92962 0.46827-0.18936 0.77552-0.36302
  -4   5   7    9.25   22.47 246 0.45183-0.92770 0.46731-0.00024 0.77992-0.42273
  -3  -1  10   39.27   18.94 245 0.45809-0.79878 0.46818-0.56341 0.77595-0.24398
  -2  -3  14   18.50   23.65 246 0.45343-0.65791 0.46754-0.75089 0.77891-0.01885
  -2  -3  15   34.13   24.41 246 0.45440-0.65516 0.46767-0.75038 0.77830 0.03583
  -1  -4  14   26.42   23.84 246 0.45146-0.53232 0.46726-0.84476 0.78015-0.01232
  -1  -4  15  -15.13   26.34 246 0.45212-0.52993 0.46735-0.84383 0.77974 0.04086
   1  -1   0 6687.69   69.89 246 0.45047-0.32603 0.46712-0.56078 0.78077-0.77396
   1   3  -3   75.05   16.97 246 0.45762-0.34397 0.46811-0.18851 0.77625-0.93588
   3   1  -3  115.84   16.61 246 0.45495-0.09436 0.46775-0.37483 0.77795-0.92402
   3   3  -4  326.82   17.95 246 0.45490-0.09741 0.46774-0.18870 0.77798-0.98001
   3   7  -4    6.50   23.38 246 0.45414-0.09783 0.46764 0.18574 0.77846-0.98254
   3   9  -3   11.07   25.05 246 0.45110-0.09289 0.46721 0.37109 0.78038-0.92955
   5  -1  -1   45.57   17.54 246 0.45557 0.15797 0.46783-0.56330 0.77756-0.79885
   6  -3   3   36.42   23.58 246 0.45391 0.29568 0.46760-0.75091 0.77861-0.57117
   6   2  -3   36.98   18.95 246 0.45736 0.27311 0.46808-0.28284 0.77642-0.90227
  -4   1  11   86.32   18.22 246 0.45176-0.91297 0.46732-0.37447 0.78004-0.20278
  -4   4   7   85.43   18.72 246 0.44788-0.92119 0.46678-0.09441 0.78247-0.42550
  -4   6   7    6.45   20.30 247 0.44760-0.92202 0.46673 0.09273 0.78265-0.42624
  -3   0   7  412.35   18.09 246 0.44909-0.79796 0.46695-0.46761 0.78171-0.41747
  -2  -3  13   18.73   20.19 246 0.44990-0.65735 0.46706-0.75029 0.78121-0.07623
  -2  -3  16   -9.20   23.86 247 0.44890-0.64751 0.46692-0.75073 0.78183 0.08785
  -1  -4  13   58.08   20.58 246 0.44943-0.53280 0.46700-0.84338 0.78150-0.07060
  -1  -4  16    5.92   29.07 247 0.44330-0.51863 0.46612-0.84528 0.78530 0.09391
   1  10  -1    5.01   34.16 247 0.44062-0.32320 0.46572 0.46938 0.78695-0.84087
   4   1  -3   75.75   16.15 247 0.44788 0.03666 0.46678-0.37373 0.78247-0.92163
   4   3  -4   94.29   18.61 247 0.44791 0.03378 0.46678-0.18823 0.78245-0.97735
   4   7  -4   48.73   21.57 247 0.44747 0.03286 0.46672 0.18538 0.78273-0.97981
   5   0  -2   -3.22   16.64 247 0.45033 0.15978 0.46712-0.46746 0.78094-0.85746
   5   4  -4   14.81   18.89 247 0.44639 0.15772 0.46656-0.09390 0.78340-0.97262
   5   6  -4   42.42   20.77 247 0.44707 0.15674 0.46666 0.09294 0.78297-0.97377
   6  -4   6   16.82   25.57 247 0.44572 0.31595 0.46647-0.84540 0.78381-0.41057
   7   2  -2   21.87   20.70 247 0.44908 0.40525 0.46695-0.28258 0.78172-0.84525
  -4   1  10   58.48   17.67 248 0.43715-0.90030 0.46531-0.37315 0.78906-0.26624
  -3  -1   9  104.18   18.18 248 0.43759-0.78058 0.46538-0.55936 0.78879-0.31341
  -2  -3  12   74.63   19.51 247 0.44193-0.65251 0.46602-0.74844 0.78614-0.13760
  -1  -4  12   10.07   19.86 248 0.43948-0.52614 0.46566-0.84220 0.78764-0.13067
  -1  -3   7   89.35   17.45 247 0.43996-0.54140 0.46573-0.74674 0.78735-0.40830
   1  -5  10   17.83   25.25 249 0.43043-0.27587 0.46429-0.93422 0.79310-0.23274
   4  -3   2   59.95   20.94 249 0.43159 0.06776 0.46447-0.74563 0.79241-0.65472
   5  -5   9    0.72   33.98 250 0.42048 0.22366 0.46274-0.93270 0.79896-0.26777
   5   5  -4   22.50   19.49 248 0.43994 0.16357 0.46572 0.00010 0.78736-0.97624
   6  -1   0    7.41   21.14 248 0.43547 0.30568 0.46506-0.56067 0.79008-0.74969
   6   1  -2   46.27   17.43 248 0.43768 0.29740 0.46539-0.37359 0.78874-0.85973
   7  -3   5    4.55   28.53 248 0.43708 0.44301 0.46530-0.74952 0.78910-0.46534
   7  -1   1   32.23   21.29 248 0.44024 0.42571 0.46577-0.56100 0.78718-0.68403
   7   1  -1  -10.00   23.12 247 0.43994 0.42548 0.46572-0.37497 0.78736-0.79807
  -4   0  13   99.05   22.79 249 0.42719-0.88109 0.46382-0.46645 0.79511-0.10644
  -4   0  14    6.23   22.82 249 0.43059-0.88289 0.46435-0.46703 0.79309-0.04786
  -4   0  15   -1.24   23.90 249 0.43186-0.88103 0.46454-0.46752 0.79234 0.00749
  -4   2   8   14.98   18.46 248 0.43049-0.90010 0.46433-0.27848 0.79315-0.37983
  -4   3   7   23.51   18.58 249 0.42842-0.90192 0.46401-0.18458 0.79439-0.43667
  -4   7   7  -13.40   24.76 249 0.42696-0.90112 0.46379 0.19021 0.79525-0.44011
  -3  -2  14   28.99   22.79 250 0.42496-0.75436 0.46348-0.65427 0.79643-0.04214
  -3  -2  15   -3.95   20.93 249 0.42969-0.75358 0.46421-0.65328 0.79363 0.01216
  -3   5   3    3.14   17.22 248 0.43204-0.79468 0.46457 0.00226 0.79223-0.64925
  -3   9   5   12.78   30.63 249 0.42188-0.77904 0.46299 0.37626 0.79823-0.54658
  -2  -3  11  191.18   22.71 249 0.42814-0.64049 0.46397-0.74689 0.79455-0.20155
  -2  -1   5  815.28   21.14 249 0.43050-0.66054 0.46433-0.55908 0.79315-0.53129
   2   8  -3   21.42   22.81 249 0.42896-0.19322 0.46410 0.28288 0.79407-0.95015
   3  -3   2  363.61   21.79 249 0.42921-0.05233 0.46413-0.74473 0.79392-0.66331
   3  -1  -1  699.73   20.80 248 0.43251-0.06589 0.46464-0.55810 0.79195-0.82660
   3   0  -2    7.43   17.25 249 0.43150-0.06721 0.46448-0.46496 0.79256-0.88271
   3   4  -4  179.52   17.92 249 0.43104-0.07467 0.46442-0.09087 0.79283-0.99516
   3   6  -4   59.54   19.33 249 0.43096-0.07647 0.46440 0.09531 0.79288-0.99567
   4  -1  -1  415.18   18.23 249 0.43167 0.05820 0.46451-0.55799 0.79245-0.82077
   4   0  -2   58.15   16.75 249 0.43059 0.05613 0.46435-0.46379 0.79309-0.87759
   4   4  -4   83.00   17.90 249 0.42878 0.05094 0.46407-0.09058 0.79417-0.98991
   4   6  -4    9.68   20.41 249 0.42914 0.05095 0.46412 0.09545 0.79396-0.99035
   5  -4   5   58.35   25.93 250 0.42236 0.20946 0.46307-0.83928 0.79795-0.48647
   6   0  -1   49.80   19.21 249 0.42878 0.30866 0.46407-0.46615 0.79417-0.80934
   6   3  -3  120.91   19.11 249 0.43205 0.29758 0.46457-0.18509 0.79222-0.91830
   7  -2   3   45.12   25.77 250 0.42441 0.44878 0.46339-0.65274 0.79675-0.58324
   7   0   0   17.36   20.56 249 0.43096 0.43236 0.46440-0.46655 0.79288-0.74546
   7   3  -2   -2.12   21.65 249 0.42842 0.42859 0.46401-0.18595 0.79439-0.85893
  -4   0  12   29.90   21.32 251 0.41568-0.87598 0.46188-0.46476 0.80190-0.16565
  -3  -2  13    3.80   19.92 250 0.42249-0.75352 0.46297-0.65241 0.79796-0.10119
  -3  -2  16    8.34   22.70 250 0.42267-0.74671 0.46300-0.65484 0.79786 0.06808
  -3   1   5   42.44   17.55 249 0.42475-0.78034 0.46332-0.37073 0.79664-0.54183
  -3   2   4  367.57   18.99 249 0.42284-0.78074 0.46303-0.27791 0.79776-0.59874
  -3   4   3   24.03   17.45 249 0.42256-0.78451 0.46298-0.08958 0.79792-0.65448
  -3   6   3   12.25   21.27 250 0.41711-0.78107 0.46211 0.09937 0.80108-0.65873
  -3   8   4    9.85   25.70 249 0.42145-0.78047 0.46281 0.28285 0.79857-0.60146
  -2  -2   7   93.91   16.78 250 0.42218-0.64694 0.46292-0.65125 0.79814-0.42513
  -2   3   1   74.25   20.96 250 0.41769-0.66232 0.46221-0.18178 0.80075-0.76031
  -1  -4  11   -1.48   18.30 250 0.42303-0.51288 0.46306-0.83942 0.79765-0.19687
   1   0  -1 1301.79   34.71 249 0.42696-0.30620 0.46367-0.46266 0.79534-0.84456
   1   6  -3   64.41   20.95 251 0.41500-0.30111 0.46177 0.09870 0.80229-0.96396
   2   2  -3  343.13   19.93 250 0.42322-0.18610 0.46309-0.27568 0.79754-0.95021
   3   5  -4  256.87   18.66 250 0.42301-0.06562 0.46305 0.00450 0.79766-0.99993
   4   5  -4    2.04   18.59 250 0.42285 0.05824 0.46303 0.00397 0.79775-0.99368
   5   2  -3   56.33   17.27 250 0.42268 0.18470 0.46300-0.27672 0.79785-0.93036
   6   4  -3  -33.53   22.96 250 0.41841 0.31253 0.46232-0.08962 0.80033-0.92695
   6   6  -3  -10.17   21.31 250 0.42121 0.31113 0.46277 0.09778 0.79871-0.92747
  -4   1   9   60.41   18.61 250 0.41538-0.88222 0.46196-0.36957 0.80197-0.33423
  -4   5   6   59.33   19.28 250 0.41414-0.89118 0.46176 0.00402 0.80268-0.50128
  -3  -2  12   72.03   19.00 251 0.41362-0.74744 0.46167-0.65084 0.80298-0.16010
   1   4  -3   91.37   20.83 251 0.41081-0.29629 0.46121-0.08734 0.80458-0.96522
   5  -2   1  305.02   21.84 251 0.40989 0.20948 0.46106-0.65003 0.80510-0.71525
   6   5  -3    1.38   21.69 251 0.41356 0.31622 0.46167 0.00381 0.80301-0.93016
   7   4  -2   43.73   23.09 250 0.41472 0.44150 0.46185-0.09024 0.80235-0.86713
  -5   4  12    8.14   23.42 251 0.40583-0.98749 0.46040-0.08895 0.80737-0.18141
  -4   0  11   24.02   18.81 251 0.40545-0.86631 0.46034-0.46232 0.80758-0.22799
  -4   4   6  111.12   18.17 251 0.40744-0.88386 0.46067-0.08788 0.80647-0.50582
  -4   6   6    0.24   19.62 252 0.40565-0.88273 0.46037 0.10042 0.80747-0.50726
  -3  -1   8  102.55   17.61 251 0.40804-0.75400 0.46077-0.55518 0.80613-0.38554
  -3   0   6  476.48   17.99 251 0.40568-0.75791 0.46038-0.46085 0.80745-0.49783
  -2  -3  10  111.11   18.23 251 0.40757-0.62413 0.46069-0.74243 0.80640-0.26816
   4   8  -3    8.12   23.23 252 0.40362 0.07902 0.46003 0.28606 0.80860-0.95066
   6  -2   2   78.00   19.43 252 0.40413 0.34267 0.46012-0.64866 0.80832-0.65741
   7   2  -1   56.19   22.05 251 0.40410 0.45735 0.46011-0.27548 0.80834-0.81840
;
_shelx_hkl_checksum              83973
_shelx_res_file
;
    lval_mal_all.res created by SHELXL-2014/7
TITL Lval_mal_all in P21 #4
REM reset to P21 #4
CELL 0.71073 5.7793 7.5974 12.9136 90 93.13 90
ZERR 2 0.0008 0.0011 0.0017 0 0.01 0
LATT -1
SYMM -X,0.5+Y,-Z
SFAC C H N O
UNIT 18 30 2 12
EQIV $1 +X,+Y,-1+Z
EQIV $2 -X,0.5+Y,2-Z
EQIV $3 1-X,0.5+Y,2-Z
L.S. 5
PLAN  50
TEMP 24.85
HTAB O1 O3_$1
HTAB N1 O3_$2
HTAB N1 O4_$3
HTAB N1 O5
HTAB O6 O4
BOND
MORE -1
BOND $H
CONF
fmap 2
acta
SHEL 40 0.8
REM <olex2.extras>
REM <HklSrc "%.\\Lval_mal_all.hkl">
REM </olex2.extras>
WGHT    0.018000
FVAR       1.40470
O1    4    0.322343    0.359120    0.446796    11.00000    0.04835    0.04843 =
         0.02905   -0.01007   -0.00533    0.00482
AFIX 147
H1    2    0.214840    0.348650    0.403103    11.00000   -1.50000
AFIX   0
O3    4    0.026718    0.326452    1.292054    11.00000    0.04801    0.05851 =
         0.02465    0.00169    0.00129   -0.01065
C1    1    0.254922    0.455230    0.524466    11.00000    0.04391    0.02669 =
         0.02419    0.00240    0.00089    0.00018
O4    4    0.317476    0.301892    1.187750    11.00000    0.03232    0.06673 =
         0.04077    0.01587   -0.00225    0.00808
O6    4    0.390386    0.378559    1.005279    11.00000    0.03692    0.11391 =
         0.04750    0.02430    0.01429    0.01401
AFIX 147
H6    2    0.372501    0.356435    1.066476    11.00000   -1.50000
AFIX   0
O2    4    0.069637    0.520426    0.531133    11.00000    0.04326    0.07185 =
         0.04172   -0.01550   -0.00991    0.01876
C6    1    0.111051    0.338372    1.204453    11.00000    0.04393    0.02922 =
         0.02864   -0.00056   -0.00380   -0.00802
O5    4    0.189418    0.492345    0.873842    11.00000    0.07138    0.08644 =
         0.02742    0.01439    0.01164    0.00719
C2    1    0.453347    0.478939    0.606150    11.00000    0.03153    0.03210 =
         0.02453   -0.00479    0.00543   -0.00257
AFIX  13
H2    2    0.580428    0.539247    0.573544    11.00000   -1.20000
AFIX   0
C8    1   -0.014545    0.442769    1.022049    11.00000    0.03088    0.06410 =
         0.03097    0.00259   -0.00260    0.00340
AFIX  43
H8    2   -0.145525    0.483026    0.984212    11.00000   -1.20000
AFIX   0
C3    1    0.546029    0.303428    0.650150    11.00000    0.03618    0.03678 =
         0.03572   -0.00024    0.00534    0.00380
AFIX  13
H3    2    0.623008    0.244117    0.594082    11.00000   -1.20000
AFIX   0
C7    1   -0.051417    0.399405    1.118860    11.00000    0.02921    0.05468 =
         0.03029   -0.00192   -0.00225    0.00375
AFIX  43
H7    2   -0.204937    0.408666    1.136329    11.00000   -1.20000
AFIX   0
C9    1    0.199161    0.438731    0.962669    11.00000    0.04634    0.04413 =
         0.03790   -0.00080    0.00427   -0.00247
C5    1    0.353829    0.179172    0.683606    11.00000    0.05592    0.03823 =
         0.05101    0.00483    0.00034   -0.00136
AFIX 137
H5A   2    0.275186    0.231928    0.739374    11.00000   -1.50000
H5B   2    0.421067    0.069322    0.706390    11.00000   -1.50000
H5C   2    0.245231    0.158685    0.625942    11.00000   -1.50000
AFIX   0
C4    1    0.729730    0.332564    0.737801    11.00000    0.04013    0.06460 =
         0.05966    0.00103   -0.01547    0.01022
AFIX 137
H4A   2    0.812153    0.224689    0.751731    11.00000   -1.50000
H4B   2    0.656376    0.369686    0.799056    11.00000   -1.50000
H4C   2    0.836291    0.421656    0.717788    11.00000   -1.50000
AFIX   0
N1    3    0.370033    0.595269    0.688985    11.00000    0.02956    0.03349 =
         0.03072   -0.00299   -0.00304   -0.00088
AFIX 137
H1A   2    0.259414    0.665945    0.662252    11.00000   -1.20000
H1B   2    0.487450    0.659760    0.715461    11.00000   -1.20000
H1C   2    0.313396    0.529692    0.738796    11.00000   -1.20000
AFIX   0
HKLF 4
REM  Lval_mal_all in P21 #4
REM R1 =  0.0399 for    1193 Fo > 4sig(Fo)  and  0.1017 for all    2276 data
REM    150 parameters refined using      1 restraints
END
WGHT      0.0180      0.0000
REM Highest difference peak  0.132,  deepest hole -0.161,  1-sigma level  0.035
Q1    1   0.2455  0.2597  1.1991  11.00000  0.05    0.13
Q2    1   0.9838  0.5698  0.6761  11.00000  0.05    0.13
Q3    1   0.0416  0.6101  0.5779  11.00000  0.05    0.13
Q4    1   0.1065  0.2421  1.3076  11.00000  0.05    0.11
Q5    1   0.6512  0.2248  0.8550  11.00000  0.05    0.11
Q6    1   0.6144  0.2725  0.5276  11.00000  0.05    0.10
Q7    1   0.4167  0.5194  0.6417  11.00000  0.05    0.10
Q8    1   0.1303  0.4899  0.8228  11.00000  0.05    0.10
Q9    1  -0.0286  0.3543  1.3388  11.00000  0.05    0.10
Q10   1   0.9302  0.2944  0.5713  11.00000  0.05    0.10
Q11   1  -0.2898  0.3152  1.1841  11.00000  0.05    0.10
Q12   1   0.4723  0.3235  1.1607  11.00000  0.05    0.10
Q13   1  -0.0099  0.3173  1.0781  11.00000  0.05    0.10
Q14   1   0.5463  0.6229  0.7968  11.00000  0.05    0.10
Q15   1   0.0018  0.0413  0.6407  11.00000  0.05    0.10
Q16   1   0.1001  0.6574  0.9805  11.00000  0.05    0.10
Q17   1   0.9937  0.0806  0.7740  11.00000  0.05    0.10
Q18   1   0.3920  0.1232  1.0647  11.00000  0.05    0.10
Q19   1   0.0894  0.0848  0.6991  11.00000  0.05    0.10
Q20   1   0.3051  0.3247  0.9997  11.00000  0.05    0.10
Q21   1   0.4514 -0.0658  0.6851  11.00000  0.05    0.10
Q22   1   0.5858  0.4884  0.8846  11.00000  0.05    0.10
Q23   1   0.7596  0.5058  0.8270  11.00000  0.05    0.09
Q24   1   0.0532  0.6422  0.4224  11.00000  0.05    0.09
Q25   1   0.2197  0.5178  0.3231  11.00000  0.05    0.09
Q26   1   0.1686  0.8284  0.6282  11.00000  0.05    0.09
Q27   1   0.4561  0.1307  0.7827  11.00000  0.05    0.09
Q28   1   0.4399  0.4417  0.4448  11.00000  0.05    0.09
Q29   1  -0.0310  0.3151  1.2611  11.00000  0.05    0.09
Q30   1   0.1168  0.4865  1.0260  11.00000  0.05    0.09
Q31   1  -0.0368  0.5676  0.5315  11.00000  0.05    0.09
Q32   1   0.2869 -0.0859  0.6385  11.00000  0.05    0.09
Q33   1   0.4817  0.6836  0.5279  11.00000  0.05    0.09
Q34   1   0.5830  0.3401  1.1030  11.00000  0.05    0.09
Q35   1   0.4118  0.2608  1.0761  11.00000  0.05    0.09
Q36   1   0.7903  0.0447  0.7956  11.00000  0.05    0.09
Q37   1   0.7505  0.5918  0.7856  11.00000  0.05    0.09
Q38   1   0.3527  0.5359  0.7810  11.00000  0.05    0.09
Q39   1   0.3075  0.0886  0.5866  11.00000  0.05    0.09
Q40   1   0.8706  0.3875  0.7072  11.00000  0.05    0.09
Q41   1   0.2986 -0.0600  0.7400  11.00000  0.05    0.09
Q42   1   0.4265  0.6532  0.9211  11.00000  0.05    0.09
Q43   1   0.6181  0.1285  0.5355  11.00000  0.05    0.09
Q44   1   0.3275  0.1931  1.1368  11.00000  0.05    0.09
Q45   1   0.3169  0.4028  0.8452  11.00000  0.05    0.09
Q46   1   0.6652  0.5849  0.5018  11.00000  0.05    0.09
Q47   1   0.0983  0.4022  1.2954  11.00000  0.05    0.09
Q48   1   0.6792  0.6193  0.4809  11.00000  0.05    0.09
Q49   1   0.2252  0.5305  1.0982  11.00000  0.05    0.09
Q50   1   0.8036  0.4983  0.7373  11.00000  0.05    0.09
;
_shelx_res_checksum              39383
loop_
_space_group_symop_operation_xyz
'x, y, z'
'-x, y+1/2, -z'
loop_
_atom_site_type_symbol
_atom_site_label
_atom_site_fract_x
_atom_site_fract_y
_atom_site_fract_z
_atom_site_U_iso_or_equiv
_atom_site_adp_type
_atom_site_calc_flag
_atom_site_occupancy
O O1 0.3223(5) 0.3591(4) 0.44680(17) 0.0422(8) Uani d 1
H H1 0.2148 0.3486 0.4031 0.063 Uiso calc 1
O O3 0.0267(5) 0.3265(4) 1.29205(16) 0.0437(8) Uani d 1
C C1 0.2549(8) 0.4552(6) 0.5245(3) 0.0316(11) Uani d 1
O O4 0.3175(5) 0.3019(4) 1.18775(19) 0.0468(9) Uani d 1
O O6 0.3904(5) 0.3786(6) 1.0053(2) 0.0657(11) Uani d 1
H H6 0.3725 0.3564 1.0665 0.099 Uiso calc 1
O O2 0.0696(6) 0.5204(4) 0.5311(2) 0.0527(9) Uani d 1
C C6 0.1111(7) 0.3384(6) 1.2045(3) 0.0341(10) Uani d 1
O O5 0.1894(6) 0.4923(5) 0.8738(2) 0.0614(11) Uani d 1
C C2 0.4533(7) 0.4789(5) 0.6062(3) 0.0292(10) Uani d 1
H H2 0.5804 0.5392 0.5735 0.035 Uiso calc 1
C C8 -0.0145(7) 0.4428(6) 1.0220(3) 0.0421(13) Uani d 1
H H8 -0.1455 0.4830 0.9842 0.051 Uiso calc 1
C C3 0.5460(7) 0.3034(6) 0.6502(3) 0.0361(11) Uani d 1
H H3 0.6230 0.2441 0.5941 0.043 Uiso calc 1
C C7 -0.0514(7) 0.3994(6) 1.1189(2) 0.0382(12) Uani d 1
H H7 -0.2049 0.4087 1.1363 0.046 Uiso calc 1
C C9 0.1992(8) 0.4387(6) 0.9627(3) 0.0427(12) Uani d 1
C C5 0.3538(9) 0.1792(6) 0.6836(4) 0.0485(13) Uani d 1
H H5A 0.2752 0.2319 0.7394 0.073 Uiso calc 1
H H5B 0.4211 0.0693 0.7064 0.073 Uiso calc 1
H H5C 0.2452 0.1587 0.6259 0.073 Uiso calc 1
C C4 0.7297(7) 0.3326(8) 0.7378(3) 0.0555(13) Uani d 1
H H4A 0.8122 0.2247 0.7517 0.083 Uiso calc 1
H H4B 0.6564 0.3697 0.7991 0.083 Uiso calc 1
H H4C 0.8363 0.4217 0.7178 0.083 Uiso calc 1
N N1 0.3700(6) 0.5953(4) 0.6890(2) 0.0314(9) Uani d 1
H H1A 0.2594 0.6659 0.6623 0.038 Uiso calc 1
H H1B 0.4875 0.6598 0.7155 0.038 Uiso calc 1
H H1C 0.3134 0.5297 0.7388 0.038 Uiso calc 1
loop_
_atom_site_aniso_label
_atom_site_aniso_U_11
_atom_site_aniso_U_22
_atom_site_aniso_U_33
_atom_site_aniso_U_12
_atom_site_aniso_U_13
_atom_site_aniso_U_23
O1 0.0484(18) 0.048(2) 0.0290(14) 0.0048(19) -0.0053(12) -0.0101(16)
O3 0.0480(18) 0.059(2) 0.0247(13) -0.0107(18) 0.0013(11) 0.0017(16)
C1 0.044(3) 0.027(3) 0.0242(19) 0.000(2) 0.0009(19) 0.002(2)
O4 0.0323(18) 0.067(3) 0.0408(15) 0.0081(18) -0.0022(13) 0.0159(16)
O6 0.0369(19) 0.114(3) 0.0475(17) 0.014(2) 0.0143(14) 0.024(2)
O2 0.043(2) 0.072(3) 0.0417(18) 0.019(2) -0.0099(15) -0.0155(17)
C6 0.044(3) 0.029(3) 0.029(2) -0.008(3) -0.0038(18) -0.001(2)
O5 0.071(2) 0.086(3) 0.0274(15) 0.007(2) 0.0116(14) 0.0144(19)
C2 0.032(2) 0.032(3) 0.0245(18) -0.003(2) 0.0054(16) -0.005(2)
C8 0.031(3) 0.064(4) 0.031(2) 0.003(2) -0.0026(18) 0.003(2)
C3 0.036(2) 0.037(3) 0.036(2) 0.004(2) 0.0053(19) 0.000(2)
C7 0.029(2) 0.055(3) 0.030(2) 0.004(2) -0.0022(16) -0.002(2)
C9 0.046(3) 0.044(4) 0.038(2) -0.002(3) 0.004(2) -0.001(2)
C5 0.056(4) 0.038(3) 0.051(3) -0.001(3) 0.000(2) 0.005(2)
C4 0.040(3) 0.065(4) 0.060(3) 0.010(3) -0.015(2) 0.001(3)
N1 0.030(2) 0.033(2) 0.0307(18) -0.0009(18) -0.0030(16) -0.0030(16)
loop_
_atom_type_symbol
_atom_type_description
_atom_type_scat_dispersion_real
_atom_type_scat_dispersion_imag
_atom_type_scat_source
C C 0.0033 0.0016 'International Tables Vol C Tables 4.2.6.8 and 6.1.1.4'
H H 0.0000 0.0000 'International Tables Vol C Tables 4.2.6.8 and 6.1.1.4'
N N 0.0061 0.0033 'International Tables Vol C Tables 4.2.6.8 and 6.1.1.4'
O O 0.0106 0.0060 'International Tables Vol C Tables 4.2.6.8 and 6.1.1.4'
loop_
_geom_angle_atom_site_label_1
_geom_angle_atom_site_label_2
_geom_angle_atom_site_label_3
_geom_angle
C1 O1 H1 109.5
O1 C1 C2 110.5(4)
O2 C1 O1 126.3(4)
O2 C1 C2 123.2(4)
C9 O6 H6 109.5
O3 C6 C7 115.5(4)
O4 C6 O3 123.8(4)
O4 C6 C7 120.6(3)
C1 C2 H2 108.1
C1 C2 C3 112.8(3)
C3 C2 H2 108.1
N1 C2 C1 107.9(3)
N1 C2 H2 108.1
N1 C2 C3 111.7(3)
C7 C8 H8 114.2
C7 C8 C9 131.5(4)
C9 C8 H8 114.2
C2 C3 H3 106.8
C2 C3 C5 113.2(4)
C5 C3 H3 106.8
C4 C3 C2 111.3(4)
C4 C3 H3 106.8
C4 C3 C5 111.4(3)
C6 C7 H7 114.6
C8 C7 C6 130.8(4)
C8 C7 H7 114.6
O6 C9 C8 120.2(3)
O5 C9 O6 121.0(4)
O5 C9 C8 118.8(4)
C3 C5 H5A 109.5
C3 C5 H5B 109.5
C3 C5 H5C 109.5
H5A C5 H5B 109.5
H5A C5 H5C 109.5
H5B C5 H5C 109.5
C3 C4 H4A 109.5
C3 C4 H4B 109.5
C3 C4 H4C 109.5
H4A C4 H4B 109.5
H4A C4 H4C 109.5
H4B C4 H4C 109.5
C2 N1 H1A 109.5
C2 N1 H1B 109.5
C2 N1 H1C 109.5
H1A N1 H1B 109.5
H1A N1 H1C 109.5
H1B N1 H1C 109.5
loop_
_geom_bond_atom_site_label_1
_geom_bond_atom_site_label_2
_geom_bond_distance
O1 H1 0.8200
O1 C1 1.317(4)
O3 C6 1.259(4)
C1 O2 1.187(5)
C1 C2 1.526(5)
O4 C6 1.255(4)
O6 H6 0.8200
O6 C9 1.291(5)
C6 C7 1.485(5)
O5 C9 1.216(4)
C2 H2 0.9800
C2 C3 1.534(5)
C2 N1 1.488(4)
C8 H8 0.9300
C8 C7 1.321(5)
C8 C9 1.489(5)
C3 H3 0.9800
C3 C5 1.538(6)
C3 C4 1.525(5)
C7 H7 0.9300
C5 H5A 0.9600
C5 H5B 0.9600
C5 H5C 0.9600
C4 H4A 0.9600
C4 H4B 0.9600
C4 H4C 0.9600
N1 H1A 0.8900
N1 H1B 0.8900
N1 H1C 0.8900
loop_
_geom_hbond_atom_site_label_D
_geom_hbond_atom_site_label_H
_geom_hbond_atom_site_label_A
_geom_hbond_site_symmetry_A
_geom_hbond_distance_DH
_geom_hbond_distance_HA
_geom_hbond_distance_DA
_geom_hbond_angle_DHA
O1 H1 O3 1_554 0.82 1.76 2.569(3) 168.9
O6 H6 O4 . 0.82 1.67 2.485(4) 175.4
N1 H1A O3 2_557 0.89 2.16 2.909(4) 141.1
N1 H1B O4 2_657 0.89 1.96 2.819(4) 161.4
N1 H1C O5 . 0.89 1.94 2.770(4) 154.0
loop_
_geom_torsion_atom_site_label_1
_geom_torsion_atom_site_label_2
_geom_torsion_atom_site_label_3
_geom_torsion_atom_site_label_4
_geom_torsion
O1 C1 C2 C3 -58.8(4)
O1 C1 C2 N1 177.3(3)
O3 C6 C7 C8 172.2(5)
C1 C2 C3 C5 -48.8(5)
C1 C2 C3 C4 -175.2(3)
O4 C6 C7 C8 -7.9(7)
O2 C1 C2 C3 123.1(5)
O2 C1 C2 N1 -0.7(5)
C7 C8 C9 O6 2.9(8)
C7 C8 C9 O5 -177.4(5)
C9 C8 C7 C6 3.1(8)
N1 C2 C3 C5 72.9(4)
N1 C2 C3 C4 -53.5(4)
