#------------------------------------------------------------------------------
#$Date: 2019-12-26 21:20:13 +0200 (Thu, 26 Dec 2019) $
#$Revision: 246096 $
#$URL: file:///home/coder/svn-repositories/cod/cif/2/31/17/2311735.cif $
#------------------------------------------------------------------------------
#
# This file is available in the Crystallography Open Database (COD),
# http://www.crystallography.net/. The original data for this entry
# were provided by IUCr Journals, http://journals.iucr.org/.
#
# The file may be used within the scientific community so long as
# proper attribution is given to the journal article from which the
# data were obtained.
#
data_2311735
loop_
_publ_author_name
'Dey, Dhananjay'
'Chopra, Deepak'
_publ_section_title
;
 Quantitative analysis of solid-state diversity in trifluoromethylated
 phenylhydrazones.
;
_journal_issue                   'Pt 5'
_journal_name_full
'Acta crystallographica Section B, Structural science, crystal engineering and materials'
_journal_page_first              781
_journal_page_last               793
_journal_paper_doi               10.1107/S2052520617006643
_journal_volume                  73
_journal_year                    2017
_chemical_formula_sum            'C15 H10 F6 N2'
_chemical_formula_weight         332.25
_space_group_crystal_system      triclinic
_space_group_IT_number           2
_space_group_name_Hall           '-P 1'
_space_group_name_H-M_alt        'P -1'
_atom_sites_solution_hydrogens   geom
_audit_creation_method           SHELXL-2014/7
_cell_angle_alpha                82.823(2)
_cell_angle_beta                 74.769(2)
_cell_angle_gamma                61.428(2)
_cell_formula_units_Z            2
_cell_length_a                   8.2523(3)
_cell_length_b                   8.3039(4)
_cell_length_c                   11.7930(5)
_cell_measurement_reflns_used    7617
_cell_measurement_temperature    100(2)
_cell_measurement_theta_max      30.61
_cell_measurement_theta_min      3.58
_cell_volume                     684.78(5)
_computing_structure_refinement  'SHELXL-2014/7 (Sheldrick, 2014)'
_diffrn_ambient_temperature      100(2)
_diffrn_measured_fraction_theta_full 0.994
_diffrn_measured_fraction_theta_max 0.993
_diffrn_measurement_device_type  'Bruker APEX-II CCD'
_diffrn_measurement_method       '\f and \w scans'
_diffrn_radiation_type           MoK\a
_diffrn_radiation_wavelength     0.71073
_diffrn_reflns_av_R_equivalents  0.0298
_diffrn_reflns_av_unetI/netI     0.0305
_diffrn_reflns_Laue_measured_fraction_full 0.994
_diffrn_reflns_Laue_measured_fraction_max 0.993
_diffrn_reflns_limit_h_max       10
_diffrn_reflns_limit_h_min       -10
_diffrn_reflns_limit_k_max       11
_diffrn_reflns_limit_k_min       -11
_diffrn_reflns_limit_l_max       15
_diffrn_reflns_limit_l_min       -15
_diffrn_reflns_number            12775
_diffrn_reflns_point_group_measured_fraction_full 0.994
_diffrn_reflns_point_group_measured_fraction_max 0.993
_diffrn_reflns_theta_full        25.242
_diffrn_reflns_theta_max         28.279
_diffrn_reflns_theta_min         1.790
_exptl_absorpt_coefficient_mu    0.154
_exptl_absorpt_correction_T_max  0.7456
_exptl_absorpt_correction_T_min  0.6719
_exptl_absorpt_correction_type   multi-scan
_exptl_absorpt_process_details   SADABS
_exptl_crystal_colour            colorless
_exptl_crystal_density_diffrn    1.611
_exptl_crystal_description       plate
_exptl_crystal_F_000             336
_exptl_crystal_size_max          0.270
_exptl_crystal_size_mid          0.190
_exptl_crystal_size_min          0.110
_refine_diff_density_max         0.384
_refine_diff_density_min         -0.350
_refine_diff_density_rms         0.053
_refine_ls_extinction_method     none
_refine_ls_goodness_of_fit_ref   1.064
_refine_ls_hydrogen_treatment    constr
_refine_ls_matrix_type           full
_refine_ls_number_parameters     208
_refine_ls_number_reflns         3365
_refine_ls_number_restraints     0
_refine_ls_restrained_S_all      1.064
_refine_ls_R_factor_all          0.0400
_refine_ls_R_factor_gt           0.0365
_refine_ls_shift/su_max          0.000
_refine_ls_shift/su_mean         0.000
_refine_ls_structure_factor_coef Fsqd
_refine_ls_weighting_details
'w=1/[\s^2^(Fo^2^)+(0.0551P)^2^+0.1675P] where P=(Fo^2^+2Fc^2^)/3'
_refine_ls_weighting_scheme      calc
_refine_ls_wR_factor_gt          0.1046
_refine_ls_wR_factor_ref         0.1073
_reflns_Friedel_coverage         0.000
_reflns_number_gt                2989
_reflns_number_total             3365
_reflns_threshold_expression     'I > 2\s(I)'
_cod_data_source_file            ao5033sup1.cif
_cod_data_source_block           HT31
_cod_database_code               2311735
_shelx_shelxl_version_number     2014/7
_shelx_space_group_comment
;
The symmetry employed for this shelxl refinement is uniquely defined
by the following loop, which should always be used as a source of
symmetry information in preference to the above space-group names.
They are only intended as comments.
;
_shelx_estimated_absorpt_t_min   0.960
_shelx_estimated_absorpt_t_max   0.983
_shelx_res_file
;

    shelxl.res created by SHELXL-2014/7


TITL HT31 in P-1
CELL 0.71073 8.2523 8.3039 11.7930 82.823 74.769 61.428
ZERR 2.00 0.0003 0.0004 0.0005 0.002 0.002 0.002
LATT 1
SFAC C H N F
UNIT 30 20 4 12
ACTA
L.S. 12
BOND $H
HTAB
FMAP 2
CONF
TEMP -173
SIZE 0.27 0.19 0.11
PLAN 5
BOND $H
WGHT    0.055100    0.167500
FVAR       0.29069
F5    4    0.623471   -0.070839    0.140155    11.00000    0.06040    0.04686 =
         0.03671   -0.00724   -0.00545   -0.04089
F3    4    0.883942    0.900183    0.527536    11.00000    0.03750    0.02941 =
         0.03258    0.00330   -0.00331   -0.01868
F6    4    0.619954    0.103683   -0.009749    11.00000    0.07369    0.03936 =
         0.04267    0.00216   -0.03881   -0.02742
F4    4    0.883644   -0.096719    0.028744    11.00000    0.03472    0.04401 =
         0.04808   -0.02590   -0.00284   -0.01466
F1    4    0.584888    1.006710    0.598229    11.00000    0.03153    0.02129 =
         0.04123   -0.00120   -0.01486   -0.00675
F2    4    0.757437    1.031723    0.696777    11.00000    0.05858    0.02738 =
         0.04042   -0.00422   -0.01928   -0.02445
N1    3    0.738441    0.638794    0.516726    11.00000    0.03125    0.01815 =
         0.02052   -0.00211   -0.00839   -0.01159
AFIX  43
H1    2    0.713161    0.746750    0.483830    11.00000   -1.20000
AFIX   0
N2    3    0.736592    0.507275    0.459981    11.00000    0.02278    0.02107 =
         0.02141   -0.00479   -0.00439   -0.01054
C4    1    0.865884    0.530063    0.848213    11.00000    0.03103    0.03509 =
         0.01977    0.00164   -0.00850   -0.01566
AFIX  43
H4    2    0.894922    0.504725    0.923299    11.00000   -1.20000
AFIX   0
C5    1    0.859663    0.398231    0.789962    11.00000    0.03121    0.02713 =
         0.02457    0.00337   -0.00680   -0.01332
AFIX  43
H5    2    0.885014    0.282204    0.825791    11.00000   -1.20000
AFIX   0
C6    1    0.817118    0.433220    0.680560    11.00000    0.02702    0.02222 =
         0.02213   -0.00237   -0.00394   -0.01223
AFIX  43
H6    2    0.813080    0.341564    0.642257    11.00000   -1.20000
AFIX   0
C1    1    0.780091    0.603017    0.626303    11.00000    0.01830    0.02142 =
         0.01846   -0.00332   -0.00243   -0.00866
C13   1    0.699925    0.549173    0.358209    11.00000    0.02425    0.01886 =
         0.02160   -0.00256   -0.00547   -0.00855
AFIX  43
H13   2    0.673210    0.668236    0.327322    11.00000   -1.20000
AFIX   0
C7    1    0.698782    0.415390    0.289030    11.00000    0.01924    0.02137 =
         0.01992   -0.00270   -0.00427   -0.00875
C8    1    0.657987    0.465209    0.178482    11.00000    0.03041    0.02006 =
         0.02321    0.00063   -0.00949   -0.00995
AFIX  43
H8    2    0.629207    0.585717    0.149799    11.00000   -1.20000
AFIX   0
C9    1    0.659131    0.339824    0.109958    11.00000    0.02810    0.02521 =
         0.01949   -0.00028   -0.00902   -0.01075
AFIX  43
H9    2    0.630803    0.374626    0.034870    11.00000   -1.20000
AFIX   0
C10   1    0.701672    0.164346    0.151607    11.00000    0.02173    0.02398 =
         0.02045   -0.00393   -0.00498   -0.01173
C15   1    0.706843    0.026722    0.077802    11.00000    0.02996    0.02848 =
         0.02328   -0.00305   -0.00884   -0.01549
C14   1    0.754567    0.917021    0.628725    11.00000    0.02879    0.02212 =
         0.02598   -0.00434   -0.00784   -0.01181
C2    1    0.787095    0.736227    0.685212    11.00000    0.02031    0.02069 =
         0.02122   -0.00359   -0.00340   -0.00935
C11   1    0.743796    0.112422    0.261739    11.00000    0.03419    0.02322 =
         0.02429    0.00253   -0.01102   -0.01664
AFIX  43
H11   2    0.773815   -0.008604    0.289766    11.00000   -1.20000
AFIX   0
C12   1    0.741744    0.237485    0.329955    11.00000    0.03105    0.02566 =
         0.01931    0.00168   -0.01006   -0.01572
AFIX  43
H12   2    0.769712    0.202254    0.405111    11.00000   -1.20000
AFIX   0
C3    1    0.829253    0.698607    0.795444    11.00000    0.02450    0.02986 =
         0.02218   -0.00586   -0.00518   -0.01311
AFIX  43
H3    2    0.832882    0.789551    0.834752    11.00000   -1.20000
AFIX   0
HKLF 4

REM  HT31 in P-1
REM R1 =  0.0365 for    2989 Fo > 4sig(Fo)  and  0.0400 for all    3365 data
REM    208 parameters refined using      0 restraints

END

WGHT      0.0551      0.1621

REM Instructions for potential hydrogen bonds
HTAB N1 F3
HTAB N1 F1
EQIV $1 -x+1, -y+2, -z+1
HTAB C13 F1_$1

REM Highest difference peak  0.384,  deepest hole -0.350,  1-sigma level  0.053
Q1    1   0.7032  0.1028  0.1182  11.00000  0.05    0.38
Q2    1   0.7738  0.8170  0.6547  11.00000  0.05    0.31
Q3    1   0.7218  0.0969 -0.0374  11.00000  0.05    0.29
Q4    1   0.8376  0.7019  0.7304  11.00000  0.05    0.27
Q5    1   0.8405 -0.0173 -0.0202  11.00000  0.05    0.26
;
_shelx_res_checksum              26519
_shelx_hkl_file
;
   2   0   0 1000.00   52.12
  -3   0   0    2.03    0.14
   3   0   0    2.27    0.16
   3   0   0    2.12    0.14
   3   0   0    2.21    0.14
  -4   0   0    6.71    0.39
  -4   0   0    7.42    0.34
   4   0   0    7.22    0.41
   4   0   0    6.86    0.42
  -5   0   0    5.75    0.28
  -5   0   0    5.53    0.32
   5   0   0    4.82    0.33
   5   0   0    4.33    0.31
  -6   0   0    8.40    0.46
  -6   0   0    9.26    0.54
   6   0   0    9.45    0.57
   6   0   0   10.63    0.58
  -7   0   0    7.10    0.37
  -7   0   0    7.24    0.44
   7   0   0    6.21    0.43
   7   0   0    6.72    0.45
  -8   0   0    3.11    0.28
  -8   0   0    2.94    0.23
   8   0   0    3.42    0.30
   8   0   0    3.92    0.26
  -9   0   0   -0.05    0.08
   9   0   0    0.04    0.05
   9   0   0    0.04    0.08
   8  -1   0    0.07    0.08
   8  -1   0    0.25    0.08
  -8   1   0    0.11    0.07
  -8   1   0    0.11    0.09
   7  -1   0    0.46    0.11
   7  -1   0    0.53    0.10
  -7   1   0    0.39    0.09
  -7   1   0    0.26    0.10
   6  -1   0   15.55    0.83
   6  -1   0   13.94    0.80
  -6   1   0   13.37    0.66
  -6   1   0   12.53    0.74
   5  -1   0    2.41    0.21
   5  -1   0    2.71    0.22
  -5   1   0    2.82    0.18
  -5   1   0    2.85    0.21
   4  -1   0   34.86    2.11
   4  -1   0   39.69    1.94
  -4   1   0   37.50    1.81
  -4   1   0   41.63    1.64
   3  -1   0    4.29    0.24
   3  -1   0    4.19    0.28
   3  -1   0    5.22    0.29
  -3   1   0    4.35    0.26
  -3   1   0    3.93    0.22
   2  -1   0  211.12    8.23
   2  -1   0  221.95   10.48
   1  -1   0   25.12    1.24
   0   1   0   37.21    1.31
   2   1   0   25.90    1.28
  -3  -1   0    0.65    0.07
   3   1   0    0.62    0.07
  -4  -1   0    0.04    0.04
  -4  -1   0    0.06    0.03
   4   1   0    0.03    0.02
   4   1   0    0.01    0.03
  -5  -1   0    4.87    0.29
  -5  -1   0    4.45    0.24
   5   1   0    4.68    0.30
   5   1   0    4.32    0.28
   5   1   0    4.69    0.24
  -6  -1   0   46.01    1.89
  -6  -1   0   45.87    2.10
   6   1   0   43.47    2.23
   6   1   0   41.82    2.41
  -7  -1   0    2.82    0.22
  -7  -1   0    2.71    0.18
   7   1   0    1.99    0.17
   7   1   0    2.64    0.22
  -8  -1   0    9.69    0.50
  -8  -1   0    8.92    0.56
   8   1   0    9.51    0.56
   8   1   0    9.70    0.59
  -9  -1   0    0.09    0.10
   9   1   0    0.03    0.04
   9   1   0    0.03    0.06
   8  -2   0    0.14    0.08
   8  -2   0    0.21    0.11
  -8   2   0    0.25    0.09
  -8   2   0    0.22    0.10
   7  -2   0    3.47    0.30
   7  -2   0    3.62    0.32
  -7   2   0    3.49    0.25
  -7   2   0    4.04    0.31
   6  -2   0    6.47    0.44
   6  -2   0    7.19    0.45
  -6   2   0    6.18    0.35
  -6   2   0    5.47    0.40
   5  -2   0   29.69    1.69
   5  -2   0   28.98    1.56
  -5   2   0   28.80    1.30
  -5   2   0   31.33    1.46
   4  -2   0    1.78    0.18
   4  -2   0    2.11    0.19
  -4   2   0    2.46    0.15
  -4   2   0    2.24    0.18
   3  -2   0   96.22    3.77
   3  -2   0  104.09    4.88
   3  -2   0   99.17    5.40
  -3   2   0  102.19    4.13
  -3   2   0   96.15    4.56
   2  -2   0    8.53    0.53
   2  -2   0    9.34    0.50
   2  -2   0    8.27    0.36
  -2   2   0    9.38    0.41
  -2   2   0    9.05    0.45
   1  -2   0   29.82    1.20
   1  -2   0   32.64    1.56
   0  -2   0  518.57   24.24
   0   2   0  480.19   17.12
  -1  -2   0   13.24    0.45
  -1  -2   0   12.57    0.65
  -2  -2   0  201.04    9.21
   2   2   0  176.23    9.15
  -3  -2   0   96.92    4.26
  -3  -2   0   93.41    4.55
   3   2   0   90.97    4.55
  -4  -2   0   25.03    1.17
   4   2   0   24.84    1.26
  -5  -2   0   42.14    1.83
  -5  -2   0   40.16    1.65
   5   2   0   37.20    2.11
   5   2   0   39.38    1.95
   5   2   0   36.12    1.71
  -6  -2   0    0.96    0.10
  -6  -2   0    0.95    0.11
   6   2   0    0.91    0.09
   6   2   0    0.99    0.12
   6   2   0    1.00    0.07
  -7  -2   0    5.46    0.37
  -7  -2   0    6.10    0.33
   7   2   0    6.04    0.39
   7   2   0    6.02    0.34
  -8  -2   0    7.86    0.48
   8   2   0    7.89    0.45
   8   2   0    7.94    0.50
  -9  -2   0    0.58    0.13
   9   2   0    0.57    0.12
   9   2   0    0.52    0.05
 -10  -2   0    0.43    0.11
 -10  -2   0    0.29    0.13
  10   2   0    0.22    0.10
   7  -3   0    7.13    0.54
   7  -3   0    8.20    0.56
  -7   3   0    8.16    0.52
  -7   3   0    7.54    0.43
   6  -3   0    3.24    0.30
   6  -3   0    3.82    0.30
  -6   3   0    2.75    0.26
  -6   3   0    3.27    0.23
   5  -3   0   16.02    1.03
   5  -3   0   16.83    0.97
  -5   3   0   17.63    0.80
  -5   3   0   17.82    0.90
   4  -3   0    2.91    0.24
  -4   3   0    2.39    0.17
  -4   3   0    2.44    0.20
   3  -3   0    1.18    0.14
  -3   3   0    1.00    0.11
  -3   3   0    1.08    0.10
   2  -3   0   13.73    0.83
   2  -3   0   13.65    0.76
   2  -3   0   14.12    0.57
  -2   3   0   13.91    0.70
  -2   3   0   14.88    0.63
   1  -3   0   11.21    0.44
   1  -3   0   10.72    0.59
  -1   3   0   10.55    0.48
  -1   3   0   10.78    0.39
   0  -3   0    8.50    0.39
   0  -3   0   10.09    0.52
   0   3   0    9.88    0.34
   0   3   0    9.89    0.43
  -1  -3   0   16.56    0.82
   1   3   0   15.24    0.62
   1   3   0   16.34    0.56
  -2  -3   0   40.06    1.97
  -3  -3   0   36.02    1.72
   3   3   0   33.50    1.71
  -4  -3   0    2.73    0.16
  -4  -3   0    2.66    0.18
   4   3   0    2.54    0.16
   4   3   0    2.19    0.17
  -5  -3   0   24.11    1.10
  -5  -3   0   24.58    1.18
   5   3   0   21.58    1.04
   5   3   0   22.48    1.17
   5   3   0   22.13    0.99
  -6  -3   0    2.39    0.19
  -6  -3   0    2.16    0.15
  -6  -3   0    2.16    0.17
   6   3   0    2.25    0.18
   6   3   0    2.15    0.14
   6   3   0    2.18    0.15
  -7  -3   0   15.45    0.85
  -7  -3   0   15.65    0.71
  -7  -3   0   16.09    0.79
   7   3   0   15.07    0.70
   7   3   0   14.52    0.73
   7   3   0   15.28    0.84
  -8  -3   0    0.06    0.06
  -8  -3   0    0.17    0.09
   8   3   0    0.09    0.06
  -9  -3   0    2.97    0.28
  -9  -3   0    3.13    0.26
   9   3   0    2.73    0.25
 -10  -3   0    0.95    0.14
 -10  -3   0    0.76    0.16
 -10  -3   0    0.79    0.16
  10   3   0    0.89    0.15
   6  -4   0    0.43    0.13
   6  -4   0    0.45    0.12
  -6   4   0    0.55    0.13
  -6   4   0    0.65    0.11
   5  -4   0    0.07    0.07
   5  -4   0    0.13    0.08
  -5   4   0    0.10    0.07
  -5   4   0    0.12    0.06
   4  -4   0    1.30    0.17
  -4   4   0    1.13    0.12
  -4   4   0    1.03    0.14
   3  -4   0    1.09    0.08
   3  -4   0    1.21    0.16
   3  -4   0    1.34    0.16
  -3   4   0    1.31    0.08
  -3   4   0    1.32    0.13
  -3   4   0    1.35    0.12
   2  -4   0    7.00    0.43
   2  -4   0    6.97    0.31
   2  -4   0    5.93    0.45
  -2   4   0    6.88    0.27
  -2   4   0    7.00    0.38
  -2   4   0    7.18    0.34
   1  -4   0    1.95    0.17
   1  -4   0    1.34    0.10
   1  -4   0    1.39    0.16
  -1   4   0    2.19    0.12
  -1   4   0    1.86    0.09
  -1   4   0    1.84    0.13
   0  -4   0    4.77    0.30
   0  -4   0    5.01    0.22
   0   4   0    4.91    0.23
   0   4   0    3.99    0.24
   0   4   0    4.39    0.18
  -1  -4   0   72.58    3.20
  -1  -4   0   64.12    2.48
   1   4   0   67.21    2.23
   1   4   0   61.04    2.69
   1   4   0   60.08    2.47
  -2  -4   0   24.36    1.23
   2   4   0   24.21    0.93
   2   4   0   24.29    1.03
  -3  -4   0   10.15    0.55
   3   4   0   10.33    0.46
   3   4   0    9.64    0.49
  -4  -4   0   44.37    2.19
   4   4   0   43.92    2.18
   4   4   0   44.34    1.95
  -5  -4   0   51.35    2.40
  -5  -4   0   52.67    2.22
   5   4   0   47.33    2.03
   5   4   0   46.47    2.12
   5   4   0   46.80    2.38
   5   4   0   44.68    2.61
  -6  -4   0    0.43    0.07
  -6  -4   0    0.70    0.10
   6   4   0    0.47    0.08
   6   4   0    0.54    0.07
   6   4   0    0.38    0.07
  -7  -4   0    0.37    0.08
  -7  -4   0    0.39    0.09
   7   4   0    0.39    0.08
  -8  -4   0    4.16    0.32
  -8  -4   0    4.11    0.29
   8   4   0    4.47    0.27
   8   4   0    4.50    0.31
  -9  -4   0    0.71    0.14
  -9  -4   0    0.83    0.14
   9   4   0    0.59    0.12
 -10  -4   0    0.28    0.11
 -10  -4   0    0.33    0.12
 -10  -4   0    0.34    0.10
  10   4   0    0.39    0.11
   6  -5   0   -0.02    0.06
   6  -5   0    0.03    0.08
  -6   5   0   -0.08    0.08
  -6   5   0    0.02    0.06
  -6   5   0    0.02    0.06
   5  -5   0    0.03    0.07
   5  -5   0   -0.02    0.06
  -5   5   0   -0.01    0.07
  -5   5   0    0.03    0.06
  -5   5   0    0.03    0.05
   4  -5   0    4.80    0.19
   4  -5   0    3.71    0.34
   4  -5   0    5.41    0.39
  -4   5   0    3.44    0.29
  -4   5   0    3.93    0.19
  -4   5   0    4.06    0.27
   3  -5   0    2.77    0.15
   3  -5   0    2.67    0.27
   3  -5   0    2.94    0.26
  -3   5   0    2.91    0.20
  -3   5   0    2.83    0.14
  -3   5   0    2.99    0.22
   2  -5   0    0.23    0.05
   2  -5   0    0.22    0.08
   2  -5   0    0.39    0.10
  -2   5   0    0.21    0.06
  -2   5   0    0.13    0.05
  -2   5   0    0.26    0.04
   1  -5   0    6.23    0.29
   1  -5   0    6.73    0.42
  -1   5   0    6.32    0.35
  -1   5   0    6.12    0.25
  -1   5   0    6.44    0.32
   0  -5   0   12.71    0.71
   0  -5   0   12.90    0.52
   0   5   0   11.95    0.56
   0   5   0   11.94    0.45
   0   5   0   12.93    0.60
  -1  -5   0    7.48    0.44
  -1  -5   0    6.76    0.32
   1   5   0    7.45    0.34
   1   5   0    7.15    0.37
   1   5   0    7.54    0.27
   1   5   0    6.85    0.30
  -2  -5   0    0.74    0.09
   2   5   0    0.63    0.08
   2   5   0    0.69    0.07
   2   5   0    0.71    0.05
  -3  -5   0   13.49    0.68
   3   5   0   11.52    0.60
   3   5   0   12.28    0.55
  -4  -5   0   31.32    1.58
   4   5   0   31.20    1.41
  -5  -5   0   34.24    1.63
   5   5   0   30.80    1.45
   5   5   0   33.29    1.37
   5   5   0   29.75    1.60
  -6  -5   0    0.20    0.07
   6   5   0    0.14    0.06
   6   5   0    0.10    0.04
   6   5   0    0.11    0.05
  -7  -5   0    1.26    0.15
   7   5   0    1.22    0.13
   7   5   0    1.45    0.14
  -8  -5   0   10.36    0.65
   8   5   0   11.15    0.63
   8   5   0   11.21    0.57
  -9  -5   0    0.01    0.08
   9   5   0    0.11    0.07
   9   5   0    0.08    0.06
 -10  -5   0    0.21    0.11
  10   5   0    0.20    0.09
   5  -6   0    0.00    0.07
   5  -6   0    0.12    0.09
  -5   6   0    0.07    0.07
   4  -6   0   -0.01    0.02
   4  -6   0    0.02    0.07
   4  -6   0   -0.06    0.05
  -4   6   0    0.06    0.06
   3  -6   0    2.64    0.27
   3  -6   0    2.40    0.15
  -3   6   0    2.56    0.14
  -3   6   0    2.80    0.20
   2  -6   0    1.13    0.17
   2  -6   0    1.48    0.11
  -2   6   0    1.13    0.08
  -2   6   0    1.05    0.12
   1  -6   0   19.93    0.82
   1  -6   0   19.64    1.10
  -1   6   0   19.26    0.72
  -1   6   0   20.55    0.90
   0  -6   0   10.67    0.45
   0  -6   0    9.61    0.60
   0   6   0   10.58    0.51
   0   6   0   10.28    0.43
   0   6   0    9.55    0.37
   0   6   0    9.61    0.48
  -1  -6   0    0.15    0.04
  -1  -6   0    0.34    0.08
   1   6   0    0.09    0.05
   1   6   0    0.11    0.03
   1   6   0    0.17    0.05
   1   6   0    0.17    0.03
  -2  -6   0   34.04    1.74
   2   6   0   32.98    1.31
   2   6   0   34.43    1.53
   2   6   0   34.49    1.45
  -3  -6   0    5.00    0.33
   3   6   0    5.25    0.30
   3   6   0    4.63    0.25
  -4  -6   0   12.06    0.70
   4   6   0   12.96    0.58
   4   6   0   12.84    0.63
  -5  -6   0    0.55    0.10
   5   6   0    0.70    0.10
  -6  -6   0   16.51    0.87
   6   6   0   14.96    0.77
   6   6   0   15.13    0.84
   6   6   0   16.46    0.72
  -7  -6   0    3.78    0.28
   7   6   0    3.51    0.26
   7   6   0    3.71    0.26
  -8  -6   0    1.24    0.18
   8   6   0    1.98    0.18
   8   6   0    1.81    0.17
  -9  -6   0    2.05    0.22
   9   6   0    2.08    0.19
   9   6   0    1.84    0.19
 -10  -6   0   -0.04    0.08
  10   6   0   -0.05    0.06
  10   6   0   -0.02    0.05
   4  -7   0    0.34    0.13
  -4   7   0    0.31    0.09
   3  -7   0    0.18    0.11
   3  -7   0    0.15    0.05
  -3   7   0    0.11    0.07
   2  -7   0    0.00    0.05
   2  -7   0    0.00    0.04
  -2   7   0   -0.08    0.03
  -2   7   0   -0.03    0.04
   1  -7   0    4.30    0.24
   1  -7   0    4.58    0.36
  -1   7   0    4.53    0.23
  -1   7   0    4.27    0.19
  -1   7   0    4.34    0.27
   0  -7   0    0.03    0.05
   0  -7   0    0.00    0.03
   0   7   0   -0.05    0.03
   0   7   0   -0.05    0.04
   0   7   0    0.03    0.03
  -1  -7   0    4.07    0.32
  -1  -7   0    4.82    0.23
   1   7   0    4.16    0.20
   1   7   0    4.06    0.26
   1   7   0    3.54    0.16
   1   7   0    3.99    0.24
  -2  -7   0    2.23    0.22
   2   7   0    2.35    0.13
   2   7   0    2.36    0.19
   2   7   0    2.44    0.16
  -3  -7   0    6.81    0.44
   3   7   0    6.89    0.28
   3   7   0    6.59    0.34
   3   7   0    7.10    0.39
  -4  -7   0    0.47    0.10
   4   7   0    0.54    0.08
   4   7   0    0.51    0.10
  -5  -7   0    5.68    0.37
   5   7   0    4.91    0.28
   5   7   0    5.26    0.33
  -6  -7   0    8.01    0.50
   6   7   0    7.99    0.46
  -7  -7   0    1.13    0.15
   7   7   0    1.20    0.14
   7   7   0    0.87    0.12
  -8  -7   0   63.91    3.32
   8   7   0   64.26    2.95
   8   7   0   70.31    3.30
  -9  -7   0    1.98    0.22
   9   7   0    1.56    0.17
   9   7   0    1.27    0.16
  10   7   0   17.47    0.89
   2  -8   0    1.99    0.25
   2  -8   0    2.15    0.15
  -2   8   0    2.28    0.16
  -2   8   0    1.89    0.18
   1  -8   0    5.68    0.45
   1  -8   0    5.86    0.31
  -1   8   0    5.86    0.30
  -1   8   0    5.93    0.35
   0  -8   0    2.80    0.27
   0  -8   0    2.56    0.18
   0   8   0    3.01    0.21
   0   8   0    2.73    0.17
   0   8   0    2.64    0.13
  -1  -8   0    6.77    0.50
  -1  -8   0    7.60    0.36
   1   8   0    7.28    0.39
   1   8   0    7.07    0.28
   1   8   0    7.45    0.33
  -2  -8   0    1.91    0.21
   2   8   0    2.02    0.18
   2   8   0    2.08    0.12
   2   8   0    2.03    0.16
  -3  -8   0    1.08    0.16
   3   8   0    0.84    0.12
   3   8   0    0.92    0.06
   3   8   0    0.93    0.10
  -4  -8   0   13.21    0.81
   4   8   0   13.97    0.72
   4   8   0   15.28    0.67
  -5  -8   0    0.58    0.12
   5   8   0    0.53    0.10
   5   8   0    0.56    0.09
  -6  -8   0   88.86    4.45
   6   8   0   90.61    3.96
  -7  -8   0    1.39    0.19
   7   8   0    1.65    0.18
  -8  -8   0   21.07    1.14
   8   8   0   20.07    1.02
  -9  -8   0    0.69    0.14
   9   8   0    0.68    0.12
   9   8   0    0.64    0.12
  10   8   0    0.30    0.10
   1  -9   0    1.99    0.26
   1  -9   0    2.31    0.17
  -1   9   0    2.00    0.15
  -1   9   0    2.09    0.19
   0  -9   0    2.12    0.17
   0  -9   0    1.90    0.24
   0   9   0    1.94    0.17
   0   9   0    2.24    0.15
  -1  -9   0    0.37    0.12
  -1  -9   0    0.29    0.07
   1   9   0    0.17    0.07
   1   9   0    0.19    0.05
  -2  -9   0    0.05    0.08
   2   9   0    0.00    0.05
   2   9   0   -0.04    0.03
   2   9   0    0.01    0.06
  -3  -9   0    0.88    0.16
   3   9   0    1.14    0.12
   3   9   0    1.20    0.15
   3   9   0    1.07    0.07
  -4  -9   0    3.14    0.30
   4   9   0    3.73    0.23
   4   9   0    3.47    0.27
  -5  -9   0    0.22    0.10
   5   9   0    0.22    0.09
   5   9   0    0.19    0.07
  -6  -9   0    0.47    0.12
   6   9   0    0.47    0.11
  -7  -9   0    0.42    0.12
   7   9   0    0.57    0.12
  -8  -9   0    1.14    0.18
   8   9   0    0.95    0.15
  -9  -9   0    1.37    0.20
   9   9   0    1.66    0.19
  -1 -10   0   16.82    1.11
  -1 -10   0   20.19    0.83
   1  10   0   17.70    0.89
   1  10   0   19.75    0.78
  -2 -10   0    0.32    0.13
   2  10   0    0.60    0.07
   2  10   0    0.57    0.11
  -3 -10   0   15.86    1.03
   3  10   0   17.91    0.89
   3  10   0   17.21    0.82
   3  10   0   18.03    0.69
  -4 -10   0    4.03    0.38
   4  10   0    5.08    0.34
   4  10   0    5.14    0.30
  -5 -10   0    6.20    0.48
   5  10   0    6.45    0.43
   5  10   0    7.31    0.39
  -6 -10   0    0.89    0.17
   6  10   0    1.02    0.15
  -7 -10   0    1.68    0.22
   7  10   0    1.69    0.20
  -8 -10   0    2.93    0.31
   8  10   0    3.76    0.30
   8  10  -1    0.28    0.11
  -8 -10   1    0.24    0.12
   7  10  -1    2.37    0.23
  -7 -10   1    2.24    0.26
   6  10  -1    0.00    0.06
  -6 -10   1   -0.04    0.07
   5  10  -1   12.92    0.68
  -5 -10   1   11.26    0.76
   4  10  -1    0.19    0.09
   4  10  -1    0.30    0.08
  -4 -10   1    0.30    0.12
   3  10  -1   12.99    0.62
   3  10  -1   12.50    0.50
   3  10  -1   12.59    0.68
  -3 -10   1   11.67    0.79
   2  10  -1    0.03    0.04
   2  10  -1   -0.06    0.05
  -2 -10   1    0.03    0.08
   1  10  -1    0.18    0.06
   1  10  -1    0.11    0.07
  -1 -10   1    0.24    0.07
  -1 -10   1    0.13    0.09
   9   9  -1    0.82    0.14
  -9  -9   1    0.52    0.14
   8   9  -1    7.30    0.43
  -8  -9   1    5.45    0.45
   7   9  -1    0.33    0.10
  -7  -9   1    0.29    0.11
   6   9  -1    0.93    0.14
  -6  -9   1    0.73    0.15
   5   9  -1    0.18    0.08
  -5  -9   1    0.11    0.08
   4   9  -1    0.07    0.07
   4   9  -1    0.03    0.05
  -4  -9   1    0.00    0.07
   3   9  -1    2.60    0.21
   3   9  -1    2.27    0.12
   3   9  -1    2.28    0.17
  -3  -9   1    2.05    0.24
   2   9  -1    3.22    0.22
   2   9  -1    3.12    0.17
  -2  -9   1    3.33    0.31
   1   9  -1    0.48    0.09
   1   9  -1    0.44    0.07
  -1  -9   1    0.34    0.12
  -1  -9   1    0.55    0.09
   0   9  -1   -0.05    0.04
   0   9  -1    0.01    0.05
   0  -9   1    0.01    0.05
   0  -9   1   -0.01    0.08
  -1   9  -1    0.46    0.08
  -1   9  -1    0.32    0.10
   1  -9   1    0.42    0.14
   1  -9   1    0.59    0.09
   9   8  -1    4.08    0.31
   9   8  -1    4.33    0.32
  -9  -8   1    3.78    0.34
   8   8  -1   15.76    0.82
   8   8  -1   16.13    0.88
  -8  -8   1   15.23    0.91
   7   8  -1    0.47    0.11
  -7  -8   1    0.51    0.12
   6   8  -1    8.38    0.49
  -6  -8   1    8.35    0.54
   5   8  -1    3.43    0.25
  -5  -8   1    3.23    0.28
   4   8  -1    0.04    0.04
   4   8  -1    0.04    0.05
  -4  -8   1    0.06    0.06
   3   8  -1    4.85    0.27
   3   8  -1    5.17    0.31
   3   8  -1    4.77    0.20
  -3  -8   1    4.03    0.34
   2   8  -1    0.59    0.10
   2   8  -1    0.81    0.07
   2   8  -1    0.72    0.09
  -2  -8   1    0.80    0.14
   1   8  -1    0.68    0.05
   1   8  -1    0.72    0.07
   1   8  -1    0.62    0.09
  -1  -8   1    0.68    0.14
  -1  -8   1    0.59    0.09
   0   8  -1    7.93    0.43
   0   8  -1    8.83    0.39
   0   8  -1    8.18    0.32
   0  -8   1    8.95    0.41
   0  -8   1    7.65    0.56
  -1   8  -1    1.26    0.14
  -1   8  -1    1.25    0.11
   1  -8   1    1.29    0.20
   1  -8   1    1.24    0.12
  -2   8  -1    0.30    0.09
  -2   8  -1    0.33    0.07
   2  -8   1    0.37    0.07
   2  -8   1    0.46    0.14
  10   7  -1    6.55    0.45
  10   7  -1    6.59    0.42
 -10  -7   1    6.50    0.49
   9   7  -1    1.84    0.19
   9   7  -1    1.83    0.19
  -9  -7   1    1.76    0.22
   8   7  -1    0.46    0.11
   8   7  -1    0.48    0.10
  -8  -7   1    0.55    0.13
   7   7  -1   14.08    0.76
   7   7  -1   14.91    0.83
  -7  -7   1   15.99    0.86
   6   7  -1   12.86    0.64
  -6  -7   1   11.55    0.70
   5   7  -1   22.47    1.09
  -5  -7   1   23.30    1.22
   4   7  -1    1.44    0.15
   4   7  -1    1.13    0.10
  -4  -7   1    1.22    0.15
   3   7  -1   -0.02    0.04
   3   7  -1    0.02    0.04
   3   7  -1    0.00    0.02
  -3  -7   1    0.05    0.06
   2   7  -1    0.58    0.05
   2   7  -1    0.51    0.09
   2   7  -1    0.47    0.07
  -2  -7   1    0.56    0.11
   1   7  -1    4.60    0.22
   1   7  -1    4.60    0.28
   1   7  -1    4.14    0.25
   1   7  -1    4.32    0.18
  -1  -7   1    4.60    0.34
  -1  -7   1    4.72    0.24
   0   7  -1    3.35    0.21
   0   7  -1    2.98    0.17
   0   7  -1    3.26    0.15
   0  -7   1    3.03    0.28
   0  -7   1    2.98    0.19
  -1   7  -1    0.55    0.06
  -1   7  -1    0.59    0.09
   1  -7   1    0.57    0.08
   1  -7   1    0.54    0.13
  -2   7  -1    1.31    0.13
  -2   7  -1    1.24    0.09
   2  -7   1    1.35    0.20
   2  -7   1    1.23    0.11
  -3   7  -1   -0.02    0.05
   3  -7   1   -0.01    0.06
   3  -7   1    0.02    0.04
  -4   7  -1    0.43    0.10
   4  -7   1    0.60    0.16
  10   6  -1    0.64    0.12
  10   6  -1    0.58    0.12
 -10  -6   1    0.58    0.15
   9   6  -1    2.13    0.21
   9   6  -1    2.39    0.21
  -9  -6   1    2.19    0.24
   8   6  -1    1.49    0.16
   8   6  -1    1.30    0.15
  -8  -6   1    0.80    0.15
   7   6  -1    1.22    0.14
   7   6  -1    1.18    0.14
  -7  -6   1    1.10    0.15
   6   6  -1    0.68    0.10
   6   6  -1    0.81    0.10
  -6  -6   1    0.67    0.12
   5   6  -1    6.41    0.38
   5   6  -1    6.44    0.31
   5   6  -1    6.09    0.36
  -5  -6   1    5.86    0.39
   4   6  -1   10.38    0.49
   4   6  -1   10.82    0.54
  -4  -6   1   10.40    0.60
   3   6  -1    0.07    0.03
   3   6  -1    0.01    0.04
  -3  -6   1    0.00    0.04
   2   6  -1    1.10    0.07
   2   6  -1    1.16    0.11
   2   6  -1    1.33    0.10
  -2  -6   1    1.10    0.14
   1   6  -1    1.39    0.11
   1   6  -1    1.91    0.14
   0   6  -1   10.99    0.52
   0   6  -1   11.21    0.41
   0  -6   1   11.67    0.48
   0  -6   1   10.26    0.65
  -1   6  -1    4.49    0.25
  -1   6  -1    4.23    0.19
   1  -6   1    4.39    0.23
   1  -6   1    4.11    0.33
  -2   6  -1    0.84    0.07
  -2   6  -1    1.14    0.12
   2  -6   1    1.02    0.16
   2  -6   1    1.04    0.10
  -3   6  -1    0.26    0.05
  -3   6  -1    0.50    0.09
   3  -6   1    0.20    0.05
   3  -6   1    0.17    0.10
  -4   6  -1    1.46    0.15
   4  -6   1    1.17    0.20
   4  -6   1    1.70    0.10
   4  -6   1    1.75    0.23
  -5   6  -1    2.25    0.20
   5  -6   1    2.98    0.31
   5  -6   1    2.10    0.26
  10   5  -1   -0.01    0.05
 -10  -5   1    0.03    0.08
   9   5  -1    0.97    0.14
   9   5  -1    1.09    0.14
  -9  -5   1    1.08    0.17
   8   5  -1    0.12    0.06
   8   5  -1    0.15    0.06
  -8  -5   1    0.04    0.07
   7   5  -1    0.31    0.07
   7   5  -1    0.41    0.08
  -7  -5   1    0.43    0.10
   6   5  -1    2.41    0.19
   6   5  -1    2.36    0.18
  -6  -5   1    2.14    0.20
   5   5  -1   16.15    0.69
   5   5  -1   14.60    0.74
   5   5  -1   16.55    0.83
  -5  -5   1   14.58    0.83
   4   5  -1    7.49    0.42
   4   5  -1    7.76    0.39
   4   5  -1    7.12    0.34
  -4  -5   1    6.15    0.41
   3   5  -1    3.54    0.23
  -3  -5   1    4.71    0.28
  -3  -5   1    3.92    0.16
   2   5  -1    0.40    0.04
   2   5  -1    0.39    0.06
   2   5  -1    0.44    0.05
  -2  -5   1    0.41    0.08
   1   5  -1   11.18    0.54
   1   5  -1   12.40    0.58
   1   5  -1   12.21    0.43
  -1  -5   1   12.63    0.51
  -1  -5   1   11.85    0.67
   0   5  -1   34.94    1.48
   0   5  -1   35.72    1.54
   0   5  -1   34.81    1.22
   0  -5   1   34.22    1.78
   0  -5   1   34.24    1.37
  -1   5  -1   16.51    0.72
  -1   5  -1   16.72    0.79
  -1   5  -1   16.04    0.58
  -1   5  -1   15.09    0.72
   1  -5   1   16.49    0.89
   1  -5   1   15.29    0.66
  -2   5  -1    0.02    0.04
  -2   5  -1    0.04    0.03
  -2   5  -1   -0.01    0.04
  -2   5  -1   -0.01    0.03
   2  -5   1    0.02    0.05
   2  -5   1    0.02    0.03
   2  -5   1    0.07    0.06
  -3   5  -1    1.43    0.13
  -3   5  -1    1.14    0.08
  -3   5  -1    1.08    0.12
  -3   5  -1    1.11    0.14
   3  -5   1    1.08    0.16
   3  -5   1    1.74    0.19
   3  -5   1    1.39    0.10
  -4   5  -1    4.46    0.33
  -4   5  -1    4.76    0.22
  -4   5  -1    4.85    0.30
  -4   5  -1    4.98    0.30
   4  -5   1    4.75    0.38
   4  -5   1    4.98    0.22
   4  -5   1    5.28    0.41
  -5   5  -1    3.28    0.24
  -5   5  -1    2.81    0.26
  -5   5  -1    3.22    0.23
   5  -5   1    3.12    0.30
   5  -5   1    3.49    0.32
  -6   5  -1    0.67    0.13
  -6   5  -1    0.57    0.14
  -6   5  -1    0.69    0.12
   6  -5   1    0.76    0.16
   6  -5   1    0.67    0.16
  10   4  -1   -0.04    0.06
 -10  -4   1    0.05    0.08
 -10  -4   1    0.07    0.08
   9   4  -1    0.21    0.09
   9   4  -1    0.16    0.07
  -9  -4   1    0.18    0.09
  -9  -4   1    0.24    0.10
   8   4  -1    1.51    0.14
   8   4  -1    1.29    0.15
  -8  -4   1    0.94    0.14
  -8  -4   1    1.05    0.16
   7   4  -1    0.04    0.05
   7   4  -1    0.01    0.04
  -7  -4   1   -0.03    0.05
  -7  -4   1    0.03    0.06
   6   4  -1    7.55    0.43
   6   4  -1    6.99    0.38
  -6  -4   1    6.89    0.38
  -6  -4   1    6.68    0.43
   5   4  -1    1.52    0.13
   5   4  -1    1.58    0.10
   5   4  -1    1.42    0.13
  -5  -4   1    1.07    0.11
   4   4  -1    3.23    0.16
   4   4  -1    2.90    0.19
   4   4  -1    3.13    0.20
  -4  -4   1    2.66    0.16
  -4  -4   1    2.44    0.20
   3   4  -1   56.41    2.98
   3   4  -1   58.86    2.65
  -3  -4   1   67.63    3.00
   2   4  -1    0.67    0.06
   2   4  -1    0.99    0.05
  -2  -4   1    0.69    0.09
  -2  -4   1    1.08    0.05
   1   4  -1  143.94    4.88
   1   4  -1  139.02    5.85
  -1  -4   1  142.32    5.39
  -1  -4   1  143.52    6.91
   0   4  -1   36.91    1.31
   0   4  -1   35.78    1.58
   0  -4   1   39.11    1.90
   0  -4   1   38.82    1.46
  -1   4  -1   13.79    0.49
  -1   4  -1   14.87    0.61
  -1   4  -1   11.56    0.60
   1  -4   1   14.16    0.74
   1  -4   1   12.72    0.55
  -2   4  -1    0.06    0.03
  -2   4  -1    0.11    0.05
   2  -4   1    0.08    0.03
   2  -4   1    0.07    0.05
   2  -4   1    0.08    0.05
  -3   4  -1   15.59    0.78
  -3   4  -1   14.96    0.69
   3  -4   1   14.88    0.61
   3  -4   1   15.14    0.85
   3  -4   1   14.74    0.92
  -4   4  -1    3.23    0.22
  -4   4  -1    3.12    0.25
   4  -4   1    3.20    0.28
   4  -4   1    3.75    0.30
   4  -4   1    3.71    0.15
  -5   4  -1    0.22    0.09
  -5   4  -1    0.25    0.07
  -5   4  -1    0.17    0.07
   5  -4   1    0.33    0.10
   5  -4   1    0.20    0.09
  -6   4  -1    0.97    0.13
  -6   4  -1    0.82    0.15
  -6   4  -1    0.71    0.12
   6  -4   1    0.95    0.16
   6  -4   1    0.84    0.16
  -7   4  -1    0.05    0.10
  -7   4  -1    0.08    0.07
  -7   4  -1    0.02    0.07
   7  -4   1    0.01    0.06
   7  -4   1    0.09    0.09
  10   3  -1    0.14    0.08
 -10  -3   1    0.22    0.11
 -10  -3   1    0.30    0.12
   9   3  -1    0.46    0.11
  -9  -3   1    0.53    0.13
  -9  -3   1    0.34    0.11
   8   3  -1    0.62    0.11
   8   3  -1    0.47    0.09
  -8  -3   1    0.63    0.13
  -8  -3   1    0.72    0.12
   7   3  -1    1.90    0.15
   7   3  -1    1.92    0.18
  -7  -3   1    1.49    0.17
  -7  -3   1    1.73    0.18
   6   3  -1   -0.02    0.03
   6   3  -1   -0.02    0.03
  -6  -3   1    0.06    0.05
  -6  -3   1    0.12    0.06
   5   3  -1    1.67    0.13
   5   3  -1    2.05    0.14
   5   3  -1    1.99    0.16
   5   3  -1    1.91    0.12
  -5  -3   1    2.06    0.17
  -5  -3   1    1.79    0.14
   4   3  -1   17.40    0.92
   4   3  -1   18.65    0.79
   4   3  -1   16.67    0.82
  -4  -3   1   18.32    0.93
  -4  -3   1   18.09    0.85
   3   3  -1    7.66    0.46
  -3  -3   1    9.56    0.47
   2   3  -1   17.04    0.83
  -2  -3   1   15.50    0.83
  -2  -3   1   16.50    0.57
   1   3  -1  241.62    8.39
   1   3  -1  249.77    8.40
  -1  -3   1  241.88   11.88
   0   3  -1   68.99    2.82
   0   3  -1   65.30    2.34
   0  -3   1   67.15    2.60
   0  -3   1   71.22    3.34
  -1   3  -1  107.30    4.47
   1  -3   1  112.78    5.27
   1  -3   1  104.24    4.11
  -2   3  -1    5.59    0.28
   2  -3   1    5.74    0.38
   2  -3   1    5.77    0.25
   2  -3   1    5.57    0.35
  -3   3  -1   63.93    2.59
   3  -3   1   62.22    2.35
   3  -3   1   62.94    3.07
   3  -3   1   57.07    3.38
  -4   3  -1    1.71    0.17
  -4   3  -1    1.89    0.15
   4  -3   1    1.99    0.20
   4  -3   1    2.52    0.21
  -5   3  -1   32.28    1.53
  -5   3  -1   29.79    1.37
   5  -3   1   32.36    1.79
   5  -3   1   29.82    1.64
  -6   3  -1    0.86    0.15
  -6   3  -1    0.70    0.11
  -6   3  -1    1.01    0.13
   6  -3   1    1.09    0.15
   6  -3   1    1.13    0.17
  -7   3  -1    0.48    0.11
  -7   3  -1    0.41    0.13
  -7   3  -1    0.28    0.09
   7  -3   1    0.39    0.12
   7  -3   1    0.42    0.11
   9   2  -1    0.07    0.07
  -9  -2   1    0.10    0.10
   8   2  -1    4.56    0.28
   8   2  -1    4.37    0.34
  -8  -2   1    4.27    0.32
   7   2  -1    0.18    0.06
   7   2  -1    0.22    0.07
   7   2  -1    0.18    0.04
  -7  -2   1    0.21    0.08
   6   2  -1    0.22    0.04
   6   2  -1    0.25    0.05
   6   2  -1    0.30    0.05
   6   2  -1    0.27    0.07
  -6  -2   1    0.29    0.06
   5   2  -1    1.06    0.11
   5   2  -1    1.19    0.12
   5   2  -1    1.10    0.10
   5   2  -1    1.06    0.08
   5   2  -1    1.22    0.09
  -5  -2   1    1.20    0.11
  -5  -2   1    1.16    0.09
   4   2  -1   12.08    0.66
   4   2  -1   11.89    0.57
  -4  -2   1   13.41    0.62
   3   2  -1    0.47    0.06
  -3  -2   1    0.56    0.07
  -3  -2   1    0.62    0.06
   2   2  -1   15.92    0.88
  -2  -2   1   19.05    0.89
   1   2  -1   10.20    0.59
  -1  -2   1   11.91    0.41
  -1  -2   1   13.55    0.61
   0  -2   1   10.54    0.55
   1  -2   1   36.54    1.52
   1  -2   1   42.94    1.96
  -2   2  -1    7.07    0.33
   2  -2   1    6.84    0.29
   2  -2   1    6.76    0.40
   2  -2   1    6.97    0.43
  -3   2  -1   12.80    0.53
   3  -2   1   11.57    0.63
   3  -2   1   10.32    0.67
   3  -2   1   10.75    0.44
  -4   2  -1    5.87    0.31
   4  -2   1    5.91    0.39
   4  -2   1    5.92    0.38
  -5   2  -1    8.96    0.50
  -5   2  -1    8.58    0.43
   5  -2   1    7.89    0.54
   5  -2   1    8.24    0.52
  -6   2  -1    1.07    0.15
  -6   2  -1    1.19    0.13
   6  -2   1    1.24    0.16
   6  -2   1    1.13    0.15
  -7   2  -1    2.79    0.26
  -7   2  -1    2.70    0.22
  -7   2  -1    2.67    0.21
   7  -2   1    2.41    0.25
   7  -2   1    2.83    0.25
  -8   2  -1    0.05    0.07
  -8   2  -1    0.06    0.09
  -8   2  -1    0.10    0.08
   8  -2   1    0.07    0.07
   8  -2   1    0.15    0.09
   9   1  -1    1.77    0.15
   9   1  -1    1.59    0.20
  -9  -1   1    1.53    0.21
   8   1  -1    1.76    0.16
   8   1  -1    1.87    0.21
  -8  -1   1    2.61    0.23
   7   1  -1    0.10    0.04
   7   1  -1    0.05    0.06
  -7  -1   1   -0.01    0.06
   6   1  -1    0.73    0.08
   6   1  -1    0.86    0.09
   6   1  -1    0.85    0.12
  -6  -1   1    0.85    0.09
  -6  -1   1    0.84    0.12
   5   1  -1    2.36    0.15
   5   1  -1    2.46    0.16
   5   1  -1    2.34    0.19
   5   1  -1    2.27    0.17
  -5  -1   1    2.09    0.14
  -5  -1   1    1.87    0.17
   4   1  -1  154.21    8.72
   4   1  -1  162.65    7.84
   4   1  -1  171.94    6.81
  -4  -1   1  165.00    6.66
  -4  -1   1  154.59    7.34
   3   1  -1    0.37    0.05
   3   1  -1    0.59    0.05
   3   1  -1    0.56    0.07
  -3  -1   1    0.37    0.05
   2   1  -1  943.93   48.93
   1  -1   1  116.34    5.69
   2  -1   1   10.38    0.52
   2  -1   1    9.09    0.37
  -3   1  -1   66.84    2.79
   3  -1   1   68.92    3.29
   3  -1   1   65.22    3.63
  -4   1  -1    3.24    0.18
   4  -1   1    2.29    0.20
   4  -1   1    2.95    0.21
  -5   1  -1   20.20    0.88
  -5   1  -1   21.27    0.99
   5  -1   1   19.79    1.05
   5  -1   1   17.16    1.11
  -6   1  -1    0.12    0.06
  -6   1  -1    0.16    0.08
   6  -1   1    0.07    0.06
   6  -1   1    0.14    0.06
  -7   1  -1    0.31    0.10
  -7   1  -1    0.21    0.07
   7  -1   1    0.16    0.08
   7  -1   1    0.06    0.05
  -8   1  -1    0.17    0.08
  -8   1  -1    0.26    0.11
  -8   1  -1    0.35    0.10
   8  -1   1    0.17    0.09
   8  -1   1    0.29    0.08
  -9   1  -1    0.09    0.08
  -9   1  -1    0.03    0.09
  -9   1  -1    0.21    0.09
   9  -1   1    0.13    0.09
   9  -1   1    0.20    0.08
   9   0  -1    0.22    0.10
   9   0  -1    0.16    0.06
  -9   0   1    0.29    0.12
   8   0  -1    0.65    0.10
   8   0  -1    0.85    0.15
  -8   0   1    1.00    0.16
   7   0  -1    1.32    0.13
   7   0  -1    1.27    0.17
  -7   0   1    1.15    0.12
  -7   0   1    1.06    0.15
   6   0  -1   53.70    2.73
   6   0  -1   47.58    2.96
  -6   0   1   58.60    2.56
  -6   0   1   57.14    2.30
   5   0  -1    0.58    0.09
   5   0  -1    0.60    0.10
   5   0  -1    0.43    0.06
   5   0  -1    0.37    0.07
  -5   0   1    0.84    0.10
   4   0  -1  466.40   23.34
   4   0  -1  476.93   25.80
   4   0  -1  483.84   20.16
  -4   0   1  476.23   19.73
  -4   0   1  484.39   21.80
   3   0  -1   43.15    1.83
   3   0  -1   43.24    2.11
   3   0  -1   38.71    2.31
  -3   0   1   45.38    1.98
   2   0  -1  772.11   37.98
  -2   0   1  796.15   35.55
   0   0  -1   20.96    0.73
   0   0   1   20.97    0.73
   2   0   1  111.12    5.41
  -3   0  -1   10.74    0.51
   3   0   1   12.07    0.52
   3   0   1   11.85    0.65
   3   0   1   11.35    0.60
   4   0   1    2.69    0.18
   4   0   1    1.75    0.15
   4   0   1    2.45    0.14
  -5   0  -1    3.40    0.21
   5   0   1    3.12    0.23
   5   0   1    3.88    0.25
  -6   0  -1    5.01    0.33
  -6   0  -1    4.26    0.28
   6   0   1    4.99    0.34
   6   0   1    5.49    0.33
  -7   0  -1    0.06    0.07
  -7   0  -1    0.12    0.06
   7   0   1   -0.02    0.03
   7   0   1    0.02    0.05
  -8   0  -1    0.00    0.06
  -8   0  -1    0.04    0.08
   8   0   1   -0.01    0.05
   8   0   1    0.05    0.05
  -9   0  -1    0.11    0.08
  -9   0  -1    0.07    0.07
  -9   0  -1    0.11    0.10
   9   0   1    0.18    0.09
   9   0   1    0.14    0.06
   8  -1  -1    0.08    0.08
   8  -1  -1    0.03    0.05
  -8   1   1   -0.05    0.08
   7  -1  -1    0.63    0.11
   7  -1  -1    0.63    0.13
  -7   1   1    1.04    0.15
  -7   1   1    0.72    0.11
   6  -1  -1    0.02    0.05
   6  -1  -1    0.02    0.05
  -6   1   1    0.07    0.05
  -6   1   1    0.00    0.06
   5  -1  -1    0.14    0.06
   5  -1  -1    0.20    0.07
   5  -1  -1    0.33    0.07
  -5   1   1    0.10    0.06
  -5   1   1    0.10    0.04
   4  -1  -1    0.33    0.07
   4  -1  -1    0.16    0.06
  -4   1   1    0.39    0.06
  -4   1   1    0.39    0.08
   3  -1  -1   11.01    0.62
   3  -1  -1   10.97    0.59
   3  -1  -1   10.15    0.50
  -3   1   1    9.89    0.54
  -3   1   1   10.80    0.48
   2  -1  -1   12.05    0.50
   2  -1  -1   11.05    0.58
   2  -1  -1    9.51    0.42
  -2   1   1   11.15    0.53
   1  -1  -1   92.04    4.40
   1  -1  -1   88.84    3.43
   0   1   1   22.35    0.78
   3   1   1   21.62    1.08
  -4  -1  -1   11.47    0.55
   4   1   1   12.06    0.54
   4   1   1   12.18    0.67
   4   1   1   12.80    0.64
  -5  -1  -1   14.51    0.67
   5   1   1   15.25    0.79
   5   1   1   15.05    0.67
   5   1   1   14.73    0.83
  -6  -1  -1    0.59    0.11
  -6  -1  -1    0.95    0.10
   6   1   1    0.93    0.08
   6   1   1    0.69    0.11
   6   1   1    0.89    0.09
  -7  -1  -1    0.30    0.07
  -7  -1  -1    0.18    0.08
   7   1   1    0.12    0.06
   7   1   1    0.09    0.04
  -8  -1  -1   -0.02    0.07
  -8  -1  -1    0.05    0.06
   8   1   1    0.03    0.04
   8   1   1    0.06    0.06
  -9  -1  -1    0.98    0.17
  -9  -1  -1    1.14    0.15
  -9  -1  -1    0.96    0.14
   9   1   1    0.98    0.16
   9   1   1    1.16    0.11
   8  -2  -1   -0.02    0.07
   8  -2  -1    0.02    0.06
  -8   2   1    0.05    0.09
   7  -2  -1   13.85    0.83
   7  -2  -1   12.07    0.79
  -7   2   1   13.31    0.75
   6  -2  -1    2.60    0.24
   6  -2  -1    2.65    0.26
  -6   2   1    2.76    0.24
  -6   2   1    2.90    0.20
   5  -2  -1    6.52    0.44
   5  -2  -1    6.55    0.44
  -5   2   1    6.65    0.40
  -5   2   1    6.07    0.34
   4  -2  -1   21.50    0.95
   4  -2  -1   20.79    1.10
   4  -2  -1   20.72    1.18
  -4   2   1   20.33    0.90
  -4   2   1   18.77    1.01
   3  -2  -1    0.20    0.05
   3  -2  -1    0.06    0.05
   3  -2  -1    0.08    0.04
  -3   2   1    0.03    0.04
  -3   2   1    0.03    0.03
   2  -2  -1   16.26    0.83
   2  -2  -1   14.84    0.90
   2  -2  -1   15.27    0.61
   2  -2  -1   15.37    0.71
  -2   2   1   15.72    0.76
  -2   2   1   16.64    0.68
   1  -2  -1    4.06    0.20
   1  -2  -1    4.84    0.28
  -1   2   1    4.81    0.17
  -1   2   1    4.63    0.24
   0  -2  -1    3.01    0.18
   0   2   1    2.84    0.11
  -1  -2  -1   38.51    1.89
  -3  -2  -1   60.47    2.94
   4   2   1   15.83    0.69
   4   2   1   15.80    0.81
  -5  -2  -1   10.97    0.50
   5   2   1   10.59    0.49
   5   2   1   10.48    0.58
  -6  -2  -1    8.87    0.51
  -6  -2  -1    9.96    0.46
   6   2   1    9.68    0.54
   6   2   1    8.73    0.45
   6   2   1    9.82    0.46
   6   2   1    9.52    0.52
  -7  -2  -1    0.00    0.04
  -7  -2  -1    0.01    0.05
   7   2   1    0.04    0.05
   7   2   1    0.11    0.04
  -8  -2  -1    0.80    0.11
  -8  -2  -1    0.75    0.13
   8   2   1    0.84    0.13
   8   2   1    0.87    0.07
  -9  -2  -1    0.71    0.12
  -9  -2  -1    0.37    0.12
   9   2   1    0.63    0.13
 -10  -2  -1    0.40    0.13
 -10  -2  -1    0.56    0.12
   7  -3  -1    0.10    0.09
   7  -3  -1   -0.02    0.06
  -7   3   1   -0.02    0.08
  -7   3   1    0.03    0.06
   6  -3  -1    2.14    0.23
   6  -3  -1    2.31    0.23
  -6   3   1    2.05    0.17
  -6   3   1    2.00    0.21
   5  -3  -1    0.70    0.13
  -5   3   1    0.47    0.10
  -5   3   1    0.42    0.08
   4  -3  -1    3.71    0.30
   4  -3  -1    3.97    0.31
  -4   3   1    4.05    0.27
  -4   3   1    4.04    0.23
   3  -3  -1    4.10    0.24
   3  -3  -1    3.43    0.17
   3  -3  -1    4.19    0.29
   3  -3  -1    3.37    0.28
  -3   3   1    3.77    0.21
  -3   3   1    3.81    0.25
   2  -3  -1    2.05    0.17
   2  -3  -1    1.90    0.14
   2  -3  -1    1.84    0.17
   2  -3  -1    1.84    0.10
  -2   3   1    1.83    0.14
  -2   3   1    1.97    0.09
  -2   3   1    1.93    0.13
   1  -3  -1   21.15    0.90
   1  -3  -1   23.63    1.00
   1  -3  -1   22.87    1.18
  -1   3   1   22.90    0.80
  -1   3   1   23.93    0.98
   0  -3  -1    5.30    0.31
   0  -3  -1    5.01    0.23
   0   3   1    5.11    0.19
   0   3   1    5.39    0.25
  -1  -3  -1    0.63    0.08
   1   3   1    0.60    0.04
   1   3   1    0.70    0.04
  -2  -3  -1   24.10    1.18
  -2  -3  -1   23.22    0.82
  -3  -3  -1    0.43    0.05
   3   3   1    0.39    0.05
  -4  -3  -1    3.10    0.20
   4   3   1    3.10    0.17
   4   3   1    3.00    0.19
  -5  -3  -1    0.14    0.05
   5   3   1    0.19    0.05
   5   3   1    0.11    0.04
   5   3   1    0.20    0.05
  -6  -3  -1    6.30    0.38
  -6  -3  -1    5.87    0.35
   6   3   1    6.33    0.37
   6   3   1    6.34    0.32
   6   3   1    5.73    0.32
  -7  -3  -1    1.07    0.11
  -7  -3  -1    0.93    0.13
  -7  -3  -1    1.05    0.13
   7   3   1    1.10    0.12
   7   3   1    1.09    0.10
   7   3   1    1.30    0.11
  -8  -3  -1    0.83    0.13
  -8  -3  -1    0.67    0.11
  -8  -3  -1    0.65    0.12
  -8  -3  -1    0.57    0.10
   8   3   1    0.68    0.09
   8   3   1    0.69    0.11
  -9  -3  -1    0.26    0.10
  -9  -3  -1    0.33    0.09
  -9  -3  -1    0.22    0.10
   9   3   1    0.23    0.09
 -10  -3  -1   -0.01    0.06
 -10  -3  -1   -0.03    0.07
   6  -4  -1    0.02    0.06
   6  -4  -1   -0.06    0.06
  -6   4   1    0.00    0.05
  -6   4   1    0.05    0.09
   5  -4  -1    1.18    0.17
   5  -4  -1    1.60    0.20
  -5   4   1    1.65    0.15
  -5   4   1    1.74    0.19
   4  -4  -1    0.02    0.05
   4  -4  -1    0.08    0.06
  -4   4   1    0.08    0.05
  -4   4   1    0.03    0.05
   3  -4  -1    3.86    0.29
   3  -4  -1    3.35    0.29
   3  -4  -1    3.49    0.17
  -3   4   1    3.63    0.25
  -3   4   1    3.57    0.16
  -3   4   1    3.75    0.22
   2  -4  -1    3.39    0.17
   2  -4  -1    3.52    0.26
   2  -4  -1    3.65    0.28
  -2   4   1    3.31    0.19
  -2   4   1    3.01    0.21
  -2   4   1    3.25    0.15
   1  -4  -1    8.33    0.57
   1  -4  -1    8.41    0.39
   1  -4  -1    9.57    0.53
   1  -4  -1    9.22    0.44
  -1   4   1    9.43    0.43
  -1   4   1    8.96    0.46
  -1   4   1    9.37    0.34
   0  -4  -1    5.48    0.26
   0  -4  -1    5.88    0.35
   0   4   1    6.26    0.22
   0   4   1    5.87    0.29
   0   4   1    5.44    0.28
   0   4   1    5.42    0.25
  -1  -4  -1    0.07    0.04
  -1  -4  -1    0.11    0.03
   1   4   1   -0.04    0.01
   1   4   1    0.03    0.02
   1   4   1   -0.01    0.01
   2   4   1    2.14    0.12
   2   4   1    2.18    0.10
  -3  -4  -1    0.03    0.03
   3   4   1    0.01    0.02
   3   4   1    0.00    0.02
  -4  -4  -1   10.62    0.58
   4   4   1   10.83    0.57
   4   4   1   11.17    0.49
   4   4   1   10.69    0.53
  -5  -4  -1   17.60    0.92
  -5  -4  -1   17.98    0.78
  -5  -4  -1   14.78    0.84
   5   4   1   18.45    0.91
   5   4   1   18.01    0.97
   5   4   1   18.85    0.83
   5   4   1   18.58    0.79
  -6  -4  -1    1.31    0.11
  -6  -4  -1    1.54    0.13
  -6  -4  -1    1.74    0.15
   6   4   1    1.43    0.13
   6   4   1    1.25    0.12
   6   4   1    1.21    0.11
  -7  -4  -1    0.59    0.10
  -7  -4  -1    0.36    0.07
  -7  -4  -1    0.54    0.09
   7   4   1    0.18    0.05
   7   4   1    0.35    0.07
   7   4   1    0.30    0.07
  -8  -4  -1    0.43    0.10
  -8  -4  -1    0.45    0.10
  -8  -4  -1    0.51    0.09
  -8  -4  -1    0.53    0.09
   8   4   1    0.45    0.08
   8   4   1    0.55    0.10
  -9  -4  -1    6.97    0.41
  -9  -4  -1    6.54    0.44
  -9  -4  -1    5.82    0.37
   9   4   1    5.96    0.41
 -10  -4  -1   -0.01    0.06
 -10  -4  -1   -0.04    0.07
   5  -5  -1    1.54    0.21
   5  -5  -1    1.64    0.21
  -5   5   1    1.49    0.15
  -5   5   1    1.29    0.18
   4  -5  -1    0.23    0.03
   4  -5  -1    0.18    0.09
   4  -5  -1    0.14    0.09
  -4   5   1    0.17    0.09
  -4   5   1    0.08    0.04
  -4   5   1    0.10    0.06
   3  -5  -1    2.68    0.27
   3  -5  -1    3.02    0.27
   3  -5  -1    2.96    0.16
  -3   5   1    2.72    0.19
  -3   5   1    3.22    0.23
  -3   5   1    2.77    0.14
   2  -5  -1    7.06    0.31
   2  -5  -1    6.94    0.48
   2  -5  -1    6.22    0.44
  -2   5   1    6.62    0.27
  -2   5   1    6.33    0.34
   1  -5  -1   19.25    1.20
   1  -5  -1   20.01    1.10
   1  -5  -1   20.29    0.83
  -1   5   1   21.02    0.91
  -1   5   1   21.05    0.95
  -1   5   1   20.46    0.98
  -1   5   1   21.12    0.73
   0  -5  -1    3.05    0.16
   0  -5  -1    2.88    0.23
   0   5   1    2.94    0.19
   0   5   1    3.02    0.17
   0   5   1    2.88    0.15
   0   5   1    2.85    0.13
   0   5   1    2.80    0.17
  -1  -5  -1   10.03    0.44
  -1  -5  -1   11.34    0.60
   1   5   1   10.29    0.48
   1   5   1   11.01    0.38
   1   5   1   10.60    0.52
   1   5   1    9.91    0.43
  -2  -5  -1    0.04    0.04
  -2  -5  -1    0.00    0.02
   2   5   1    0.00    0.02
   2   5   1    0.01    0.03
   2   5   1    0.00    0.01
  -3  -5  -1    2.85    0.20
   3   5   1    2.63    0.18
   3   5   1    2.59    0.15
  -4  -5  -1   51.04    2.64
   4   5   1   54.91    2.24
   4   5   1   54.27    2.35
  -5  -5  -1   14.48    0.79
   5   5   1   15.27    0.73
   5   5   1   15.25    0.68
   5   5   1   14.92    0.78
  -6  -5  -1    8.42    0.46
   6   5   1    7.35    0.43
   6   5   1    7.24    0.41
   6   5   1    7.02    0.37
  -7  -5  -1   21.54    1.14
   7   5   1   21.84    1.13
   7   5   1   21.46    1.02
  -8  -5  -1    0.01    0.05
   8   5   1    0.01    0.04
   8   5   1    0.03    0.04
  -9  -5  -1   11.05    0.66
   9   5   1   10.36    0.56
   9   5   1   10.56    0.62
   5  -6  -1    0.05    0.08
   5  -6  -1    0.03    0.08
  -5   6   1    0.01    0.06
   4  -6  -1    0.35    0.13
   4  -6  -1    0.21    0.10
  -4   6   1    0.18    0.08
   3  -6  -1    0.70    0.15
   3  -6  -1    0.68    0.07
  -3   6   1    0.72    0.07
  -3   6   1    0.65    0.10
   2  -6  -1   24.73    0.98
   2  -6  -1   24.29    1.33
  -2   6   1   24.39    1.09
  -2   6   1   23.74    0.88
   1  -6  -1    2.03    0.21
   1  -6  -1    2.44    0.15
  -1   6   1    1.87    0.15
  -1   6   1    1.83    0.10
  -1   6   1    1.99    0.13
   0  -6  -1    5.19    0.27
   0  -6  -1    5.57    0.38
   0   6   1    5.54    0.26
   0   6   1    5.58    0.22
   0   6   1    5.81    0.30
   0   6   1    5.45    0.32
  -1  -6  -1    7.21    0.45
  -1  -6  -1    7.02    0.32
   1   6   1    6.94    0.34
   1   6   1    6.79    0.37
   1   6   1    6.57    0.26
   1   6   1    6.60    0.30
  -2  -6  -1    2.50    0.21
   2   6   1    2.50    0.18
   2   6   1    2.41    0.15
   2   6   1    2.55    0.12
   2   6   1    2.40    0.10
  -3  -6  -1   43.23    2.06
   3   6   1   40.44    1.82
   3   6   1   40.23    1.72
   3   6   1   38.91    1.54
  -4  -6  -1    0.53    0.10
   4   6   1    0.83    0.08
   4   6   1    0.85    0.11
  -5  -6  -1    1.98    0.19
   5   6   1    2.65    0.16
   5   6   1    2.25    0.18
  -6  -6  -1    1.40    0.14
   6   6   1    1.05    0.12
   6   6   1    1.04    0.10
   6   6   1    1.09    0.12
  -7  -6  -1    2.79    0.24
   7   6   1    3.05    0.22
   7   6   1    3.04    0.23
  -8  -6  -1    1.59    0.18
   8   6   1    1.38    0.15
   8   6   1    1.36    0.15
  -9  -6  -1    2.12    0.22
   9   6   1    2.12    0.20
   9   6   1    2.21    0.19
  10   6   1    0.06    0.07
   3  -7  -1    1.37    0.11
   3  -7  -1    1.42    0.22
  -3   7   1    1.43    0.15
   2  -7  -1    2.81    0.29
   2  -7  -1    3.59    0.20
  -2   7   1    2.82    0.22
  -2   7   1    3.45    0.20
  -2   7   1    2.98    0.16
   1  -7  -1    3.90    0.34
   1  -7  -1    3.91    0.23
  -1   7   1    4.09    0.18
  -1   7   1    4.07    0.22
  -1   7   1    4.33    0.26
   0  -7  -1    1.64    0.13
   0  -7  -1    1.98    0.21
   0   7   1    1.57    0.09
   0   7   1    1.66    0.14
   0   7   1    1.83    0.12
  -1  -7  -1    0.94    0.10
  -1  -7  -1    1.05    0.15
   1   7   1    1.04    0.08
   1   7   1    1.07    0.13
   1   7   1    1.09    0.07
   1   7   1    0.89    0.10
  -2  -7  -1   54.10    2.78
   2   7   1   53.42    2.11
   2   7   1   58.01    2.33
   2   7   1   54.60    2.45
  -3  -7  -1   17.30    0.96
   3   7   1   17.18    0.68
   3   7   1   18.24    0.86
   3   7   1   17.29    0.79
  -4  -7  -1  267.55   13.39
   4   7   1  270.39   11.85
   4   7   1  290.64   11.38
  -5  -7  -1    0.46    0.11
   5   7   1    0.20    0.06
   5   7   1    0.31    0.08
  -6  -7  -1  130.36    6.30
   6   7   1  127.03    5.35
   6   7   1  128.76    5.60
  -7  -7  -1    5.83    0.40
   7   7   1    6.05    0.37
  -8  -7  -1   10.53    0.58
   8   7   1    8.40    0.53
   8   7   1    8.76    0.51
   9   7   1    2.35    0.21
   9   7   1    2.17    0.20
  10   7   1    0.89    0.14
   2  -8  -1    1.67    0.25
   2  -8  -1    2.42    0.16
  -2   8   1    1.99    0.19
  -2   8   1    2.33    0.17
   1  -8  -1    3.02    0.31
   1  -8  -1    3.46    0.21
  -1   8   1    3.22    0.23
  -1   8   1    3.43    0.20
   0  -8  -1    0.64    0.14
   0  -8  -1    0.72    0.09
   0   8   1    0.75    0.11
   0   8   1    0.58    0.06
   0   8   1    0.71    0.08
  -1  -8  -1    0.15    0.05
  -1  -8  -1    0.55    0.13
   1   8   1    0.10    0.03
   1   8   1    0.15    0.04
   1   8   1    0.21    0.06
   1   8   1    0.13    0.07
  -2  -8  -1   17.23    1.01
   2   8   1   17.58    0.87
   2   8   1   18.09    0.71
   2   8   1   17.45    0.81
  -3  -8  -1   10.62    0.68
   3   8   1   11.14    0.60
   3   8   1   11.86    0.55
   3   8   1   11.36    0.45
  -4  -8  -1    3.90    0.30
   4   8   1    3.67    0.23
   4   8   1    3.45    0.26
  -5  -8  -1    0.65    0.12
   5   8   1    0.52    0.10
   5   8   1    0.51    0.08
  -6  -8  -1    0.03    0.06
   6   8   1    0.12    0.06
   6   8   1    0.06    0.06
  -7  -8  -1    0.18    0.09
   7   8   1    0.13    0.07
  -8  -8  -1    4.93    0.37
   8   8   1    5.59    0.36
   9   8   1    1.88    0.20
  10   8   1   10.84    0.61
   1  -9  -1    3.96    0.24
   1  -9  -1    3.40    0.35
  -1   9   1    3.69    0.22
  -1   9   1    3.54    0.26
   0  -9  -1    0.02    0.08
   0  -9  -1   -0.03    0.04
   0   9   1    0.05    0.05
   0   9   1    0.02    0.05
  -1  -9  -1    5.60    0.46
  -1  -9  -1    6.75    0.34
   1   9   1    6.23    0.36
   1   9   1    6.03    0.29
  -2  -9  -1    2.40    0.26
   2   9   1    2.61    0.15
   2   9   1    2.68    0.20
   2   9   1    2.64    0.22
  -3  -9  -1    7.82    0.55
   3   9   1    8.12    0.33
   3   9   1    7.92    0.42
   3   9   1    7.93    0.47
  -4  -9  -1   21.20    1.21
   4   9   1   21.10    1.06
   4   9   1   22.79    1.00
  -5  -9  -1    0.94    0.15
   5   9   1    0.81    0.11
   5   9   1    0.66    0.12
  -6  -9  -1    3.15    0.29
   6   9   1    3.57    0.23
   6   9   1    3.28    0.27
  -7  -9  -1    0.24    0.10
   7   9   1    0.21    0.09
  -8  -9  -1    0.17    0.09
   8   9   1    0.14    0.09
   9   9   1    1.21    0.17
  -1 -10  -1    2.17    0.19
  -1 -10  -1    2.60    0.29
   1  10   1    2.56    0.21
   1  10   1    2.61    0.17
  -2 -10  -1    0.10    0.10
   2  10   1    0.05    0.06
   2  10   1    0.04    0.04
  -3 -10  -1    0.14    0.10
   3  10   1    0.27    0.08
   3  10   1    0.13    0.05
   3  10   1    0.39    0.11
  -4 -10  -1    0.60    0.15
   4  10   1    0.60    0.12
   4  10   1    0.56    0.10
  -5 -10  -1    0.31    0.11
   5  10   1    0.38    0.09
   5  10   1    0.30    0.10
  -6 -10  -1    0.80    0.16
   6  10   1    0.63    0.11
   6  10   1    0.91    0.15
  -7 -10  -1    0.40    0.13
   7  10   1    0.50    0.13
   8  10   1    0.88    0.16
  -5 -11  -1    3.02    0.32
   5  11   1    3.49    0.25
   5  11   1    3.21    0.28
   7  10  -2    0.28    0.11
  -7 -10   2    0.08    0.10
   6  10  -2    2.52    0.23
  -6 -10   2    2.05    0.25
   5  10  -2    0.00    0.07
  -5 -10   2   -0.01    0.08
   4  10  -2    0.43    0.11
  -4 -10   2    0.38    0.13
   3  10  -2    0.02    0.05
  -3 -10   2    0.03    0.08
   2  10  -2    1.45    0.15
   2  10  -2    1.55    0.11
  -2 -10   2    1.34    0.22
   1  10  -2    0.33    0.09
   1  10  -2    0.32    0.07
  -1 -10   2    0.22    0.12
  -1 -10   2    0.60    0.10
   8   9  -2    0.69    0.13
  -8  -9   2    0.56    0.14
   7   9  -2    0.86    0.14
  -7  -9   2    0.53    0.14
   6   9  -2    0.88    0.14
  -6  -9   2    0.48    0.13
   5   9  -2    1.24    0.16
  -5  -9   2    1.32    0.19
   4   9  -2    5.99    0.37
  -4  -9   2    5.09    0.41
   3   9  -2    0.01    0.06
   3   9  -2    0.03    0.04
   3   9  -2    0.02    0.02
  -3  -9   2    0.12    0.08
   2   9  -2    0.53    0.09
   2   9  -2    0.42    0.06
  -2  -9   2    0.49    0.13
   1   9  -2    0.08    0.04
   1   9  -2    0.13    0.06
  -1  -9   2    0.09    0.08
  -1  -9   2    0.18    0.06
   0   9  -2   10.39    0.45
   0   9  -2    9.46    0.51
   0  -9   2    9.05    0.66
   0  -9   2   10.48    0.48
  -1   9  -2    0.15    0.09
  -1   9  -2    0.16    0.06
   1  -9   2    0.19    0.07
   1  -9   2    0.41    0.14
   9   8  -2    0.19    0.09
   9   8  -2    0.14    0.08
  -9  -8   2    0.20    0.11
   8   8  -2   -0.04    0.05
   8   8  -2   -0.02    0.05
  -8  -8   2   -0.02    0.07
   7   8  -2   -0.03    0.05
  -7  -8   2    0.04    0.07
   6   8  -2    5.61    0.35
  -6  -8   2    4.58    0.37
   5   8  -2    0.05    0.05
  -5  -8   2    0.07    0.07
   4   8  -2    2.06    0.19
  -4  -8   2    1.95    0.21
   3   8  -2    0.00    0.05
   3   8  -2    0.00    0.04
   3   8  -2    0.03    0.02
  -3  -8   2    0.06    0.07
   2   8  -2    0.11    0.04
   2   8  -2    0.11    0.05
   2   8  -2    0.15    0.06
  -2  -8   2    0.06    0.07
   1   8  -2    0.05    0.04
   1   8  -2    0.07    0.03
   1   8  -2    0.07    0.05
  -1  -8   2    0.13    0.05
  -1  -8   2    0.07    0.08
   0   8  -2    4.77    0.21
   0   8  -2    5.06    0.25
   0   8  -2    4.49    0.29
   0  -8   2    4.47    0.39
   0  -8   2    5.80    0.28
  -1   8  -2    0.89    0.13
   1  -8   2    0.98    0.11
   1  -8   2    0.94    0.17
  -2   8  -2    2.63    0.21
   2  -8   2    2.63    0.18
   2  -8   2    2.49    0.28
   9   7  -2    7.82    0.50
   9   7  -2    7.48    0.46
  -9  -7   2    7.25    0.52
   8   7  -2    0.28    0.09
  -8  -7   2    0.46    0.12
   7   7  -2    1.44    0.16
   7   7  -2    1.40    0.16
  -7  -7   2    1.23    0.17
   6   7  -2   12.55    0.69
   6   7  -2   12.08    0.63
  -6  -7   2   11.40    0.70
   5   7  -2    8.75    0.49
  -5  -7   2    8.99    0.55
   4   7  -2    4.88    0.30
  -4  -7   2    4.67    0.34
   3   7  -2    6.86    0.38
   3   7  -2    6.32    0.33
   3   7  -2    6.72    0.26
  -3  -7   2    6.21    0.43
   2   7  -2    1.21    0.08
   2   7  -2    1.05    0.10
   2   7  -2    1.24    0.13
  -2  -7   2    0.99    0.15
   1   7  -2   -0.02    0.03
   1   7  -2   -0.02    0.02
   1   7  -2    0.05    0.04
   1   7  -2    0.07    0.05
  -1  -7   2   -0.01    0.03
  -1  -7   2    0.07    0.07
   0   7  -2   12.85    0.61
   0   7  -2   12.66    0.47
   0  -7   2   12.90    0.56
   0  -7   2   12.51    0.77
  -1   7  -2    2.80    0.14
  -1   7  -2    2.60    0.19
   1  -7   2    2.88    0.18
   1  -7   2    3.00    0.28
  -2   7  -2    7.28    0.42
  -2   7  -2    7.13    0.32
   2  -7   2    7.52    0.54
   2  -7   2    9.28    0.39
  -3   7  -2    0.23    0.08
   3  -7   2    0.16    0.05
   3  -7   2    0.09    0.09
  -4   7  -2    2.78    0.22
   4  -7   2    2.65    0.30
   4  -7   2    2.57    0.15
  10   6  -2   -0.04    0.06
  10   6  -2    0.03    0.07
 -10  -6   2    0.03    0.09
   9   6  -2    0.02    0.06
   9   6  -2    0.08    0.07
  -9  -6   2   -0.05    0.07
   8   6  -2    8.60    0.52
   8   6  -2    8.42    0.48
  -8  -6   2    7.96    0.54
   7   6  -2    0.89    0.12
   7   6  -2    0.87    0.12
  -7  -6   2    1.00    0.15
   6   6  -2    0.39    0.08
   6   6  -2    0.25    0.07
  -6  -6   2    0.19    0.08
   5   6  -2    0.82    0.11
   5   6  -2    0.61    0.10
  -5  -6   2    0.71    0.11
   4   6  -2   19.97    0.93
  -4  -6   2   19.07    1.04
   3   6  -2    6.27    0.34
   3   6  -2    5.91    0.29
  -3  -6   2    5.89    0.38
   2   6  -2    5.25    0.26
   2   6  -2    5.04    0.30
   2   6  -2    4.99    0.22
  -2  -6   2    5.43    0.35
   1   6  -2    4.84    0.29
   1   6  -2    5.22    0.27
   1   6  -2    5.10    0.20
  -1  -6   2    5.17    0.35
  -1  -6   2    4.98    0.25
   0   6  -2    0.20    0.05
   0   6  -2    0.20    0.03
   0  -6   2    0.31    0.09
   0  -6   2    0.29    0.05
  -1   6  -2    0.06    0.04
  -1   6  -2    0.05    0.03
   1  -6   2    0.02    0.05
   1  -6   2    0.03    0.03
  -2   6  -2   16.23    0.75
  -2   6  -2   16.19    0.60
   2  -6   2   16.35    0.68
   2  -6   2   15.90    0.93
  -3   6  -2    0.34    0.08
  -3   6  -2    0.17    0.05
   3  -6   2    0.26    0.10
   3  -6   2    0.07    0.04
  -4   6  -2    7.30    0.43
   4  -6   2    7.19    0.55
   4  -6   2    8.73    0.61
   4  -6   2    8.55    0.35
  -5   6  -2    0.04    0.07
   5  -6   2    0.05    0.08
   5  -6   2    0.00    0.07
  10   5  -2    0.05    0.07
  10   5  -2    0.06    0.07
 -10  -5   2    0.08    0.09
   9   5  -2    0.02    0.05
   9   5  -2    0.00    0.05
  -9  -5   2    0.01    0.07
   8   5  -2    9.55    0.50
   8   5  -2    8.97    0.55
  -8  -5   2    8.27    0.57
   7   5  -2    0.28    0.08
   7   5  -2    0.26    0.07
  -7  -5   2    0.50    0.11
   6   5  -2    0.35    0.08
   6   5  -2    0.42    0.08
  -6  -5   2    0.36    0.09
   5   5  -2    0.40    0.08
   5   5  -2    0.34    0.07
  -5  -5   2    0.56    0.10
   4   5  -2   46.20    1.93
   4   5  -2   47.51    2.05
   4   5  -2   45.92    2.30
  -4  -5   2   45.18    2.31
   3   5  -2    0.04    0.03
   3   5  -2    0.03    0.02
  -3  -5   2    0.22    0.06
   2   5  -2    1.66    0.09
   2   5  -2    1.74    0.13
  -2  -5   2    2.05    0.16
   1   5  -2    7.63    0.36
   1   5  -2    7.46    0.39
   1   5  -2    8.12    0.28
  -1  -5   2    7.27    0.34
  -1  -5   2    7.89    0.46
   0   5  -2   22.35    0.98
   0   5  -2   19.62    0.94
   0   5  -2   22.96    0.77
   0  -5   2   22.26    1.15
   0  -5   2   20.88    0.87
  -1   5  -2    0.78    0.08
  -1   5  -2    0.73    0.06
   1  -5   2    0.51    0.06
   1  -5   2    0.68    0.11
  -2   5  -2    0.41    0.07
  -2   5  -2    0.49    0.05
  -2   5  -2    0.46    0.07
   2  -5   2    0.51    0.11
   2  -5   2    0.37    0.10
   2  -5   2    0.44    0.06
  -3   5  -2    0.07    0.07
  -3   5  -2    0.09    0.04
  -3   5  -2    0.00    0.04
  -3   5  -2    0.21    0.06
   3  -5   2    0.06    0.06
   3  -5   2    0.19    0.09
   3  -5   2    0.16    0.04
  -4   5  -2    0.09    0.06
  -4   5  -2    0.10    0.04
  -4   5  -2    0.15    0.08
  -4   5  -2    0.21    0.07
   4  -5   2    0.01    0.06
   4  -5   2    0.03    0.03
   4  -5   2    0.20    0.09
  -5   5  -2    1.59    0.16
  -5   5  -2    1.59    0.19
  -5   5  -2    1.78    0.17
   5  -5   2    1.91    0.23
   5  -5   2    1.53    0.21
  -6   5  -2    0.87    0.14
  -6   5  -2    0.55    0.15
  -6   5  -2    0.92    0.14
   6  -5   2    0.85    0.17
   6  -5   2    1.00    0.18
  10   4  -2    2.27    0.23
 -10  -4   2    1.76    0.23
   9   4  -2    0.67    0.13
   9   4  -2    0.64    0.11
  -9  -4   2    0.90    0.16
  -9  -4   2    0.58    0.12
   8   4  -2    2.40    0.19
   8   4  -2    2.35    0.21
  -8  -4   2    1.73    0.21
  -8  -4   2    1.73    0.18
   7   4  -2   10.97    0.56
   7   4  -2   10.47    0.62
  -7  -4   2   10.52    0.65
  -7  -4   2   11.16    0.58
   6   4  -2    0.54    0.08
   6   4  -2    0.86    0.10
  -6  -4   2    0.45    0.08
  -6  -4   2    0.37    0.09
   5   4  -2    6.53    0.36
   5   4  -2    5.76    0.31
   5   4  -2    5.12    0.29
  -5  -4   2    5.60    0.36
  -5  -4   2    5.22    0.30
   4   4  -2   66.18    3.24
   4   4  -2   63.49    2.87
  -4  -4   2   67.83    3.00
  -4  -4   2   65.69    3.24
   3   4  -2    5.42    0.30
   3   4  -2    4.92    0.32
  -3  -4   2    6.32    0.20
   2   4  -2    0.02    0.01
   2   4  -2    0.00    0.02
  -2  -4   2    0.04    0.02
   1   4  -2   14.87    0.51
   1   4  -2   12.58    0.62
  -1  -4   2   14.54    0.58
  -1  -4   2   15.97    0.77
   0   4  -2   85.24    2.76
   0   4  -2   74.56    3.32
   0  -4   2   79.00    3.06
   0  -4   2   81.88    3.94
  -1   4  -2   32.82    1.40
  -1   4  -2   32.19    1.42
   1  -4   2   32.81    1.29
   1  -4   2   31.71    1.85
   1  -4   2   35.12    1.69
  -2   4  -2    1.83    0.13
  -2   4  -2    1.71    0.12
   2  -4   2    1.86    0.11
   2  -4   2    1.57    0.16
   2  -4   2    1.86    0.18
  -3   4  -2    9.15    0.42
  -3   4  -2    7.42    0.41
   3  -4   2    8.22    0.36
   3  -4   2    7.55    0.55
   3  -4   2    9.19    0.53
  -4   4  -2    2.14    0.16
   4  -4   2    1.27    0.18
   4  -4   2    2.21    0.22
   4  -4   2    1.94    0.10
  -5   4  -2    2.35    0.19
  -5   4  -2    1.87    0.17
  -5   4  -2    2.13    0.21
   5  -4   2    2.53    0.24
   5  -4   2    1.89    0.22
  -6   4  -2    0.03    0.07
  -6   4  -2    0.04    0.06
  -6   4  -2    0.02    0.05
   6  -4   2    0.00    0.07
   6  -4   2   -0.01    0.05
  -7   4  -2    0.10    0.08
  -7   4  -2    0.03    0.07
  -7   4  -2    0.03    0.08
   7  -4   2    0.03    0.07
   7  -4   2   -0.01    0.07
   9   3  -2    0.64    0.13
  -9  -3   2    0.76    0.14
  -9  -3   2    0.88    0.16
   8   3  -2    5.06    0.32
   8   3  -2    5.22    0.37
  -8  -3   2    5.03    0.39
  -8  -3   2    5.95    0.37
   7   3  -2   14.07    0.69
   7   3  -2   14.41    0.80
   7   3  -2   14.85    0.70
  -7  -3   2   14.58    0.82
  -7  -3   2   13.17    0.74
   6   3  -2   18.92    0.96
   6   3  -2   17.07    0.82
   6   3  -2   19.17    0.84
  -6  -3   2   17.55    0.96
  -6  -3   2   15.97    0.87
   5   3  -2   12.70    0.62
   5   3  -2   13.07    0.71
   5   3  -2   13.27    0.61
  -5  -3   2   12.46    0.71
  -5  -3   2   13.22    0.65
   4   3  -2   35.44    1.60
   4   3  -2   37.17    1.86
   4   3  -2   34.67    1.64
  -4  -3   2   39.29    1.87
  -4  -3   2   39.27    1.72
   3   3  -2   40.40    1.96
   3   3  -2   37.85    1.74
  -3  -3   2   41.38    1.97
  -3  -3   2   38.79    1.81
   2   3  -2   85.99    4.16
  -2  -3   2   85.70    2.95
  -2  -3   2   85.20    4.17
   1   3  -2  447.21   15.07
   1   3  -2  429.69   15.07
  -1  -3   2  434.15   15.10
  -1  -3   2  447.46   21.38
   0   3  -2    8.44    0.38
   0  -3   2    8.65    0.35
   0  -3   2    8.33    0.47
  -1   3  -2  127.07    5.67
  -1   3  -2  143.09    5.58
   1  -3   2  141.73    6.58
   1  -3   2  128.78    5.13
  -2   3  -2   11.08    0.51
  -2   3  -2   10.35    0.50
   2  -3   2   11.33    0.66
   2  -3   2   11.11    0.45
   2  -3   2   10.45    0.60
  -3   3  -2    1.71    0.14
   3  -3   2    1.65    0.17
   3  -3   2    2.49    0.19
   3  -3   2    2.02    0.11
  -4   3  -2    1.22    0.11
  -4   3  -2    0.68    0.09
   4  -3   2    1.27    0.15
   4  -3   2    0.90    0.13
  -5   3  -2   -0.02    0.05
  -5   3  -2   -0.01    0.06
  -5   3  -2    0.08    0.05
   5  -3   2   -0.04    0.04
   5  -3   2    0.04    0.05
  -6   3  -2    0.60    0.11
  -6   3  -2    0.46    0.09
  -6   3  -2    0.45    0.12
   6  -3   2    0.47    0.12
   6  -3   2    0.72    0.13
  -7   3  -2    0.31    0.10
  -7   3  -2    0.32    0.09
  -7   3  -2    0.50    0.13
   7  -3   2    0.54    0.12
   7  -3   2    0.39    0.12
   9   2  -2    0.58    0.13
  -9  -2   2    0.51    0.13
   8   2  -2    0.04    0.06
   8   2  -2    0.00    0.03
  -8  -2   2    0.01    0.07
   7   2  -2   17.73    0.98
   7   2  -2   18.21    0.84
   7   2  -2   17.99    0.99
   7   2  -2   17.39    0.85
  -7  -2   2   17.17    0.91
   6   2  -2    5.55    0.32
   6   2  -2    5.64    0.37
   6   2  -2    5.95    0.33
   6   2  -2    5.29    0.34
  -6  -2   2    6.33    0.35
   5   2  -2    3.55    0.21
   5   2  -2    2.40    0.19
   5   2  -2    3.24    0.23
   5   2  -2    3.44    0.20
   4   2  -2   50.62    2.33
   4   2  -2   55.75    2.30
   4   2  -2   53.97    2.65
  -4  -2   2   53.88    2.47
   3   2  -2   47.09    2.47
  -3  -2   2   53.29    2.30
  -3  -2   2   50.05    2.47
   2   2  -2   23.18    1.14
  -2  -2   2   22.43    1.14
   1   2  -2   19.28    1.04
   1   2  -2   21.69    0.72
  -1  -2   2   21.93    1.04
  -1  -2   2   20.74    0.72
   0  -2   2   10.83    0.56
   1  -2   2   49.46    1.95
   1  -2   2   52.95    2.51
  -2   2  -2   15.74    0.71
  -2   2  -2   15.97    0.72
   2  -2   2   16.42    0.92
   2  -2   2   16.19    0.84
   2  -2   2   15.98    0.63
  -3   2  -2    0.83    0.08
  -3   2  -2    1.10    0.09
   3  -2   2    0.75    0.05
   3  -2   2    1.14    0.11
   3  -2   2    0.62    0.09
  -4   2  -2    0.47    0.07
  -4   2  -2    0.28    0.06
   4  -2   2    0.50    0.09
   4  -2   2    0.59    0.09
  -5   2  -2    1.94    0.16
  -5   2  -2    1.83    0.15
   5  -2   2    2.16    0.19
   5  -2   2    1.65    0.18
  -6   2  -2    2.86    0.21
  -6   2  -2    2.45    0.20
  -6   2  -2    2.67    0.24
   6  -2   2    2.74    0.25
   6  -2   2    3.07    0.25
  -7   2  -2    0.44    0.10
  -7   2  -2    0.51    0.11
  -7   2  -2    0.62    0.14
   7  -2   2    0.61    0.12
   7  -2   2    0.46    0.12
  -8   2  -2    1.16    0.16
  -8   2  -2    0.57    0.12
  -8   2  -2    0.65    0.15
   8  -2   2    0.86    0.16
   9   1  -2    0.16    0.09
   9   1  -2    0.12    0.05
  -9  -1   2    0.03    0.09
   8   1  -2   28.75    1.61
   8   1  -2   28.88    1.55
  -8  -1   2   29.39    1.46
   7   1  -2   35.15    1.84
   7   1  -2   35.01    1.96
  -7  -1   2   36.12    1.73
   6   1  -2  158.04    7.16
   6   1  -2  159.91    8.98
   6   1  -2  166.29    8.13
   6   1  -2  169.48    7.06
  -6  -1   2  180.55    7.62
   5   1  -2   33.72    1.86
   5   1  -2   33.38    1.72
   5   1  -2   33.07    1.50
   5   1  -2   34.81    1.50
  -5  -1   2   33.92    1.44
  -5  -1   2   34.33    1.61
   4   1  -2  299.30   12.08
   4   1  -2  291.22   15.37
   4   1  -2  279.43   13.85
   4   1  -2  271.89   12.24
  -4  -1   2  279.19   12.89
   3   1  -2    0.35    0.06
   3   1  -2    0.45    0.06
  -3  -1   2    0.46    0.06
   2   1  -2   29.64    1.52
  -2  -1   2   31.85    1.42
   1   1  -2  364.02   17.66
  -1  -1   2  368.22   12.72
  -1  -1   2  358.58   17.66
   0  -1   2   44.96    1.55
   1  -1   2  363.47   13.81
   1  -1   2  363.94   17.68
  -2   1  -2   76.18    3.42
   2  -1   2   81.59    3.09
   2  -1   2   85.92    3.95
  -3   1  -2    0.27    0.05
  -3   1  -2    0.22    0.04
   3  -1   2    0.25    0.05
   3  -1   2    0.26    0.05
  -4   1  -2   59.59    2.45
  -4   1  -2   56.85    2.49
   4  -1   2   57.11    3.17
   4  -1   2   59.29    2.88
  -5   1  -2    0.08    0.05
  -5   1  -2    0.12    0.04
   5  -1   2    0.09    0.04
   5  -1   2    0.07    0.05
  -6   1  -2    2.10    0.17
  -6   1  -2    2.25    0.18
   6  -1   2    2.01    0.20
   6  -1   2    2.24    0.19
  -7   1  -2    2.22    0.24
  -7   1  -2    2.90    0.22
  -7   1  -2    3.60    0.24
   7  -1   2    3.75    0.27
   7  -1   2    3.05    0.27
  -8   1  -2    0.13    0.10
  -8   1  -2    0.07    0.07
  -8   1  -2    0.23    0.09
   8  -1   2    0.13    0.07
   8  -1   2    0.29    0.10
  -9   1  -2    0.06    0.10
  -9   1  -2    0.15    0.08
  -9   1  -2    0.01    0.07
   9  -1   2    0.11    0.07
   9  -1   2    0.06    0.08
   9   0  -2    1.04    0.13
   9   0  -2    1.17    0.18
  -9   0   2    0.94    0.18
   8   0  -2   11.39    0.69
   8   0  -2   10.85    0.70
  -8   0   2   11.73    0.67
   7   0  -2    1.96    0.21
   7   0  -2    1.88    0.17
  -7   0   2    1.49    0.19
   6   0  -2   33.59    1.78
   6   0  -2   33.53    1.91
   6   0  -2   35.76    1.56
  -6   0   2   35.58    1.67
  -6   0   2   33.33    1.48
   5   0  -2    8.87    0.43
   5   0  -2    9.16    0.53
   5   0  -2    8.59    0.46
   5   0  -2    8.84    0.53
  -5   0   2    8.83    0.41
  -5   0   2    7.70    0.47
   4   0  -2    8.11    0.43
   4   0  -2    6.21    0.36
   4   0  -2    6.96    0.42
   4   0  -2    7.84    0.35
  -4   0   2    6.40    0.33
  -4   0   2    5.83    0.38
   3   0  -2    0.17    0.05
   3   0  -2    0.17    0.05
   3   0  -2    0.28    0.05
  -3   0   2    0.19    0.05
   2   0  -2  285.79   13.80
  -2   0   2  278.36   12.79
   1   0  -2  255.48   12.52
  -1   0   2  258.92    8.83
   0   0   2    3.13    0.11
  -3   0  -2   15.57    0.69
  -3   0  -2   15.68    0.70
   3   0   2   16.03    0.69
   3   0   2   15.51    0.88
  -4   0  -2   66.88    2.96
  -4   0  -2   73.90    2.92
   4   0   2   68.07    3.77
   4   0   2   69.55    3.42
   4   0   2   69.99    2.91
  -5   0  -2    2.95    0.19
  -5   0  -2    3.18    0.20
   5   0   2    3.06    0.22
   5   0   2    3.38    0.23
   5   0   2    2.96    0.19
  -6   0  -2    0.20    0.06
  -6   0  -2    0.33    0.07
   6   0   2    0.24    0.07
   6   0   2    0.16    0.05
  -7   0  -2    0.04    0.05
  -7   0  -2    0.03    0.07
  -7   0  -2    0.07    0.06
   7   0   2    0.06    0.05
   7   0   2    0.11    0.05
  -8   0  -2    0.04    0.08
  -8   0  -2    0.07    0.06
  -8   0  -2    0.00    0.06
   8   0   2    0.04    0.06
   8   0   2    0.03    0.04
  -9   0  -2    0.24    0.10
  -9   0  -2    0.30    0.12
  -9   0  -2    0.29    0.09
   9   0   2    0.19    0.07
   9   0   2    0.32    0.11
   8  -1  -2    1.49    0.21
   8  -1  -2    1.38    0.16
  -8   1   2    1.24    0.19
   7  -1  -2    0.08    0.06
   7  -1  -2    0.15    0.09
  -7   1   2    0.19    0.09
   6  -1  -2    0.12    0.05
   6  -1  -2    0.14    0.08
   6  -1  -2    0.15    0.08
  -6   1   2    0.26    0.06
  -6   1   2    0.19    0.09
   5  -1  -2    0.12    0.06
   5  -1  -2    0.01    0.05
   5  -1  -2    0.09    0.05
  -5   1   2    0.09    0.04
   4  -1  -2   31.06    1.78
   4  -1  -2   32.04    1.64
   4  -1  -2   33.06    1.42
  -4   1   2   32.48    1.36
  -4   1   2   30.88    1.52
   3  -1  -2   54.69    3.26
   3  -1  -2   58.07    2.96
   3  -1  -2   61.93    2.57
  -3   1   2   60.29    2.77
  -3   1   2   64.91    2.50
   2  -1  -2  111.95    4.43
   2  -1  -2  102.65    4.00
   2  -1  -2  101.52    5.66
   2  -1  -2  103.11    5.11
  -2   1   2  105.47    4.77
   1  -1  -2    4.65    0.20
   1  -1  -2    4.83    0.27
  -1   1   2    4.53    0.24
  -1   1   2    4.63    0.17
   0   1   2  204.55    7.03
   3   1   2    0.25    0.04
  -4  -1  -2  183.06    7.86
  -4  -1  -2  191.34    7.77
   4   1   2  187.97    7.77
   4   1   2  187.28   10.15
  -5  -1  -2    0.20    0.05
  -5  -1  -2    0.12    0.04
   5   1   2    0.20    0.04
   5   1   2    0.16    0.04
   5   1   2    0.11    0.04
  -6  -1  -2    0.03    0.04
  -6  -1  -2    0.08    0.04
   6   1   2    0.06    0.03
   6   1   2    0.04    0.03
   6   1   2    0.08    0.05
  -7  -1  -2    0.16    0.06
  -7  -1  -2    0.08    0.07
  -7  -1  -2    0.17    0.06
   7   1   2    0.17    0.04
   7   1   2    0.15    0.06
   7   1   2    0.21    0.06
  -8  -1  -2   10.99    0.66
  -8  -1  -2   11.87    0.60
  -8  -1  -2   12.19    0.61
   8   1   2   11.05    0.68
   8   1   2   12.16    0.68
  -9  -1  -2    0.08    0.09
  -9  -1  -2    0.09    0.07
  -9  -1  -2    0.13    0.07
   9   1   2    0.10    0.08
   9   1   2    0.10    0.05
 -10  -1  -2    1.68    0.19
 -10  -1  -2    1.46    0.22
 -10  -1  -2    1.23    0.17
  10   1   2    1.57    0.14
   8  -2  -2    0.09    0.07
   8  -2  -2    0.13    0.09
  -8   2   2   -0.02    0.10
   7  -2  -2    0.00    0.05
   7  -2  -2    0.01    0.07
  -7   2   2    0.00    0.08
   6  -2  -2    7.01    0.45
   6  -2  -2    6.35    0.45
  -6   2   2    5.74    0.34
  -6   2   2    5.74    0.40
   5  -2  -2    0.87    0.14
   5  -2  -2    0.89    0.12
  -5   2   2    0.92    0.13
  -5   2   2    0.87    0.09
   4  -2  -2    0.95    0.12
   4  -2  -2    0.83    0.11
   4  -2  -2    0.80    0.12
  -4   2   2    1.06    0.12
   3  -2  -2    0.68    0.09
   3  -2  -2    0.50    0.09
  -3   2   2    0.77    0.07
  -3   2   2    0.79    0.09
  -3   2   2    0.54    0.04
   2  -2  -2  124.56    5.09
   2  -2  -2  119.21    5.87
   2  -2  -2  123.38    4.57
   2  -2  -2  111.09    6.50
  -2   2   2  123.12    4.97
  -2   2   2  119.50    4.15
  -2   2   2  122.16    5.48
   1  -2  -2   24.29    0.94
   1  -2  -2   24.43    1.22
   1  -2  -2   23.41    1.05
  -1   2   2   24.52    0.84
  -1   2   2   23.65    1.12
   0  -2  -2  120.36    4.64
   0  -2  -2  121.98    5.90
   0   2   2  122.88    4.20
   1   2   2   53.19    2.10
   1   2   2   57.15    1.90
  -3  -2  -2    0.07    0.02
  -4  -2  -2  148.46    6.32
   4   2   2  151.97    7.31
   4   2   2  151.13    6.21
  -5  -2  -2    3.37    0.20
   5   2   2    3.34    0.20
   5   2   2    3.54    0.20
  -6  -2  -2   20.95    0.90
  -6  -2  -2   20.09    0.91
   6   2   2   18.87    0.90
   6   2   2   19.99    1.09
   6   2   2   20.30    0.89
  -7  -2  -2    0.02    0.04
  -7  -2  -2    0.13    0.05
   7   2   2    0.04    0.04
   7   2   2    0.09    0.02
   7   2   2    0.05    0.04
  -8  -2  -2   11.86    0.61
  -8  -2  -2   11.57    0.60
  -8  -2  -2   13.69    0.69
   8   2   2   11.32    0.58
   8   2   2   11.92    0.68
   8   2   2   11.28    0.66
  -9  -2  -2    0.35    0.10
  -9  -2  -2    0.41    0.10
  -9  -2  -2    0.38    0.11
 -10  -2  -2    2.62    0.23
 -10  -2  -2    2.33    0.25
   7  -3  -2    0.30    0.10
   7  -3  -2    0.26    0.12
  -7   3   2    0.49    0.14
  -7   3   2    0.32    0.09
   6  -3  -2    3.62    0.32
   6  -3  -2    3.43    0.31
  -6   3   2    3.56    0.24
  -6   3   2    3.50    0.29
   5  -3  -2    3.09    0.30
   5  -3  -2    3.52    0.31
  -5   3   2    4.08    0.29
  -5   3   2    4.00    0.24
   4  -3  -2    0.14    0.07
   4  -3  -2    0.13    0.06
   4  -3  -2    0.36    0.08
  -4   3   2    0.17    0.05
  -4   3   2    0.14    0.07
   3  -3  -2    1.12    0.14
   3  -3  -2    1.10    0.13
   3  -3  -2    1.00    0.11
   3  -3  -2    1.13    0.07
  -3   3   2    0.83    0.09
  -3   3   2    0.93    0.11
  -3   3   2    1.02    0.07
   2  -3  -2  138.46    6.58
   2  -3  -2  140.80    5.70
   2  -3  -2  136.58    5.12
   2  -3  -2  131.75    7.29
  -2   3   2  134.34    5.57
  -2   3   2  132.38    4.63
  -2   3   2  129.05    6.13
   1  -3  -2    0.53    0.08
   1  -3  -2    0.30    0.05
   1  -3  -2    0.38    0.07
  -1   3   2    0.37    0.05
  -1   3   2    0.44    0.04
  -1   3   2    0.31    0.05
  -1   3   2    0.41    0.04
   0  -3  -2   -0.02    0.02
   0  -3  -2    0.01    0.02
   0   3   2    0.01    0.02
   0   3   2    0.01    0.02
   0   3   2    0.08    0.02
   0   3   2   -0.02    0.01
  -1  -3  -2   36.72    1.78
   1   3   2   36.17    1.51
   1   3   2   36.02    1.24
   1   3   2   35.17    1.38
  -2  -3  -2  216.72   10.36
   2   3   2  207.62    8.28
  -3  -3  -2   41.31    2.02
   3   3   2   39.89    2.01
   3   3   2   42.52    1.73
  -4  -3  -2   24.14    1.23
   4   3   2   25.12    1.23
   4   3   2   25.21    1.07
  -5  -3  -2   13.47    0.66
  -5  -3  -2   11.64    0.56
   5   3   2   12.41    0.56
   5   3   2   12.43    0.64
   5   3   2   11.74    0.58
  -6  -3  -2   16.17    0.82
  -6  -3  -2   14.88    0.71
   6   3   2   14.72    0.70
   6   3   2   15.40    0.72
  -7  -3  -2    2.98    0.20
  -7  -3  -2    3.53    0.24
  -7  -3  -2    3.51    0.21
  -7  -3  -2    3.42    0.23
   7   3   2    2.33    0.21
   7   3   2    2.94    0.19
   7   3   2    2.95    0.19
  -8  -3  -2    4.73    0.29
  -8  -3  -2    4.39    0.31
  -8  -3  -2    4.53    0.28
   8   3   2    4.11    0.27
   8   3   2    4.58    0.31
  -9  -3  -2    0.14    0.08
  -9  -3  -2    0.13    0.07
  -9  -3  -2    0.08    0.06
   9   3   2    0.11    0.06
 -10  -3  -2    0.05    0.07
 -10  -3  -2    0.02    0.08
   6  -4  -2    0.87    0.16
   6  -4  -2    0.70    0.16
  -6   4   2    0.59    0.10
  -6   4   2    0.73    0.15
   5  -4  -2    0.02    0.07
   5  -4  -2    0.16    0.09
  -5   4   2    0.01    0.05
  -5   4   2    0.07    0.08
   4  -4  -2    4.23    0.34
   4  -4  -2    3.75    0.33
  -4   4   2    4.16    0.29
  -4   4   2    4.29    0.25
   3  -4  -2    0.17    0.07
   3  -4  -2    0.32    0.08
   3  -4  -2    0.16    0.03
   3  -4  -2    0.13    0.07
  -3   4   2    0.13    0.03
  -3   4   2    0.23    0.07
  -3   4   2    0.17    0.05
   2  -4  -2   25.91    1.14
   2  -4  -2   26.05    1.34
   2  -4  -2   23.87    1.45
   2  -4  -2   25.02    1.00
  -2   4   2   25.29    1.10
  -2   4   2   25.01    1.21
  -2   4   2   25.17    0.89
   1  -4  -2    1.23    0.11
   1  -4  -2    1.50    0.10
   1  -4  -2    1.35    0.14
  -1   4   2    1.20    0.10
  -1   4   2    1.18    0.08
  -1   4   2    1.21    0.07
   0  -4  -2    2.03    0.17
   0  -4  -2    2.18    0.13
   0  -4  -2    2.17    0.12
   0   4   2    2.04    0.13
   0   4   2    2.04    0.13
   0   4   2    2.20    0.15
   0   4   2    2.15    0.09
   0   4   2    1.95    0.11
  -1  -4  -2   16.02    0.81
  -1  -4  -2   14.74    0.62
   1   4   2   15.49    0.67
   1   4   2   15.52    0.54
   1   4   2   15.37    0.61
  -2  -4  -2   88.23    4.21
   2   4   2   89.45    3.58
   2   4   2   84.06    3.27
   2   4   2   83.61    3.73
  -3  -4  -2   41.53    1.96
   3   4   2   38.47    1.67
   3   4   2   38.80    1.75
  -4  -4  -2   10.88    0.57
   4   4   2   10.22    0.52
   4   4   2   11.16    0.49
  -5  -4  -2   11.40    0.52
  -5  -4  -2   13.26    0.62
   5   4   2   12.19    0.53
   5   4   2   12.00    0.56
   5   4   2   10.42    0.64
   5   4   2    9.76    0.59
  -6  -4  -2   22.38    1.15
  -6  -4  -2   22.56    0.99
   6   4   2   21.68    1.03
   6   4   2   22.64    0.99
  -7  -4  -2   46.43    2.15
  -7  -4  -2   47.04    2.30
  -7  -4  -2   46.66    1.99
   7   4   2   45.02    1.96
   7   4   2   43.86    2.03
  -8  -4  -2    1.03    0.12
  -8  -4  -2    1.15    0.14
  -8  -4  -2    0.91    0.11
  -8  -4  -2    1.01    0.13
   8   4   2    0.89    0.11
   8   4   2    0.71    0.11
   8   4   2    0.79    0.10
  -9  -4  -2   24.88    1.21
  -9  -4  -2   23.73    1.12
  -9  -4  -2   24.25    1.11
   9   4   2   23.02    1.09
 -10  -4  -2    0.16    0.08
 -10  -4  -2    0.12    0.09
   5  -5  -2    0.14    0.09
   5  -5  -2    0.18    0.10
  -5   5   2    0.21    0.09
  -5   5   2    0.21    0.10
   4  -5  -2    8.21    0.57
   4  -5  -2    8.56    0.59
  -4   5   2    8.34    0.50
  -4   5   2    7.88    0.43
   3  -5  -2    3.05    0.16
   3  -5  -2    3.09    0.28
   3  -5  -2    2.75    0.27
  -3   5   2    3.18    0.24
  -3   5   2    3.04    0.20
  -3   5   2    3.11    0.15
   2  -5  -2    0.99    0.15
   2  -5  -2    1.18    0.12
   2  -5  -2    1.31    0.16
   2  -5  -2    1.05    0.09
  -2   5   2    1.33    0.12
  -2   5   2    1.37    0.13
  -2   5   2    1.30    0.08
   1  -5  -2   11.91    0.82
   1  -5  -2   13.69    0.63
   1  -5  -2   13.69    0.57
   1  -5  -2   13.38    0.76
  -1   5   2   13.39    0.55
  -1   5   2   13.08    0.49
  -1   5   2   13.09    0.65
  -1   5   2   13.77    0.67
  -1   5   2   14.51    0.62
   0  -5  -2   30.75    1.21
   0  -5  -2   30.87    1.58
   0  -5  -2   31.30    1.34
   0   5   2   32.11    1.32
   0   5   2   30.09    1.07
   0   5   2   29.70    1.42
   0   5   2   29.78    1.20
   0   5   2   30.69    1.38
  -1  -5  -2    7.50    0.46
  -1  -5  -2    7.93    0.34
   1   5   2    7.62    0.40
   1   5   2    7.73    0.37
   1   5   2    7.73    0.33
   1   5   2    7.90    0.29
  -2  -5  -2    0.06    0.04
  -2  -5  -2    0.10    0.03
   2   5   2    0.12    0.04
   2   5   2    0.07    0.01
   2   5   2    0.06    0.02
   2   5   2    0.07    0.03
  -3  -5  -2    2.95    0.20
   3   5   2    2.46    0.18
   3   5   2    2.65    0.16
  -4  -5  -2    0.15    0.05
   4   5   2    0.30    0.05
   4   5   2    0.29    0.06
  -5  -5  -2   76.11    3.56
   5   5   2   70.88    3.04
   5   5   2   70.74    3.17
  -6  -5  -2    0.08    0.05
   6   5   2    0.03    0.03
   6   5   2    0.01    0.04
   6   5   2    0.00    0.02
  -7  -5  -2    9.36    0.49
   7   5   2    7.60    0.41
   7   5   2    7.35    0.43
  -8  -5  -2    1.03    0.13
   8   5   2    0.93    0.11
   8   5   2    0.80    0.10
   8   5   2    0.71    0.10
   9   5   2    5.88    0.35
   4  -6  -2    0.51    0.14
   4  -6  -2    0.34    0.12
  -4   6   2    0.32    0.09
   3  -6  -2    0.94    0.17
   3  -6  -2    1.02    0.09
  -3   6   2    0.89    0.08
  -3   6   2    0.84    0.11
   2  -6  -2    0.01    0.06
   2  -6  -2    0.13    0.05
  -2   6   2   -0.03    0.04
  -2   6   2    0.06    0.06
  -2   6   2    0.04    0.05
   1  -6  -2    0.20    0.08
   1  -6  -2    0.14    0.05
  -1   6   2    0.16    0.04
  -1   6   2    0.12    0.04
  -1   6   2    0.16    0.06
   0  -6  -2    8.55    0.54
   0  -6  -2    8.44    0.39
   0   6   2    8.88    0.42
   0   6   2    8.38    0.33
   0   6   2    8.57    0.45
   0   6   2    8.68    0.37
  -1  -6  -2    8.08    0.37
  -1  -6  -2    8.58    0.52
   1   6   2    8.23    0.44
   1   6   2    8.33    0.36
   1   6   2    8.27    0.31
   1   6   2    8.40    0.40
  -2  -6  -2   68.35    3.13
   2   6   2   55.10    2.15
   2   6   2   61.45    2.39
   2   6   2   64.37    2.76
   2   6   2   65.14    2.63
  -3  -6  -2   14.26    0.77
   3   6   2   13.52    0.69
   3   6   2   14.25    0.64
   3   6   2   13.96    0.54
  -4  -6  -2   66.06    3.25
   4   6   2   62.69    2.89
   4   6   2   68.46    2.76
  -5  -6  -2    1.03    0.12
   5   6   2    0.59    0.08
   5   6   2    0.84    0.11
  -6  -6  -2   13.48    0.72
   6   6   2   12.81    0.66
   6   6   2   13.06    0.62
  -7  -6  -2    9.10    0.54
   7   6   2    9.99    0.53
   7   6   2    8.68    0.50
   7   6   2    9.38    0.47
   8   6   2    0.01    0.05
   8   6   2    0.01    0.04
   8   6   2   -0.02    0.04
   9   6   2   14.88    0.75
   3  -7  -2    0.46    0.14
   3  -7  -2    0.53    0.07
  -3   7   2    0.55    0.11
   2  -7  -2   12.03    0.55
   2  -7  -2   12.91    0.80
  -2   7   2   12.58    0.62
  -2   7   2   12.61    0.55
   1  -7  -2    3.90    0.22
   1  -7  -2    3.34    0.32
  -1   7   2    3.78    0.18
  -1   7   2    3.83    0.21
  -1   7   2    4.11    0.25
   0  -7  -2  125.50    4.79
   0  -7  -2  122.56    6.16
   0   7   2  124.60    4.30
   0   7   2  129.01    5.20
   0   7   2  121.80    4.76
   0   7   2  125.72    5.42
  -1  -7  -2    0.11    0.04
  -1  -7  -2    0.05    0.07
   1   7   2    0.10    0.05
   1   7   2    0.06    0.06
   1   7   2    0.14    0.03
   1   7   2    0.14    0.04
  -2  -7  -2  182.85    8.81
   2   7   2  178.27    7.46
   2   7   2  178.60    6.84
   2   7   2  181.90    7.78
  -3  -7  -2    1.47    0.17
   3   7   2    1.32    0.08
   3   7   2    1.44    0.15
   3   7   2    1.49    0.13
  -4  -7  -2   11.43    0.62
   4   7   2    9.72    0.55
   4   7   2    9.94    0.50
  -5  -7  -2   18.00    0.99
   5   7   2   19.27    0.84
   5   7   2   17.94    0.90
  -6  -7  -2   20.54    1.12
   6   7   2   21.53    1.02
   6   7   2   21.49    0.96
  -7  -7  -2    5.93    0.37
   7   7   2    4.79    0.33
   7   7   2    5.05    0.30
   8   7   2    1.15    0.12
   8   7   2    1.12    0.14
   9   7   2    2.04    0.19
  10   7   2    0.28    0.09
   2  -8  -2    0.86    0.18
   2  -8  -2    1.18    0.11
  -2   8   2    1.25    0.12
  -2   8   2    1.09    0.14
   1  -8  -2    0.86    0.17
   1  -8  -2    0.87    0.10
  -1   8   2    0.83    0.09
  -1   8   2    0.87    0.12
   0  -8  -2    3.28    0.21
   0  -8  -2    3.03    0.29
   0   8   2    3.09    0.15
   0   8   2    3.29    0.22
   0   8   2    2.96    0.18
  -1  -8  -2   -0.01    0.06
  -1  -8  -2    0.00    0.04
   1   8   2   -0.01    0.03
   1   8   2    0.06    0.04
   1   8   2    0.00    0.04
   1   8   2   -0.03    0.05
  -2  -8  -2    1.59    0.20
   2   8   2    1.80    0.18
   2   8   2    2.03    0.16
   2   8   2    2.00    0.12
  -3  -8  -2    2.05    0.21
   3   8   2    1.99    0.16
   3   8   2    2.04    0.11
   3   8   2    1.79    0.18
  -4  -8  -2    8.05    0.51
   4   8   2    7.86    0.41
   4   8   2    7.85    0.46
  -5  -8  -2    1.14    0.15
   5   8   2    1.18    0.12
   5   8   2    1.17    0.14
  -6  -8  -2    0.37    0.10
   6   8   2    0.20    0.06
   6   8   2    0.17    0.08
  -7  -8  -2    0.16    0.08
   7   8   2    0.11    0.05
   7   8   2    0.25    0.09
   8   8   2    3.77    0.29
   9   8   2    1.21    0.16
  10   8   2    2.50    0.23
   1  -9  -2    2.40    0.18
   1  -9  -2    2.23    0.27
  -1   9   2    2.37    0.21
  -1   9   2    2.42    0.17
   0  -9  -2    3.04    0.21
   0  -9  -2    3.28    0.32
   0   9   2    2.87    0.22
   0   9   2    3.04    0.19
  -1  -9  -2    0.01    0.06
  -1  -9  -2    0.00    0.04
   1   9   2    0.00    0.04
   1   9   2    0.05    0.05
  -2  -9  -2   14.64    0.90
   2   9   2   15.31    0.62
   2   9   2   15.09    0.72
   2   9   2   14.72    0.78
  -3  -9  -2    3.19    0.30
   3   9   2    3.15    0.16
   3   9   2    3.32    0.22
   3   9   2    3.19    0.26
  -4  -9  -2    8.51    0.56
   4   9   2    8.22    0.49
   4   9   2    8.28    0.44
  -5  -9  -2    2.53    0.25
   5   9   2    2.71    0.23
   5   9   2    2.48    0.19
  -6  -9  -2    0.85    0.15
   6   9   2    1.16    0.13
   6   9   2    0.93    0.14
  -7  -9  -2    1.02    0.16
   7   9   2    1.15    0.16
   7   9   2    1.30    0.14
   8   9   2    1.29    0.17
   9   9   2    0.89    0.15
  -1 -10  -2    0.35    0.13
  -1 -10  -2    0.36    0.09
   1  10   2    0.34    0.09
   1  10   2    0.32    0.07
  -2 -10  -2    0.01    0.07
   2  10   2    0.08    0.06
   2  10   2    0.04    0.04
  -3 -10  -2    3.61    0.34
   3  10   2    3.83    0.26
   3  10   2    3.91    0.19
   3  10   2    3.77    0.30
  -4 -10  -2    0.92    0.17
   4  10   2    1.05    0.13
   4  10   2    1.03    0.15
  -5 -10  -2    1.53    0.21
   5  10   2    1.90    0.17
   5  10   2    1.62    0.19
  -6 -10  -2    1.28    0.20
   6  10   2    2.11    0.18
   6  10   2    2.04    0.21
   7  10   2    0.05    0.08
   7  10   2    0.05    0.05
   8  10   2    0.49    0.13
  -5 -11  -2    1.43    0.23
   5  11   2    1.78    0.18
   5  11   2    1.82    0.21
  -6 -11  -2    0.19    0.11
   6  11   2    0.36    0.12
   6  11   2    0.23    0.08
   6  10  -3    0.85    0.14
  -6 -10   3    0.62    0.16
   5  10  -3    4.17    0.30
  -5 -10   3    3.41    0.34
   4  10  -3    0.39    0.11
  -4 -10   3    0.31    0.12
  -3 -10   3   -0.01    0.07
   2  10  -3    0.69    0.08
  -2 -10   3    0.54    0.15
   8   9  -3    1.56    0.18
  -8  -9   3    1.01    0.19
   7   9  -3    2.27    0.22
  -7  -9   3    2.40    0.26
   6   9  -3    1.23    0.16
  -6  -9   3    0.84    0.16
   5   9  -3    5.90    0.37
  -5  -9   3    5.02    0.41
   4   9  -3    0.89    0.13
  -4  -9   3    0.54    0.13
   3   9  -3    0.08    0.07
   3   9  -3    0.11    0.03
  -3  -9   3    0.10    0.08
   2   9  -3    0.30    0.05
   2   9  -3    0.41    0.08
  -2  -9   3    0.34    0.12
   1   9  -3    0.09    0.05
   1   9  -3    0.10    0.06
  -1  -9   3    0.05    0.08
  -1  -9   3    0.13    0.06
   0   9  -3    3.57    0.20
   0  -9   3    3.02    0.32
   0  -9   3    3.12    0.21
  -1   9  -3    2.13    0.16
  -1   9  -3    2.20    0.20
   1  -9   3    2.18    0.27
   1  -9   3    1.89    0.16
   9   8  -3    1.27    0.17
   9   8  -3    1.17    0.17
  -9  -8   3    1.12    0.19
   8   8  -3    0.33    0.10
   8   8  -3    0.27    0.09
  -8  -8   3    0.27    0.11
   7   8  -3    0.06    0.06
  -7  -8   3    0.13    0.09
   6   8  -3    0.13    0.08
  -6  -8   3    0.13    0.08
   5   8  -3    2.99    0.24
  -5  -8   3    2.88    0.27
   4   8  -3    0.12    0.06
  -4  -8   3    0.06    0.07
   3   8  -3    0.35    0.08
   3   8  -3    0.34    0.04
  -3  -8   3    0.39    0.11
   2   8  -3    5.07    0.32
   2   8  -3    5.24    0.25
   2   8  -3    5.78    0.30
  -2  -8   3    5.27    0.40
   1   8  -3    0.21    0.05
   1   8  -3    0.21    0.07
  -1  -8   3    0.24    0.10
  -1  -8   3    0.19    0.06
   0   8  -3    0.20    0.04
   0   8  -3    0.25    0.07
   0  -8   3    0.38    0.08
   0  -8   3    0.26    0.11
  -1   8  -3    0.27    0.08
   1  -8   3    0.24    0.06
   1  -8   3    0.27    0.11
  -2   8  -3    2.16    0.18
   2  -8   3    1.54    0.23
   2  -8   3    1.56    0.14
   9   7  -3    0.02    0.06
   9   7  -3   -0.02    0.06
  -9  -7   3   -0.02    0.08
   8   7  -3    0.05    0.06
   8   7  -3    0.05    0.07
  -8  -7   3    0.13    0.09
   7   7  -3    1.79    0.18
   7   7  -3    1.68    0.17
  -7  -7   3    1.31    0.19
   6   7  -3    1.07    0.14
   6   7  -3    1.05    0.13
   5   7  -3    0.73    0.11
  -5  -7   3    0.41    0.10
   4   7  -3    4.17    0.27
  -4  -7   3    3.65    0.29
   3   7  -3    6.72    0.38
   3   7  -3    6.30    0.26
  -3  -7   3    6.56    0.43
   2   7  -3    2.42    0.19
   2   7  -3    2.58    0.14
   2   7  -3    2.68    0.17
  -2  -7   3    3.15    0.25
   1   7  -3    1.91    0.14
   1   7  -3    1.76    0.09
  -1  -7   3    1.63    0.19
  -1  -7   3    1.85    0.14
   0   7  -3    9.24    0.36
   0   7  -3    9.65    0.47
   0  -7   3    9.31    0.61
   0  -7   3    9.77    0.44
  -1   7  -3    0.85    0.11
  -1   7  -3    0.86    0.07
   1  -7   3    0.78    0.09
   1  -7   3    0.87    0.16
  -2   7  -3    8.46    0.46
   2  -7   3    8.39    0.59
   2  -7   3    9.04    0.41
  -3   7  -3    0.45    0.10
   3  -7   3    0.53    0.07
   3  -7   3    0.35    0.12
  -4   7  -3    6.58    0.40
   4  -7   3    6.87    0.31
   4  -7   3    6.74    0.52
   9   6  -3    0.25    0.09
   9   6  -3    0.29    0.10
  -9  -6   3    0.12    0.10
   8   6  -3    0.85    0.13
   8   6  -3    0.66    0.12
  -8  -6   3    0.63    0.14
   7   6  -3    0.41    0.09
   7   6  -3    0.33    0.09
  -7  -6   3    0.35    0.11
   6   6  -3    1.37    0.15
   6   6  -3    1.25    0.14
   5   6  -3    1.38    0.14
   5   6  -3    1.33    0.14
  -5  -6   3    0.85    0.13
   4   6  -3    2.27    0.18
  -4  -6   3    2.27    0.20
   3   6  -3    0.68    0.09
  -3  -6   3    0.68    0.11
   2   6  -3    3.94    0.24
   2   6  -3    3.62    0.18
  -2  -6   3    4.46    0.30
   1   6  -3    0.01    0.03
   1   6  -3    0.04    0.04
   1   6  -3    0.03    0.02
  -1  -6   3    0.04    0.05
  -1  -6   3   -0.02    0.03
   0   6  -3    0.73    0.06
   0   6  -3    0.65    0.08
   0  -6   3    0.77    0.08
   0  -6   3    0.60    0.12
  -1   6  -3    0.70    0.06
  -1   6  -3    0.70    0.09
   1  -6   3    0.88    0.14
   1  -6   3    0.71    0.08
  -2   6  -3    8.67    0.34
  -2   6  -3    8.93    0.45
   2  -6   3    8.53    0.56
   2  -6   3    8.31    0.39
  -3   6  -3    1.42    0.15
   3  -6   3    1.68    0.20
   3  -6   3    1.54    0.12
  -4   6  -3    0.27    0.08
   4  -6   3    0.27    0.05
   4  -6   3    0.16    0.10
  -5   6  -3    0.29    0.09
   5  -6   3    0.41    0.14
   5  -6   3    0.35    0.13
   9   5  -3    1.37    0.16
   9   5  -3    1.34    0.17
  -9  -5   3    1.35    0.20
   8   5  -3    1.92    0.18
   8   5  -3    1.67    0.18
  -8  -5   3    1.91    0.22
   7   5  -3    0.33    0.08
   7   5  -3    0.43    0.09
  -7  -5   3    0.62    0.12
   6   5  -3    0.27    0.08
   6   5  -3    0.33    0.08
  -6  -5   3    0.30    0.09
   5   5  -3    0.19    0.06
   5   5  -3    0.18    0.06
  -5  -5   3    0.28    0.08
   4   5  -3    0.02    0.04
   4   5  -3    0.01    0.04
  -4  -5   3    0.05    0.04
   3   5  -3    2.02    0.15
   2   5  -3   26.17    1.20
   2   5  -3   26.31    1.12
  -2  -5   3   26.67    1.36
   1   5  -3   22.85    0.81
   1   5  -3   23.23    1.05
   1   5  -3   22.98    0.99
  -1  -5   3   22.79    0.92
  -1  -5   3   23.27    1.20
   0   5  -3    2.52    0.16
   0   5  -3    2.71    0.12
   0   5  -3    2.46    0.16
   0  -5   3    2.62    0.22
   0  -5   3    2.35    0.15
  -1   5  -3    0.05    0.03
  -1   5  -3    0.09    0.04
   1  -5   3    0.00    0.02
   1  -5   3    0.06    0.05
  -2   5  -3    0.04    0.04
  -2   5  -3    0.02    0.03
   2  -5   3   -0.03    0.02
   2  -5   3    0.02    0.05
   2  -5   3    0.04    0.05
  -3   5  -3    8.83    0.45
  -3   5  -3    8.10    0.45
   3  -5   3    9.39    0.62
   3  -5   3    8.60    0.56
   3  -5   3    9.27    0.39
  -4   5  -3    3.73    0.26
  -4   5  -3    4.37    0.27
  -4   5  -3    4.18    0.31
   4  -5   3    4.56    0.37
   4  -5   3    4.20    0.20
   4  -5   3    3.69    0.33
  -5   5  -3    0.08    0.07
  -5   5  -3    0.05    0.08
  -5   5  -3    0.11    0.07
   5  -5   3    0.11    0.09
   5  -5   3    0.10    0.08
  -6   5  -3    0.07    0.08
  -6   5  -3    0.06    0.07
  -6   5  -3    0.07    0.09
   6  -5   3    0.07    0.08
   6  -5   3    0.09    0.09
   9   4  -3    0.02    0.06
   9   4  -3    0.02    0.06
  -9  -4   3    0.06    0.09
  -9  -4   3    0.00    0.08
   8   4  -3    0.05    0.06
   8   4  -3    0.08    0.06
  -8  -4   3    0.10    0.08
  -8  -4   3    0.15    0.10
   7   4  -3    1.95    0.18
   7   4  -3    2.13    0.20
   7   4  -3    2.16    0.18
  -7  -4   3    2.43    0.23
  -7  -4   3    2.35    0.19
   6   4  -3    0.68    0.10
   6   4  -3    0.72    0.10
   6   4  -3    0.59    0.10
  -6  -4   3    0.75    0.10
  -6  -4   3    0.85    0.13
   5   4  -3   64.58    2.93
   5   4  -3   64.42    3.31
   5   4  -3   68.63    2.86
  -5  -4   3   69.72    3.07
  -5  -4   3   67.43    3.33
   4   4  -3   23.65    1.05
   4   4  -3   23.04    1.23
  -4  -4   3   25.23    1.12
  -4  -4   3   24.23    1.25
   3   4  -3  134.13    5.94
   3   4  -3  139.06    6.71
  -3  -4   3  138.74    6.72
  -3  -4   3  140.79    6.25
   2   4  -3  113.76    5.12
  -2  -4   3  119.94    5.79
  -2  -4   3  119.19    4.08
  -2  -4   3  122.80    5.38
   1   4  -3    0.44    0.03
   1   4  -3    0.42    0.04
  -1  -4   3    0.44    0.05
  -1  -4   3    0.47    0.07
  -1  -4   3    0.41    0.05
   0   4  -3    5.27    0.20
   0   4  -3    4.77    0.25
   0  -4   3    5.52    0.33
   0  -4   3    5.01    0.24
  -1   4  -3    0.01    0.03
  -1   4  -3    0.06    0.03
   1  -4   3    0.04    0.02
   1  -4   3    0.16    0.06
   1  -4   3    0.03    0.04
  -2   4  -3    0.52    0.07
  -2   4  -3    0.77    0.08
   2  -4   3    0.86    0.12
   2  -4   3    0.58    0.10
   2  -4   3    0.72    0.07
  -3   4  -3   11.56    0.57
  -3   4  -3   11.70    0.57
   3  -4   3   11.74    0.49
   3  -4   3   11.87    0.69
   3  -4   3   12.38    0.76
  -4   4  -3    9.46    0.48
  -4   4  -3    8.34    0.47
   4  -4   3    9.71    0.38
   4  -4   3    9.91    0.63
   4  -4   3    8.71    0.57
  -5   4  -3    0.12    0.06
  -5   4  -3    0.09    0.08
  -5   4  -3    0.11    0.06
   5  -4   3    0.19    0.09
   5  -4   3    0.14    0.08
  -6   4  -3    0.44    0.11
  -6   4  -3    0.68    0.11
  -6   4  -3    0.51    0.13
   6  -4   3    0.54    0.13
   6  -4   3    0.73    0.14
  -7   4  -3    0.05    0.09
  -7   4  -3    0.00    0.05
  -7   4  -3    0.01    0.06
   7  -4   3    0.05    0.08
   7  -4   3   -0.01    0.06
   9   3  -3    0.02    0.06
  -9  -3   3    0.05    0.08
  -9  -3   3    0.08    0.09
   8   3  -3    1.99    0.17
   8   3  -3    1.52    0.18
  -8  -3   3    1.48    0.17
  -8  -3   3    1.42    0.20
   7   3  -3    2.60    0.23
   7   3  -3    2.78    0.20
   7   3  -3    2.77    0.22
  -7  -3   3    2.59    0.25
  -7  -3   3    2.62    0.22
   6   3  -3    1.24    0.12
   6   3  -3    1.03    0.12
   6   3  -3    1.31    0.15
  -6  -3   3    1.25    0.13
  -6  -3   3    1.14    0.15
   5   3  -3    1.18    0.13
   5   3  -3    1.39    0.12
   5   3  -3    1.34    0.12
  -5  -3   3    1.39    0.15
  -5  -3   3    1.24    0.12
   4   3  -3    0.41    0.07
   4   3  -3    0.71    0.08
   4   3  -3    0.68    0.09
  -4  -3   3    0.91    0.08
  -4  -3   3    0.65    0.10
   3   3  -3    1.01    0.08
  -3  -3   3    0.94    0.08
  -3  -3   3    0.92    0.10
   2   3  -3   90.91    4.37
  -2  -3   3   86.85    4.07
  -2  -3   3   89.64    4.37
  -2  -3   3   91.72    3.08
   1   3  -3   46.45    1.64
  -1  -3   3   49.61    2.36
  -1  -3   3   47.67    1.65
  -1  -3   3   47.55    2.18
   0   3  -3   22.42    0.93
   0  -3   3   20.53    1.02
   0  -3   3   21.82    0.86
   0  -3   3   22.91    1.12
  -1   3  -3    2.16    0.13
   1  -3   3    2.24    0.12
  -2   3  -3    0.29    0.05
  -2   3  -3    0.30    0.05
   2  -3   3    0.24    0.06
   2  -3   3    0.32    0.07
   2  -3   3    0.34    0.04
  -3   3  -3   39.98    1.63
  -3   3  -3   37.04    1.65
   3  -3   3   37.02    1.92
   3  -3   3   38.15    1.46
   3  -3   3   37.31    2.12
  -4   3  -3   14.43    0.67
  -4   3  -3   14.32    0.68
   4  -3   3   13.71    0.80
   4  -3   3   14.49    0.87
  -5   3  -3    0.64    0.10
  -5   3  -3    0.67    0.10
   5  -3   3    0.55    0.11
   5  -3   3    0.57    0.11
  -6   3  -3    1.77    0.17
  -6   3  -3    1.62    0.19
  -6   3  -3    1.44    0.15
   6  -3   3    1.76    0.20
   6  -3   3    1.83    0.20
  -7   3  -3    0.17    0.11
  -7   3  -3    0.15    0.08
  -7   3  -3    0.33    0.10
   7  -3   3    0.27    0.10
   7  -3   3    0.24    0.10
   9   2  -3    0.89    0.16
  -9  -2   3    1.10    0.17
   8   2  -3   20.92    1.18
  -8  -2   3   22.19    1.11
   7   2  -3    1.62    0.17
   7   2  -3    1.57    0.18
   7   2  -3    1.33    0.13
   7   2  -3    1.48    0.14
  -7  -2   3    1.60    0.17
   6   2  -3   16.67    0.80
   6   2  -3   16.58    0.95
   6   2  -3   16.15    0.92
   6   2  -3   17.60    0.81
  -6  -2   3   17.18    0.85
   5   2  -3   20.36    1.12
   5   2  -3   21.81    0.98
   5   2  -3   21.34    0.98
  -5  -2   3   21.79    1.04
   4   2  -3    0.26    0.05
   4   2  -3    0.30    0.06
   4   2  -3    0.26    0.06
  -4  -2   3    0.22    0.06
  -4  -2   3    0.26    0.06
   3   2  -3   82.81    3.98
   3   2  -3   79.12    3.52
   3   2  -3   76.48    3.44
  -3  -2   3   85.54    3.71
  -3  -2   3   83.78    3.99
   2   2  -3   52.57    2.55
  -2  -2   3   52.24    2.37
  -2  -2   3   50.20    2.55
  -2  -2   3   52.73    1.78
   1   2  -3    7.74    0.42
   1   2  -3    7.54    0.28
   1   2  -3    8.51    0.28
  -1  -2   3    7.93    0.39
  -1  -2   3    8.14    0.29
  -1  -2   3    8.42    0.43
   0   2  -3    4.70    0.20
   0  -2   3    4.99    0.27
   0  -2   3    4.68    0.20
   0  -2   3    4.76    0.24
  -1   2  -3    2.72    0.13
   1  -2   3    2.85    0.13
   1  -2   3    2.88    0.17
   1  -2   3    2.59    0.18
  -2   2  -3   12.72    0.58
  -2   2  -3   12.84    0.59
   2  -2   3   12.87    0.52
   2  -2   3   13.00    0.76
   2  -2   3   13.32    0.69
  -3   2  -3   59.62    2.41
  -3   2  -3   53.98    2.44
   3  -2   3   55.00    3.13
   3  -2   3   59.03    2.17
   3  -2   3   57.53    2.82
  -4   2  -3   28.48    1.27
  -4   2  -3   28.56    1.25
   4  -2   3   28.08    1.47
   4  -2   3   28.85    1.61
  -5   2  -3    0.83    0.11
  -5   2  -3    1.01    0.11
   5  -2   3    0.98    0.13
   5  -2   3    1.07    0.13
  -6   2  -3    4.77    0.31
  -6   2  -3    5.41    0.32
   6  -2   3    5.37    0.38
   6  -2   3    4.68    0.36
  -7   2  -3    3.96    0.27
  -7   2  -3    3.61    0.26
  -7   2  -3    3.68    0.31
   7  -2   3    3.62    0.31
   7  -2   3    3.66    0.31
  -8   2  -3    0.76    0.16
  -8   2  -3    0.79    0.13
  -8   2  -3    1.06    0.15
   8  -2   3    1.02    0.15
   8  -2   3    0.76    0.15
   9   1  -3    3.44    0.26
   9   1  -3    3.28    0.31
  -9  -1   3    3.44    0.30
   8   1  -3   21.24    1.19
   8   1  -3   20.58    1.21
  -8  -1   3   22.41    1.12
   7   1  -3    2.02    0.21
   7   1  -3    2.28    0.18
   7   1  -3    2.13    0.18
   7   1  -3    2.16    0.20
  -7  -1   3    2.34    0.21
   6   1  -3    3.00    0.24
   6   1  -3    3.37    0.27
   6   1  -3    4.24    0.26
   6   1  -3    3.21    0.22
  -6  -1   3    4.00    0.27
   5   1  -3    0.01    0.03
   5   1  -3    0.00    0.04
   5   1  -3    0.00    0.04
   5   1  -3    0.01    0.03
  -5  -1   3    0.06    0.05
   4   1  -3    6.72    0.37
   4   1  -3    7.22    0.42
   4   1  -3    7.20    0.36
   4   1  -3    7.17    0.43
  -4  -1   3    7.05    0.39
   3   1  -3    6.01    0.35
   3   1  -3    5.83    0.36
   3   1  -3    5.68    0.30
   3   1  -3    5.90    0.30
  -3  -1   3    6.16    0.32
   2   1  -3   37.14    1.84
   2   1  -3   36.46    2.03
  -2  -1   3   37.11    1.71
  -2  -1   3   37.96    1.28
   1   1  -3   31.82    1.63
   1   1  -3   33.71    1.14
   1   1  -3   31.70    1.26
  -1  -1   3   35.21    1.63
  -1  -1   3   33.26    1.52
  -1  -1   3   32.63    1.14
   0   1  -3   91.68    4.77
   0   1  -3   97.42    3.71
   0  -1   3  102.08    3.36
   0  -1   3   99.92    4.78
   1  -1   3   27.34    1.26
   1  -1   3   27.13    1.05
  -2   1  -3    1.70    0.10
  -2   1  -3    1.35    0.09
   2  -1   3    1.54    0.10
   2  -1   3    1.35    0.07
  -3   1  -3   13.66    0.59
  -3   1  -3   12.61    0.59
   3  -1   3   12.26    0.74
  -4   1  -3   16.09    0.72
  -4   1  -3   14.49    0.70
   4  -1   3   16.34    0.90
   4  -1   3   14.83    0.82
  -5   1  -3    1.61    0.14
  -5   1  -3    1.69    0.14
   5  -1   3    1.50    0.15
   5  -1   3    1.75    0.16
  -6   1  -3    4.11    0.27
  -6   1  -3    4.72    0.28
   6  -1   3    4.15    0.31
   6  -1   3    4.55    0.32
  -7   1  -3    3.84    0.26
  -7   1  -3    3.65    0.26
   7  -1   3    3.87    0.30
   7  -1   3    3.58    0.29
  -8   1  -3    0.47    0.11
  -8   1  -3    0.41    0.13
  -8   1  -3    0.60    0.11
   8  -1   3    0.63    0.11
   8  -1   3    0.37    0.11
  -9   1  -3    0.11    0.08
  -9   1  -3    0.10    0.08
  -9   1  -3    0.21    0.12
   9  -1   3    0.13    0.07
   8   0  -3    0.98    0.13
   8   0  -3    1.24    0.18
  -8   0   3    1.55    0.19
   7   0  -3    7.28    0.44
   7   0  -3    7.14    0.49
   7   0  -3    7.63    0.48
  -7   0   3    7.27    0.46
   6   0  -3    2.50    0.24
   6   0  -3    2.79    0.23
   6   0  -3    3.26    0.24
  -6   0   3    3.20    0.25
   5   0  -3   28.74    1.66
   5   0  -3   30.39    1.55
   5   0  -3   29.85    1.35
  -5   0   3   30.18    1.44
   4   0  -3   12.42    0.70
   4   0  -3   12.54    0.60
   4   0  -3   11.99    0.73
   4   0  -3   12.54    0.61
  -4   0   3   12.89    0.56
  -4   0   3   13.46    0.65
   3   0  -3    0.03    0.04
   3   0  -3    0.01    0.03
   3   0  -3    0.00    0.02
   3   0  -3    0.03    0.03
  -3   0   3    0.03    0.04
   2   0  -3   36.56    1.81
   2   0  -3   36.69    1.56
   2   0  -3   33.91    1.99
  -2   0   3   36.29    1.25
  -2   0   3   38.61    1.68
   1   0  -3   23.05    0.96
   1   0  -3   24.61    1.24
   1   0  -3   25.54    0.86
  -1   0   3   24.86    0.86
  -1   0   3   26.12    1.16
   0   0   3   11.30    0.41
   1   0   3    4.87    0.25
   1   0   3    4.80    0.20
   2   0   3   15.57    0.74
   2   0   3   15.52    0.60
  -3   0  -3   19.39    0.82
  -3   0  -3   18.23    0.83
   3   0   3   18.60    0.82
   3   0   3   20.20    0.95
   3   0   3   17.93    1.05
  -4   0  -3   84.36    3.51
  -4   0  -3   80.37    3.57
   4   0   3   83.11    4.55
   4   0   3   87.00    4.11
   4   0   3   86.03    3.51
  -5   0  -3    0.47    0.07
  -5   0  -3    0.72    0.09
   5   0   3    0.43    0.07
   5   0   3    0.57    0.08
  -6   0  -3   15.41    0.70
  -6   0  -3   14.43    0.70
   6   0   3   14.02    0.80
   6   0   3   14.72    0.85
  -7   0  -3    0.08    0.06
  -7   0  -3    0.02    0.05
   7   0   3    0.00    0.03
   7   0   3   -0.02    0.04
  -8   0  -3    0.48    0.13
  -8   0  -3    0.42    0.10
  -8   0  -3    0.49    0.11
   8   0   3    0.46    0.09
   8   0   3    0.63    0.12
  -9   0  -3    0.73    0.13
  -9   0  -3    0.63    0.13
  -9   0  -3    0.55    0.15
   9   0   3    0.63    0.10
   8  -1  -3    1.17    0.19
   8  -1  -3    1.32    0.16
  -8   1   3    0.89    0.17
   7  -1  -3    0.38    0.12
   7  -1  -3    0.42    0.09
  -7   1   3    0.47    0.12
   6  -1  -3    1.46    0.16
   6  -1  -3    1.60    0.18
  -6   1   3    1.16    0.16
   5  -1  -3    0.52    0.09
   5  -1  -3    0.42    0.10
   5  -1  -3    0.37    0.09
  -5   1   3    0.37    0.06
  -5   1   3    0.43    0.09
   4  -1  -3    1.21    0.14
   4  -1  -3    1.22    0.13
   4  -1  -3    1.32    0.13
  -4   1   3    1.37    0.13
  -4   1   3    1.42    0.10
   3  -1  -3    0.18    0.05
   3  -1  -3    0.17    0.06
   3  -1  -3    0.12    0.05
  -3   1   3    0.08    0.02
  -3   1   3    0.10    0.03
  -3   1   3    0.07    0.04
   2  -1  -3    4.28    0.22
   2  -1  -3    4.09    0.26
   2  -1  -3    3.52    0.26
   2  -1  -3    3.84    0.17
  -2   1   3    3.96    0.23
  -2   1   3    4.01    0.15
   1  -1  -3    5.90    0.28
   1  -1  -3    6.07    0.33
   1  -1  -3    6.12    0.25
   1  -1  -3    5.61    0.21
  -1   1   3    5.71    0.30
  -1   1   3    6.02    0.22
   0  -1  -3   86.75    4.27
   0   1   3   87.85    4.00
   0   1   3   89.99    3.02
   1   1   3    5.90    0.24
   1   1   3    5.86    0.21
   2   1   3   20.54    0.96
  -3  -1  -3   14.50    0.65
   3   1   3   14.98    0.65
  -4  -1  -3    6.92    0.34
  -4  -1  -3    6.81    0.34
   4   1   3    6.89    0.37
   4   1   3    7.06    0.34
   4   1   3    6.78    0.40
  -5  -1  -3    0.15    0.05
  -5  -1  -3    0.10    0.04
   5   1   3    0.23    0.05
   5   1   3    0.08    0.03
   5   1   3    0.09    0.03
  -6  -1  -3    8.90    0.43
  -6  -1  -3    8.11    0.42
   6   1   3    7.81    0.46
   6   1   3    7.59    0.47
   6   1   3    7.82    0.41
  -7  -1  -3    0.43    0.08
  -7  -1  -3    0.51    0.09
   7   1   3    0.35    0.07
  -8  -1  -3   14.20    0.79
  -8  -1  -3   14.37    0.71
  -8  -1  -3   14.31    0.72
   8   1   3   13.99    0.80
   8   1   3   14.35    0.82
  -9  -1  -3   -0.03    0.07
  -9  -1  -3    0.06    0.06
  -9  -1  -3    0.11    0.07
   9   1   3   -0.02    0.03
 -10  -1  -3    9.77    0.59
 -10  -1  -3   12.54    0.63
 -10  -1  -3    9.22    0.65
  10   1   3   11.28    0.63
   7  -2  -3    0.28    0.10
   7  -2  -3    0.38    0.12
  -7   2   3    0.24    0.11
   6  -2  -3    0.27    0.10
   6  -2  -3    0.07    0.08
   6  -2  -3    0.26    0.08
  -6   2   3    0.17    0.09
   5  -2  -3    2.31    0.20
   5  -2  -3    1.68    0.17
   5  -2  -3    2.01    0.21
  -5   2   3    2.15    0.20
  -5   2   3    1.94    0.15
   4  -2  -3    4.73    0.30
   4  -2  -3    4.63    0.34
   4  -2  -3    4.57    0.34
  -4   2   3    5.27    0.31
   3  -2  -3    0.80    0.11
   3  -2  -3    0.69    0.10
   3  -2  -3    0.83    0.10
   3  -2  -3    0.62    0.04
  -3   2   3    0.68    0.07
  -3   2   3    0.82    0.05
  -3   2   3    1.09    0.11
   2  -2  -3    4.74    0.31
   2  -2  -3    4.39    0.25
   2  -2  -3    4.64    0.30
   2  -2  -3    4.66    0.20
  -2   2   3    4.00    0.25
  -2   2   3    4.61    0.22
  -2   2   3    4.42    0.18
   1  -2  -3    3.41    0.15
   1  -2  -3    2.89    0.17
   1  -2  -3    3.22    0.21
  -1   2   3    3.15    0.16
  -1   2   3    3.23    0.13
  -1   2   3    3.12    0.18
  -1   2   3    3.22    0.15
   0  -2  -3   31.64    1.55
   0  -2  -3   30.11    1.20
   0   2   3   31.45    1.43
   0   2   3   31.76    1.08
   0   2   3   31.03    1.20
   1   2   3    0.95    0.05
   1   2   3    1.02    0.05
   2   2   3   63.90    2.43
   3   2   3    0.12    0.03
   3   2   3    0.17    0.03
  -4  -2  -3    7.70    0.37
   4   2   3    7.59    0.40
   4   2   3    7.76    0.37
  -5  -2  -3    0.09    0.04
   5   2   3    0.14    0.04
   5   2   3    0.07    0.02
   5   2   3    0.16    0.04
   5   2   3    0.09    0.02
  -6  -2  -3    4.53    0.26
  -6  -2  -3    4.33    0.26
   6   2   3    4.55    0.27
   6   2   3    4.42    0.28
   6   2   3    4.57    0.26
  -7  -2  -3    3.69    0.25
  -7  -2  -3    4.15    0.26
   7   2   3    3.97    0.25
   7   2   3    4.42    0.25
   7   2   3    4.03    0.28
  -8  -2  -3    3.48    0.23
  -8  -2  -3    3.00    0.23
   8   2   3    3.09    0.22
   8   2   3    2.88    0.19
  -9  -2  -3    1.50    0.17
  -9  -2  -3    1.79    0.18
  -9  -2  -3    1.32    0.19
   9   2   3    1.94    0.12
   9   2   3    1.72    0.16
 -10  -2  -3   -0.06    0.07
 -10  -2  -3   -0.01    0.06
 -10  -2  -3    0.01    0.06
   7  -3  -3    0.06    0.07
   7  -3  -3    0.10    0.09
  -7   3   3    0.04    0.09
   6  -3  -3    1.47    0.21
   6  -3  -3    1.91    0.20
  -6   3   3    1.16    0.18
  -6   3   3    1.78    0.15
   5  -3  -3    0.32    0.09
   5  -3  -3    0.15    0.08
   5  -3  -3    0.24    0.09
  -5   3   3    0.22    0.09
  -5   3   3    0.09    0.05
   4  -3  -3   -0.05    0.05
   4  -3  -3    0.04    0.06
   4  -3  -3    0.06    0.06
  -4   3   3    0.12    0.07
   3  -3  -3    6.40    0.36
   3  -3  -3    6.52    0.44
   3  -3  -3    6.45    0.42
   3  -3  -3    6.36    0.27
  -3   3   3    6.70    0.32
  -3   3   3    6.44    0.25
  -3   3   3    5.82    0.37
   2  -3  -3    0.97    0.07
   2  -3  -3    0.72    0.09
   2  -3  -3    1.03    0.12
   2  -3  -3    0.75    0.11
  -2   3   3    0.49    0.08
  -2   3   3    0.84    0.07
  -2   3   3    0.63    0.05
  -2   3   3    0.65    0.07
   1  -3  -3   46.28    2.36
   1  -3  -3   46.31    2.61
   1  -3  -3   49.69    2.04
   1  -3  -3   48.28    1.83
  -1   3   3   46.65    1.98
  -1   3   3   47.15    1.82
  -1   3   3   46.54    2.19
  -1   3   3   48.52    1.64
   0  -3  -3    2.73    0.15
   0  -3  -3    2.77    0.19
   0  -3  -3    2.50    0.14
   0   3   3    2.88    0.15
   0   3   3    2.69    0.13
   0   3   3    2.83    0.11
  -1  -3  -3    5.11    0.26
  -1  -3  -3    6.72    0.34
   1   3   3    6.90    0.30
   1   3   3    5.65    0.25
   1   3   3    6.30    0.22
   1   3   3    5.87    0.28
  -2  -3  -3    6.10    0.32
   2   3   3    5.68    0.28
   2   3   3    5.68    0.23
  -3  -3  -3   68.21    3.28
   3   3   3   64.93    3.07
   3   3   3   69.66    2.81
  -4  -3  -3    0.27    0.04
  -4  -3  -3    0.40    0.05
   4   3   3    0.38    0.05
   4   3   3    0.29    0.04
  -5  -3  -3   54.26    2.33
  -5  -3  -3   59.30    2.68
   5   3   3   52.90    2.39
   5   3   3   54.38    2.67
   5   3   3   53.15    2.95
   5   3   3   54.48    2.31
  -6  -3  -3    3.96    0.26
  -6  -3  -3    4.07    0.23
   6   3   3    3.90    0.25
   6   3   3    4.14    0.24
   6   3   3    4.28    0.23
   6   3   3    4.06    0.23
   6   3   3    3.87    0.23
  -7  -3  -3    1.24    0.12
  -7  -3  -3    0.76    0.10
   7   3   3    1.02    0.11
   7   3   3    0.83    0.10
  -8  -3  -3    0.64    0.10
  -8  -3  -3    0.50    0.09
   8   3   3    0.46    0.08
  -9  -3  -3    0.16    0.08
  -9  -3  -3    0.61    0.11
  -9  -3  -3    0.28    0.10
   9   3   3    0.46    0.09
 -10  -3  -3    0.10    0.07
 -10  -3  -3    0.02    0.07
 -10  -3  -3    0.03    0.06
  10   3   3    0.00    0.05
   6  -4  -3    0.13    0.08
   6  -4  -3    0.10    0.08
  -6   4   3   -0.02    0.09
  -6   4   3   -0.01    0.06
   5  -4  -3    0.01    0.06
   5  -4  -3   -0.03    0.06
  -5   4   3    0.01    0.05
  -5   4   3    0.01    0.07
   4  -4  -3    2.73    0.22
   4  -4  -3    2.70    0.27
   4  -4  -3    2.68    0.26
  -4   4   3    2.83    0.23
  -4   4   3    2.95    0.20
   3  -4  -3    3.86    0.32
   3  -4  -3    4.43    0.20
   3  -4  -3    4.08    0.33
   3  -4  -3    4.55    0.28
  -3   4   3    4.17    0.28
  -3   4   3    4.32    0.19
  -3   4   3    4.08    0.24
   2  -4  -3    4.63    0.23
   2  -4  -3    4.61    0.34
   2  -4  -3    4.97    0.29
   2  -4  -3    4.59    0.35
  -2   4   3    4.69    0.25
  -2   4   3    4.90    0.20
  -2   4   3    4.92    0.29
   1  -4  -3   24.34    0.95
   1  -4  -3   23.93    1.36
   1  -4  -3   22.88    1.24
   1  -4  -3   23.48    1.06
  -1   4   3   23.19    1.13
  -1   4   3   24.51    1.03
  -1   4   3   23.36    0.94
  -1   4   3   24.02    0.84
   0  -4  -3    1.01    0.12
   0  -4  -3    1.04    0.09
   0  -4  -3    1.18    0.09
   0   4   3    1.08    0.09
   0   4   3    1.12    0.08
   0   4   3    1.11    0.06
   0   4   3    1.18    0.09
  -1  -4  -3  122.68    5.87
  -1  -4  -3  110.42    4.58
   1   4   3  120.11    5.19
   1   4   3  124.99    5.46
   1   4   3  117.90    4.57
   1   4   3  122.64    4.98
   1   4   3  125.37    4.15
  -2  -4  -3   25.34    1.23
   2   4   3   23.92    1.10
   2   4   3   23.43    0.94
   2   4   3   24.90    1.04
  -3  -4  -3  240.94   11.01
   3   4   3  210.36    9.68
   3   4   3  227.66    9.35
  -4  -4  -3   22.98    1.12
   4   4   3   21.65    1.02
   4   4   3   22.19    0.97
  -5  -4  -3   49.90    2.24
  -5  -4  -3   42.55    1.94
   5   4   3   45.80    1.93
   5   4   3   44.42    2.23
   5   4   3   44.91    2.01
  -6  -4  -3    0.43    0.07
  -6  -4  -3    0.19    0.05
   6   4   3    0.25    0.05
   6   4   3    0.18    0.03
   6   4   3    0.24    0.06
   6   4   3    0.20    0.05
  -7  -4  -3    2.38    0.17
   7   4   3    2.52    0.18
   7   4   3    2.47    0.18
   7   4   3    2.46    0.17
  -8  -4  -3    0.42    0.08
  -8  -4  -3    0.53    0.10
   8   4   3    0.44    0.08
  -9  -4  -3    0.07    0.06
  -9  -4  -3   -0.02    0.07
  -9  -4  -3   -0.06    0.05
   9   4   3    0.03    0.04
 -10  -4  -3    1.07    0.16
 -10  -4  -3    1.08    0.17
 -10  -4  -3    1.37    0.16
  10   4   3    1.24    0.15
   5  -5  -3    0.40    0.13
   5  -5  -3    0.52    0.15
  -5   5   3    0.24    0.09
  -5   5   3    0.31    0.12
   4  -5  -3    0.80    0.16
   4  -5  -3    0.88    0.17
  -4   5   3    0.94    0.12
  -4   5   3    1.24    0.16
   3  -5  -3    2.03    0.12
   3  -5  -3    1.86    0.22
   3  -5  -3    1.85    0.18
   3  -5  -3    2.18    0.23
  -3   5   3    2.05    0.16
  -3   5   3    2.09    0.18
  -3   5   3    1.89    0.11
   2  -5  -3    8.33    0.36
   2  -5  -3    7.94    0.52
   2  -5  -3    8.27    0.43
   2  -5  -3    7.97    0.55
  -2   5   3    8.50    0.41
  -2   5   3    7.33    0.44
  -2   5   3    7.76    0.31
   1  -5  -3    3.80    0.19
   1  -5  -3    3.81    0.23
   1  -5  -3    4.35    0.31
   1  -5  -3    3.21    0.27
  -1   5   3    2.90    0.22
  -1   5   3    3.52    0.16
  -1   5   3    3.55    0.21
  -1   5   3    3.57    0.18
   0  -5  -3   18.24    0.99
   0  -5  -3   17.85    0.75
   0  -5  -3   19.00    0.83
   0   5   3   18.67    0.87
   0   5   3   18.43    0.81
   0   5   3   18.10    0.73
   0   5   3   17.68    0.86
   0   5   3   17.99    0.65
  -1  -5  -3    0.06    0.03
  -1  -5  -3    0.01    0.04
  -1  -5  -3    0.01    0.03
   1   5   3    0.00    0.03
   1   5   3    0.00    0.03
   1   5   3    0.03    0.02
   1   5   3    0.00    0.02
   1   5   3   -0.01    0.03
  -2  -5  -3    0.02    0.04
  -2  -5  -3    0.08    0.03
   2   5   3    0.03    0.03
   2   5   3    0.06    0.02
   2   5   3    0.01    0.01
   2   5   3    0.06    0.03
  -3  -5  -3    0.07    0.04
   3   5   3    0.01    0.03
   3   5   3    0.01    0.02
   3   5   3    0.01    0.01
  -4  -5  -3    0.01    0.03
   4   5   3    0.06    0.04
   4   5   3    0.04    0.03
  -5  -5  -3    0.22    0.05
   5   5   3    0.24    0.06
   5   5   3    0.19    0.05
  -6  -5  -3    0.03    0.04
   6   5   3    0.05    0.03
   6   5   3    0.05    0.03
   6   5   3    0.10    0.05
   7   5   3    3.15    0.19
   7   5   3    3.17    0.21
   7   5   3    3.24    0.22
   8   5   3    0.02    0.04
   8   5   3    0.02    0.04
  -9  -5  -3    4.16    0.29
   9   5   3    4.68    0.28
   4  -6  -3   26.13    1.51
   4  -6  -3   29.70    1.66
  -4   6   3   25.17    1.22
   3  -6  -3   10.20    0.42
   3  -6  -3    9.11    0.63
  -3   6   3    9.34    0.38
  -3   6   3    8.93    0.49
   2  -6  -3   76.17    3.83
   2  -6  -3   75.09    2.93
  -2   6   3   78.13    3.21
  -2   6   3   74.42    2.64
   1  -6  -3   11.08    0.49
   1  -6  -3   11.09    0.68
  -1   6   3   11.72    0.58
  -1   6   3   11.06    0.48
  -1   6   3   10.78    0.42
  -1   6   3   10.71    0.53
   0  -6  -3   80.88    3.97
   0  -6  -3   80.30    3.08
   0   6   3   77.75    3.06
   0   6   3   79.94    2.76
   0   6   3   82.18    3.34
   0   6   3   77.41    3.49
  -1  -6  -3   13.54    0.57
  -1  -6  -3   13.40    0.75
   1   6   3   12.81    0.61
   1   6   3   13.38    0.54
   1   6   3   13.21    0.48
   1   6   3   13.18    0.66
  -2  -6  -3   46.13    1.89
  -2  -6  -3   54.11    2.46
   2   6   3   41.73    1.68
   2   6   3   50.13    2.17
   2   6   3   51.19    1.87
   2   6   3   49.83    2.06
  -3  -6  -3  106.68    5.03
   3   6   3  100.85    3.89
   3   6   3  102.98    4.46
   3   6   3  100.12    4.27
  -4  -6  -3    1.30    0.13
   4   6   3    0.96    0.12
   4   6   3    0.76    0.09
  -5  -6  -3   55.10    2.64
   5   6   3   52.75    2.37
   5   6   3   51.78    2.26
  -6  -6  -3    0.04    0.05
   6   6   3    0.01    0.04
   6   6   3    0.02    0.03
   7   6   3    2.30    0.18
   7   6   3    2.90    0.21
   8   6   3    1.86    0.15
   8   6   3    1.79    0.17
   9   6   3    1.23    0.13
   9   6   3    1.24    0.14
   3  -7  -3    0.34    0.06
   3  -7  -3    0.29    0.13
  -3   7   3    0.23    0.08
   2  -7  -3   22.04    0.91
   2  -7  -3   22.08    1.26
  -2   7   3   22.18    1.02
   1  -7  -3    0.01    0.03
   1  -7  -3   -0.04    0.05
  -1   7   3   -0.02    0.03
  -1   7   3    0.07    0.04
  -1   7   3    0.02    0.05
   0  -7  -3    4.20    0.33
   0  -7  -3    3.30    0.22
   0   7   3    4.29    0.25
   0   7   3    3.74    0.21
   0   7   3    3.86    0.27
   0   7   3    3.83    0.17
  -1  -7  -3    0.89    0.14
  -1  -7  -3    0.61    0.08
   1   7   3    0.77    0.06
   1   7   3    0.78    0.12
   1   7   3    0.90    0.08
   1   7   3    0.85    0.10
  -2  -7  -3   48.85    2.58
   2   7   3   51.96    2.28
   2   7   3   51.60    2.17
   2   7   3   51.12    1.96
  -3  -7  -3   18.10    1.00
   3   7   3   18.42    0.72
   3   7   3   17.77    0.89
   3   7   3   18.79    0.83
  -4  -7  -3   35.98    1.81
   4   7   3   34.16    1.61
   4   7   3   35.42    1.53
  -5  -7  -3   16.86    0.89
   5   7   3   15.92    0.76
   5   7   3   16.55    0.82
  -6  -7  -3    0.63    0.10
   6   7   3    0.36    0.09
   6   7   3    0.29    0.07
   7   7   3    0.02    0.06
   7   7   3    0.08    0.05
   8   7   3    0.79    0.12
   8   7   3    0.69    0.10
   9   7   3    0.43    0.09
   9   7   3    0.45    0.10
  10   7   3    0.90    0.13
   2  -8  -3    2.19    0.26
   2  -8  -3    2.26    0.16
  -2   8   3    2.21    0.19
  -2   8   3    1.90    0.16
   1  -8  -3    0.17    0.06
   1  -8  -3    0.11    0.09
  -1   8   3    0.08    0.06
  -1   8   3    0.18    0.06
   0  -8  -3    0.45    0.12
   0  -8  -3    0.43    0.08
   0   8   3    0.31    0.06
   0   8   3    0.36    0.05
   0   8   3    0.43    0.09
  -1  -8  -3    7.25    0.50
  -1  -8  -3    7.10    0.36
   1   8   3    7.07    0.28
   1   8   3    7.43    0.43
   1   8   3    7.47    0.34
   1   8   3    7.42    0.39
  -2  -8  -3    4.52    0.37
   2   8   3    5.05    0.24
   2   8   3    5.15    0.29
   2   8   3    5.12    0.33
  -3  -8  -3    2.30    0.24
   3   8   3    3.00    0.14
   3   8   3    2.82    0.20
   3   8   3    2.95    0.23
  -4  -8  -3    0.74    0.13
   4   8   3    0.66    0.10
   4   8   3    0.56    0.11
  -5  -8  -3   10.76    0.65
   5   8   3   10.98    0.55
   5   8   3   10.97    0.60
  -6  -8  -3    0.17    0.07
   6   8   3    0.03    0.05
   6   8   3    0.05    0.06
   7   8   3    0.06    0.05
   7   8   3    0.24    0.09
   8   8   3    2.97    0.25
   8   8   3    2.80    0.21
   9   8   3    0.11    0.08
  10   8   3    0.36    0.10
   0  -9  -3    1.35    0.21
   0  -9  -3    1.32    0.13
   0   9   3    1.17    0.11
   0   9   3    1.34    0.15
  -1  -9  -3    1.21    0.19
  -1  -9  -3    1.21    0.13
   1   9   3    1.06    0.13
   1   9   3    1.15    0.10
  -2  -9  -3    1.68    0.21
   2   9   3    1.75    0.16
   2   9   3    1.73    0.12
   2   9   3    1.87    0.19
  -3  -9  -3    5.30    0.42
   3   9   3    5.58    0.37
   3   9   3    5.91    0.25
   3   9   3    5.70    0.33
  -4  -9  -3    0.06    0.08
   4   9   3    0.04    0.06
   4   9   3    0.14    0.07
  -5  -9  -3   11.39    0.68
   5   9   3   10.45    0.61
   5   9   3   11.16    0.56
   6   9   3    4.73    0.34
   6   9   3    5.05    0.31
   7   9   3    0.08    0.07
   7   9   3    0.24    0.08
   8   9   3    0.13    0.07
   8   9   3    0.05    0.07
   9   9   3    0.01    0.07
  -1 -10  -3    0.04    0.06
  -1 -10  -3   -0.02    0.07
   1  10   3    0.07    0.05
   1  10   3    0.08    0.07
  -2 -10  -3    2.73    0.31
   2  10   3    3.54    0.19
   2  10   3    3.57    0.29
   2  10   3    3.44    0.25
  -3 -10  -3    0.11    0.09
   3  10   3    0.14    0.08
   3  10   3    0.14    0.07
   3  10   3    0.16    0.04
  -4 -10  -3    0.42    0.12
   4  10   3    0.42    0.12
   4  10   3    0.29    0.09
  -5 -10  -3    0.24    0.11
   5  10   3    0.16    0.08
   5  10   3    0.24    0.08
   6  10   3    1.94    0.18
   6  10   3    2.19    0.22
   7  10   3    1.05    0.14
   7  10   3    0.69    0.14
   8  10   3    0.37    0.12
   8  10   3    0.38    0.10
   5  11   3    1.17    0.18
   5  11   3    1.08    0.15
   6  11   3    0.20    0.08
   6  11   3    0.18    0.10
   5  10  -4    2.68    0.23
  -5 -10   4    2.07    0.26
   4  10  -4   -0.05    0.06
  -4 -10   4   -0.05    0.07
  -3 -10   4    0.28    0.13
   2  10  -4    3.51    0.18
  -2 -10   4    2.72    0.31
   7   9  -4    2.24    0.22
  -7  -9   4    1.87    0.24
   6   9  -4    0.99    0.14
  -6  -9   4    0.85    0.17
   5   9  -4    2.96    0.24
  -5  -9   4    2.73    0.27
   4   9  -4    1.45    0.16
  -4  -9   4    1.29    0.20
  -3  -9   4    0.30    0.11
   2   9  -4    5.63    0.25
  -2  -9   4    4.35    0.40
   1   9  -4    3.98    0.26
   1   9  -4    4.50    0.23
  -1  -9   4    3.68    0.37
  -1  -9   4    4.94    0.27
   0   9  -4    0.14    0.08
   0   9  -4    0.04    0.04
   0  -9   4    0.16    0.06
   0  -9   4    0.03    0.08
   8   8  -4    0.26    0.11
   8   8  -4    0.24    0.10
  -8  -8   4    0.19    0.11
   7   8  -4    1.87    0.19
  -7  -8   4    1.60    0.21
   6   8  -4    0.03    0.05
  -6  -8   4   -0.01    0.07
   5   8  -4    5.80    0.37
  -5  -8   4    5.86    0.43
   4   8  -4    1.83    0.18
  -4  -8   4    1.82    0.21
   3   8  -4    0.02    0.02
   3   8  -4    0.05    0.05
  -3  -8   4    0.05    0.07
   2   8  -4    0.27    0.05
  -2  -8   4    0.15    0.09
   1   8  -4    0.06    0.05
  -1  -8   4    0.06    0.04
  -1  -8   4    0.07    0.08
   0   8  -4    8.97    0.35
   0   8  -4    8.78    0.46
   0  -8   4    8.49    0.60
   0  -8   4    9.23    0.43
  -1   8  -4    0.20    0.08
   1  -8   4    0.20    0.06
   1  -8   4    0.14    0.10
  -2   8  -4    3.48    0.25
   2  -8   4    3.95    0.23
   2  -8   4    3.30    0.34
   9   7  -4    0.07    0.07
   9   7  -4    0.10    0.08
  -9  -7   4    0.04    0.09
   8   7  -4    0.15    0.08
   8   7  -4    0.13    0.08
  -8  -7   4    0.07    0.08
   7   7  -4    2.12    0.21
   7   7  -4    2.28    0.21
  -7  -7   4    2.16    0.24
   6   7  -4    0.78    0.12
   6   7  -4    0.62    0.11
  -6  -7   4    0.33    0.11
   5   7  -4    0.26    0.08
  -5  -7   4    0.49    0.11
   4   7  -4    5.43    0.34
  -4  -7   4    5.69    0.40
   3   7  -4    1.52    0.15
  -3  -7   4    1.78    0.19
   2   7  -4   47.32    1.76
   2   7  -4   46.71    2.04
  -2  -7   4   42.87    2.33
   1   7  -4    2.62    0.12
   1   7  -4    2.58    0.17
  -1  -7   4    2.62    0.17
  -1  -7   4    2.43    0.24
   0   7  -4    8.56    0.33
   0   7  -4    8.46    0.43
   0  -7   4    7.86    0.55
   0  -7   4    8.73    0.40
  -1   7  -4    3.47    0.22
  -1   7  -4    3.21    0.16
   1  -7   4    3.12    0.29
   1  -7   4    3.18    0.20
  -2   7  -4    0.62    0.10
   2  -7   4    0.61    0.14
   2  -7   4    0.70    0.09
  -3   7  -4    0.04    0.06
   3  -7   4    0.10    0.09
   3  -7   4   -0.01    0.04
   9   6  -4    0.16    0.09
   9   6  -4    0.06    0.07
  -9  -6   4    0.10    0.09
   8   6  -4    0.17    0.08
   8   6  -4    0.04    0.06
  -8  -6   4    0.02    0.07
   7   6  -4    3.13    0.24
   7   6  -4    2.96    0.25
  -7  -6   4    2.92    0.27
   6   6  -4    1.33    0.15
   6   6  -4    1.21    0.14
  -6  -6   4    1.01    0.15
   5   6  -4    0.45    0.09
   5   6  -4    0.42    0.09
  -5  -6   4    0.24    0.08
   4   6  -4    2.36    0.18
  -4  -6   4    2.39    0.21
   2   6  -4    6.97    0.35
  -2  -6   4    5.57    0.40
   1   6  -4    0.09    0.04
   1   6  -4    0.26    0.06
   1   6  -4    0.08    0.02
  -1  -6   4    0.30    0.08
  -1  -6   4    0.17    0.05
   0   6  -4    0.33    0.06
   0   6  -4    0.33    0.04
   0  -6   4    0.23    0.05
   0  -6   4    0.34    0.09
  -1   6  -4    0.71    0.09
  -1   6  -4    0.49    0.05
   1  -6   4    0.56    0.12
   1  -6   4    0.54    0.07
  -2   6  -4   13.72    0.65
  -2   6  -4   13.86    0.52
   2  -6   4   13.88    0.59
   2  -6   4   12.89    0.80
  -3   6  -4    0.26    0.05
  -3   6  -4    0.20    0.07
   3  -6   4    0.12    0.08
   3  -6   4    0.21    0.05
  -4   6  -4    0.28    0.09
   4  -6   4    0.37    0.12
   4  -6   4    0.32    0.05
  -5   6  -4    0.19    0.09
   5  -6   4    0.29    0.12
   5  -6   4    0.26    0.12
   9   5  -4    0.71    0.13
   9   5  -4    0.65    0.13
  -9  -5   4    0.63    0.16
   8   5  -4    0.54    0.11
   8   5  -4    0.53    0.11
  -8  -5   4    0.46    0.13
   7   5  -4    0.21    0.07
   7   5  -4    0.25    0.08
  -7  -5   4    0.27    0.10
   6   5  -4    0.17    0.07
   6   5  -4    0.13    0.06
  -6  -5   4    0.13    0.08
   5   5  -4    9.29    0.55
   5   5  -4    9.20    0.50
  -5  -5   4   10.39    0.59
   4   5  -4   11.76    0.64
   4   5  -4   11.50    0.57
  -4  -5   4   11.01    0.65
   3   5  -4    7.54    0.40
  -3  -5   4    7.45    0.45
   2   5  -4    6.74    0.33
   2   5  -4    5.42    0.28
  -2  -5   4    5.86    0.38
   1   5  -4    3.43    0.18
   1   5  -4    3.12    0.20
   1   5  -4    3.20    0.13
  -1  -5   4    3.27    0.24
  -1  -5   4    2.96    0.17
   0   5  -4   14.45    0.64
   0   5  -4   13.88    0.52
   0  -5   4   14.78    0.60
   0  -5   4   14.29    0.80
  -1   5  -4    4.49    0.26
   1  -5   4    4.69    0.34
   1  -5   4    5.20    0.24
  -2   5  -4    8.08    0.41
  -2   5  -4    9.02    0.42
   2  -5   4    7.74    0.37
   2  -5   4    8.15    0.52
  -3   5  -4    1.82    0.15
  -3   5  -4    1.57    0.14
   3  -5   4    1.81    0.21
   3  -5   4    1.68    0.19
   3  -5   4    1.70    0.12
  -4   5  -4    1.27    0.14
  -4   5  -4    1.28    0.14
   4  -5   4    1.36    0.19
   4  -5   4    1.48    0.10
   4  -5   4    1.37    0.18
  -5   5  -4    0.11    0.09
  -5   5  -4   -0.02    0.05
  -5   5  -4    0.05    0.06
   5  -5   4    0.06    0.07
   5  -5   4    0.03    0.07
  -6   5  -4    0.22    0.09
  -6   5  -4    0.27    0.09
  -6   5  -4    0.25    0.12
   6  -5   4    0.27    0.12
   6  -5   4    0.46    0.13
   9   4  -4    2.66    0.26
   9   4  -4    3.00    0.24
  -9  -4   4    2.40    0.28
   8   4  -4   11.22    0.69
   8   4  -4   11.28    0.61
   8   4  -4   12.37    0.62
  -8  -4   4   11.84    0.63
  -8  -4   4   10.53    0.71
   7   4  -4   26.89    1.45
   7   4  -4   26.81    1.26
   7   4  -4   29.32    1.30
  -7  -4   4   29.03    1.35
  -7  -4   4   26.19    1.48
   6   4  -4   30.77    1.40
   6   4  -4   30.98    1.57
   6   4  -4   28.89    1.35
  -6  -4   4   29.49    1.59
  -6  -4   4   31.19    1.44
   5   4  -4   17.34    0.93
   5   4  -4   17.16    0.83
   5   4  -4   17.53    0.80
  -5  -4   4   16.75    0.83
  -5  -4   4   17.78    0.95
   4   4  -4    7.55    0.41
   4   4  -4    7.81    0.45
   4   4  -4    7.83    0.38
  -4  -4   4    7.73    0.47
  -4  -4   4    7.87    0.40
   3   4  -4    0.33    0.05
   3   4  -4    0.37    0.06
   3   4  -4    0.43    0.07
  -3  -4   4    0.31    0.05
  -3  -4   4    0.27    0.07
   2   4  -4    2.78    0.19
  -2  -4   4    3.32    0.18
  -2  -4   4    3.29    0.14
  -2  -4   4    3.68    0.23
   1   4  -4    0.09    0.02
   1   4  -4    0.08    0.02
   1   4  -4    0.01    0.03
  -1  -4   4    0.04    0.04
  -1  -4   4    0.02    0.02
  -1  -4   4    0.02    0.03
   0   4  -4   40.74    1.80
   0   4  -4   43.99    1.83
   0  -4   4   44.34    1.99
   0  -4   4   43.63    2.15
   0  -4   4   42.34    1.67
  -1   4  -4   12.22    0.56
  -1   4  -4   12.07    0.56
   1  -4   4   12.88    0.52
   1  -4   4   13.10    0.77
   1  -4   4   11.52    0.68
  -2   4  -4   -0.02    0.03
  -2   4  -4    0.10    0.04
   2  -4   4    0.24    0.07
   2  -4   4   -0.02    0.04
   2  -4   4    0.01    0.03
  -3   4  -4   14.51    0.68
  -3   4  -4   14.80    0.68
   3  -4   4   14.34    0.59
   3  -4   4   14.20    0.82
   3  -4   4   14.42    0.89
  -4   4  -4    2.56    0.19
  -4   4  -4    2.61    0.19
   4  -4   4    2.50    0.25
   4  -4   4    2.65    0.13
   4  -4   4    2.51    0.24
  -5   4  -4    0.00    0.05
  -5   4  -4    0.03    0.05
   5  -4   4    0.01    0.06
   5  -4   4    0.02    0.06
  -6   4  -4    0.38    0.12
  -6   4  -4    0.31    0.09
  -6   4  -4    0.23    0.09
   6  -4   4    0.32    0.11
   6  -4   4    0.29    0.11
  -7   4  -4    0.99    0.15
  -7   4  -4    0.84    0.17
  -7   4  -4    1.02    0.15
   7  -4   4    1.06    0.18
   7  -4   4    0.77    0.16
   9   3  -4    0.66    0.14
   9   3  -4    0.58    0.11
  -9  -3   4    0.62    0.16
  -9  -3   4    0.61    0.13
   8   3  -4    2.47    0.23
   8   3  -4    2.84    0.26
   8   3  -4    2.97    0.22
  -8  -3   4    2.61    0.23
  -8  -3   4    3.02    0.29
   7   3  -4    0.31    0.08
   7   3  -4    0.37    0.10
   7   3  -4    0.50    0.10
  -7  -3   4    0.43    0.10
  -7  -3   4    0.28    0.11
   6   3  -4   28.17    1.23
   6   3  -4   23.82    1.20
   6   3  -4   27.01    1.39
  -6  -3   4   27.67    1.28
  -6  -3   4   25.47    1.40
   5   3  -4    0.10    0.05
   5   3  -4    0.08    0.05
   5   3  -4    0.11    0.06
  -5  -3   4    0.17    0.06
  -5  -3   4    0.12    0.07
   4   3  -4   -0.02    0.03
   4   3  -4    0.01    0.03
   4   3  -4    0.04    0.04
  -4  -3   4    0.05    0.05
  -4  -3   4   -0.02    0.04
   3   3  -4    2.77    0.16
   3   3  -4    2.66    0.19
   3   3  -4    2.46    0.17
  -3  -3   4    2.79    0.16
  -3  -3   4    2.76    0.20
   2   3  -4    3.24    0.19
   2   3  -4    2.88    0.16
   2   3  -4    3.47    0.21
  -2  -3   4    2.76    0.17
  -2  -3   4    3.08    0.21
  -2  -3   4    3.14    0.12
   1   3  -4   10.53    0.38
  -1  -3   4   11.30    0.57
  -1  -3   4   10.52    0.38
  -1  -3   4   10.35    0.51
  -1  -3   4   10.23    0.43
   0   3  -4   64.50    2.71
   0   3  -4   64.79    2.67
   0  -3   4   63.10    3.16
   0  -3   4   65.62    2.94
   0  -3   4   63.83    2.46
  -1   3  -4    5.30    0.25
  -1   3  -4    4.52    0.25
  -1   3  -4    5.18    0.23
   1  -3   4    5.44    0.23
   1  -3   4    4.70    0.31
  -2   3  -4    2.10    0.12
  -2   3  -4    1.77    0.13
  -2   3  -4    2.14    0.14
   2  -3   4    1.70    0.17
   2  -3   4    2.26    0.12
   2  -3   4    2.48    0.20
  -3   3  -4   13.43    0.63
  -3   3  -4   13.86    0.64
   3  -3   4   13.82    0.75
   3  -3   4   13.42    0.55
   3  -3   4   13.38    0.82
  -4   3  -4    5.44    0.31
  -4   3  -4    5.67    0.31
   4  -3   4    5.37    0.39
   4  -3   4    5.62    0.23
   4  -3   4    4.96    0.36
  -5   3  -4    9.34    0.51
  -5   3  -4   11.51    0.53
   5  -3   4    9.13    0.64
   5  -3   4    9.72    0.60
  -6   3  -4    0.14    0.07
  -6   3  -4    0.06    0.06
   6  -3   4    0.15    0.08
   6  -3   4    0.02    0.06
  -7   3  -4    7.79    0.54
  -7   3  -4    8.50    0.48
   7  -3   4    7.84    0.55
   7  -3   4    8.70    0.59
   9   2  -4    3.70    0.32
  -9  -2   4    3.24    0.29
   8   2  -4    0.01    0.06
   8   2  -4   -0.01    0.05
   8   2  -4    0.04    0.07
  -8  -2   4   -0.05    0.07
   7   2  -4    3.78    0.30
   7   2  -4    4.20    0.26
   7   2  -4    3.64    0.27
  -7  -2   4    3.42    0.27
   6   2  -4   31.60    1.60
   6   2  -4   32.36    1.40
   6   2  -4   29.40    1.39
  -6  -2   4   29.32    1.48
   5   2  -4    7.83    0.41
   5   2  -4    8.13    0.42
   5   2  -4    7.26    0.46
  -5  -2   4    7.78    0.43
   4   2  -4    7.22    0.40
   4   2  -4    8.33    0.40
   4   2  -4    7.51    0.46
  -4  -2   4    8.26    0.42
  -4  -2   4    8.00    0.47
   3   2  -4   30.99    1.64
   3   2  -4   29.24    1.44
   3   2  -4   33.37    1.42
  -3  -2   4   35.20    1.52
  -3  -2   4   34.33    1.65
   2   2  -4  119.12    6.07
   2   2  -4  128.78    5.26
   2   2  -4  118.51    5.37
  -2  -2   4  125.64    4.30
  -2  -2   4  132.55    5.67
  -2  -2   4  126.34    6.08
   1   2  -4   26.98    1.11
   1   2  -4   29.14    0.99
   1   2  -4   26.69    1.43
  -1  -2   4   31.36    1.44
  -1  -2   4   29.05    1.00
  -1  -2   4   29.09    1.33
   0   2  -4   38.69    1.56
   0  -2   4   39.26    1.56
   0  -2   4   40.32    1.86
   0  -2   4   43.10    2.00
   0  -2   4   40.13    1.40
  -1   2  -4   17.61    0.74
  -1   2  -4   16.65    0.75
  -1   2  -4   17.21    0.68
   1  -2   4   17.16    0.68
   1  -2   4   17.08    0.82
   1  -2   4   16.67    0.87
  -2   2  -4   40.05    1.72
  -2   2  -4   40.37    1.70
  -2   2  -4   41.79    1.55
   2  -2   4   39.95    1.55
   2  -2   4   40.71    2.23
   2  -2   4   38.39    2.00
  -3   2  -4   31.98    1.44
  -3   2  -4   33.91    1.43
   3  -2   4   32.23    1.85
   3  -2   4   32.62    1.27
   3  -2   4   34.67    1.67
  -4   2  -4   14.72    0.69
  -4   2  -4   14.38    0.69
   4  -2   4   14.79    0.88
   4  -2   4   14.90    0.80
  -5   2  -4    1.02    0.11
  -5   2  -4    0.63    0.10
   5  -2   4    0.62    0.11
   5  -2   4    0.96    0.12
  -6   2  -4   13.36    0.68
  -6   2  -4   14.30    0.69
   6  -2   4   12.97    0.79
   6  -2   4   14.78    0.86
  -7   2  -4    0.07    0.06
  -7   2  -4    0.02    0.06
   7  -2   4   -0.01    0.05
   7  -2   4    0.01    0.06
  -8   2  -4    0.13    0.09
  -8   2  -4    0.13    0.09
  -8   2  -4    0.13    0.11
   8  -2   4    0.18    0.09
   8   1  -4    1.01    0.12
   8   1  -4    0.85    0.15
   8   1  -4    0.63    0.13
  -8  -1   4    0.48    0.13
   7   1  -4    2.16    0.21
   7   1  -4    2.52    0.20
   7   1  -4    2.33    0.23
  -7  -1   4    2.46    0.22
   6   1  -4    4.84    0.31
   6   1  -4    5.00    0.33
   6   1  -4    5.09    0.29
   6   1  -4    4.73    0.35
  -6  -1   4    4.45    0.31
   5   1  -4    0.09    0.04
   5   1  -4    0.20    0.05
   5   1  -4    0.11    0.06
   5   1  -4    0.11    0.06
  -5  -1   4    0.05    0.05
   4   1  -4    2.86    0.20
   4   1  -4    2.63    0.17
   4   1  -4    2.60    0.20
   4   1  -4    2.18    0.17
  -4  -1   4    2.23    0.17
   3   1  -4   16.85    1.02
   3   1  -4   16.86    0.82
   3   1  -4   17.85    0.94
   3   1  -4   18.24    0.82
  -3  -1   4   18.86    0.87
  -3  -1   4   19.56    0.63
   2   1  -4   30.32    1.66
   2   1  -4   30.48    1.50
   2   1  -4   30.09    1.30
  -2  -1   4   29.05    1.39
  -2  -1   4   30.12    1.04
   1   1  -4    4.15    0.18
   1   1  -4    4.21    0.25
   1   1  -4    4.25    0.16
   1   1  -4    4.43    0.21
  -1  -1   4    4.30    0.23
  -1  -1   4    4.41    0.25
  -1  -1   4    4.40    0.16
   0   1  -4    1.23    0.09
   0   1  -4    1.33    0.07
   0  -1   4    1.23    0.09
   0  -1   4    1.26    0.06
   0  -1   4    1.27    0.07
  -1   1  -4   26.50    1.06
  -1   1  -4   26.93    1.18
   1  -1   4   26.69    1.06
   1  -1   4   29.16    1.36
   1  -1   4   28.01    1.28
  -2   1  -4    8.62    0.43
  -2   1  -4    9.25    0.43
   2  -1   4   10.03    0.44
   2  -1   4    9.49    0.38
   2  -1   4   10.44    0.57
   2  -1   4    9.99    0.48
   2  -1   4    8.41    0.50
  -3   1  -4    4.53    0.24
  -3   1  -4    4.70    0.25
   3  -1   4    4.55    0.19
   3  -1   4    4.59    0.31
   3  -1   4    4.69    0.25
   3  -1   4    4.52    0.27
  -4   1  -4    0.33    0.06
  -4   1  -4    0.29    0.06
   4  -1   4    0.30    0.06
   4  -1   4    0.20    0.06
  -5   1  -4    1.57    0.14
  -5   1  -4    1.87    0.14
   5  -1   4    1.33    0.15
  -6   1  -4    2.26    0.18
  -6   1  -4    2.04    0.18
   6  -1   4    1.85    0.19
   6  -1   4    2.61    0.21
  -7   1  -4    3.78    0.27
  -7   1  -4    3.51    0.26
   7  -1   4    3.95    0.30
   7  -1   4    3.68    0.29
  -8   1  -4    0.33    0.11
  -8   1  -4    0.52    0.11
   8  -1   4    0.55    0.10
  -9   1  -4    1.43    0.19
  -9   1  -4    1.48    0.18
   9  -1   4    1.41    0.17
   8   0  -4    0.03    0.05
   8   0  -4    0.08    0.08
  -8   0   4    0.13    0.09
   7   0  -4    2.38    0.22
   7   0  -4    2.27    0.24
   7   0  -4    2.27    0.21
  -7   0   4    2.75    0.23
   6   0  -4   10.66    0.58
   6   0  -4   10.24    0.65
   6   0  -4   10.19    0.66
  -6   0   4   12.01    0.61
   5   0  -4    0.47    0.08
   5   0  -4    0.41    0.09
   5   0  -4    0.51    0.10
  -5   0   4    0.45    0.09
   4   0  -4    4.31    0.25
   4   0  -4    3.88    0.28
   4   0  -4    3.65    0.27
  -4   0   4    4.22    0.26
   3   0  -4   72.10    4.28
   3   0  -4   82.34    3.36
   3   0  -4   74.27    3.41
   3   0  -4   77.05    3.87
  -3   0   4   81.12    2.71
  -3   0   4   86.59    3.62
   2   0  -4   12.51    0.48
   2   0  -4   11.93    0.57
   2   0  -4   12.39    0.65
   2   0  -4   12.19    0.71
   2   0  -4   12.68    0.57
  -2   0   4   12.12    0.43
  -2   0   4   12.03    0.60
   1   0  -4   21.33    0.95
   1   0  -4   21.70    0.76
   1   0  -4   21.70    0.85
   1   0  -4   22.34    1.10
  -1   0   4   22.45    0.76
  -1   0   4   22.03    1.02
   0   0  -4    3.75    0.21
   0   0  -4    3.75    0.17
   0   0   4    4.05    0.20
   0   0   4    3.83    0.15
   0   0   4    3.91    0.21
   1   0   4  107.84    3.66
   1   0   4  105.91    4.81
   1   0   4  104.41    4.03
  -2   0  -4   40.82    1.79
   2   0   4   42.34    1.94
   2   0   4   42.94    1.60
  -3   0  -4    6.89    0.33
  -3   0  -4    6.58    0.33
   3   0   4    6.58    0.33
   3   0   4    6.81    0.41
   3   0   4    7.13    0.37
  -4   0  -4    0.65    0.08
  -4   0  -4    0.76    0.08
   4   0   4    0.61    0.08
   4   0   4    0.93    0.09
   4   0   4    0.72    0.08
  -5   0  -4   26.66    1.18
  -5   0  -4   27.13    1.17
   5   0   4   25.70    1.48
   5   0   4   26.47    1.34
   5   0   4   26.17    1.16
  -6   0  -4   48.13    2.05
  -6   0  -4   47.31    2.02
   6   0   4   45.90    2.35
   6   0   4   46.35    2.02
   6   0   4   46.63    2.58
  -7   0  -4    0.03    0.05
  -7   0  -4    0.10    0.06
   7   0   4    0.05    0.04
   7   0   4    0.05    0.04
  -8   0  -4   18.06    0.88
  -8   0  -4   18.29    0.87
   8   0   4   17.44    1.04
  -9   0  -4    0.87    0.17
  -9   0  -4    0.93    0.14
  -9   0  -4    0.83    0.14
   9   0   4    0.77    0.12
   8  -1  -4    0.26    0.11
   8  -1  -4    0.15    0.08
  -8   1   4    0.28    0.12
   7  -1  -4    0.13    0.09
   7  -1  -4    0.09    0.08
   7  -1  -4    0.16    0.07
  -7   1   4    0.09    0.09
   6  -1  -4    0.14    0.08
   6  -1  -4    0.10    0.06
   6  -1  -4    0.12    0.08
  -6   1   4    0.21    0.09
   5  -1  -4    8.26    0.51
   5  -1  -4    8.27    0.45
   5  -1  -4    7.61    0.51
  -5   1   4    7.22    0.45
   4  -1  -4    5.31    0.36
   4  -1  -4    5.15    0.31
   4  -1  -4    5.17    0.35
  -4   1   4    4.91    0.31
  -4   1   4    5.22    0.26
   3  -1  -4   37.57    1.61
   3  -1  -4   34.50    2.03
   3  -1  -4   35.13    1.85
  -3   1   4   36.69    1.53
  -3   1   4   37.22    1.27
  -3   1   4   38.22    1.72
   2  -1  -4    7.03    0.41
   2  -1  -4    6.84    0.44
   2  -1  -4    7.45    0.36
   2  -1  -4    6.98    0.29
  -2   1   4    7.06    0.37
  -2   1   4    7.25    0.26
   1  -1  -4   64.59    2.62
   1  -1  -4   70.41    3.37
   1  -1  -4   70.11    2.92
  -1   1   4   68.56    3.14
  -1   1   4   71.08    2.37
   0  -1  -4   17.30    0.84
   0  -1  -4   16.49    0.72
   0  -1  -4   16.31    0.65
   0   1   4   17.23    0.58
   0   1   4   16.47    0.65
   0   1   4   15.73    0.78
   1   1   4   79.98    3.77
   1   1   4   86.82    2.87
   1   1   4   82.20    3.15
  -2  -1  -4    3.81    0.19
   2   1   4    3.94    0.21
   2   1   4    3.73    0.16
  -3  -1  -4    2.78    0.15
   3   1   4    2.72    0.16
   3   1   4    2.89    0.17
  -4  -1  -4  101.46    4.34
  -4  -1  -4  104.22    4.27
   4   1   4  100.61    4.26
   4   1   4  101.45    5.54
   4   1   4  105.74    4.98
  -5  -1  -4    5.30    0.30
  -5  -1  -4    5.61    0.30
   5   1   4    5.52    0.30
   5   1   4    5.36    0.32
   5   1   4    5.93    0.35
  -6  -1  -4   30.90    1.27
  -6  -1  -4   28.11    1.28
   6   1   4   28.90    1.45
   6   1   4   28.11    1.26
   6   1   4   26.78    1.58
  -7  -1  -4    3.65    0.25
  -7  -1  -4    3.99    0.25
   7   1   4    3.56    0.25
   7   1   4    3.54    0.24
  -8  -1  -4   -0.01    0.05
  -8  -1  -4   -0.03    0.05
   8   1   4    0.00    0.03
   8   1   4    0.01    0.04
  -9  -1  -4    0.54    0.12
  -9  -1  -4    0.78    0.13
  -9  -1  -4    0.61    0.14
   9   1   4    0.69    0.09
 -10  -1  -4    0.09    0.11
 -10  -1  -4    0.16    0.08
 -10  -1  -4    0.18    0.10
  10   1   4    0.23    0.06
   7  -2  -4    0.38    0.10
   7  -2  -4    0.19    0.10
  -7   2   4    0.33    0.12
   6  -2  -4    1.87    0.19
   6  -2  -4    1.22    0.17
   6  -2  -4    1.45    0.19
  -6   2   4    1.26    0.17
   5  -2  -4   15.69    0.89
   5  -2  -4   15.30    0.77
   5  -2  -4   16.07    0.94
  -5   2   4   14.44    0.81
   4  -2  -4    0.02    0.05
   4  -2  -4   -0.04    0.04
   4  -2  -4   -0.02    0.04
  -4   2   4    0.09    0.06
  -4   2   4    0.02    0.03
   3  -2  -4    2.08    0.19
   3  -2  -4    2.22    0.17
   3  -2  -4    2.16    0.10
   3  -2  -4    2.31    0.20
  -3   2   4    2.43    0.11
  -3   2   4    2.29    0.14
  -3   2   4    2.32    0.18
   2  -2  -4   35.18    1.90
   2  -2  -4   35.09    1.32
   2  -2  -4   33.23    1.73
   2  -2  -4   33.19    1.49
  -2   2   4   34.15    1.19
  -2   2   4   35.51    1.44
  -2   2   4   33.39    1.32
  -2   2   4   32.88    1.59
   1  -2  -4   42.95    2.14
   1  -2  -4   41.68    2.36
   1  -2  -4   43.35    1.85
   1  -2  -4   41.36    1.65
  -1   2   4   42.25    1.65
  -1   2   4   43.73    1.49
  -1   2   4   45.12    1.79
  -1   2   4   43.30    1.98
   0  -2  -4    1.88    0.11
   0  -2  -4    1.95    0.14
   0  -2  -4    1.95    0.10
   0   2   4    1.88    0.10
   0   2   4    1.89    0.12
   0   2   4    1.89    0.08
  -1  -2  -4   24.69    1.20
   1   2   4   24.31    1.13
   1   2   4   24.67    0.85
   1   2   4   23.71    0.94
   2   2   4  139.36    6.70
   2   2   4  156.60    6.08
   2   2   4  145.18    5.59
  -3  -2  -4    3.64    0.19
   3   2   4    3.48    0.20
   3   2   4    3.42    0.20
  -4  -2  -4    4.01    0.21
   4   2   4    3.98    0.22
  -5  -2  -4   36.02    1.56
   5   2   4   34.82    1.96
   5   2   4   36.85    1.78
   5   2   4   36.45    1.55
  -6  -2  -4    4.46    0.26
  -6  -2  -4    4.41    0.26
   6   2   4    4.33    0.25
   6   2   4    4.07    0.27
   6   2   4    4.43    0.27
  -7  -2  -4    0.52    0.09
  -7  -2  -4    0.49    0.08
   7   2   4    0.39    0.06
   7   2   4    0.45    0.08
  -8  -2  -4    7.48    0.41
  -8  -2  -4    6.83    0.41
   8   2   4    6.67    0.39
   8   2   4    7.26    0.42
  -9  -2  -4    2.03    0.19
  -9  -2  -4    1.82    0.18
   9   2   4    1.59    0.17
   9   2   4    2.04    0.14
 -10  -2  -4    0.02    0.09
 -10  -2  -4    0.07    0.07
 -10  -2  -4   -0.06    0.06
   6  -3  -4   -0.01    0.07
   6  -3  -4    0.09    0.08
   6  -3  -4    0.08    0.08
  -6   3   4   -0.06    0.07
   5  -3  -4    1.93    0.22
   5  -3  -4    1.77    0.20
  -5   3   4    2.04    0.21
  -5   3   4    2.03    0.16
   4  -3  -4    0.81    0.14
   4  -3  -4    0.51    0.10
   4  -3  -4    0.83    0.12
  -4   3   4    0.62    0.08
  -4   3   4    0.43    0.10
   3  -3  -4    0.11    0.06
   3  -3  -4    0.14    0.06
   3  -3  -4    0.10    0.02
   3  -3  -4    0.08    0.06
  -3   3   4    0.09    0.04
  -3   3   4    0.13    0.06
  -3   3   4    0.07    0.03
   2  -3  -4   15.61    0.85
   2  -3  -4   15.65    0.62
   2  -3  -4   14.22    0.72
   2  -3  -4   15.33    0.91
  -2   3   4   15.51    0.68
  -2   3   4   15.16    0.76
  -2   3   4   15.63    0.55
   1  -3  -4   13.23    0.53
   1  -3  -4   12.94    0.76
   1  -3  -4   13.22    0.70
   1  -3  -4   12.78    0.60
  -1   3   4   12.55    0.46
  -1   3   4   12.92    0.57
  -1   3   4   11.89    0.62
  -1   3   4   12.80    0.52
   0  -3  -4   13.24    0.56
   0  -3  -4   13.81    0.62
   0  -3  -4   13.65    0.73
   0   3   4   14.08    0.49
   0   3   4   13.75    0.60
   0   3   4   13.81    0.55
   0   3   4   13.96    0.66
  -1  -3  -4  412.85   17.12
  -1  -3  -4  407.35   19.79
   1   3   4  412.30   13.98
   1   3   4  393.32   15.45
   1   3   4  409.80   16.80
  -2  -3  -4  444.12   21.29
   2   3   4  432.07   15.22
   2   3   4  432.89   16.62
   2   3   4  458.36   18.11
   2   3   4  426.06   19.88
  -3  -3  -4   80.66    3.43
   3   3   4   85.14    3.39
   3   3   4   78.79    3.71
  -4  -3  -4   17.82    0.79
   4   3   4   18.50    0.80
   4   3   4   17.42    0.88
  -5  -3  -4   11.80    0.57
  -5  -3  -4   12.19    0.63
   5   3   4   12.72    0.63
   5   3   4   12.74    0.58
   5   3   4   12.53    0.59
  -6  -3  -4    9.40    0.47
   6   3   4    9.67    0.47
   6   3   4    9.88    0.55
   6   3   4    9.66    0.47
  -7  -3  -4    0.07    0.04
  -7  -3  -4    0.04    0.04
   7   3   4    0.05    0.04
   7   3   4    0.06    0.02
  -8  -3  -4   11.16    0.57
  -8  -3  -4   10.67    0.56
   8   3   4   10.89    0.55
  -9  -3  -4    0.55    0.11
  -9  -3  -4    0.50    0.10
   9   3   4    0.56    0.10
 -10  -3  -4    0.86    0.16
 -10  -3  -4    1.18    0.15
 -10  -3  -4    0.99    0.16
  10   3   4    1.30    0.15
   6  -4  -4    0.80    0.17
   6  -4  -4    1.01    0.17
  -6   4   4    0.84    0.16
   5  -4  -4    0.28    0.10
   5  -4  -4    0.23    0.10
   5  -4  -4    0.24    0.09
  -5   4   4    0.36    0.08
  -5   4   4    0.31    0.11
   4  -4  -4    7.10    0.42
   4  -4  -4    7.12    0.50
   4  -4  -4    7.86    0.52
  -4   4   4    6.41    0.36
  -4   4   4    6.74    0.43
   3  -4  -4    1.86    0.11
   3  -4  -4    1.79    0.17
   3  -4  -4    1.85    0.20
   3  -4  -4    1.75    0.20
  -3   4   4    1.93    0.11
  -3   4   4    2.55    0.19
  -3   4   4    1.89    0.14
   2  -4  -4   19.17    1.07
   2  -4  -4   19.20    0.79
   2  -4  -4   19.81    0.92
   2  -4  -4   20.65    1.17
  -2   4   4   18.93    0.71
  -2   4   4   19.95    0.87
  -2   4   4   19.98    0.97
   1  -4  -4   41.10    1.79
   1  -4  -4   45.71    2.33
   1  -4  -4   48.48    2.01
  -1   4   4   45.53    1.61
  -1   4   4   49.27    2.14
  -1   4   4   45.10    1.78
  -1   4   4   48.08    1.95
   0  -4  -4   34.70    1.47
   0  -4  -4   31.87    1.32
   0  -4  -4   32.64    1.89
   0  -4  -4   34.42    1.71
   0   4   4   33.49    1.18
   0   4   4   34.98    1.43
   0   4   4   33.91    1.31
  -1  -4  -4   10.36    0.46
  -1  -4  -4   11.04    0.60
  -1  -4  -4   11.25    0.50
   1   4   4   11.03    0.40
   1   4   4   11.58    0.53
   1   4   4   10.61    0.50
   1   4   4   10.80    0.44
  -2  -4  -4  153.21    7.24
  -2  -4  -4  144.61    5.67
   2   4   4  150.61    6.76
   2   4   4  157.25    6.17
   2   4   4  144.56    6.42
   2   4   4  146.31    5.66
  -3  -4  -4    0.24    0.05
   3   4   4    0.13    0.05
   3   4   4    0.20    0.04
  -4  -4  -4   18.29    0.84
  -4  -4  -4   16.14    0.72
   4   4   4   14.89    0.78
   4   4   4   16.10    0.77
   4   4   4   16.92    0.74
  -5  -4  -4    3.85    0.22
  -5  -4  -4    3.30    0.19
   5   4   4    3.81    0.21
   5   4   4    3.79    0.22
   5   4   4    3.70    0.23
  -6  -4  -4   29.91    1.29
   6   4   4   29.15    1.33
   6   4   4   29.31    1.29
  -7  -4  -4    5.61    0.31
   7   4   4    5.93    0.32
   7   4   4    5.70    0.32
   7   4   4    5.51    0.33
   7   4   4    5.69    0.33
  -8  -4  -4    5.26    0.31
   8   4   4    5.19    0.31
  -9  -4  -4   -0.07    0.05
  -9  -4  -4    0.00    0.05
   9   4   4   -0.02    0.03
 -10  -4  -4    6.93    0.50
 -10  -4  -4    9.21    0.48
 -10  -4  -4    8.54    0.49
  10   4   4    8.38    0.46
   5  -5  -4    0.58    0.15
   5  -5  -4    0.43    0.13
  -5   5   4    0.90    0.16
  -5   5   4    0.61    0.11
   4  -5  -4    7.44    0.53
   4  -5  -4    7.23    0.55
   4  -5  -4    6.98    0.44
  -4   5   4    8.04    0.47
  -4   5   4    7.08    0.40
   3  -5  -4    3.81    0.35
   3  -5  -4    3.88    0.20
   3  -5  -4    4.06    0.29
   3  -5  -4    3.99    0.34
  -3   5   4    4.37    0.25
  -3   5   4    3.95    0.19
  -3   5   4    4.47    0.29
   2  -5  -4   29.73    1.60
   2  -5  -4   29.76    1.20
   2  -5  -4   30.49    1.76
   2  -5  -4   29.63    1.37
  -2   5   4   30.71    1.08
  -2   5   4   30.18    1.45
  -2   5   4   30.91    1.32
   1  -5  -4    9.46    0.51
   1  -5  -4   10.85    0.45
   1  -5  -4   10.36    0.62
  -1   5   4   10.13    0.48
  -1   5   4    9.95    0.44
  -1   5   4   10.06    0.38
   0  -5  -4   26.10    1.15
   0  -5  -4   24.72    1.03
   0  -5  -4   25.86    1.35
   0   5   4   26.11    1.21
   0   5   4   25.63    0.91
   0   5   4   25.92    1.12
   0   5   4   25.93    1.02
  -1  -5  -4   33.26    1.68
  -1  -5  -4   32.90    1.31
   1   5   4   33.29    1.15
   1   5   4   33.26    1.53
   1   5   4   32.25    1.49
   1   5   4   32.55    1.28
   1   5   4   33.75    1.41
  -2  -5  -4   64.77    2.54
  -2  -5  -4   66.56    3.26
  -2  -5  -4   67.40    2.79
   2   5   4   65.29    2.90
   2   5   4   68.00    3.01
   2   5   4   64.44    2.76
   2   5   4   66.73    2.27
   2   5   4   65.50    2.52
  -3  -5  -4    6.48    0.34
   3   5   4    5.29    0.31
   3   5   4    5.22    0.28
   3   5   4    5.19    0.22
  -4  -5  -4   17.01    0.84
   4   5   4   15.67    0.77
   4   5   4   16.01    0.73
  -5  -5  -4    0.71    0.09
   5   5   4    0.70    0.09
   5   5   4    0.80    0.08
   6   5   4   22.85    1.02
   6   5   4   22.56    1.06
   7   5   4    5.73    0.32
   7   5   4    5.71    0.33
   8   5   4    1.49    0.14
   8   5   4    1.44    0.14
  -9  -5  -4    0.53    0.10
   9   5   4    0.36    0.08
 -10  -5  -4    5.37    0.36
  10   5   4    5.57    0.34
   4  -6  -4   37.83    2.06
  -4   6   4   38.36    1.69
   3  -6  -4    3.44    0.18
   3  -6  -4    3.74    0.33
  -3   6   4    3.31    0.23
   2  -6  -4    5.13    0.40
   2  -6  -4    4.75    0.26
  -2   6   4    5.34    0.23
  -2   6   4    5.64    0.31
   1  -6  -4    2.60    0.17
   1  -6  -4    2.82    0.26
  -1   6   4    2.87    0.14
  -1   6   4    3.24    0.20
  -1   6   4    2.97    0.23
  -1   6   4    2.70    0.17
   0  -6  -4   24.30    0.95
   0  -6  -4   23.53    1.25
   0   6   4   22.91    1.03
   0   6   4   22.46    0.83
   0   6   4   23.31    0.93
   0   6   4   22.68    1.10
  -1  -6  -4    6.88    0.43
  -1  -6  -4    6.32    0.32
   1   6   4    6.79    0.30
   1   6   4    6.36    0.38
   1   6   4    6.92    0.26
   1   6   4    6.66    0.34
  -2  -6  -4    5.27    0.27
  -2  -6  -4    5.73    0.36
   2   6   4    5.42    0.24
   2   6   4    5.65    0.29
   2   6   4    5.02    0.32
   2   6   4    5.60    0.21
  -3  -6  -4   10.72    0.59
   3   6   4   10.25    0.41
   3   6   4   10.22    0.50
   3   6   4   10.36    0.54
  -4  -6  -4   34.22    1.72
   4   6   4   33.65    1.55
   4   6   4   33.96    1.47
  -5  -6  -4    2.04    0.17
   5   6   4    2.22    0.16
   5   6   4    1.92    0.17
   6   6   4    0.75    0.10
   6   6   4    0.74    0.10
   7   6   4    3.87    0.26
   7   6   4    3.71    0.24
   8   6   4    0.01    0.05
   8   6   4   -0.02    0.03
   9   6   4    3.08    0.24
   9   6   4    3.38    0.24
 -10  -6  -4    2.42    0.21
  10   6   4    1.94    0.18
   3  -7  -4    2.10    0.27
   3  -7  -4    2.44    0.14
  -3   7   4    2.07    0.19
   2  -7  -4    4.57    0.40
   2  -7  -4    5.71    0.27
  -2   7   4    4.82    0.31
   1  -7  -4    2.23    0.16
   1  -7  -4    2.34    0.25
  -1   7   4    2.24    0.15
  -1   7   4    2.21    0.12
  -1   7   4    2.36    0.18
   0  -7  -4    2.80    0.26
   0  -7  -4    2.59    0.17
   0   7   4    2.90    0.22
   0   7   4    2.72    0.16
   0   7   4    2.68    0.19
   0   7   4    2.80    0.14
  -1  -7  -4    3.46    0.29
  -1  -7  -4    3.27    0.21
   1   7   4    3.63    0.26
   1   7   4    3.41    0.22
   1   7   4    3.47    0.15
   1   7   4    3.52    0.18
  -2  -7  -4    7.42    0.46
   2   7   4    6.94    0.37
   2   7   4    6.90    0.31
   2   7   4    7.13    0.41
   2   7   4    6.94    0.26
  -3  -7  -4    7.82    0.48
   3   7   4    7.70    0.32
   3   7   4    7.57    0.44
   3   7   4    7.55    0.40
  -4  -7  -4    9.35    0.55
   4   7   4    9.18    0.51
   4   7   4    9.32    0.47
  -5  -7  -4    4.36    0.31
   5   7   4    4.46    0.30
   5   7   4    4.86    0.28
   6   7   4    1.92    0.15
   6   7   4    1.64    0.17
   7   7   4   13.47    0.68
   7   7   4   12.23    0.63
   8   7   4    4.72    0.32
   8   7   4    5.08    0.31
   9   7   4    0.04    0.05
   9   7   4    0.02    0.06
  10   7   4    4.48    0.30
  10   7   4    4.34    0.31
   2  -8  -4    3.70    0.36
   2  -8  -4    3.96    0.22
  -2   8   4    4.18    0.24
  -2   8   4    3.29    0.26
   1  -8  -4    0.88    0.10
   1  -8  -4    0.90    0.18
  -1   8   4    0.93    0.13
  -1   8   4    0.99    0.10
   0  -8  -4    0.02    0.06
   0  -8  -4    0.07    0.05
   0   8   4    0.08    0.05
   0   8   4    0.07    0.07
   0   8   4    0.38    0.08
  -1  -8  -4    0.15    0.06
  -1  -8  -4    0.17    0.08
   1   8   4    0.13    0.04
   1   8   4    0.06    0.06
   1   8   4    0.11    0.06
   1   8   4    0.08    0.03
  -2  -8  -4    0.78    0.14
   2   8   4    0.62    0.07
   2   8   4    0.75    0.12
   2   8   4    0.70    0.10
  -3  -8  -4    5.99    0.43
   3   8   4    6.40    0.27
   3   8   4    6.12    0.35
   3   8   4    6.37    0.39
  -4  -8  -4   10.80    0.64
   4   8   4   10.30    0.58
   4   8   4   10.79    0.54
   5   8   4    0.78    0.11
   5   8   4    0.63    0.11
   6   8   4    9.02    0.47
   6   8   4    8.89    0.52
   7   8   4    6.94    0.38
   7   8   4    6.06    0.40
   8   8   4    1.02    0.13
   8   8   4    1.03    0.15
   9   8   4    1.18    0.16
   9   8   4    1.54    0.15
  10   8   4    0.48    0.11
   0  -9  -4    0.02    0.05
   0  -9  -4   -0.01    0.07
   0   9   4    0.01    0.04
   0   9   4    0.08    0.07
  -1  -9  -4   -0.01    0.04
  -1  -9  -4    0.07    0.08
   1   9   4    0.03    0.05
   1   9   4    0.02    0.04
   1   9   4   -0.01    0.07
  -2  -9  -4    1.01    0.17
   2   9   4    1.40    0.14
   2   9   4    1.44    0.17
   2   9   4    1.34    0.10
  -3  -9  -4    3.06    0.29
   3   9   4    3.23    0.16
   3   9   4    2.86    0.25
   3   9   4    3.09    0.23
  -4  -9  -4   -0.02    0.05
   4   9   4    0.02    0.05
   4   9   4    0.00    0.06
   5   9   4    0.07    0.07
   5   9   4    0.11    0.06
   6   9   4   11.23    0.64
   6   9   4   11.90    0.60
   7   9   4    6.91    0.43
   7   9   4    5.86    0.37
   8   9   4    5.36    0.34
   8   9   4    5.39    0.38
   9   9   4    0.03    0.05
   9   9   4    0.11    0.08
  -2 -10  -4    0.13    0.09
   2  10   4    0.23    0.10
   2  10   4    0.17    0.05
   2  10   4    0.17    0.07
  -3 -10  -4    0.60    0.14
   3  10   4    0.78    0.07
   3  10   4    0.62    0.12
   3  10   4    0.76    0.14
  -4 -10  -4    2.40    0.26
   4  10   4    2.55    0.21
   4  10   4    2.45    0.24
   5  10   4    0.10    0.08
   5  10   4    0.02    0.06
   6  10   4    0.44    0.10
   6  10   4    0.34    0.11
   7  10   4    0.07    0.06
   7  10   4    0.01    0.07
   8  10   4    2.11    0.23
   8  10   4    1.86    0.19
   7   9  -5    0.27    0.10
  -7  -9   5    0.07    0.10
   6   9  -5    1.28    0.16
  -6  -9   5    1.05    0.19
   5   9  -5    1.55    0.17
  -5  -9   5    1.35    0.20
   4   9  -5    1.22    0.14
  -4  -9   5    0.89    0.17
  -3  -9   5    0.04    0.07
   2   9  -5    0.32    0.05
  -2  -9   5    0.18    0.11
   1   9  -5    0.15    0.05
  -1  -9   5    0.16    0.10
   0   9  -5    0.92    0.12
   0  -9   5    0.63    0.16
   0  -9   5    0.80    0.11
   8   8  -5    0.61    0.13
   8   8  -5    0.67    0.14
  -8  -8   5    0.49    0.15
   7   8  -5    0.14    0.08
  -7  -8   5    0.15    0.10
   6   8  -5    0.65    0.12
  -6  -8   5    0.90    0.16
   5   8  -5    0.40    0.10
  -5  -8   5    0.36    0.12
   4   8  -5   10.50    0.55
  -4  -8   5    9.50    0.63
   3   8  -5    2.27    0.19
  -3  -8   5    2.35    0.24
   2   8  -5    9.76    0.40
  -2  -8   5    8.75    0.60
  -1  -8   5    9.32    0.62
   0   8  -5    0.02    0.05
   0   8  -5   -0.06    0.03
   0  -8   5    0.08    0.05
   0  -8   5    0.04    0.07
  -1   8  -5    0.99    0.13
   1  -8   5    0.96    0.18
   1  -8   5    1.20    0.12
  -2   8  -5    0.16    0.08
   2  -8   5    0.05    0.05
   2  -8   5    0.03    0.08
   8   7  -5    0.12    0.08
   8   7  -5    0.24    0.09
  -8  -7   5    0.07    0.09
   7   7  -5   -0.01    0.06
   7   7  -5   -0.05    0.05
  -7  -7   5   -0.01    0.07
   6   7  -5    4.91    0.33
   6   7  -5    5.04    0.36
   5   7  -5   10.11    0.55
  -5  -7   5   10.14    0.63
   4   7  -5    1.57    0.15
  -4  -7   5    1.14    0.17
   3   7  -5    0.83    0.11
  -3  -7   5    0.65    0.13
   2   7  -5    0.21    0.07
  -2  -7   5    0.32    0.10
   1   7  -5    9.82    0.35
  -1  -7   5    9.32    0.60
  -1  -7   5    9.59    0.44
   0   7  -5    0.97    0.10
   0   7  -5    0.87    0.07
   0  -7   5    1.04    0.10
   0  -7   5    0.91    0.15
  -1   7  -5    0.29    0.05
  -1   7  -5    0.30    0.08
   1  -7   5    0.25    0.10
   1  -7   5    0.46    0.07
  -2   7  -5    0.60    0.10
   2  -7   5    0.53    0.13
   2  -7   5    0.51    0.08
  -3   7  -5    0.16    0.07
   3  -7   5    0.19    0.05
   3  -7   5    0.24    0.11
   8   6  -5    0.05    0.07
   8   6  -5   -0.01    0.06
  -8  -6   5    0.01    0.07
   7   6  -5    5.74    0.36
   7   6  -5    5.57    0.38
  -7  -6   5    4.36    0.38
   6   6  -5   -0.03    0.04
   6   6  -5    0.08    0.06
  -6  -6   5    0.14    0.09
   5   6  -5    1.44    0.16
   5   6  -5    1.52    0.15
  -5  -6   5    1.48    0.18
   4   6  -5   10.15    0.54
  -4  -6   5   10.62    0.62
   3   6  -5    1.25    0.12
  -3  -6   5    0.93    0.14
   2   6  -5   10.13    0.48
  -2  -6   5    8.36    0.55
   1   6  -5    4.61    0.23
   1   6  -5    4.17    0.17
  -1  -6   5    4.41    0.32
  -1  -6   5    4.17    0.23
   0   6  -5    0.13    0.03
   0   6  -5    0.12    0.05
   0  -6   5    0.14    0.07
   0  -6   5    0.15    0.05
  -1   6  -5    0.08    0.05
  -1   6  -5    0.03    0.03
   1  -6   5    0.03    0.06
   1  -6   5    0.02    0.03
  -2   6  -5    0.01    0.04
  -2   6  -5   -0.03    0.03
   2  -6   5    0.02    0.03
   2  -6   5    0.00    0.06
  -3   6  -5    0.12    0.05
  -3   6  -5    0.19    0.08
   3  -6   5    0.22    0.10
   3  -6   5    0.13    0.05
  -4   6  -5    0.03    0.06
   4  -6   5   -0.04    0.06
   4  -6   5   -0.02    0.03
  -5   6  -5    0.14    0.09
   5  -6   5    0.33    0.12
   9   5  -5    2.17    0.21
   9   5  -5    1.93    0.22
  -9  -5   5    1.92    0.25
   8   5  -5    2.06    0.21
   8   5  -5    2.39    0.21
  -8  -5   5    1.47    0.22
   7   5  -5    0.06    0.06
   7   5  -5    0.11    0.07
  -7  -5   5    0.16    0.09
   6   5  -5    0.27    0.08
   6   5  -5    0.20    0.08
  -6  -5   5    0.42    0.11
   5   5  -5    0.09    0.06
   5   5  -5    0.36    0.08
  -5  -5   5    0.19    0.08
   4   5  -5    7.52    0.42
   4   5  -5    7.43    0.46
  -4  -5   5    8.21    0.49
   3   5  -5    1.60    0.14
   3   5  -5    1.71    0.15
  -3  -5   5    1.34    0.15
   2   5  -5    7.22    0.37
  -2  -5   5    6.95    0.27
  -2  -5   5    6.37    0.42
   1   5  -5    6.54    0.31
   1   5  -5    6.44    0.24
   1   5  -5    6.33    0.34
  -1  -5   5    6.10    0.40
  -1  -5   5    6.83    0.30
   0   5  -5    0.30    0.04
   0   5  -5    0.22    0.05
   0  -5   5    0.24    0.05
   0  -5   5    0.19    0.07
  -1   5  -5    0.04    0.04
   1  -5   5    0.00    0.03
   1  -5   5    0.04    0.05
  -2   5  -5    5.74    0.30
   2  -5   5    4.67    0.26
   2  -5   5    5.67    0.38
  -3   5  -5    0.26    0.07
  -3   5  -5    0.24    0.07
   3  -5   5    0.25    0.09
   3  -5   5    0.24    0.10
   3  -5   5    0.26    0.05
  -4   5  -5    1.31    0.14
  -4   5  -5    1.50    0.14
   4  -5   5    1.56    0.21
   4  -5   5    1.55    0.11
   4  -5   5    1.68    0.19
  -5   5  -5   -0.01    0.05
  -5   5  -5    0.08    0.07
   5  -5   5    0.00    0.06
   5  -5   5    0.07    0.07
  -6   5  -5   -0.06    0.05
  -6   5  -5   -0.03    0.06
  -6   5  -5    0.06    0.09
   6  -5   5    0.01    0.07
   6  -5   5    0.01    0.08
   9   4  -5    2.10    0.21
   9   4  -5    2.08    0.23
  -9  -4   5    2.22    0.26
   8   4  -5    0.03    0.06
   8   4  -5    0.05    0.06
  -8  -4   5    0.07    0.09
  -8  -4   5    0.02    0.08
   7   4  -5    1.04    0.14
   7   4  -5    1.27    0.15
   7   4  -5    1.14    0.15
  -7  -4   5    1.16    0.13
  -7  -4   5    1.00    0.16
   6   4  -5    3.92    0.28
   6   4  -5    4.48    0.28
   6   4  -5    4.44    0.32
  -6  -4   5    4.65    0.28
  -6  -4   5    4.63    0.35
   5   4  -5    0.32    0.08
   5   4  -5    0.30    0.07
   5   4  -5    0.13    0.06
  -5  -4   5    0.16    0.06
  -5  -4   5    0.18    0.08
   4   4  -5   22.85    1.13
   4   4  -5   23.43    1.27
   4   4  -5   25.02    1.09
  -4  -4   5   26.48    1.16
  -4  -4   5   25.10    1.29
   3   4  -5    4.60    0.27
   3   4  -5    4.39    0.24
   3   4  -5    4.75    0.30
  -3  -4   5    4.58    0.25
  -3  -4   5    4.85    0.31
   2   4  -5    0.81    0.10
   2   4  -5    0.70    0.08
   2   4  -5    0.51    0.06
  -2  -4   5    0.66    0.07
  -2  -4   5    0.64    0.05
   1   4  -5   15.22    0.67
   1   4  -5   15.15    0.68
   1   4  -5   16.03    0.73
   1   4  -5   15.64    0.55
  -1  -4   5   16.31    0.75
  -1  -4   5   15.29    0.83
   0   4  -5    3.87    0.19
   0   4  -5    3.48    0.18
   0  -4   5    3.33    0.18
   0  -4   5    3.29    0.21
   0  -4   5    3.70    0.25
  -1   4  -5    0.01    0.03
  -1   4  -5    0.08    0.03
   1  -4   5    0.39    0.08
   1  -4   5    0.12    0.04
  -2   4  -5    7.28    0.36
  -2   4  -5    7.33    0.37
   2  -4   5    6.69    0.49
   2  -4   5    7.79    0.46
   2  -4   5    6.94    0.32
  -3   4  -5    2.90    0.18
  -3   4  -5    2.11    0.16
   3  -4   5    1.71    0.21
   3  -4   5    2.57    0.22
   3  -4   5    2.10    0.13
  -4   4  -5    1.37    0.13
  -4   4  -5    1.56    0.14
   4  -4   5    1.50    0.17
   4  -4   5    1.49    0.10
   4  -4   5    1.39    0.19
  -5   4  -5    3.97    0.26
  -5   4  -5    3.88    0.27
   5  -4   5    4.20    0.33
   5  -4   5    3.80    0.34
  -6   4  -5    0.57    0.12
  -6   4  -5    0.69    0.12
   6  -4   5    0.60    0.14
   6  -4   5    0.57    0.13
   9   3  -5    1.24    0.15
   9   3  -5    1.46    0.19
   9   3  -5    0.91    0.16
  -9  -3   5    1.15    0.20
  -9  -3   5    1.10    0.17
   8   3  -5    0.36    0.11
   8   3  -5    0.31    0.09
   8   3  -5    0.44    0.12
  -8  -3   5    0.42    0.13
  -8  -3   5    0.29    0.10
   7   3  -5    0.52    0.11
   7   3  -5    0.40    0.10
   7   3  -5    0.47    0.10
  -7  -3   5    0.50    0.13
  -7  -3   5    0.52    0.11
   6   3  -5    0.94    0.14
   6   3  -5    0.99    0.12
   6   3  -5    1.09    0.13
  -6  -3   5    0.88    0.15
  -6  -3   5    1.21    0.13
   5   3  -5    0.69    0.10
   5   3  -5    0.73    0.10
   5   3  -5    0.54    0.10
  -5  -3   5    0.66    0.12
  -5  -3   5    0.56    0.08
   4   3  -5    7.74    0.43
   4   3  -5    8.16    0.42
   4   3  -5    8.36    0.49
  -4  -3   5    8.52    0.50
  -4  -3   5    8.71    0.43
   3   3  -5   17.90    0.90
   3   3  -5   16.90    0.76
   3   3  -5   16.96    0.80
  -3  -3   5   16.45    0.90
  -3  -3   5   16.95    0.81
   2   3  -5    2.59    0.17
   2   3  -5    2.70    0.19
   2   3  -5    2.70    0.15
  -2  -3   5    2.76    0.12
  -2  -3   5    2.71    0.20
  -2  -3   5    2.81    0.17
   1   3  -5    3.29    0.18
   1   3  -5    3.61    0.22
   1   3  -5    3.56    0.20
  -1  -3   5    3.58    0.15
  -1  -3   5    3.80    0.20
  -1  -3   5    2.78    0.22
  -1  -3   5    3.61    0.17
   0   3  -5    2.26    0.12
   0   3  -5    2.48    0.13
   0   3  -5    2.37    0.13
   0  -3   5    2.49    0.18
   0  -3   5    2.27    0.13
   0  -3   5    2.21    0.15
  -1   3  -5    0.33    0.04
  -1   3  -5    0.53    0.06
  -1   3  -5    0.32    0.05
   1  -3   5    0.51    0.08
   1  -3   5    0.28    0.04
   1  -3   5    0.19    0.06
   1  -3   5    0.24    0.05
  -2   3  -5    2.36    0.14
  -2   3  -5    2.22    0.16
  -2   3  -5    2.51    0.15
   2  -3   5    2.42    0.13
   2  -3   5    2.74    0.22
   2  -3   5    2.09    0.19
  -3   3  -5   40.54    1.78
  -3   3  -5   42.31    1.80
   3  -3   5   42.20    2.10
   3  -3   5   42.25    2.33
   3  -3   5   40.13    1.60
  -4   3  -5    1.23    0.13
  -4   3  -5    1.11    0.12
   4  -3   5    1.22    0.16
   4  -3   5    1.21    0.14
   4  -3   5    1.25    0.08
  -5   3  -5    6.18    0.39
  -5   3  -5    7.84    0.41
   5  -3   5    6.48    0.46
   5  -3   5    8.69    0.53
  -6   3  -5    0.64    0.11
  -6   3  -5    0.47    0.11
   6  -3   5    0.64    0.13
   6  -3   5    0.42    0.11
  -7   3  -5   11.18    0.61
  -7   3  -5   11.74    0.62
   7  -3   5   11.26    0.76
   8   2  -5    0.12    0.07
   8   2  -5    0.01    0.06
   8   2  -5    0.07    0.08
  -8  -2   5    0.03    0.08
  -8  -2   5    0.06    0.08
   7   2  -5    0.26    0.09
   7   2  -5    0.23    0.07
   7   2  -5    0.21    0.09
  -7  -2   5    0.23    0.09
   6   2  -5    3.58    0.23
   6   2  -5    2.97    0.23
   6   2  -5    3.23    0.26
  -6  -2   5    2.97    0.23
  -6  -2   5    2.92    0.27
   5   2  -5    3.01    0.24
   5   2  -5    2.90    0.21
   5   2  -5    3.44    0.23
  -5  -2   5    3.49    0.27
  -5  -2   5    3.29    0.22
   4   2  -5   18.16    0.83
   4   2  -5   18.25    0.85
   4   2  -5   17.94    0.96
  -4  -2   5   17.40    0.97
  -4  -2   5   18.26    0.88
   3   2  -5   54.09    2.35
   3   2  -5   57.14    2.41
   3   2  -5   56.84    2.72
  -3  -2   5   54.14    2.73
  -3  -2   5   52.75    2.52
   2   2  -5    2.42    0.16
   2   2  -5    2.50    0.17
   2   2  -5    2.40    0.14
  -2  -2   5    2.12    0.17
  -2  -2   5    2.52    0.10
  -2  -2   5    2.43    0.15
   1   2  -5   29.74    1.15
   1   2  -5   30.15    1.48
   1   2  -5   30.14    1.27
  -1  -2   5   30.41    1.38
  -1  -2   5   27.78    1.48
  -1  -2   5   29.66    1.03
   0   2  -5    2.29    0.12
   0   2  -5    2.68    0.13
   0  -2   5    2.34    0.15
   0  -2   5    2.41    0.16
   0  -2   5    2.05    0.12
   0  -2   5    2.33    0.10
  -1   2  -5    0.69    0.06
  -1   2  -5    0.67    0.06
   1  -2   5    0.64    0.06
   1  -2   5    0.83    0.08
  -2   2  -5   83.52    3.16
  -2   2  -5   82.84    3.50
  -2   2  -5   80.39    3.45
   2  -2   5   85.98    3.80
   2  -2   5   81.55    4.51
   2  -2   5   82.83    3.16
  -3   2  -5   40.07    1.70
  -3   2  -5   40.30    1.69
   3  -2   5   38.25    2.19
   3  -2   5   38.73    1.51
  -4   2  -5    6.79    0.37
  -4   2  -5    6.85    0.37
   4  -2   5    7.29    0.47
  -5   2  -5   43.57    1.95
  -5   2  -5   46.02    1.98
   5  -2   5   45.58    2.52
  -6   2  -5   16.03    0.77
  -6   2  -5   16.17    0.77
   6  -2   5   15.01    0.88
   6  -2   5   15.45    0.95
  -7   2  -5   14.98    0.77
  -7   2  -5   15.97    0.78
   7  -2   5   15.38    0.95
  -8   2  -5    5.96    0.38
  -8   2  -5    5.60    0.38
   8  -2   5    6.21    0.45
   8   1  -5    0.28    0.08
   8   1  -5    0.37    0.12
   8   1  -5    0.27    0.11
  -8  -1   5    0.32    0.11
   7   1  -5    0.30    0.10
   7   1  -5    0.31    0.07
   7   1  -5    0.30    0.11
  -7  -1   5    0.28    0.10
   6   1  -5    0.15    0.06
   6   1  -5    0.19    0.08
   6   1  -5    0.23    0.07
   6   1  -5    0.14    0.08
  -6  -1   5    0.20    0.08
   5   1  -5    0.09    0.06
   5   1  -5    0.06    0.05
   5   1  -5    0.09    0.06
  -5  -1   5    0.14    0.07
   4   1  -5   16.85    0.89
   4   1  -5   17.01    0.96
   4   1  -5   16.35    0.78
  -4  -1   5   15.81    0.81
   3   1  -5   36.40    1.96
   3   1  -5   34.45    1.57
   3   1  -5   32.88    1.54
   3   1  -5   37.57    1.79
  -3  -1   5   36.01    1.65
   2   1  -5   15.87    0.86
   2   1  -5   15.73    0.65
   2   1  -5   14.57    0.76
   2   1  -5   18.22    0.75
  -2  -1   5   17.93    0.88
  -2  -1   5   17.51    0.59
  -2  -1   5   17.26    0.80
   1   1  -5   15.26    0.77
   1   1  -5   14.37    0.66
   1   1  -5   15.29    0.59
  -1  -1   5   14.14    0.77
  -1  -1   5   15.22    0.53
  -1  -1   5   14.98    0.71
   0   1  -5    0.03    0.02
   0   1  -5    0.03    0.02
   0   1  -5    0.10    0.03
   0  -1   5    0.10    0.02
   0  -1   5    0.07    0.03
   0  -1   5    0.06    0.02
   0  -1   5    0.01    0.01
  -1   1  -5   31.26    1.37
  -1   1  -5   32.23    1.24
   1  -1   5   32.70    1.49
   1  -1   5   31.92    1.58
   1  -1   5   32.45    1.24
  -2   1  -5   27.04    1.03
  -2   1  -5   24.28    1.13
  -2   1  -5   25.40    1.14
   2  -1   5   25.68    1.31
   2  -1   5   27.20    1.13
   2  -1   5   27.15    1.24
   2  -1   5   26.70    1.02
   2  -1   5   27.08    1.48
  -3   1  -5   10.28    0.48
  -3   1  -5   10.34    0.48
   3  -1   5   10.48    0.54
   3  -1   5    9.70    0.61
   3  -1   5   10.24    0.48
   3  -1   5    9.78    0.40
  -4   1  -5    0.03    0.03
  -4   1  -5   -0.01    0.03
   4  -1   5    0.00    0.02
   4  -1   5   -0.01    0.03
   4  -1   5    0.01    0.03
  -5   1  -5    9.45    0.46
  -5   1  -5    8.02    0.45
   5  -1   5    8.68    0.51
   5  -1   5    9.41    0.57
  -6   1  -5    5.69    0.33
  -6   1  -5    5.97    0.34
   6  -1   5    5.51    0.39
  -7   1  -5    7.02    0.40
  -7   1  -5    6.88    0.40
   7  -1   5    6.79    0.47
  -8   1  -5    0.82    0.13
  -8   1  -5    0.73    0.14
   8  -1   5    1.05    0.14
  -9   1  -5    1.34    0.21
  -9   1  -5    1.17    0.17
  -9   1  -5    1.63    0.18
   9  -1   5    1.53    0.18
   8   0  -5    0.15    0.09
   8   0  -5    0.29    0.12
  -8   0   5    0.26    0.11
   7   0  -5    1.17    0.17
   7   0  -5    1.15    0.14
   7   0  -5    1.20    0.17
  -7   0   5    1.31    0.17
   6   0  -5    0.11    0.07
   6   0  -5    0.09    0.05
   6   0  -5   -0.02    0.06
  -6   0   5    0.02    0.06
   5   0  -5    0.01    0.04
   5   0  -5    0.06    0.06
   5   0  -5   -0.04    0.04
  -5   0   5    0.05    0.05
   4   0  -5    4.56    0.29
   4   0  -5    5.52    0.34
   4   0  -5    5.02    0.34
  -4   0   5    4.36    0.29
   3   0  -5    2.22    0.18
   3   0  -5    1.90    0.15
  -3   0   5    1.93    0.15
   2   0  -5    0.19    0.05
   2   0  -5    0.24    0.06
   2   0  -5    0.20    0.02
   2   0  -5    0.30    0.05
  -2   0   5    0.28    0.03
  -2   0   5    0.31    0.05
   1   0  -5    6.38    0.26
   1   0  -5    5.78    0.29
   1   0  -5    6.43    0.35
   1   0  -5    6.31    0.39
  -1   0   5    6.09    0.23
  -1   0   5    5.59    0.31
   0   0  -5    8.74    0.38
   0   0  -5    9.73    0.43
   0   0  -5    9.20    0.48
   0   0   5    9.19    0.38
   0   0   5    9.68    0.34
   0   0   5    9.69    0.49
   0   0   5    9.29    0.46
  -1   0  -5    0.79    0.07
  -1   0  -5    0.99    0.06
  -1   0  -5    0.99    0.07
   1   0   5    0.69    0.06
   1   0   5    0.99    0.06
   1   0   5    1.21    0.08
   1   0   5    0.86    0.05
  -2   0  -5  349.54   15.36
   2   0   5  366.16   13.83
   2   0   5  370.10   16.61
   2   0   5  371.20   15.13
  -3   0  -5   58.56    2.61
   3   0   5   63.16    2.58
   3   0   5   61.12    2.34
   3   0   5   61.90    3.36
   3   0   5   63.90    3.00
   3   0   5   60.85    2.83
  -4   0  -5  157.92    6.56
  -4   0  -5  156.86    6.45
   4   0   5  148.92    8.40
   4   0   5  155.45    6.45
   4   0   5  160.06    7.54
  -5   0  -5   55.28    2.33
  -5   0  -5   55.21    2.36
   5   0   5   56.85    2.70
   5   0   5   53.92    2.33
   5   0   5   52.22    2.99
  -6   0  -5    0.58    0.09
  -6   0  -5    0.77    0.11
   6   0   5    0.64    0.09
   6   0   5    0.69    0.10
  -7   0  -5    0.57    0.11
  -7   0  -5    0.45    0.09
   7   0   5    0.59    0.09
  -8   0  -5    0.20    0.08
  -8   0  -5    0.19    0.09
   8   0   5    0.25    0.07
  -9   0  -5    0.58    0.13
  -9   0  -5    0.56    0.12
   9   0   5    0.50    0.10
   7  -1  -5    0.38    0.12
   7  -1  -5    0.41    0.10
   7  -1  -5    0.47    0.13
  -7   1   5    0.42    0.12
   6  -1  -5    0.26    0.09
   6  -1  -5    0.16    0.08
   6  -1  -5    0.27    0.10
  -6   1   5    0.37    0.11
   5  -1  -5   -0.01    0.04
   5  -1  -5    0.03    0.05
   5  -1  -5    0.02    0.05
  -5   1   5    0.03    0.06
   4  -1  -5    1.26    0.14
   4  -1  -5    1.39    0.16
   4  -1  -5    1.62    0.15
  -4   1   5    1.08    0.13
   3  -1  -5    0.57    0.09
   3  -1  -5    0.68    0.10
   3  -1  -5    0.59    0.10
  -3   1   5    0.65    0.09
   2  -1  -5    2.51    0.12
   2  -1  -5    2.26    0.18
   2  -1  -5    2.45    0.20
   2  -1  -5    2.22    0.16
  -2   1   5    2.44    0.11
  -2   1   5    2.35    0.16
   1  -1  -5    0.40    0.04
   1  -1  -5    0.36    0.05
   1  -1  -5    0.41    0.06
   1  -1  -5    0.38    0.06
  -1   1   5    0.36    0.04
  -1   1   5    0.42    0.06
  -1   1   5    0.37    0.03
   0  -1  -5   11.95    0.58
   0  -1  -5   11.53    0.46
   0  -1  -5   10.77    0.50
   0   1   5   10.76    0.54
   0   1   5   11.20    0.40
  -1  -1  -5   48.03    1.88
  -1  -1  -5   49.55    2.08
   1   1   5   49.59    1.69
   1   1   5   49.78    2.25
   1   1   5   48.54    1.87
  -2  -1  -5    0.24    0.04
   2   1   5    0.09    0.04
  -3  -1  -5    2.55    0.14
   3   1   5    2.26    0.16
   3   1   5    2.45    0.15
  -4  -1  -5    0.45    0.06
   4   1   5    0.54    0.06
   4   1   5    0.47    0.06
  -5  -1  -5   11.90    0.56
  -5  -1  -5   11.99    0.56
   5   1   5   11.55    0.68
   5   1   5   11.38    0.55
  -6  -1  -5    4.61    0.28
  -6  -1  -5    4.71    0.28
   6   1   5    4.52    0.27
   6   1   5    4.88    0.31
  -7  -1  -5    0.05    0.05
  -7  -1  -5    0.05    0.05
   7   1   5    0.00    0.03
   7   1   5    0.07    0.04
  -8  -1  -5    1.34    0.15
  -8  -1  -5    1.14    0.15
   8   1   5    1.34    0.13
   8   1   5    1.29    0.14
  -9  -1  -5    0.06    0.07
  -9  -1  -5    0.07    0.07
   9   1   5    0.08    0.05
 -10  -1  -5    0.93    0.16
 -10  -1  -5    1.00    0.19
 -10  -1  -5    0.84    0.15
  10   1   5    1.20    0.13
   7  -2  -5    0.10    0.09
   7  -2  -5    0.07    0.07
   7  -2  -5    0.04    0.08
  -7   2   5    0.11    0.10
   6  -2  -5    0.18    0.08
   6  -2  -5    0.04    0.08
   6  -2  -5    0.13    0.08
  -6   2   5    0.06    0.08
   5  -2  -5    0.01    0.05
   5  -2  -5   -0.04    0.04
   5  -2  -5    0.01    0.06
  -5   2   5    0.04    0.07
   4  -2  -5   -0.04    0.04
   4  -2  -5   -0.03    0.05
   4  -2  -5    0.00    0.05
  -4   2   5    0.40    0.09
   3  -2  -5    6.77    0.45
   3  -2  -5    6.25    0.42
   3  -2  -5    6.43    0.27
   3  -2  -5    6.43    0.37
  -3   2   5    6.76    0.38
  -3   2   5    6.77    0.32
  -3   2   5    6.48    0.26
   2  -2  -5    1.40    0.08
   2  -2  -5    1.65    0.15
   2  -2  -5    1.10    0.13
   2  -2  -5    1.19    0.11
  -2   2   5    0.94    0.11
  -2   2   5    1.24    0.07
  -2   2   5    1.16    0.09
   1  -2  -5   47.84    2.00
   1  -2  -5   51.80    2.87
   1  -2  -5   53.55    2.24
   1  -2  -5   52.63    2.58
  -1   2   5   52.73    1.80
  -1   2   5   54.38    2.40
  -1   2   5   52.03    2.00
  -1   2   5   52.50    2.17
   0  -2  -5    2.35    0.12
   0  -2  -5    2.31    0.14
   0  -2  -5    2.34    0.16
   0   2   5    2.27    0.10
   0   2   5    2.30    0.14
   0   2   5    2.29    0.11
   0   2   5    2.35    0.13
  -1  -2  -5    2.19    0.14
  -1  -2  -5    2.59    0.13
   1   2   5    2.32    0.10
   1   2   5    1.88    0.11
   1   2   5    2.31    0.14
   1   2   5    2.17    0.13
  -2  -2  -5    0.60    0.06
   2   2   5    0.85    0.07
   2   2   5    0.67    0.05
   2   2   5    0.91    0.07
  -3  -2  -5    5.53    0.27
   3   2   5    5.67    0.28
   3   2   5    5.77    0.30
  -4  -2  -5    3.13    0.18
   4   2   5    3.41    0.21
   4   2   5    3.22    0.19
  -5  -2  -5    0.64    0.08
   5   2   5    0.76    0.08
  -6  -2  -5    1.17    0.11
  -6  -2  -5    1.41    0.13
   6   2   5    1.11    0.11
   6   2   5    0.97    0.10
  -7  -2  -5    2.57    0.19
  -7  -2  -5    2.58    0.19
   7   2   5    2.45    0.18
   7   2   5    2.43    0.18
  -8  -2  -5    0.00    0.05
  -8  -2  -5    0.03    0.05
   8   2   5    0.02    0.03
   8   2   5    0.03    0.04
  -9  -2  -5   -0.01    0.06
  -9  -2  -5    0.00    0.06
   9   2   5    0.00    0.05
   9   2   5    0.01    0.03
 -10  -2  -5    0.02    0.06
 -10  -2  -5   -0.02    0.06
 -10  -2  -5   -0.03    0.08
  10   2   5    0.02    0.03
   6  -3  -5    0.03    0.06
   6  -3  -5    0.05    0.07
   6  -3  -5    0.03    0.08
  -6   3   5    0.04    0.08
   5  -3  -5    9.01    0.54
   5  -3  -5    9.43    0.62
   5  -3  -5    9.97    0.65
  -5   3   5    9.58    0.56
   4  -3  -5    7.54    0.52
   4  -3  -5    7.49    0.54
   4  -3  -5    7.45    0.45
  -4   3   5    8.43    0.40
  -4   3   5    8.53    0.47
   3  -3  -5   50.23    2.30
   3  -3  -5   53.49    2.92
   3  -3  -5   50.11    2.01
   3  -3  -5   53.02    2.66
  -3   3   5   53.91    2.21
  -3   3   5   52.84    1.83
  -3   3   5   53.65    2.46
   2  -3  -5   52.25    2.31
   2  -3  -5   53.95    2.05
   2  -3  -5   54.42    2.68
   2  -3  -5   51.17    2.95
  -2   3   5   53.81    1.85
  -2   3   5   53.77    2.23
  -2   3   5   53.51    2.47
   1  -3  -5   23.64    1.49
   1  -3  -5   26.01    1.36
   1  -3  -5   23.68    1.03
   1  -3  -5   28.02    1.17
  -1   3   5   27.42    0.93
  -1   3   5   25.93    1.03
  -1   3   5   27.14    1.13
  -1   3   5   28.98    1.25
   0  -3  -5   34.59    1.46
   0  -3  -5   33.52    1.69
   0  -3  -5   30.80    1.31
   0   3   5   33.46    1.30
   0   3   5   34.02    1.18
   0   3   5   35.97    1.57
   0   3   5   33.65    1.42
  -1  -3  -5    0.89    0.09
  -1  -3  -5    0.83    0.07
  -1  -3  -5    0.85    0.07
   1   3   5    0.90    0.05
   1   3   5    1.00    0.06
   1   3   5    1.14    0.08
   1   3   5    0.88    0.08
  -2  -3  -5   10.20    0.51
  -2  -3  -5   10.33    0.45
   2   3   5    9.81    0.40
   2   3   5   10.61    0.46
   2   3   5   10.31    0.35
   2   3   5    8.46    0.48
  -3  -3  -5    2.01    0.12
   3   3   5    1.95    0.13
   3   3   5    1.94    0.14
  -4  -3  -5    4.70    0.24
   4   3   5    4.57    0.25
   4   3   5    4.59    0.25
   4   3   5    4.73    0.26
  -5  -3  -5    3.98    0.21
   5   3   5    3.67    0.22
   5   3   5    3.86    0.22
  -6  -3  -5    0.07    0.04
   6   3   5    0.05    0.03
   6   3   5    0.03    0.03
  -7  -3  -5    5.33    0.30
   7   3   5    5.32    0.32
   7   3   5    5.01    0.30
  -8  -3  -5    0.24    0.08
  -8  -3  -5    0.05    0.05
   8   3   5    0.19    0.06
  -9  -3  -5    0.05    0.06
  -9  -3  -5    0.02    0.05
   9   3   5    0.02    0.05
 -10  -3  -5    0.65    0.12
 -10  -3  -5    0.87    0.15
  10   3   5    0.55    0.11
   5  -4  -5    0.16    0.09
   5  -4  -5    0.30    0.11
   5  -4  -5    0.25    0.11
  -5   4   5    0.34    0.11
   4  -4  -5    0.66    0.12
   4  -4  -5    0.51    0.13
   4  -4  -5    0.41    0.12
  -4   4   5    0.70    0.12
  -4   4   5    0.60    0.09
   3  -4  -5    0.23    0.04
   3  -4  -5    0.34    0.10
   3  -4  -5    0.30    0.09
   3  -4  -5    0.23    0.08
  -3   4   5    0.34    0.05
  -3   4   5    0.34    0.08
  -3   4   5    0.36    0.07
   2  -4  -5    9.70    0.62
   2  -4  -5   10.20    0.42
   2  -4  -5    9.39    0.59
   2  -4  -5    9.46    0.50
  -2   4   5    8.95    0.51
  -2   4   5    9.64    0.37
  -2   4   5    9.72    0.46
   1  -4  -5    2.49    0.21
   1  -4  -5    2.20    0.16
   1  -4  -5    2.26    0.14
  -1   4   5    2.27    0.16
  -1   4   5    2.14    0.11
  -1   4   5    2.20    0.13
  -1   4   5    2.22    0.15
   0  -4  -5   17.57    0.92
   0  -4  -5   17.69    0.79
   0  -4  -5   16.72    0.70
   0  -4  -5   16.53    1.01
   0   4   5   17.40    0.83
   0   4   5   17.56    0.62
   0   4   5   16.94    0.69
   0   4   5   17.87    0.76
  -1  -4  -5    0.47    0.07
  -1  -4  -5    0.39    0.05
  -1  -4  -5    0.48    0.06
   1   4   5    0.41    0.05
   1   4   5    0.44    0.05
   1   4   5    0.38    0.05
   1   4   5    0.40    0.04
  -2  -4  -5    6.52    0.35
  -2  -4  -5    6.25    0.29
  -2  -4  -5    5.76    0.27
   2   4   5    6.13    0.30
   2   4   5    6.09    0.22
   2   4   5    5.75    0.25
   2   4   5    6.02    0.31
  -3  -4  -5   15.70    0.77
  -3  -4  -5   14.77    0.66
   3   4   5   15.25    0.72
   3   4   5   14.98    0.68
   3   4   5   15.25    0.58
   3   4   5   14.61    0.72
  -4  -4  -5    0.33    0.04
   4   4   5    0.37    0.06
   4   4   5    0.36    0.05
  -5  -4  -5    8.73    0.41
   5   4   5    8.84    0.43
   5   4   5    8.71    0.45
  -6  -4  -5    1.39    0.11
   6   4   5    1.77    0.14
   6   4   5    1.44    0.13
  -7  -4  -5    1.49    0.13
   7   4   5    1.51    0.13
   7   4   5    1.66    0.14
  -8  -4  -5    2.47    0.19
   8   4   5    2.47    0.19
   8   4   5    2.72    0.17
  -9  -4  -5    2.14    0.19
  -9  -4  -5    2.42    0.21
   9   4   5    2.15    0.19
 -10  -4  -5    0.21    0.09
 -10  -4  -5    0.26    0.09
  10   4   5    0.21    0.08
   5  -5  -5    9.02    0.55
   5  -5  -5   10.54    0.69
   5  -5  -5    8.86    0.65
  -5   5   5    8.92    0.56
   4  -5  -5    0.38    0.13
   4  -5  -5    0.43    0.12
   4  -5  -5    0.24    0.11
  -4   5   5    0.49    0.09
  -4   5   5    0.53    0.12
   3  -5  -5   20.48    1.02
   3  -5  -5   21.30    1.28
   3  -5  -5   20.25    1.19
   3  -5  -5   22.42    0.85
  -3   5   5   21.20    0.96
  -3   5   5   21.44    0.78
  -3   5   5   20.36    1.06
   2  -5  -5   10.60    0.69
   2  -5  -5   10.66    0.65
   2  -5  -5   10.26    0.54
   2  -5  -5   10.91    0.45
  -2   5   5    9.90    0.40
  -2   5   5   10.04    0.55
  -2   5   5    9.89    0.50
   1  -5  -5   14.10    0.84
   1  -5  -5   14.89    0.63
   1  -5  -5   14.90    0.71
  -1   5   5   14.74    0.68
  -1   5   5   15.37    0.74
  -1   5   5   14.78    0.54
  -1   5   5   14.56    0.61
   0  -5  -5    2.81    0.23
   0  -5  -5    2.61    0.18
   0  -5  -5    2.93    0.16
   0   5   5    2.77    0.17
   0   5   5    2.58    0.12
   0   5   5    2.66    0.15
   0   5   5    2.16    0.16
  -1  -5  -5    5.60    0.35
  -1  -5  -5    5.84    0.28
  -1  -5  -5    4.85    0.26
   1   5   5    5.50    0.29
   1   5   5    5.10    0.24
   1   5   5    5.32    0.28
   1   5   5    5.20    0.21
  -2  -5  -5    1.26    0.10
  -2  -5  -5    1.33    0.13
  -2  -5  -5    1.23    0.10
   2   5   5    1.45    0.14
   2   5   5    1.27    0.07
   2   5   5    1.32    0.10
   2   5   5    1.38    0.08
   2   5   5    1.82    0.12
  -3  -5  -5    8.95    0.50
  -3  -5  -5    8.87    0.41
   3   5   5    9.08    0.36
   3   5   5    8.62    0.47
   3   5   5    9.14    0.44
   3   5   5    9.46    0.45
  -4  -5  -5    0.07    0.03
   4   5   5   -0.01    0.04
   4   5   5   -0.01    0.03
   5   5   5   32.00    1.39
   5   5   5   32.10    1.46
   6   5   5    3.83    0.25
   6   5   5    3.64    0.23
   7   5   5   12.78    0.62
   7   5   5   12.61    0.64
   8   5   5    0.72    0.10
   8   5   5    0.68    0.10
   9   5   5    0.51    0.10
 -10  -5  -5    1.40    0.18
  10   5   5    1.62    0.16
   4  -6  -5    0.86    0.18
   4  -6  -5    0.71    0.14
  -4   6   5    0.54    0.11
   3  -6  -5    4.29    0.21
   3  -6  -5    3.74    0.29
   3  -6  -5    3.91    0.35
  -3   6   5    3.70    0.25
   2  -6  -5    0.35    0.12
   2  -6  -5    0.29    0.06
  -2   6   5    0.30    0.05
  -2   6   5    0.39    0.08
   1  -6  -5    1.53    0.12
   1  -6  -5    1.71    0.19
  -1   6   5    1.52    0.13
  -1   6   5    1.56    0.10
  -1   6   5    1.65    0.12
   0  -6  -5    0.30    0.06
   0  -6  -5    0.27    0.09
   0   6   5    0.31    0.06
   0   6   5    0.32    0.07
   0   6   5    0.18    0.04
  -1  -6  -5    3.26    0.26
  -1  -6  -5    2.80    0.18
   1   6   5    3.35    0.24
   1   6   5    3.13    0.17
   1   6   5    3.35    0.14
   1   6   5    3.34    0.20
  -2  -6  -5    2.11    0.19
  -2  -6  -5    2.06    0.14
   2   6   5    2.01    0.12
   2   6   5    2.01    0.17
   2   6   5    2.06    0.15
   2   6   5    2.07    0.09
  -3  -6  -5    1.22    0.13
   3   6   5    1.08    0.12
   3   6   5    1.07    0.10
   3   6   5    1.05    0.07
   4   6   5    0.03    0.04
   4   6   5   -0.01    0.03
   5   6   5    0.58    0.10
   5   6   5    0.66    0.09
   6   6   5    1.08    0.11
   6   6   5    1.10    0.13
   7   6   5    0.53    0.09
   7   6   5    0.35    0.08
   8   6   5    0.01    0.04
   8   6   5    0.10    0.06
   9   6   5    0.49    0.10
  10   6   5    0.18    0.07
   3  -7  -5    0.21    0.05
   3  -7  -5    0.26    0.12
  -3   7   5    0.31    0.09
   2  -7  -5    2.40    0.16
   2  -7  -5    2.76    0.29
  -2   7   5    2.57    0.20
   1  -7  -5    0.09    0.08
   1  -7  -5   -0.02    0.03
  -1   7   5    0.04    0.06
  -1   7   5   -0.03    0.04
  -1   7   5    0.04    0.04
   0  -7  -5    0.23    0.06
   0  -7  -5    0.21    0.09
   0   7   5    0.35    0.10
   0   7   5    0.19    0.06
   0   7   5    0.25    0.04
   0   7   5    0.29    0.06
  -1  -7  -5    8.14    0.53
  -1  -7  -5    8.23    0.39
   1   7   5    7.97    0.31
   1   7   5    8.57    0.48
   1   7   5    8.27    0.43
   1   7   5    8.28    0.36
  -2  -7  -5   -0.01    0.05
   2   7   5   -0.03    0.03
   2   7   5   -0.03    0.05
   2   7   5   -0.01    0.02
   2   7   5   -0.02    0.03
  -3  -7  -5    6.13    0.39
   3   7   5    5.39    0.35
   3   7   5    5.58    0.32
   3   7   5    5.63    0.25
   4   7   5    4.22    0.29
   4   7   5    4.39    0.26
   5   7   5    0.46    0.08
   5   7   5    0.42    0.09
   6   7   5    1.26    0.14
   6   7   5    1.33    0.13
   7   7   5    3.31    0.25
   7   7   5    3.38    0.24
   8   7   5    0.01    0.05
   8   7   5    0.01    0.04
   9   7   5    0.71    0.11
   9   7   5    0.71    0.12
  10   7   5    3.75    0.27
   1  -8  -5    0.41    0.08
   1  -8  -5    0.33    0.12
  -1   8   5    0.37    0.09
  -1   8   5    0.35    0.07
   0  -8  -5    0.36    0.12
   0  -8  -5    0.28    0.07
   0   8   5    0.31    0.10
   0   8   5    0.21    0.05
   0   8   5    0.22    0.07
  -1  -8  -5    2.21    0.16
  -1  -8  -5    2.22    0.24
   1   8   5    1.85    0.17
   1   8   5    2.10    0.20
   1   8   5    2.07    0.11
   1   8   5    2.25    0.14
  -2  -8  -5    2.04    0.22
   2   8   5    2.52    0.18
   2   8   5    2.09    0.20
   2   8   5    2.25    0.13
  -3  -8  -5    2.23    0.22
   3   8   5    2.07    0.12
   3   8   5    1.81    0.16
   3   8   5    2.01    0.20
   4   8   5    3.08    0.22
   4   8   5    2.77    0.23
   5   8   5    2.27    0.21
   5   8   5    1.92    0.17
   6   8   5    0.04    0.05
   6   8   5    0.05    0.06
   7   8   5    0.12    0.07
   7   8   5    0.11    0.06
   8   8   5    2.73    0.22
   8   8   5    2.89    0.24
   9   8   5    0.11    0.06
   9   8   5    0.04    0.07
  10   8   5    6.74    0.43
  10   8   5    6.74    0.41
   0  -9  -5    0.12    0.10
   0  -9  -5    0.19    0.07
   0   9   5    0.21    0.06
   0   9   5    0.19    0.08
  -1  -9  -5    0.50    0.09
  -1  -9  -5    0.33    0.12
   1   9   5    0.46    0.07
   1   9   5    0.32    0.09
   1   9   5    0.50    0.12
  -2  -9  -5    2.54    0.27
   2   9   5    2.83    0.16
   2   9   5    2.53    0.20
   2   9   5    2.68    0.24
  -3  -9  -5    2.23    0.23
   3   9   5    2.18    0.22
   3   9   5    2.08    0.18
   3   9   5    2.24    0.13
   4   9   5    8.78    0.54
   4   9   5    9.97    0.51
   5   9   5    0.30    0.10
   5   9   5    0.40    0.09
   6   9   5    0.14    0.08
   6   9   5    0.14    0.07
   7   9   5    1.29    0.14
   7   9   5    1.10    0.16
   8   9   5    1.51    0.17
   8   9   5    1.80    0.19
   9   9   5    3.01    0.27
   9   9   5    3.07    0.24
  -2 -10  -5    0.08    0.09
   2  10   5    0.03    0.04
   2  10   5    0.09    0.09
   2  10   5    0.05    0.07
   3  10   5    0.95    0.16
   3  10   5    1.11    0.15
   3  10   5    1.19    0.09
   4  10   5    0.37    0.10
   4  10   5    0.30    0.11
   5  10   5   22.18    1.05
   5  10   5   22.01    1.12
   6  10   5    2.70    0.23
   6  10   5    2.95    0.27
   7  10   5    6.35    0.41
   7  10   5    7.53    0.47
   8  10   5    3.79    0.31
   8  10   5    3.59    0.28
   6   9  -6    3.22    0.26
  -6  -9   6    2.56    0.29
   5   9  -6    2.47    0.22
  -5  -9   6    2.14    0.25
   4   9  -6    0.64    0.12
  -4  -9   6    0.44    0.13
  -3  -9   6    0.36    0.13
   2   9  -6    0.57    0.07
  -2  -9   6    0.50    0.14
   1   9  -6    1.25    0.11
  -1  -9   6    1.02    0.19
   7   8  -6    1.85    0.19
  -7  -8   6    1.20    0.20
   6   8  -6    5.24    0.35
  -6  -8   6    4.63    0.39
   5   8  -6    0.04    0.06
  -5  -8   6    0.20    0.10
   4   8  -6    0.29    0.09
  -4  -8   6    0.23    0.10
   3   8  -6    2.46    0.20
  -3  -8   6    1.99    0.23
   2   8  -6    0.17    0.04
  -2  -8   6    0.26    0.11
  -1  -8   6    2.90    0.28
   0  -8   6    0.24    0.07
   0  -8   6    0.12    0.09
  -1   8  -6    0.23    0.08
   1  -8   6    0.33    0.08
   1  -8   6    0.09    0.09
   8   7  -6    0.90    0.15
   8   7  -6    0.85    0.14
  -8  -7   6    0.55    0.15
   7   7  -6    0.11    0.08
  -7  -7   6    0.32    0.12
   6   7  -6    0.00    0.06
   6   7  -6    0.06    0.07
  -6  -7   6    0.04    0.07
   5   7  -6    0.56    0.11
   4   7  -6    0.59    0.10
  -4  -7   6    0.84    0.14
   3   7  -6    2.13    0.18
  -3  -7   6    1.96    0.21
   2   7  -6    1.26    0.13
  -2  -7   6    0.93    0.15
  -1  -7   6    3.18    0.28
   0   7  -6    0.93    0.07
   0  -7   6    0.86    0.15
   0  -7   6    0.71    0.09
  -1   7  -6    2.55    0.19
   1  -7   6    2.82    0.18
   1  -7   6    2.06    0.24
  -2   7  -6    2.70    0.21
   2  -7   6    3.02    0.18
   2  -7   6    2.52    0.27
  -3   7  -6    1.48    0.16
   3  -7   6    1.49    0.21
   3  -7   6    1.49    0.12
   8   6  -6    0.03    0.07
   8   6  -6    0.04    0.07
  -8  -6   6    0.02    0.08
   7   6  -6    0.03    0.06
   7   6  -6    0.07    0.06
  -7  -6   6    0.05    0.08
   6   6  -6    6.84    0.44
   6   6  -6    6.90    0.41
  -6  -6   6    5.83    0.45
   5   6  -6    2.48    0.20
   5   6  -6    2.67    0.22
  -5  -6   6    2.16    0.23
   4   6  -6    2.93    0.21
  -4  -6   6    2.22    0.23
   3   6  -6    0.91    0.11
  -3  -6   6    0.94    0.14
   2   6  -6    6.47    0.34
  -2  -6   6    5.37    0.39
   1   6  -6    0.43    0.04
  -1  -6   6    0.47    0.10
  -1  -6   6    0.60    0.08
   0   6  -6    1.79    0.10
   0  -6   6    1.72    0.19
   0  -6   6    1.74    0.13
  -1   6  -6    1.56    0.09
  -1   6  -6    1.32    0.12
   1  -6   6    1.42    0.18
   1  -6   6    1.44    0.12
  -2   6  -6    6.88    0.39
  -2   6  -6    7.58    0.31
   2  -6   6    6.76    0.50
   2  -6   6    8.32    0.36
  -3   6  -6    0.11    0.07
   3  -6   6    0.05    0.07
   3  -6   6    0.04    0.04
  -4   6  -6    2.42    0.21
   4  -6   6    2.23    0.25
   4  -6   6    2.77    0.15
   8   5  -6    0.55    0.12
   8   5  -6    0.45    0.12
  -8  -5   6    0.54    0.15
   7   5  -6    1.83    0.18
   7   5  -6    1.77    0.19
  -7  -5   6    1.34    0.20
   6   5  -6    2.49    0.20
   6   5  -6    2.44    0.21
  -6  -5   6    1.64    0.21
   5   5  -6    0.31    0.08
   5   5  -6    0.24    0.08
  -5  -5   6    0.19    0.09
   4   5  -6   16.14    0.83
   4   5  -6   15.09    0.74
  -4  -5   6   13.47    0.83
   3   5  -6    7.40    0.41
   3   5  -6    7.02    0.45
  -3  -5   6    8.09    0.47
   2   5  -6    0.15    0.05
  -2  -5   6    0.29    0.08
  -2  -5   6    0.12    0.04
   1   5  -6    0.26    0.03
   1   5  -6    0.31    0.06
  -1  -5   6    0.26    0.08
  -1  -5   6    0.28    0.05
   0   5  -6    0.23    0.04
   0   5  -6    0.19    0.05
   0  -5   6    0.19    0.07
   0  -5   6    0.26    0.06
  -1   5  -6    0.09    0.04
   1  -5   6    0.02    0.04
   1  -5   6    0.15    0.07
  -2   5  -6   18.17    0.86
   2  -5   6   18.40    1.05
   2  -5   6   20.34    0.79
  -3   5  -6    0.52    0.09
  -3   5  -6    0.65    0.09
   3  -5   6    0.63    0.07
   3  -5   6    0.52    0.12
  -4   5  -6    6.05    0.39
  -4   5  -6    7.62    0.40
   4  -5   6    7.76    0.33
   4  -5   6    6.71    0.49
   4  -5   6    8.03    0.56
  -5   5  -6    0.08    0.07
  -5   5  -6    0.18    0.08
   5  -5   6    0.14    0.09
   5  -5   6    0.22    0.10
   8   4  -6    0.85    0.14
   8   4  -6    1.08    0.16
  -8  -4   6    0.95    0.18
   7   4  -6    0.87    0.13
   7   4  -6    0.94    0.14
  -7  -4   6    0.77    0.12
  -7  -4   6    0.90    0.16
   6   4  -6    0.40    0.10
   6   4  -6    0.25    0.08
   6   4  -6    0.22    0.08
  -6  -4   6    0.11    0.08
  -6  -4   6    0.24    0.08
   5   4  -6    0.91    0.11
   5   4  -6    0.67    0.10
   5   4  -6    0.82    0.12
  -5  -4   6    0.56    0.12
  -5  -4   6    0.56    0.10
   4   4  -6    4.96    0.29
   4   4  -6    6.72    0.34
  -4  -4   6    5.04    0.30
  -4  -4   6    5.17    0.36
   3   4  -6   12.44    0.66
   3   4  -6   14.34    0.63
   3   4  -6   12.87    0.74
  -3  -4   6   13.94    0.67
  -3  -4   6   14.19    0.76
   2   4  -6    4.85    0.24
   2   4  -6    4.32    0.30
   2   4  -6    4.33    0.27
  -2  -4   6    4.53    0.19
  -2  -4   6    5.23    0.32
  -2  -4   6    4.76    0.26
   1   4  -6   21.83    1.04
   1   4  -6   23.98    1.00
   1   4  -6   22.88    0.81
  -1  -4   6   22.81    0.82
  -1  -4   6   22.59    0.92
  -1  -4   6   24.32    1.20
  -1  -4   6   22.76    1.09
   0   4  -6    0.26    0.05
   0   4  -6    0.39    0.05
   0  -4   6    0.34    0.07
  -1   4  -6   31.75    1.37
  -1   4  -6   33.15    1.35
   1  -4   6   30.60    1.49
   1  -4   6   31.17    1.62
   1  -4   6   30.72    1.24
  -2   4  -6   27.32    1.20
  -2   4  -6   27.32    1.21
  -2   4  -6   27.39    1.10
   2  -4   6   27.31    1.09
   2  -4   6   28.07    1.44
   2  -4   6   27.17    1.59
  -3   4  -6    7.23    0.39
  -3   4  -6    7.14    0.38
   3  -4   6    7.37    0.52
   3  -4   6    7.13    0.46
   3  -4   6    7.08    0.32
  -4   4  -6    9.99    0.51
  -4   4  -6    9.28    0.51
   4  -4   6   10.48    0.68
   4  -4   6   10.62    0.42
   4  -4   6    9.26    0.60
  -5   4  -6    2.87    0.21
  -5   4  -6    3.20    0.23
   5  -4   6    2.87    0.26
   5  -4   6    2.32    0.26
  -6   4  -6    2.82    0.23
  -6   4  -6    2.52    0.22
   6  -4   6    3.12    0.30
   8   3  -6    0.15    0.09
   8   3  -6    0.13    0.08
   8   3  -6    0.12    0.07
  -8  -3   6    0.10    0.08
  -8  -3   6    0.19    0.10
   7   3  -6    1.17    0.15
   7   3  -6    1.06    0.16
   7   3  -6    1.12    0.14
  -7  -3   6    1.37    0.19
  -7  -3   6    1.16    0.14
   6   3  -6    0.76    0.11
   6   3  -6    0.65    0.11
   6   3  -6    0.59    0.11
  -6  -3   6    0.59    0.10
  -6  -3   6    0.50    0.12
   5   3  -6    1.53    0.16
   5   3  -6    1.49    0.15
   5   3  -6    1.71    0.15
  -5  -3   6    1.56    0.18
  -5  -3   6    1.51    0.14
   4   3  -6    7.85    0.44
   4   3  -6    7.66    0.40
   4   3  -6    6.76    0.37
  -4  -3   6    6.54    0.38
  -4  -3   6    6.90    0.45
   3   3  -6   16.28    0.89
   3   3  -6   17.18    0.77
   3   3  -6   16.03    0.80
  -3  -3   6   17.36    0.82
  -3  -3   6   17.60    0.91
   2   3  -6    3.75    0.21
   2   3  -6    4.29    0.26
   2   3  -6    4.10    0.24
  -2  -3   6    3.79    0.16
  -2  -3   6    3.84    0.23
  -2  -3   6    3.79    0.26
   1   3  -6    7.13    0.42
   1   3  -6    7.39    0.38
   1   3  -6    7.45    0.35
   1   3  -6    7.45    0.32
  -1  -3   6    7.49    0.29
  -1  -3   6    7.73    0.43
  -1  -3   6    7.68    0.39
   0   3  -6   38.90    1.77
   0   3  -6   40.49    1.57
   0   3  -6   39.33    1.73
   0   3  -6   40.42    1.69
   0  -3   6   41.54    2.02
   0  -3   6   40.72    1.57
   0  -3   6   41.59    1.88
  -1   3  -6    2.01    0.12
  -1   3  -6    2.33    0.14
   1  -3   6    1.74    0.18
   1  -3   6    2.02    0.12
   1  -3   6    1.87    0.15
  -2   3  -6    1.66    0.13
  -2   3  -6    2.01    0.12
  -2   3  -6    1.97    0.14
   2  -3   6    1.77    0.11
   2  -3   6    1.79    0.16
   2  -3   6    1.75    0.18
  -3   3  -6   39.55    1.57
  -3   3  -6   35.39    1.58
   3  -3   6   34.07    1.41
   3  -3   6   33.25    2.04
   3  -3   6   38.57    1.85
  -4   3  -6   75.49    3.17
  -4   3  -6   75.66    3.13
   4  -3   6   72.74    2.82
   4  -3   6   73.54    3.67
   4  -3   6   72.61    4.08
  -5   3  -6   65.53    2.85
  -5   3  -6   68.53    2.89
   5  -3   6   66.10    3.71
   5  -3   6   66.61    3.34
  -6   3  -6   20.18    0.95
  -6   3  -6   19.04    0.94
   6  -3   6   19.80    1.20
  -7   3  -6   28.20    1.42
  -7   3  -6   33.04    1.45
   7  -3   6   32.14    1.83
   8   2  -6    0.82    0.15
   8   2  -6    0.63    0.14
  -8  -2   6    0.67    0.16
  -8  -2   6    0.47    0.12
   7   2  -6    0.87    0.15
   7   2  -6    1.00    0.13
   7   2  -6    0.81    0.14
  -7  -2   6    1.01    0.14
  -7  -2   6    0.96    0.17
   6   2  -6    8.87    0.54
   6   2  -6    8.35    0.48
   6   2  -6    9.32    0.48
  -6  -2   6    7.71    0.48
  -6  -2   6    8.80    0.56
   5   2  -6    4.30    0.30
   5   2  -6    4.00    0.26
   5   2  -6    3.98    0.26
  -5  -2   6    3.81    0.26
  -5  -2   6    3.76    0.30
   4   2  -6    1.51    0.15
   4   2  -6    1.64    0.14
   4   2  -6    1.32    0.13
  -4  -2   6    1.39    0.16
  -4  -2   6    1.52    0.13
   3   2  -6    3.20    0.20
   3   2  -6    2.87    0.22
   3   2  -6    2.76    0.18
  -3  -2   6    2.93    0.19
  -3  -2   6    2.86    0.23
   2   2  -6   58.61    2.60
   2   2  -6   58.49    2.53
   2   2  -6   59.88    2.93
  -2  -2   6   61.18    2.73
  -2  -2   6   60.08    2.94
  -2  -2   6   58.92    2.06
   1   2  -6    3.50    0.20
   1   2  -6    3.66    0.17
   1   2  -6    3.44    0.19
   1   2  -6    3.74    0.22
  -1  -2   6    3.57    0.15
  -1  -2   6    3.16    0.23
  -1  -2   6    3.72    0.17
  -1  -2   6    3.24    0.20
   0   2  -6    0.00    0.02
   0   2  -6    0.10    0.03
   0  -2   6   -0.02    0.02
   0  -2   6    0.05    0.03
   0  -2   6    0.02    0.02
   0  -2   6    0.03    0.03
  -1   2  -6    4.30    0.22
  -1   2  -6    4.43    0.21
  -1   2  -6    4.20    0.22
   1  -2   6    4.50    0.20
   1  -2   6    4.11    0.25
   1  -2   6    4.25    0.31
  -2   2  -6   24.34    1.04
  -2   2  -6   23.15    1.05
  -2   2  -6   24.02    0.95
   2  -2   6   24.89    1.22
   2  -2   6   23.24    1.37
   2  -2   6   23.60    1.15
   2  -2   6   24.01    0.94
  -3   2  -6   13.36    0.62
  -3   2  -6   13.02    0.62
   3  -2   6   14.11    0.81
   3  -2   6   13.47    0.54
   3  -2   6   12.49    0.71
  -4   2  -6    0.35    0.07
  -4   2  -6    0.34    0.07
   4  -2   6    0.27    0.08
   4  -2   6    0.37    0.04
   4  -2   6    0.31    0.07
  -5   2  -6   10.41    0.53
  -5   2  -6   11.29    0.54
   5  -2   6    9.85    0.67
  -6   2  -6    1.78    0.17
  -6   2  -6    1.83    0.17
   6  -2   6    1.83    0.20
  -7   2  -6    0.73    0.13
  -7   2  -6    0.58    0.11
   7  -2   6    0.49    0.11
  -8   2  -6    0.06    0.08
  -8   2  -6   -0.03    0.06
   8  -2   6    0.02    0.06
   8   1  -6    2.24    0.20
   8   1  -6    1.96    0.22
   8   1  -6    2.02    0.23
  -8  -1   6    1.71    0.21
   7   1  -6    0.60    0.13
   7   1  -6    0.96    0.15
   7   1  -6    0.81    0.12
  -7  -1   6    0.64    0.13
   6   1  -6    1.62    0.19
   6   1  -6    1.71    0.18
   6   1  -6    1.84    0.18
  -6  -1   6    1.54    0.17
   5   1  -6    7.06    0.41
   5   1  -6    8.13    0.43
   5   1  -6    7.14    0.47
   5   1  -6    6.86    0.47
  -5  -1   6    7.60    0.42
   4   1  -6    0.85    0.11
   4   1  -6    0.67    0.09
   4   1  -6    0.60    0.10
   4   1  -6    0.75    0.11
  -4  -1   6    0.41    0.08
   3   1  -6    0.29    0.07
   3   1  -6    0.49    0.08
   3   1  -6    0.33    0.07
   3   1  -6    0.39    0.07
  -3  -1   6    0.27    0.06
   2   1  -6   25.65    1.18
   2   1  -6   26.57    1.34
   2   1  -6   26.67    1.01
   2   1  -6   26.75    1.16
  -2  -1   6   26.71    1.35
  -2  -1   6   24.92    1.23
  -2  -1   6   26.75    0.92
   1   1  -6   21.32    0.85
   1   1  -6   20.31    0.97
   1   1  -6   21.46    1.09
   1   1  -6   22.06    0.95
  -1  -1   6   21.15    1.10
  -1  -1   6   22.22    1.02
  -1  -1   6   21.84    0.76
  -1  -1   6   22.54    0.85
   0   1  -6   52.46    2.06
   0   1  -6   46.83    2.37
   0   1  -6   48.96    1.86
   0  -1   6   48.34    1.85
   0  -1   6   50.87    2.23
   0  -1   6   49.23    1.68
   0  -1   6   41.97    2.37
  -1   1  -6   22.49    1.02
  -1   1  -6   23.72    0.92
   1  -1   6   24.50    1.17
   1  -1   6   23.11    0.92
   1  -1   6   23.38    1.11
  -2   1  -6  159.99    6.77
  -2   1  -6  161.99    6.65
  -2   1  -6  158.21    6.12
   2  -1   6  161.54    6.65
   2  -1   6  158.05    6.14
   2  -1   6  156.59    8.70
   2  -1   6  161.80    7.32
   2  -1   6  171.43    7.82
  -3   1  -6   12.39    0.56
  -3   1  -6   13.71    0.57
   3  -1   6   14.03    0.65
   3  -1   6   11.50    0.56
   3  -1   6   10.53    0.72
   3  -1   6   11.97    0.49
   3  -1   6   10.62    0.61
  -4   1  -6    0.15    0.05
  -4   1  -6    0.15    0.05
   4  -1   6    0.08    0.04
   4  -1   6    0.09    0.05
   4  -1   6    0.19    0.05
  -5   1  -6   11.98    0.59
  -5   1  -6   12.58    0.60
   5  -1   6   11.82    0.74
  -6   1  -6    2.79    0.23
  -6   1  -6    3.49    0.24
   6  -1   6    3.98    0.29
  -7   1  -6   10.58    0.57
  -7   1  -6   10.43    0.57
   7  -1   6   11.32    0.69
  -8   1  -6    0.55    0.13
  -8   1  -6    0.49    0.11
   8  -1   6    0.47    0.10
  -9   1  -6    0.28    0.11
  -9   1  -6    0.22    0.10
   9  -1   6    0.23    0.09
   7   0  -6    0.02    0.05
   7   0  -6    0.05    0.06
   7   0  -6    0.04    0.08
  -7   0   6    0.01    0.07
   6   0  -6    1.46    0.18
   6   0  -6    1.86    0.18
   6   0  -6    1.74    0.20
  -6   0   6    1.53    0.17
   5   0  -6   -0.01    0.05
   5   0  -6    0.02    0.04
   5   0  -6   -0.03    0.05
  -5   0   6   -0.01    0.06
   4   0  -6    3.00    0.23
   4   0  -6    3.33    0.24
   4   0  -6    2.36    0.20
  -4   0   6    2.38    0.20
   3   0  -6    6.10    0.39
   3   0  -6    7.59    0.36
   3   0  -6    5.50    0.41
  -3   0   6    6.63    0.36
   2   0  -6  131.76    5.08
   2   0  -6  125.36    7.19
   2   0  -6  138.37    6.48
   2   0  -6  136.75    5.62
  -2   0   6  135.99    4.57
  -2   0   6  130.25    6.05
   1   0  -6   30.57    1.86
   1   0  -6   35.92    1.45
   1   0  -6   32.31    1.29
   1   0  -6   33.20    1.67
  -1   0   6   33.88    1.56
  -1   0   6   35.06    1.17
  -1   0   6   33.33    1.29
   0   0  -6  172.12    6.68
   0   0  -6  177.90    8.54
   0   0  -6  175.27    7.40
   0   0   6  174.81    7.98
   0   0   6  177.44    6.68
   0   0   6  179.08    6.04
   0   0   6  177.00    8.54
  -1   0  -6    5.62    0.34
  -1   0  -6    6.47    0.29
  -1   0  -6    7.32    0.32
   1   0   6    6.94    0.25
   1   0   6    6.15    0.28
   1   0   6    7.12    0.35
   1   0   6    6.44    0.34
  -2   0  -6    2.24    0.12
  -2   0  -6    2.00    0.13
   2   0   6    1.86    0.13
   2   0   6    2.17    0.11
   2   0   6    1.97    0.14
   2   0   6    2.34    0.13
  -3   0  -6    0.41    0.06
  -3   0  -6    0.47    0.06
   3   0   6    0.61    0.08
   3   0   6    0.52    0.08
   3   0   6    0.56    0.07
   3   0   6    0.64    0.05
   3   0   6    0.42    0.06
  -4   0  -6    1.35    0.12
  -4   0  -6    1.27    0.11
   4   0   6    1.57    0.12
   4   0   6    1.41    0.14
  -5   0  -6    0.35    0.07
  -5   0  -6    0.48    0.08
   5   0   6    0.36    0.07
   5   0   6    0.37    0.07
  -6   0  -6    1.60    0.14
  -6   0  -6    1.19    0.14
   6   0   6    1.64    0.14
   6   0   6    1.75    0.16
  -7   0  -6    1.57    0.16
  -7   0  -6    1.26    0.15
   7   0   6    1.70    0.16
   7   0   6    1.62    0.16
  -8   0  -6   -0.06    0.05
  -8   0  -6    0.04    0.06
   8   0   6    0.08    0.06
  -9   0  -6    0.08    0.07
  -9   0  -6   -0.05    0.05
   9   0   6    0.05    0.05
   7  -1  -6    0.02    0.07
   7  -1  -6    0.05    0.06
   7  -1  -6    0.03    0.08
  -7   1   6   -0.01    0.07
   6  -1  -6    0.72    0.12
   6  -1  -6    0.97    0.16
   6  -1  -6    0.90    0.15
  -6   1   6    0.75    0.13
   5  -1  -6    6.76    0.44
   5  -1  -6    6.05    0.39
   5  -1  -6    6.15    0.43
  -5   1   6    5.82    0.38
   4  -1  -6    9.10    0.56
   4  -1  -6    9.49    0.59
   4  -1  -6    8.80    0.49
  -4   1   6    8.81    0.50
   3  -1  -6    3.12    0.22
   3  -1  -6    3.33    0.25
   3  -1  -6    3.68    0.26
  -3   1   6    2.79    0.21
   2  -1  -6    7.12    0.30
   2  -1  -6    7.42    0.38
   2  -1  -6    7.09    0.43
   2  -1  -6    6.78    0.46
  -2   1   6    7.56    0.39
  -2   1   6    7.53    0.28
   1  -1  -6    2.78    0.17
   1  -1  -6    2.85    0.20
   1  -1  -6    2.86    0.14
  -1   1   6    2.81    0.12
  -1   1   6    2.78    0.18
   0  -1  -6    2.15    0.14
   0  -1  -6    2.84    0.13
   0   1   6    2.77    0.13
   0   1   6    2.53    0.11
   0   1   6    2.32    0.16
  -1  -1  -6    8.84    0.46
  -1  -1  -6    9.20    0.41
  -1  -1  -6    9.09    0.38
   1   1   6    8.88    0.46
   1   1   6    9.15    0.33
   1   1   6    8.91    0.37
   1   1   6    8.65    0.45
  -2  -1  -6   63.23    2.44
  -2  -1  -6   65.60    2.70
   2   1   6   67.05    2.66
   2   1   6   63.02    2.92
   2   1   6   59.77    2.42
  -3  -1  -6    0.04    0.03
   3   1   6    0.04    0.02
   3   1   6    0.05    0.03
   3   1   6    0.06    0.02
  -4  -1  -6    9.89    0.49
   4   1   6   10.58    0.54
   4   1   6   10.62    0.50
  -5  -1  -6   12.26    0.57
  -5  -1  -6   11.43    0.56
   5   1   6   11.40    0.69
   5   1   6   11.83    0.56
  -6  -1  -6    5.78    0.34
  -6  -1  -6    5.92    0.33
   6   1   6    6.18    0.39
   6   1   6    5.78    0.33
  -7  -1  -6    0.80    0.11
  -7  -1  -6    0.82    0.12
   7   1   6    0.95    0.12
   7   1   6    0.99    0.11
  -8  -1  -6    3.47    0.25
  -8  -1  -6    3.07    0.25
   8   1   6    3.37    0.25
   8   1   6    3.05    0.23
  -9  -1  -6    1.81    0.19
  -9  -1  -6    1.89    0.19
   9   1   6    1.78    0.17
   6  -2  -6    3.67    0.30
   6  -2  -6    3.55    0.31
   6  -2  -6    3.74    0.33
  -6   2   6    3.40    0.28
   5  -2  -6    1.83    0.20
   5  -2  -6    1.90    0.21
   5  -2  -6    1.92    0.20
  -5   2   6    1.78    0.19
   4  -2  -6   21.94    1.05
   4  -2  -6   21.75    1.20
   4  -2  -6   21.88    1.29
  -4   2   6   22.63    1.10
   3  -2  -6    4.12    0.20
   3  -2  -6    4.78    0.33
   3  -2  -6    3.63    0.33
   3  -2  -6    5.40    0.30
  -3   2   6    5.82    0.31
  -3   2   6    5.05    0.20
   2  -2  -6    5.01    0.32
   2  -2  -6    5.06    0.21
   2  -2  -6    4.82    0.34
   2  -2  -6    4.62    0.27
  -2   2   6    4.28    0.23
  -2   2   6    4.37    0.27
  -2   2   6    4.56    0.19
   1  -2  -6   14.06    0.61
   1  -2  -6   13.23    0.71
   1  -2  -6   12.45    0.53
  -1   2   6   13.37    0.64
  -1   2   6   13.02    0.53
  -1   2   6   12.37    0.57
  -1   2   6   12.83    0.47
   0  -2  -6    0.05    0.04
   0  -2  -6    0.02    0.03
   0  -2  -6    0.04    0.02
   0  -2  -6    0.02    0.03
   0   2   6    0.02    0.03
   0   2   6    0.05    0.02
   0   2   6    0.02    0.02
   0   2   6    0.13    0.03
  -1  -2  -6   56.28    2.33
  -1  -2  -6   56.10    2.68
  -1  -2  -6   52.03    2.11
   1   2   6   56.56    2.29
   1   2   6   53.17    2.09
   1   2   6   54.74    1.89
   1   2   6   54.57    2.51
  -2  -2  -6    7.97    0.35
  -2  -2  -6    8.15    0.38
   2   2   6    8.39    0.30
   2   2   6    8.46    0.39
   2   2   6    7.87    0.33
   2   2   6    8.25    0.42
  -3  -2  -6   50.49    2.15
   3   2   6   50.02    2.33
   3   2   6   52.19    2.13
   3   2   6   49.03    1.92
  -4  -2  -6   17.90    0.82
   4   2   6   18.57    0.89
   4   2   6   18.53    0.82
  -5  -2  -6    6.22    0.32
   5   2   6    6.36    0.33
  -6  -2  -6    1.44    0.14
  -6  -2  -6    1.16    0.12
   6   2   6    1.45    0.13
   6   2   6    1.61    0.13
  -7  -2  -6   -0.01    0.04
  -7  -2  -6   -0.02    0.03
   7   2   6   -0.02    0.03
   7   2   6    0.03    0.04
  -8  -2  -6    1.53    0.17
  -8  -2  -6    1.50    0.15
   8   2   6    1.77    0.15
   8   2   6    1.40    0.15
  -9  -2  -6    1.57    0.16
  -9  -2  -6    1.34    0.18
   9   2   6    1.36    0.16
   9   2   6    1.44    0.14
 -10  -2  -6   -0.04    0.05
 -10  -2  -6    0.03    0.07
  10   2   6    0.07    0.07
  10   2   6    0.02    0.04
   6  -3  -6    1.18    0.19
   6  -3  -6    1.67    0.22
   6  -3  -6    1.77    0.21
  -6   3   6    1.48    0.19
   5  -3  -6   11.74    0.66
   5  -3  -6   11.56    0.75
   5  -3  -6   12.90    0.81
  -5   3   6   12.57    0.69
   4  -3  -6    0.15    0.08
   4  -3  -6    0.06    0.06
   4  -3  -6    0.07    0.07
  -4   3   6    0.49    0.11
   3  -3  -6    1.50    0.18
   3  -3  -6    1.68    0.09
   3  -3  -6    1.61    0.16
   3  -3  -6    1.65    0.18
  -3   3   6    1.75    0.10
  -3   3   6    1.52    0.15
   2  -3  -6    6.51    0.37
   2  -3  -6    6.80    0.43
   2  -3  -6    7.24    0.47
   2  -3  -6    6.76    0.30
  -2   3   6    6.67    0.26
  -2   3   6    5.97    0.37
  -2   3   6    6.85    0.33
   1  -3  -6   46.93    2.69
   1  -3  -6   49.57    2.10
   1  -3  -6   49.46    2.43
   1  -3  -6   46.80    1.88
  -1   3   6   49.01    2.25
  -1   3   6   48.17    2.03
  -1   3   6   49.40    1.69
  -1   3   6   48.53    1.87
   0  -3  -6    7.20    0.35
   0  -3  -6    7.00    0.41
   0  -3  -6    6.28    0.45
   0  -3  -6    6.97    0.31
   0   3   6    7.12    0.37
   0   3   6    6.98    0.27
   0   3   6    7.05    0.30
   0   3   6    7.28    0.33
  -1  -3  -6   11.78    0.62
  -1  -3  -6   11.84    0.54
  -1  -3  -6   11.15    0.49
   1   3   6   12.06    0.43
   1   3   6   11.64    0.53
   1   3   6   11.49    0.48
   1   3   6   12.30    0.58
  -2  -3  -6    0.86    0.08
  -2  -3  -6    1.13    0.08
  -2  -3  -6    1.13    0.09
   2   3   6    1.08    0.05
   2   3   6    1.00    0.09
   2   3   6    1.14    0.09
   2   3   6    1.15    0.07
  -3  -3  -6  117.93    4.82
   3   3   6  106.72    5.21
   3   3   6  114.07    4.35
   3   3   6  120.21    4.76
  -4  -3  -6    5.12    0.27
   4   3   6    5.76    0.29
   4   3   6    5.58    0.31
   4   3   6    5.46    0.30
  -5  -3  -6    2.84    0.17
   5   3   6    2.78    0.18
   5   3   6    2.73    0.18
  -6  -3  -6   21.67    0.97
   6   3   6   21.63    0.98
  -7  -3  -6    9.33    0.48
   7   3   6    9.42    0.49
   7   3   6    9.48    0.56
  -8  -3  -6    0.35    0.08
  -8  -3  -6    0.26    0.08
   8   3   6    0.34    0.06
   8   3   6    0.29    0.08
  -9  -3  -6    1.26    0.16
  -9  -3  -6    0.80    0.12
   9   3   6    0.72    0.08
   9   3   6    0.98    0.13
 -10  -3  -6    2.13    0.22
 -10  -3  -6    2.07    0.20
  10   3   6    2.08    0.20
   5  -4  -6    0.73    0.15
   5  -4  -6    0.50    0.14
   5  -4  -6    0.56    0.15
  -5   4   6    0.70    0.14
   4  -4  -6    0.10    0.08
   4  -4  -6    0.19    0.09
   4  -4  -6    0.24    0.10
  -4   4   6    0.10    0.08
   3  -4  -6    0.08    0.07
   3  -4  -6    0.14    0.03
   3  -4  -6    0.13    0.08
   3  -4  -6    0.18    0.08
  -3   4   6    0.11    0.07
  -3   4   6    0.12    0.05
   2  -4  -6    0.75    0.11
   2  -4  -6    0.99    0.14
   2  -4  -6    0.60    0.12
   2  -4  -6    0.90    0.08
  -2   4   6    0.50    0.07
  -2   4   6    0.62    0.06
  -2   4   6    0.51    0.09
   1  -4  -6   12.64    0.61
   1  -4  -6   12.21    0.71
   1  -4  -6   11.43    0.77
   1  -4  -6   11.88    0.52
  -1   4   6   12.58    0.46
  -1   4   6   12.56    0.52
  -1   4   6   12.24    0.57
  -1   4   6   13.62    0.63
   0  -4  -6   11.19    0.58
   0  -4  -6   13.02    0.53
   0  -4  -6   12.45    0.69
   0   4   6   12.39    0.45
   0   4   6   12.68    0.57
   0   4   6   13.02    0.51
   0   4   6   11.73    0.61
  -1  -4  -6    5.45    0.27
  -1  -4  -6    4.97    0.25
   1   4   6    5.31    0.29
   1   4   6    5.44    0.21
   1   4   6    5.09    0.27
   1   4   6    5.06    0.23
  -2  -4  -6    1.60    0.13
  -2  -4  -6    1.61    0.11
  -2  -4  -6    1.76    0.11
   2   4   6    1.70    0.08
   2   4   6    1.74    0.09
   2   4   6    1.80    0.12
  -3  -4  -6   51.59    2.15
   3   4   6   50.56    2.14
   3   4   6   48.39    2.23
   3   4   6   50.34    1.93
   3   4   6   52.27    2.33
  -4  -4  -6    1.00    0.08
   4   4   6    0.97    0.10
   4   4   6    0.92    0.09
   4   4   6    0.88    0.09
  -5  -4  -6    0.27    0.05
   5   4   6    0.19    0.05
   5   4   6    0.23    0.06
  -6  -4  -6   19.74    0.89
   6   4   6   19.27    0.90
   6   4   6   20.32    0.93
  -7  -4  -6    5.79    0.31
   7   4   6    5.23    0.32
  -8  -4  -6    0.13    0.06
   8   4   6    0.11    0.04
   8   4   6    0.14    0.06
  -9  -4  -6   12.34    0.65
  -9  -4  -6   12.46    0.64
   9   4   6   12.74    0.71
   9   4   6   12.67    0.64
 -10  -4  -6    0.27    0.09
 -10  -4  -6    0.29    0.11
  10   4   6    0.34    0.10
   4  -5  -6    2.51    0.24
   4  -5  -6    3.39    0.32
  -4   5   6    2.36    0.23
   3  -5  -6    4.06    0.35
   3  -5  -6    4.01    0.20
   3  -5  -6    3.97    0.29
   3  -5  -6    3.77    0.35
  -3   5   6    4.39    0.30
  -3   5   6    4.18    0.25
  -3   5   6    4.11    0.20
   2  -5  -6    3.05    0.28
   2  -5  -6    3.05    0.17
   2  -5  -6    2.96    0.23
  -2   5   6    3.12    0.20
  -2   5   6    3.09    0.15
  -2   5   6    2.90    0.22
   1  -5  -6    1.95    0.13
   1  -5  -6    2.24    0.18
   1  -5  -6    1.90    0.20
  -1   5   6    1.87    0.11
  -1   5   6    2.00    0.15
  -1   5   6    2.00    0.13
  -1   5   6    2.02    0.16
   0  -5  -6   34.60    1.54
   0  -5  -6   36.24    1.39
   0  -5  -6   34.79    1.79
   0   5   6   34.90    1.36
   0   5   6   35.39    1.50
   0   5   6   33.74    1.22
   0   5   6   34.34    1.63
  -1  -5  -6    9.71    0.42
  -1  -5  -6    9.18    0.54
  -1  -5  -6    8.90    0.45
   1   5   6    9.35    0.44
   1   5   6    9.20    0.47
   1   5   6    9.13    0.34
   1   5   6    9.05    0.39
  -2  -5  -6    6.63    0.34
  -2  -5  -6    6.83    0.41
  -2  -5  -6    7.10    0.32
   2   5   6    7.26    0.30
   2   5   6    6.87    0.26
   2   5   6    6.81    0.35
   2   5   6    6.92    0.36
  -3  -5  -6   98.51    3.97
   3   5   6   93.40    3.58
   3   5   6   92.52    4.11
   3   5   6   92.52    3.93
   3   5   6   94.24    4.29
  -4  -5  -6   22.86    0.98
   4   5   6   22.03    1.00
   4   5   6   21.87    1.07
   4   5   6   23.47    1.06
  -5  -5  -6    4.03    0.20
   5   5   6    3.63    0.24
   5   5   6    3.54    0.22
   5   5   6    3.61    0.23
  -6  -5  -6   38.38    1.65
   6   5   6   38.59    1.73
   6   5   6   37.85    1.67
  -7  -5  -6    0.00    0.04
   7   5   6    0.01    0.04
   7   5   6    0.01    0.05
  -8  -5  -6    6.17    0.34
   8   5   6    6.56    0.37
   9   5   6   12.74    0.70
   9   5   6   12.32    0.64
 -10  -5  -6   10.29    0.58
  10   5   6   10.55    0.56
   3  -6  -6    3.20    0.26
   3  -6  -6    2.81    0.29
   3  -6  -6    2.97    0.16
  -3   6   6    2.69    0.21
   2  -6  -6    0.04    0.07
   2  -6  -6    0.12    0.08
   2  -6  -6    0.06    0.04
  -2   6   6    0.13    0.06
   1  -6  -6    0.24    0.09
   1  -6  -6    0.22    0.05
  -1   6   6    0.24    0.06
  -1   6   6    0.21    0.05
  -1   6   6    0.30    0.07
   0  -6  -6   24.32    1.35
   0  -6  -6   28.15    1.04
   0   6   6   24.82    1.12
   0   6   6   25.53    1.01
   0   6   6   23.82    0.90
  -1  -6  -6    0.07    0.06
  -1  -6  -6    0.23    0.05
   1   6   6    0.13    0.04
   1   6   6    0.08    0.03
   1   6   6    0.12    0.05
  -2  -6  -6    4.41    0.30
  -2  -6  -6    4.00    0.23
   2   6   6    4.22    0.17
   2   6   6    4.29    0.29
   2   6   6    4.17    0.20
   2   6   6    4.31    0.25
   3   6   6   14.00    0.55
   3   6   6   13.32    0.69
   3   6   6   13.81    0.65
   4   6   6    7.36    0.39
   4   6   6    7.71    0.43
   5   6   6    0.57    0.10
   5   6   6    0.38    0.07
   6   6   6   15.63    0.77
   6   6   6   15.08    0.73
   7   6   6    0.12    0.06
   7   6   6    0.06    0.04
   8   6   6    6.59    0.39
   8   6   6    6.62    0.38
   9   6   6    0.43    0.10
  10   6   6    1.35    0.16
   2  -7  -6   -0.02    0.06
   2  -7  -6    0.02    0.04
  -2   7   6    0.03    0.06
   1  -7  -6    2.07    0.23
   1  -7  -6    1.74    0.14
  -1   7   6    2.15    0.15
  -1   7   6    1.76    0.16
  -1   7   6    1.75    0.20
   0  -7  -6   12.44    0.55
   0  -7  -6   11.97    0.75
   0   7   6   12.31    0.67
   0   7   6   12.16    0.46
   0   7   6   11.96    0.60
   0   7   6   12.79    0.53
  -1  -7  -6    0.50    0.11
  -1  -7  -6    0.54    0.08
   1   7   6    0.46    0.05
   1   7   6    0.58    0.07
   1   7   6    0.50    0.11
   1   7   6    0.50    0.09
  -2  -7  -6    1.31    0.16
  -2  -7  -6    1.49    0.12
   2   7   6    1.43    0.10
   2   7   6    1.34    0.16
   2   7   6    1.38    0.13
   2   7   6    1.33    0.07
   3   7   6    3.83    0.18
   3   7   6    3.64    0.24
   3   7   6    3.54    0.27
   4   7   6    4.68    0.32
   4   7   6    5.01    0.29
   5   7   6    4.40    0.30
   5   7   6    4.26    0.27
   6   7   6   33.87    1.57
   6   7   6   33.35    1.49
   7   7   6    8.46    0.46
   7   7   6    8.18    0.48
   8   7   6   47.15    2.10
   8   7   6   49.02    2.19
   9   7   6    4.98    0.32
   9   7   6    4.51    0.32
  10   7   6    1.38    0.16
   1  -8  -6    0.75    0.16
   1  -8  -6    0.76    0.10
  -1   8   6    0.48    0.10
  -1   8   6    0.65    0.09
   0  -8  -6    4.70    0.26
   0  -8  -6    4.23    0.37
   0   8   6    4.35    0.29
   0   8   6    4.39    0.24
   0   8   6    4.82    0.34
  -1  -8  -6    0.22    0.06
  -1  -8  -6    0.14    0.09
   1   8   6    0.24    0.09
   1   8   6    0.13    0.05
   1   8   6    0.16    0.06
   1   8   6    0.23    0.04
  -2  -8  -6    5.55    0.41
   2   8   6    5.87    0.34
   2   8   6    5.73    0.38
   2   8   6    6.06    0.28
   3   8   6    1.24    0.09
   3   8   6    1.19    0.13
   3   8   6    1.25    0.16
   4   8   6    4.31    0.28
   4   8   6    4.41    0.31
   5   8   6    1.12    0.15
   5   8   6    0.92    0.12
   6   8   6    0.60    0.11
   6   8   6    0.70    0.12
   7   8   6    1.20    0.16
   7   8   6    1.34    0.14
   8   8   6    0.62    0.11
   8   8   6    0.62    0.12
   9   8   6    0.28    0.09
   9   8   6    0.34    0.10
  10   8   6    0.07    0.06
  10   8   6    0.17    0.08
  -1  -9  -6    3.19    0.22
  -1  -9  -6    2.80    0.30
   1   9   6    2.97    0.23
   1   9   6    3.50    0.28
   2   9   6    1.24    0.10
   2   9   6    1.26    0.18
   2   9   6    1.33    0.14
   3   9   6    1.05    0.16
   3   9   6    1.16    0.09
   3   9   6    1.10    0.14
   4   9   6    0.07    0.08
   4   9   6    0.08    0.06
   5   9   6    0.79    0.14
   5   9   6    0.67    0.12
   6   9   6    0.04    0.07
   6   9   6    0.05    0.05
   7   9   6    5.17    0.37
   7   9   6    4.94    0.33
   8   9   6    0.11    0.06
   8   9   6   -0.01    0.05
   9   9   6   -0.01    0.04
   9   9   6    0.05    0.07
   3  10   6    9.48    0.60
   3  10   6   10.17    0.56
   3  10   6   10.36    0.43
   4  10   6    8.36    0.53
   4  10   6    8.48    0.49
   5  10   6    1.32    0.16
   5  10   6    1.58    0.20
   6  10   6    3.09    0.28
   6  10   6    2.61    0.23
   7  10   6    5.78    0.38
   7  10   6    6.25    0.43
   8  10   6    0.26    0.09
   8  10   6    0.29    0.11
   4   9  -7    0.21    0.09
  -4  -9   7    0.14    0.09
  -3  -9   7    1.53    0.22
   2   9  -7    0.38    0.06
  -2  -9   7    0.27    0.12
   6   8  -7    0.09    0.08
  -6  -8   7    0.09    0.09
   5   8  -7    0.54    0.11
  -5  -8   7    0.39    0.13
   4   8  -7    0.81    0.13
  -4  -8   7    1.01    0.17
  -3  -8   7    0.06    0.07
   2   8  -7    0.34    0.05
  -2  -8   7    0.31    0.11
  -1  -8   7    1.07    0.18
   0  -8   7    0.08    0.05
   0  -8   7    0.17    0.10
   1  -8   7    0.05    0.08
   1  -8   7    0.11    0.06
   7   7  -7    1.75    0.20
   7   7  -7    1.60    0.18
  -7  -7   7    1.10    0.20
   6   7  -7    0.04    0.07
   6   7  -7    0.20    0.09
  -6  -7   7    0.06    0.08
   5   7  -7   -0.04    0.05
  -5  -7   7    0.05    0.07
   4   7  -7    0.17    0.07
  -4  -7   7    0.13    0.09
   3   7  -7    2.46    0.19
  -3  -7   7    1.63    0.20
  -2  -7   7    1.08    0.16
  -1  -7   7    0.05    0.07
   0   7  -7    0.27    0.04
   0  -7   7    0.22    0.10
   0  -7   7    0.24    0.06
   1  -7   7    1.63    0.21
   1  -7   7    1.55    0.14
  -2   7  -7    3.31    0.23
   2  -7   7    3.26    0.21
   2  -7   7    3.39    0.32
  -3   7  -7    4.46    0.29
   3  -7   7    4.23    0.24
   3  -7   7    4.05    0.37
   7   6  -7    0.41    0.11
   7   6  -7    0.36    0.11
  -7  -6   7    0.21    0.11
   6   6  -7    0.93    0.14
   6   6  -7    0.88    0.14
  -6  -6   7    0.52    0.13
   5   6  -7    0.91    0.13
   5   6  -7    0.79    0.13
  -5  -6   7    1.01    0.16
   4   6  -7    4.73    0.31
  -4  -6   7    4.46    0.35
   3   6  -7   10.19    0.53
  -3  -6   7    9.57    0.60
  -2  -6   7    0.06    0.06
  -1  -6   7    1.13    0.15
   0   6  -7   -0.01    0.03
   0  -6   7    0.02    0.04
   0  -6   7    0.00    0.05
  -1   6  -7    3.93    0.18
  -1   6  -7    3.81    0.23
   1  -6   7    3.91    0.22
   1  -6   7    3.24    0.30
  -2   6  -7    0.95    0.12
   2  -6   7    0.77    0.09
   2  -6   7    0.93    0.15
  -3   6  -7    0.24    0.08
   3  -6   7    0.14    0.05
   3  -6   7    0.25    0.10
  -4   6  -7    0.37    0.10
   4  -6   7    0.41    0.06
   4  -6   7    0.36    0.12
   8   5  -7    1.06    0.15
  -8  -5   7    0.76    0.17
   7   5  -7    0.26    0.09
   7   5  -7    0.29    0.10
  -7  -5   7    0.33    0.12
   6   5  -7    0.36    0.10
   6   5  -7    0.35    0.10
  -6  -5   7    0.51    0.13
   5   5  -7    0.07    0.06
   5   5  -7    0.08    0.06
  -5  -5   7    0.05    0.07
   4   5  -7    0.34    0.08
   4   5  -7    0.44    0.09
  -4  -5   7    0.25    0.09
   3   5  -7    1.88    0.16
   3   5  -7    1.93    0.18
  -2  -5   7    1.09    0.08
  -2  -5   7    0.99    0.13
   1   5  -7    8.81    0.31
   1   5  -7    7.59    0.43
  -1  -5   7    8.72    0.51
   0   5  -7    0.07    0.03
   0  -5   7    0.03    0.05
   0  -5   7    0.05    0.04
  -1   5  -7    1.47    0.12
   1  -5   7    1.52    0.18
   1  -5   7    1.65    0.12
  -2   5  -7    0.13    0.06
   2  -5   7    0.10    0.04
   2  -5   7    0.16    0.08
  -3   5  -7    6.47    0.35
   3  -5   7    5.55    0.42
   3  -5   7    5.74    0.29
  -4   5  -7    1.28    0.14
  -4   5  -7    1.26    0.14
   4  -5   7    1.25    0.10
   4  -5   7    1.29    0.18
  -5   5  -7    0.14    0.07
  -5   5  -7    0.09    0.07
   5  -5   7    0.05    0.08
   8   4  -7    0.14    0.09
   8   4  -7    0.14    0.08
  -8  -4   7    0.17    0.11
   7   4  -7    0.05    0.06
   7   4  -7    0.01    0.06
  -7  -4   7   -0.04    0.08
   6   4  -7    0.35    0.10
   6   4  -7    0.32    0.09
  -6  -4   7    0.53    0.11
  -6  -4   7    0.62    0.14
   5   4  -7    4.78    0.35
   5   4  -7    5.09    0.31
   5   4  -7    4.96    0.32
  -5  -4   7    5.11    0.31
  -5  -4   7    5.24    0.38
   4   4  -7   12.66    0.79
   4   4  -7   15.87    0.70
   4   4  -7   12.95    0.72
  -4  -4   7   15.00    0.73
  -4  -4   7   16.25    0.84
   3   4  -7   39.83    1.74
   3   4  -7   40.78    1.95
   3   4  -7   36.53    1.67
  -3  -4   7   38.94    1.80
  -3  -4   7   36.11    1.95
   2   4  -7   42.62    1.87
   2   4  -7   43.00    2.10
   2   4  -7   40.95    1.80
  -2  -4   7   40.91    1.47
  -2  -4   7   39.75    2.11
  -2  -4   7   43.69    1.95
   1   4  -7    0.33    0.03
   1   4  -7    0.26    0.05
   1   4  -7    0.64    0.08
  -1  -4   7    0.50    0.08
  -1  -4   7    0.50    0.06
  -1  -4   7    0.41    0.05
  -1  -4   7    0.19    0.07
   0   4  -7    0.18    0.05
   0  -4   7    0.33    0.07
   0  -4   7    0.03    0.05
   0  -4   7    0.40    0.06
  -1   4  -7   32.93    1.31
  -1   4  -7   33.68    1.44
   1  -4   7   31.79    1.57
   1  -4   7   32.19    1.31
   1  -4   7   34.76    1.70
  -2   4  -7   21.05    0.90
  -2   4  -7   19.23    0.81
  -2   4  -7   20.45    0.89
   2  -4   7   19.01    1.06
   2  -4   7   18.91    0.80
  -3   4  -7   28.26    1.20
  -3   4  -7   27.13    1.20
   3  -4   7   26.81    1.07
   3  -4   7   26.59    1.42
   3  -4   7   25.22    1.57
  -4   4  -7    9.15    0.48
  -4   4  -7    9.37    0.47
   4  -4   7    9.46    0.58
   4  -4   7    8.41    0.62
   4  -4   7    9.00    0.39
  -5   4  -7    7.94    0.43
  -5   4  -7    7.84    0.44
   5  -4   7    6.89    0.54
  -6   4  -7    5.15    0.33
  -6   4  -7    5.04    0.32
   6  -4   7    4.56    0.41
   8   3  -7    0.87    0.14
   8   3  -7    0.62    0.13
   8   3  -7    0.36    0.12
  -8  -3   7    0.29    0.13
  -8  -3   7    0.51    0.12
   7   3  -7    0.32    0.10
   7   3  -7    0.39    0.10
   7   3  -7    0.23    0.09
  -7  -3   7    0.23    0.09
  -7  -3   7    0.17    0.11
   6   3  -7    0.05    0.06
   6   3  -7    0.04    0.05
   6   3  -7    0.11    0.07
  -6  -3   7    0.01    0.07
  -6  -3   7    0.00    0.06
   5   3  -7    4.76    0.31
   5   3  -7    4.72    0.31
   5   3  -7    5.21    0.35
  -5  -3   7    4.89    0.37
  -5  -3   7    5.25    0.31
   4   3  -7    0.20    0.07
   4   3  -7    0.19    0.06
   4   3  -7   -0.08    0.05
  -4  -3   7    0.04    0.06
  -4  -3   7    0.03    0.06
   3   3  -7   24.23    1.24
   3   3  -7   23.59    1.07
   3   3  -7   23.50    1.11
  -3  -3   7   24.14    1.14
  -3  -3   7   24.02    1.26
   2   3  -7   14.85    0.69
   2   3  -7   14.04    0.65
   2   3  -7   14.22    0.76
  -2  -3   7   13.85    0.77
  -2  -3   7   14.60    0.52
  -2  -3   7   13.75    0.70
   1   3  -7   20.26    1.04
   1   3  -7   20.07    0.80
   1   3  -7   20.56    0.90
   1   3  -7   20.17    0.93
  -1  -3   7   19.92    1.05
  -1  -3   7   20.29    0.81
  -1  -3   7   20.19    0.73
  -1  -3   7   20.69    0.97
   0   3  -7   38.99    1.78
   0   3  -7   40.93    1.58
   0   3  -7   40.42    1.74
   0  -3   7   41.61    1.58
   0  -3   7   40.77    2.03
   0  -3   7   40.96    1.90
  -1   3  -7   54.11    2.25
  -1   3  -7   54.54    2.29
  -1   3  -7   54.35    2.08
   1  -3   7   54.68    2.49
   1  -3   7   50.86    2.66
   1  -3   7   53.49    2.08
  -2   3  -7   62.54    2.44
  -2   3  -7   64.42    2.70
  -2   3  -7   67.64    2.66
   2  -3   7   63.09    2.93
   2  -3   7   60.33    3.49
   2  -3   7   60.70    2.43
  -3   3  -7   67.93    2.80
  -3   3  -7   65.52    2.83
   3  -3   7   66.61    3.66
   3  -3   7   64.11    2.54
  -4   3  -7   32.60    1.41
  -4   3  -7   31.54    1.42
   4  -3   7   30.75    1.83
   4  -3   7   32.42    1.24
  -5   3  -7    7.63    0.45
  -5   3  -7    8.59    0.45
   5  -3   7    8.64    0.58
  -6   3  -7    0.20    0.08
  -6   3  -7    0.22    0.08
   6  -3   7    0.18    0.09
  -7   3  -7    0.00    0.07
  -7   3  -7   -0.14    0.06
   7  -3   7    0.11    0.08
   8   2  -7    0.48    0.13
   8   2  -7    0.43    0.13
  -8  -2   7    0.36    0.11
  -8  -2   7    0.40    0.14
   7   2  -7    1.02    0.16
   7   2  -7    1.15    0.17
  -7  -2   7    1.06    0.18
  -7  -2   7    0.98    0.14
   6   2  -7    0.29    0.10
   6   2  -7    0.32    0.10
   6   2  -7    0.39    0.09
  -6  -2   7    0.39    0.12
  -6  -2   7    0.26    0.09
   5   2  -7    2.38    0.19
   5   2  -7    2.18    0.19
   5   2  -7    2.46    0.22
  -5  -2   7    2.48    0.24
  -5  -2   7    1.98    0.18
   4   2  -7    9.31    0.57
   4   2  -7    8.77    0.50
  -4  -2   7   10.08    0.52
  -4  -2   7   10.83    0.60
   3   2  -7    1.66    0.14
   3   2  -7    2.00    0.17
   3   2  -7    2.00    0.16
  -3  -2   7    1.75    0.17
  -3  -2   7    1.82    0.15
   2   2  -7   27.33    1.13
   2   2  -7   24.44    1.16
   2   2  -7   25.12    1.30
   2   2  -7   24.60    0.99
  -2  -2   7   26.64    1.32
  -2  -2   7   25.30    1.21
  -2  -2   7   25.31    0.90
   1   2  -7    2.35    0.15
   1   2  -7    2.33    0.17
   1   2  -7    2.42    0.13
   1   2  -7    2.70    0.17
  -1  -2   7    2.42    0.13
  -1  -2   7    2.51    0.17
  -1  -2   7    2.28    0.11
  -1  -2   7    2.39    0.18
   0   2  -7    4.02    0.19
   0   2  -7    3.63    0.24
   0   2  -7    3.70    0.22
   0   2  -7    4.43    0.22
   0  -2   7    3.92    0.19
   0  -2   7    3.95    0.24
   0  -2   7    4.19    0.17
  -1   2  -7    2.27    0.14
  -1   2  -7    2.58    0.14
  -1   2  -7    1.90    0.12
   1  -2   7    2.43    0.16
   1  -2   7    2.15    0.12
   1  -2   7    1.73    0.15
   1  -2   7    1.74    0.19
  -2   2  -7    3.23    0.19
  -2   2  -7    3.34    0.18
  -2   2  -7    3.47    0.20
   2  -2   7    3.30    0.17
   2  -2   7    3.40    0.23
   2  -2   7    3.32    0.22
   2  -2   7    3.27    0.27
  -3   2  -7    4.73    0.26
  -3   2  -7    5.43    0.27
   3  -2   7    5.20    0.30
   3  -2   7    3.98    0.28
   3  -2   7    3.79    0.33
   3  -2   7    4.22    0.21
  -4   2  -7    6.91    0.39
  -4   2  -7    7.97    0.39
   4  -2   7    7.27    0.31
   4  -2   7    7.47    0.50
  -5   2  -7    5.17    0.32
  -5   2  -7    5.30    0.31
   5  -2   7    5.31    0.40
  -6   2  -7    2.87    0.23
  -6   2  -7    3.03    0.22
   6  -2   7    2.72    0.26
  -7   2  -7    0.65    0.13
  -7   2  -7    0.80    0.13
   7  -2   7    0.81    0.14
  -8   2  -7    0.49    0.13
  -8   2  -7    0.60    0.13
   8  -2   7    0.56    0.13
   7   1  -7    0.12    0.09
   7   1  -7   -0.03    0.08
  -7  -1   7    0.04    0.08
   6   1  -7    1.98    0.21
   6   1  -7    1.89    0.20
   6   1  -7    1.80    0.19
  -6  -1   7    1.83    0.18
   5   1  -7   10.08    0.55
   5   1  -7   10.39    0.64
   5   1  -7   10.15    0.61
  -5  -1   7    9.69    0.55
   4   1  -7    7.17    0.39
   4   1  -7    6.90    0.44
   4   1  -7    7.15    0.39
   4   1  -7    6.53    0.46
  -4  -1   7    7.20    0.40
   3   1  -7   23.49    1.06
   3   1  -7   22.57    1.21
   3   1  -7   23.30    1.08
  -3  -1   7   24.14    1.23
  -3  -1   7   22.99    1.12
   2   1  -7   15.79    0.70
   2   1  -7   14.55    0.60
   2   1  -7   14.99    0.72
   2   1  -7   15.20    0.81
  -2  -1   7   15.33    0.81
  -2  -1   7   15.37    0.55
  -2  -1   7   14.75    0.74
   1   1  -7   17.35    0.71
   1   1  -7   14.18    0.73
   1   1  -7   14.39    0.62
   1   1  -7   14.32    0.81
  -1  -1   7   15.27    0.63
  -1  -1   7   16.07    0.76
  -1  -1   7   15.97    0.56
  -1  -1   7   17.36    0.83
   0   1  -7   42.34    1.66
   0   1  -7   40.53    2.10
   0   1  -7   45.73    1.84
   0  -1   7   44.14    2.12
   0  -1   7   42.90    1.49
   0  -1   7   41.47    1.65
   0  -1   7   42.85    1.99
  -1   1  -7   64.28    2.80
  -1   1  -7   67.55    2.85
  -1   1  -7   68.07    2.58
   1  -1   7   68.03    2.33
   1  -1   7   67.90    3.28
   1  -1   7   68.48    3.09
   1  -1   7   68.32    2.80
   1  -1   7   65.82    2.57
  -2   1  -7    0.15    0.04
  -2   1  -7    0.13    0.03
  -2   1  -7    0.26    0.05
   2  -1   7    0.15    0.03
   2  -1   7    0.12    0.04
   2  -1   7    0.16    0.04
   2  -1   7    0.12    0.05
  -3   1  -7   31.35    1.37
  -3   1  -7   29.76    1.35
   3  -1   7   31.47    1.35
   3  -1   7   31.70    1.77
   3  -1   7   32.03    1.49
   3  -1   7   31.21    1.21
  -4   1  -7    9.76    0.50
  -4   1  -7   10.88    0.52
   4  -1   7   10.50    0.51
   4  -1   7   10.44    0.65
   4  -1   7   10.31    0.41
  -5   1  -7    0.27    0.07
  -5   1  -7    0.34    0.07
   5  -1   7    0.45    0.08
   5  -1   7    0.40    0.09
  -6   1  -7    2.10    0.19
  -6   1  -7    2.51    0.19
   6  -1   7    2.51    0.23
  -7   1  -7    0.32    0.10
  -7   1  -7    0.34    0.09
   7  -1   7    0.43    0.10
  -8   1  -7    0.38    0.11
  -8   1  -7    0.44    0.11
   8  -1   7    0.56    0.11
   7   0  -7    0.59    0.14
   7   0  -7    0.56    0.11
   7   0  -7    0.49    0.13
  -7   0   7    0.54    0.12
   6   0  -7    0.26    0.10
   6   0  -7    0.24    0.10
   6   0  -7    0.28    0.09
  -6   0   7    0.29    0.10
   5   0  -7    0.78    0.13
   5   0  -7    1.45    0.16
   5   0  -7    1.05    0.15
  -5   0   7    1.30    0.14
   4   0  -7    9.36    0.59
   4   0  -7    8.85    0.49
   4   0  -7    8.95    0.55
  -4   0   7    9.05    0.50
   3   0  -7    3.36    0.27
   3   0  -7    3.85    0.24
   3   0  -7    3.43    0.26
  -3   0   7    3.58    0.23
   2   0  -7   20.07    1.26
   2   0  -7   21.22    0.86
   2   0  -7   23.73    1.00
   2   0  -7   21.68    1.14
  -2   0   7   22.45    1.06
  -2   0   7   22.90    0.78
   1   0  -7    3.39    0.26
   1   0  -7    3.47    0.16
   1   0  -7    3.53    0.22
   1   0  -7    3.16    0.19
  -1   0   7    3.12    0.21
  -1   0   7    3.34    0.14
  -1   0   7    3.59    0.17
  -1   0   7    3.20    0.22
   0   0  -7    8.58    0.44
   0   0  -7    9.99    0.40
   0   0  -7    9.81    0.50
   0   0   7   10.06    0.39
   0   0   7    8.23    0.50
   0   0   7    9.61    0.35
   0   0   7    9.14    0.47
  -1   0  -7   55.70    2.10
  -1   0  -7   54.24    2.32
  -1   0  -7   51.90    2.66
   1   0   7   56.87    1.89
   1   0   7   53.95    2.51
   1   0   7   56.14    2.66
   1   0   7   53.46    2.09
  -2   0  -7    5.78    0.30
  -2   0  -7    5.86    0.27
   2   0   7    6.18    0.32
   2   0   7    5.94    0.33
   2   0   7    5.81    0.29
   2   0   7    5.74    0.26
  -3   0  -7   26.12    1.17
  -3   0  -7   26.60    1.19
   3   0   7   27.68    1.30
   3   0   7   27.72    1.18
   3   0   7   27.37    1.05
  -4   0  -7    6.25    0.34
  -4   0  -7    6.38    0.34
   4   0   7    6.78    0.44
   4   0   7    6.77    0.35
   4   0   7    6.69    0.38
  -5   0  -7   15.22    0.72
  -5   0  -7   15.27    0.72
   5   0   7   14.81    0.71
   5   0   7   15.42    0.90
  -6   0  -7    2.86    0.20
  -6   0  -7    2.73    0.21
   6   0   7    2.84    0.21
   6   0   7    3.10    0.24
  -7   0  -7    2.18    0.20
  -7   0  -7    2.32    0.19
   7   0   7    2.44    0.20
   7   0   7    2.53    0.22
  -8   0  -7    1.06    0.14
  -8   0  -7    0.85    0.14
   8   0   7    1.01    0.14
  -9   0  -7    0.05    0.07
  -9   0  -7   -0.03    0.06
   9   0   7    0.08    0.06
   6  -1  -7    0.29    0.11
   6  -1  -7    0.33    0.11
  -6   1   7    0.15    0.09
   5  -1  -7    2.16    0.22
   5  -1  -7    2.31    0.22
   5  -1  -7    2.10    0.21
  -5   1   7    1.99    0.20
   4  -1  -7    0.06    0.05
   4  -1  -7    0.08    0.06
   4  -1  -7    0.03    0.06
  -4   1   7    0.06    0.06
   3  -1  -7    0.28    0.03
   3  -1  -7    0.34    0.08
   3  -1  -7    0.19    0.07
   3  -1  -7    0.30    0.08
  -3   1   7    0.25    0.07
   2  -1  -7    0.26    0.06
   2  -1  -7    0.23    0.07
   2  -1  -7    0.26    0.07
  -2   1   7    0.24    0.06
  -2   1   7    0.25    0.03
   1  -1  -7   21.25    0.83
   1  -1  -7   21.11    1.08
   1  -1  -7   21.79    0.94
   1  -1  -7   20.52    1.21
  -1   1   7   21.00    0.74
  -1   1   7   21.09    0.83
  -1   1   7   19.88    1.00
   0  -1  -7   32.93    1.42
   0  -1  -7   33.39    1.63
   0  -1  -7   32.13    1.83
   0  -1  -7   32.70    1.28
   0   1   7   32.32    1.53
   0   1   7   33.13    1.27
   0   1   7   32.28    1.14
  -1  -1  -7    1.17    0.10
  -1  -1  -7    1.34    0.09
  -1  -1  -7    1.37    0.10
   1   1   7    1.55    0.10
   1   1   7    1.18    0.09
   1   1   7    1.35    0.07
   1   1   7    1.28    0.08
   1   1   7    1.12    0.10
  -2  -1  -7    0.89    0.07
  -2  -1  -7    0.90    0.08
   2   1   7    0.84    0.09
   2   1   7    0.92    0.08
   2   1   7    0.85    0.06
  -3  -1  -7   10.98    0.52
   3   1   7   11.81    0.53
   3   1   7   11.22    0.57
   3   1   7   11.14    0.45
  -4  -1  -7   25.56    1.11
   4   1   7   25.52    1.11
   4   1   7   24.43    1.21
  -5  -1  -7   10.83    0.52
  -5  -1  -7   10.53    0.53
   5   1   7   10.80    0.53
   5   1   7   10.63    0.65
  -6  -1  -7    2.01    0.18
  -6  -1  -7    2.38    0.18
   6   1   7    2.49    0.20
   6   1   7    2.46    0.18
  -7  -1  -7    0.06    0.05
  -7  -1  -7    0.10    0.06
   7   1   7    0.06    0.05
   7   1   7    0.13    0.06
  -8  -1  -7    6.74    0.39
  -8  -1  -7    5.89    0.39
   8   1   7    6.44    0.43
   8   1   7    6.10    0.38
  -9  -1  -7    3.30    0.26
  -9  -1  -7    3.10    0.26
   9   1   7    3.30    0.26
   9   1   7    2.86    0.24
   6  -2  -7    1.69    0.20
   6  -2  -7    1.51    0.20
   6  -2  -7    1.66    0.21
  -6   2   7    1.44    0.18
   5  -2  -7    0.29    0.10
   5  -2  -7    0.04    0.08
   5  -2  -7    0.16    0.09
  -5   2   7    0.11    0.09
   4  -2  -7    0.31    0.10
   4  -2  -7    0.42    0.10
   4  -2  -7    0.40    0.10
  -4   2   7    0.20    0.08
   3  -2  -7    4.06    0.31
   3  -2  -7    4.34    0.28
   3  -2  -7    4.40    0.33
   3  -2  -7    3.84    0.18
  -3   2   7    4.24    0.27
  -3   2   7    4.42    0.18
   2  -2  -7    0.07    0.05
   2  -2  -7    0.02    0.02
   2  -2  -7    0.01    0.04
   2  -2  -7    0.02    0.04
  -2   2   7    0.00    0.04
  -2   2   7    0.01    0.03
   1  -2  -7    2.70    0.14
   1  -2  -7    2.22    0.17
   1  -2  -7    2.60    0.20
   1  -2  -7    2.59    0.22
  -1   2   7    2.55    0.14
  -1   2   7    2.45    0.12
  -1   2   7    2.28    0.17
  -1   2   7    2.76    0.14
   0  -2  -7   19.59    0.92
   0  -2  -7   19.49    1.18
   0  -2  -7   20.69    0.83
   0  -2  -7   20.82    1.06
   0   2   7   21.09    0.73
   0   2   7   21.76    0.89
   0   2   7   20.57    0.82
   0   2   7   20.81    0.99
  -1  -2  -7    0.01    0.02
  -1  -2  -7    0.00    0.02
  -1  -2  -7    0.04    0.03
   1   2   7    0.02    0.02
   1   2   7   -0.01    0.02
   1   2   7    0.04    0.02
   1   2   7    0.06    0.04
  -2  -2  -7   10.33    0.45
  -2  -2  -7   10.66    0.49
   2   2   7   10.82    0.38
   2   2   7   10.44    0.54
   2   2   7   10.16    0.43
   2   2   7   11.70    0.50
  -3  -2  -7   10.45    0.53
   3   2   7   12.26    0.54
   3   2   7   11.80    0.46
   3   2   7   11.76    0.58
  -4  -2  -7    5.31    0.30
   4   2   7    5.84    0.33
   4   2   7    6.13    0.31
   4   2   7    6.06    0.31
  -5  -2  -7    4.24    0.25
   5   2   7    4.65    0.29
   5   2   7    4.71    0.27
  -6  -2  -7    4.61    0.29
  -6  -2  -7    4.85    0.28
   6   2   7    5.01    0.29
   6   2   7    5.14    0.34
  -7  -2  -7    1.10    0.13
  -7  -2  -7    1.15    0.12
   7   2   7    1.15    0.13
   7   2   7    1.09    0.12
  -8  -2  -7    6.68    0.42
  -8  -2  -7    7.52    0.42
   8   2   7    7.36    0.42
   8   2   7    7.51    0.47
  -9  -2  -7    0.13    0.07
  -9  -2  -7    0.03    0.07
   9   2   7    0.07    0.06
   9   2   7    0.06    0.05
 -10  -2  -7    0.10    0.08
 -10  -2  -7    0.18    0.09
  10   2   7    0.37    0.10
  10   2   7    0.13    0.05
   5  -3  -7    0.02    0.08
   5  -3  -7   -0.02    0.05
   5  -3  -7   -0.01    0.06
  -5   3   7    0.01    0.08
   4  -3  -7    4.74    0.34
   4  -3  -7    5.45    0.41
   4  -3  -7    5.23    0.39
  -4   3   7    5.06    0.34
   3  -3  -7    0.29    0.09
   3  -3  -7    0.25    0.09
   3  -3  -7    0.25    0.09
   3  -3  -7    0.24    0.03
  -3   3   7    0.23    0.05
  -3   3   7    0.16    0.07
   2  -3  -7    0.88    0.13
   2  -3  -7    1.00    0.12
   2  -3  -7    0.83    0.13
   2  -3  -7    0.82    0.07
  -2   3   7    0.86    0.07
  -2   3   7    1.07    0.12
   1  -3  -7    0.04    0.05
   1  -3  -7    0.13    0.06
   1  -3  -7    0.11    0.06
   1  -3  -7    0.08    0.03
  -1   3   7    0.14    0.06
  -1   3   7    0.13    0.04
  -1   3   7    0.10    0.04
  -1   3   7    0.12    0.03
   0  -3  -7    5.74    0.35
   0  -3  -7    5.63    0.39
   0  -3  -7    5.32    0.30
   0  -3  -7    5.36    0.26
   0   3   7    5.60    0.25
   0   3   7    5.71    0.28
   0   3   7    5.71    0.22
   0   3   7    5.58    0.31
  -1  -3  -7    0.06    0.03
  -1  -3  -7    0.10    0.03
  -1  -3  -7    0.03    0.03
   1   3   7    0.05    0.02
   1   3   7    0.03    0.02
   1   3   7    0.05    0.03
  -2  -3  -7   18.23    0.76
  -2  -3  -7   18.76    0.84
   2   3   7   19.52    0.84
   2   3   7   19.78    0.91
   2   3   7   18.36    0.74
   2   3   7   18.81    0.67
  -3  -3  -7    4.18    0.22
   3   3   7    3.98    0.24
   3   3   7    4.19    0.18
   3   3   7    4.03    0.23
  -4  -3  -7    1.33    0.10
   4   3   7    1.11    0.11
   4   3   7    1.19    0.11
   4   3   7    1.36    0.12
  -5  -3  -7   55.18    2.55
   5   3   7   60.76    2.77
   5   3   7   62.06    2.62
   5   3   7   61.48    2.54
  -6  -3  -7    3.26    0.21
   6   3   7    3.50    0.23
  -7  -3  -7   19.02    0.87
   7   3   7   18.69    1.07
   7   3   7   18.42    0.88
  -8  -3  -7    1.08    0.14
  -8  -3  -7    1.01    0.12
   8   3   7    1.19    0.13
   8   3   7    1.16    0.12
  -9  -3  -7    0.80    0.12
  -9  -3  -7    0.74    0.14
   9   3   7    0.62    0.09
   9   3   7    0.76    0.12
 -10  -3  -7    0.61    0.12
 -10  -3  -7    0.68    0.15
  10   3   7    0.58    0.08
  10   3   7    0.70    0.13
   5  -4  -7    0.34    0.12
   5  -4  -7    0.33    0.12
   5  -4  -7    0.30    0.12
  -5   4   7    0.27    0.11
   4  -4  -7    0.81    0.16
   4  -4  -7    0.50    0.12
   4  -4  -7    0.88    0.16
  -4   4   7    0.55    0.12
   3  -4  -7    0.65    0.06
   3  -4  -7    0.75    0.14
   3  -4  -7    0.59    0.12
   3  -4  -7    0.68    0.14
  -3   4   7    0.62    0.07
  -3   4   7    0.65    0.11
   2  -4  -7    0.68    0.07
   2  -4  -7    0.48    0.11
   2  -4  -7    0.62    0.12
   2  -4  -7    0.36    0.09
  -2   4   7    0.55    0.08
  -2   4   7    0.42    0.05
  -2   4   7    0.39    0.09
   1  -4  -7    0.60    0.11
   1  -4  -7    0.28    0.08
   1  -4  -7    0.58    0.07
  -1   4   7    0.39    0.05
  -1   4   7    0.48    0.06
  -1   4   7    0.33    0.08
  -1   4   7    0.47    0.07
   0  -4  -7    4.54    0.24
   0  -4  -7    4.78    0.27
   0  -4  -7    4.72    0.32
   0   4   7    4.62    0.19
   0   4   7    4.71    0.25
   0   4   7    4.81    0.23
   0   4   7    4.76    0.28
  -1  -4  -7   10.09    0.47
  -1  -4  -7    9.51    0.43
  -1  -4  -7    9.77    0.55
   1   4   7    9.47    0.41
   1   4   7    9.81    0.37
   1   4   7   10.30    0.50
   1   4   7    9.81    0.47
  -2  -4  -7    6.57    0.32
  -2  -4  -7    7.29    0.35
   2   4   7    7.20    0.36
   2   4   7    7.09    0.26
   2   4   7    6.79    0.30
   2   4   7    7.33    0.38
  -3  -4  -7    0.08    0.04
   3   4   7    0.03    0.03
   3   4   7    0.07    0.04
   3   4   7    0.02    0.02
  -4  -4  -7    0.07    0.04
   4   4   7    0.05    0.04
   4   4   7    0.07    0.04
   4   4   7    0.01    0.04
  -5  -4  -7    0.18    0.05
   5   4   7    0.20    0.06
   5   4   7    0.20    0.05
   5   4   7    0.15    0.06
  -6  -4  -7    4.51    0.26
   6   4   7    4.95    0.29
   6   4   7    5.05    0.29
  -7  -4  -7   17.67    0.82
   7   4   7   17.70    0.84
  -8  -4  -7   20.35    0.92
   8   4   7   18.85    0.93
   8   4   7   20.01    1.12
  -9  -4  -7   41.63    1.85
  -9  -4  -7   42.80    1.87
   9   4   7   41.14    2.28
   9   4   7   41.09    1.84
 -10  -4  -7   12.07    0.64
 -10  -4  -7   11.32    0.61
  10   4   7   11.14    0.61
   4  -5  -7    2.49    0.25
   4  -5  -7    3.38    0.32
   4  -5  -7    2.91    0.30
  -4   5   7    2.66    0.24
   3  -5  -7    0.97    0.17
   3  -5  -7    1.11    0.08
   3  -5  -7    1.04    0.16
  -3   5   7    1.15    0.15
   2  -5  -7    0.13    0.04
   2  -5  -7    0.20    0.09
   2  -5  -7    0.11    0.07
  -2   5   7    0.16    0.05
  -2   5   7    0.13    0.06
  -2   5   7    0.21    0.08
   1  -5  -7    2.87    0.21
   1  -5  -7    2.48    0.16
   1  -5  -7    3.00    0.25
  -1   5   7    2.64    0.14
  -1   5   7    2.61    0.16
  -1   5   7    2.83    0.20
  -1   5   7    2.88    0.19
   0  -5  -7    2.57    0.23
   0  -5  -7    3.01    0.17
   0  -5  -7    2.51    0.19
   0   5   7    2.79    0.18
   0   5   7    2.79    0.15
   0   5   7    2.52    0.13
   0   5   7    2.68    0.19
  -1  -5  -7    0.11    0.06
  -1  -5  -7    0.14    0.04
  -1  -5  -7    0.07    0.05
   1   5   7    0.09    0.03
   1   5   7    0.09    0.05
   1   5   7    0.14    0.04
   1   5   7    0.11    0.05
  -2  -5  -7    3.58    0.21
  -2  -5  -7    3.73    0.20
   2   5   7    3.44    0.17
   2   5   7    3.58    0.22
   2   5   7    3.48    0.21
   2   5   7    3.63    0.15
  -3  -5  -7    1.36    0.10
   3   5   7    1.16    0.07
   3   5   7    1.13    0.13
   3   5   7    1.19    0.10
   3   5   7    0.95    0.10
  -4  -5  -7    8.29    0.39
   4   5   7    8.33    0.43
   4   5   7    7.95    0.42
   4   5   7    8.34    0.45
  -5  -5  -7    0.38    0.06
   5   5   7    0.34    0.07
   5   5   7    0.41    0.07
   5   5   7    0.34    0.08
  -6  -5  -7    0.20    0.05
   6   5   7    0.13    0.06
   6   5   7    0.19    0.06
  -7  -5  -7    9.14    0.45
   7   5   7    9.18    0.49
   7   5   7    8.98    0.48
  -8  -5  -7   10.54    0.52
   8   5   7   10.10    0.54
  -9  -5  -7    9.26    0.47
   9   5   7    8.57    0.52
   9   5   7    8.41    0.49
 -10  -5  -7    4.72    0.35
  10   5   7    5.33    0.34
   3  -6  -7    0.35    0.05
   3  -6  -7    0.33    0.12
   3  -6  -7    0.24    0.11
  -3   6   7    0.33    0.10
   2  -6  -7    0.92    0.09
   2  -6  -7    0.54    0.12
   2  -6  -7    0.89    0.16
  -2   6   7    0.82    0.11
   1  -6  -7    1.19    0.15
   1  -6  -7    1.53    0.18
   1  -6  -7    1.33    0.11
  -1   6   7    1.14    0.12
  -1   6   7    1.23    0.09
  -1   6   7    1.27    0.11
   0  -6  -7    0.41    0.11
   0  -6  -7    0.27    0.06
   0   6   7    0.35    0.05
   0   6   7    0.30    0.06
   0   6   7    0.36    0.07
  -1  -6  -7    0.72    0.12
  -1  -6  -7    0.99    0.10
   1   6   7    0.84    0.10
   1   6   7    0.80    0.06
   1   6   7    0.83    0.08
  -2  -6  -7    0.48    0.07
   2   6   7    0.42    0.08
   2   6   7    0.48    0.04
   2   6   7    0.50    0.10
   2   6   7    0.46    0.05
   3   6   7    5.44    0.34
   3   6   7    5.34    0.24
   3   6   7    5.49    0.31
   4   6   7    0.39    0.07
   4   6   7    0.19    0.07
   5   6   7    1.96    0.16
   5   6   7    2.01    0.18
   6   6   7    1.65    0.15
   6   6   7    1.87    0.17
   7   6   7    1.51    0.15
   7   6   7    1.16    0.13
   8   6   7    1.24    0.14
   8   6   7    0.94    0.13
   9   6   7    6.67    0.40
  10   6   7    0.02    0.05
   2  -7  -7   -0.06    0.03
   2  -7  -7    0.09    0.09
  -2   7   7   -0.05    0.04
   1  -7  -7    0.71    0.09
   1  -7  -7    0.59    0.14
  -1   7   7    0.64    0.09
  -1   7   7    0.59    0.10
   0  -7  -7   -0.01    0.06
   0  -7  -7    0.00    0.04
   0   7   7   -0.02    0.04
   0   7   7    0.03    0.07
   0   7   7    0.06    0.05
  -1  -7  -7    0.65    0.09
  -1  -7  -7    0.97    0.15
   1   7   7    0.90    0.09
   1   7   7    1.01    0.07
   1   7   7    0.84    0.11
   1   7   7    1.18    0.16
  -2  -7  -7   10.14    0.48
   2   7   7   10.56    0.44
   2   7   7    9.98    0.52
   2   7   7   11.05    0.59
   2   7   7   10.34    0.38
   3   7   7    1.74    0.15
   3   7   7    1.58    0.18
   3   7   7    1.88    0.11
   4   7   7   26.44    1.24
   4   7   7   25.50    1.17
   5   7   7    2.25    0.20
   5   7   7    2.21    0.18
   6   7   7   11.18    0.60
   6   7   7   10.96    0.57
   7   7   7    3.04    0.23
   7   7   7    3.35    0.26
   8   7   7   -0.01    0.06
   8   7   7    0.00    0.04
   9   7   7    0.15    0.07
   9   7   7    0.10    0.06
  10   7   7    0.68    0.12
  10   7   7    0.72    0.07
   0  -8  -7    0.06    0.05
   0  -8  -7    0.02    0.07
   0   8   7    0.03    0.05
   0   8   7    0.09    0.09
   0   8   7    0.05    0.05
  -1  -8  -7    2.11    0.16
   1   8   7    1.86    0.17
   1   8   7    1.83    0.13
   1   8   7    1.76    0.20
  -2  -8  -7    0.02    0.04
   2   8   7    0.01    0.05
   2   8   7    0.06    0.07
   2   8   7   -0.01    0.03
   3   8   7    0.67    0.07
   3   8   7    0.71    0.11
   3   8   7    0.76    0.13
   4   8   7    0.20    0.07
   4   8   7    0.11    0.07
   4   8   7    0.18    0.03
   5   8   7    0.19    0.08
   5   8   7    0.25    0.08
   6   8   7   -0.04    0.05
   6   8   7   -0.01    0.04
   7   8   7    0.68    0.12
   7   8   7    0.77    0.13
   8   8   7    0.17    0.08
   8   8   7    0.07    0.06
   9   8   7    0.47    0.11
   9   8   7    0.42    0.10
  10   8   7    0.52    0.11
  10   8   7    0.40    0.11
  -1  -9  -7    1.88    0.16
   1   9   7    1.91    0.18
   1   9   7    1.92    0.14
   1   9   7    2.10    0.23
  -2  -9  -7    1.08    0.12
   2   9   7    0.93    0.09
   2   9   7    0.66    0.14
   2   9   7    0.95    0.13
   3   9   7    0.61    0.07
   3   9   7    0.66    0.12
   3   9   7    0.65    0.14
   4   9   7    2.83    0.23
   4   9   7    3.26    0.28
   5   9   7    2.33    0.20
   5   9   7    2.47    0.23
   6   9   7    1.24    0.17
   6   9   7    1.17    0.15
   7   9   7    2.40    0.23
   7   9   7    2.45    0.21
   8   9   7    0.05    0.06
   8   9   7    0.05    0.07
   9   9   7    0.12    0.07
   9   9   7    0.16    0.09
   3  10   7    4.85    0.38
   3  10   7    4.83    0.34
   3  10   7    4.95    0.24
   4  10   7    1.28    0.18
   4  10   7    1.25    0.16
   5  10   7    0.18    0.08
   5  10   7    0.25    0.11
   6  10   7    2.72    0.27
   6  10   7    3.10    0.25
   7  10   7    1.74    0.22
   7  10   7    2.09    0.20
   8  10   7    0.95    0.15
   8  10   7    1.19    0.18
   5   8  -8    0.39    0.11
  -5  -8   8    0.26    0.12
  -4  -8   8    1.14    0.19
  -3  -8   8    0.01    0.07
  -2  -8   8    0.72    0.15
  -1  -8   8    0.87    0.16
   0  -8   8    1.30    0.20
   0  -8   8    1.48    0.14
   6   7  -8    0.41    0.11
   6   7  -8    0.55    0.13
  -6  -7   8    0.22    0.11
   5   7  -8    2.64    0.22
  -5  -7   8    2.31    0.25
   4   7  -8    1.78    0.17
  -4  -7   8    1.23    0.19
   3   7  -8    4.74    0.30
  -3  -7   8    4.13    0.35
  -2  -7   8    1.98    0.22
  -1  -7   8    1.17    0.17
   0   7  -8    0.56    0.06
   0  -7   8    0.35    0.12
   0  -7   8    0.71    0.10
   1  -7   8    2.23    0.16
   1  -7   8    1.59    0.22
   2  -7   8    0.16    0.10
   2  -7   8    0.27    0.07
   7   6  -8   -0.03    0.06
   7   6  -8    0.07    0.07
  -7  -6   8    0.05    0.09
   6   6  -8    0.28    0.10
   6   6  -8    0.34    0.10
  -6  -6   8    0.33    0.12
   5   6  -8    5.33    0.35
   5   6  -8    5.27    0.37
  -5  -6   8    4.63    0.38
   4   6  -8    1.76    0.17
  -4  -6   8    1.62    0.19
   3   6  -8    1.62    0.15
  -3  -6   8    1.00    0.15
   2   6  -8    5.79    0.33
  -2  -6   8    4.98    0.38
  -1  -6   8    2.40    0.23
   0   6  -8    4.35    0.19
   0  -6   8    4.64    0.25
   0  -6   8    3.99    0.33
  -1   6  -8    1.33    0.09
   1  -6   8    1.37    0.18
   1  -6   8    1.69    0.13
  -2   6  -8    3.53    0.23
   2  -6   8    3.34    0.30
   2  -6   8    3.24    0.20
  -3   6  -8   15.54    0.76
   3  -6   8   15.14    0.93
   3  -6   8   16.46    0.67
  -4   6  -8    3.42    0.26
   4  -6   8    3.89    0.20
   7   5  -8    3.59    0.30
   7   5  -8    3.63    0.28
  -7  -5   8    3.28    0.33
   6   5  -8    4.47    0.32
   6   5  -8    4.62    0.34
  -6  -5   8    4.09    0.36
   5   5  -8    1.06    0.14
   5   5  -8    1.14    0.15
  -5  -5   8    1.03    0.17
   4   5  -8    5.03    0.33
   4   5  -8    4.83    0.35
  -4  -5   8    5.29    0.38
   3   5  -8    2.76    0.22
   3   5  -8    2.36    0.20
  -3  -5   8    2.63    0.24
   2   5  -8    8.12    0.43
  -2  -5   8    7.87    0.32
  -2  -5   8    7.28    0.48
   1   5  -8    3.16    0.23
   1   5  -8    3.42    0.14
  -1  -5   8    4.46    0.30
   0  -5   8    1.89    0.19
   1  -5   8   10.42    0.48
   1  -5   8   11.16    0.65
  -2   5  -8    1.62    0.14
   2  -5   8    1.71    0.13
   2  -5   8    1.63    0.19
  -3   5  -8    5.34    0.32
   3  -5   8    5.96    0.28
   3  -5   8    5.27    0.40
  -4   5  -8    2.36    0.20
   4  -5   8    2.64    0.15
  -5   5  -8    0.49    0.11
   7   4  -8    0.39    0.10
   7   4  -8    0.41    0.12
  -7  -4   8    0.28    0.13
   6   4  -8    3.39    0.26
   6   4  -8    3.30    0.29
  -6  -4   8    3.51    0.26
  -6  -4   8    3.74    0.32
   5   4  -8    0.77    0.12
   5   4  -8    0.81    0.13
  -5  -4   8    0.83    0.13
  -5  -4   8    1.38    0.18
   4   4  -8   -0.03    0.04
   4   4  -8   -0.03    0.04
   4   4  -8    0.06    0.07
  -4  -4   8    0.09    0.07
  -4  -4   8    0.05    0.08
   3   4  -8    3.75    0.27
   3   4  -8    3.51    0.25
   3   4  -8    4.03    0.24
  -3  -4   8    3.95    0.30
  -3  -4   8    3.77    0.25
   2   4  -8   71.34    3.23
   2   4  -8   71.55    3.64
   2   4  -8   77.63    3.14
  -2  -4   8   73.78    2.56
  -2  -4   8   74.63    3.39
  -2  -4   8   73.57    3.66
   1   4  -8   57.41    2.43
   1   4  -8   57.34    1.96
   1   4  -8   57.57    2.50
  -1  -4   8   55.06    2.83
  -1  -4   8   57.32    2.63
  -1  -4   8   56.11    1.98
   0   4  -8  159.10    6.65
   0  -4   8  155.78    7.70
   0  -4   8  161.57    7.20
   0  -4   8  156.10    6.02
  -1   4  -8   37.97    1.64
  -1   4  -8   38.58    1.49
   1  -4   8   37.42    1.49
   1  -4   8   38.09    1.79
   1  -4   8   36.35    1.92
  -2   4  -8   31.46    1.37
  -2   4  -8   31.59    1.35
  -2   4  -8   31.32    1.24
   2  -4   8   31.14    1.61
   2  -4   8   29.55    1.23
  -3   4  -8    0.83    0.11
  -3   4  -8    0.93    0.12
   3  -4   8    1.04    0.09
  -4   4  -8    0.48    0.09
  -4   4  -8    0.34    0.08
   4  -4   8    0.25    0.05
   4  -4   8    0.24    0.10
  -5   4  -8    0.99    0.14
  -5   4  -8    0.89    0.12
   5  -4   8    0.91    0.17
  -6   4  -8    4.61    0.30
  -6   4  -8    3.82    0.30
   6  -4   8    4.68    0.40
   7   3  -8    0.07    0.08
   7   3  -8   -0.03    0.05
   7   3  -8    0.02    0.06
  -7  -3   8    0.03    0.09
  -7  -3   8    0.04    0.08
   6   3  -8    0.18    0.09
   6   3  -8    0.29    0.09
   6   3  -8    0.15    0.08
  -6  -3   8    0.09    0.08
  -6  -3   8    0.23    0.12
   5   3  -8    0.38    0.09
   5   3  -8    0.29    0.09
   5   3  -8    0.23    0.08
  -5  -3   8    0.30    0.11
  -5  -3   8    0.25    0.08
   4   3  -8    8.73    0.51
   4   3  -8   10.95    0.55
   4   3  -8   10.59    0.60
  -4  -3   8   10.07    0.62
  -4  -3   8   10.81    0.55
   3   3  -8   13.38    0.68
   3   3  -8   15.33    0.79
   3   3  -8   15.02    0.71
  -3  -3   8   14.11    0.72
  -3  -3   8   13.95    0.80
   2   3  -8   21.46    0.98
   2   3  -8   22.09    1.14
   2   3  -8   22.26    1.03
  -2  -3   8   21.65    1.16
  -2  -3   8   22.36    0.79
  -2  -3   8   22.16    1.06
   1   3  -8   29.96    1.24
   1   3  -8   27.60    1.43
   1   3  -8   27.76    1.11
   1   3  -8   27.12    1.28
  -1  -3   8   28.25    1.34
  -1  -3   8   28.38    1.00
  -1  -3   8   28.87    1.45
   0   3  -8    1.34    0.11
   0   3  -8    1.14    0.09
   0  -3   8    1.30    0.10
   0  -3   8    1.15    0.12
  -1   3  -8   11.45    0.54
  -1   3  -8   11.32    0.49
   1  -3   8   11.38    0.48
   1  -3   8   11.17    0.59
  -2   3  -8    6.83    0.31
  -2   3  -8    5.74    0.34
  -2   3  -8    7.06    0.35
   2  -3   8    6.83    0.42
   2  -3   8    6.81    0.31
   2  -3   8    6.46    0.39
  -3   3  -8    7.26    0.38
  -3   3  -8    7.23    0.38
   3  -3   8    7.16    0.33
  -4   3  -8    0.26    0.08
  -4   3  -8    0.14    0.06
   4  -3   8    0.07    0.07
   4  -3   8    0.06    0.03
  -5   3  -8    0.09    0.07
  -5   3  -8    0.02    0.06
   5  -3   8    0.07    0.07
  -6   3  -8    2.03    0.20
  -6   3  -8    1.78    0.18
   6  -3   8    2.15    0.24
  -7   3  -8    0.06    0.07
  -7   3  -8    0.13    0.08
   7  -3   8    0.15    0.09
   7   2  -8    0.52    0.13
   7   2  -8    0.42    0.12
  -7  -2   8    0.51    0.15
  -7  -2   8    0.58    0.12
   6   2  -8    2.68    0.25
   6   2  -8    2.90    0.25
  -6  -2   8    2.29    0.25
  -6  -2   8    2.62    0.22
   5   2  -8   14.21    0.71
   5   2  -8   14.33    0.72
   5   2  -8   13.76    0.80
  -5  -2   8   13.42    0.82
  -5  -2   8   13.77    0.72
   4   2  -8    4.34    0.28
   4   2  -8    4.62    0.28
   4   2  -8    4.14    0.31
  -4  -2   8    4.46    0.28
  -4  -2   8    4.33    0.33
   3   2  -8    3.76    0.25
   3   2  -8    4.44    0.26
   3   2  -8    3.91    0.28
  -3  -2   8    3.98    0.30
  -3  -2   8    4.21    0.26
   2   2  -8    0.83    0.10
   2   2  -8    0.48    0.08
   2   2  -8    0.86    0.10
   2   2  -8    0.81    0.06
  -2  -2   8    0.58    0.10
  -2  -2   8    0.65    0.06
  -2  -2   8    0.64    0.09
   1   2  -8    4.30    0.23
   1   2  -8    3.78    0.25
   1   2  -8    3.83    0.24
   1   2  -8    4.04    0.19
  -1  -2   8    4.08    0.17
  -1  -2   8    3.81    0.24
  -1  -2   8    4.38    0.20
  -1  -2   8    4.13    0.27
   0   2  -8   16.54    0.75
   0   2  -8   17.08    0.68
   0   2  -8   16.45    0.77
   0   2  -8   16.77    0.86
   0  -2   8   16.65    0.67
   0  -2   8   16.27    0.60
   0  -2   8   16.59    0.82
  -1   2  -8   27.57    1.10
  -1   2  -8   27.85    1.22
   1  -2   8   27.68    1.10
   1  -2   8   28.01    1.33
   1  -2   8   28.05    1.41
  -2   2  -8    2.73    0.17
  -2   2  -8    2.58    0.15
   2  -2   8    2.62    0.15
   2  -2   8    2.65    0.19
   2  -2   8    2.53    0.19
  -3   2  -8    1.04    0.11
  -3   2  -8    0.94    0.10
   3  -2   8    1.04    0.08
   3  -2   8    1.23    0.15
   3  -2   8    1.07    0.12
  -4   2  -8   17.34    0.82
  -4   2  -8   17.41    0.82
   4  -2   8   17.64    1.06
   4  -2   8   17.69    0.70
  -5   2  -8    1.09    0.12
  -5   2  -8    0.89    0.13
   5  -2   8    1.03    0.15
  -6   2  -8   -0.02    0.05
  -6   2  -8    0.08    0.06
   6  -2   8   -0.03    0.05
  -7   2  -8    0.26    0.09
  -7   2  -8    0.59    0.12
   7  -2   8    0.25    0.10
  -8   2  -8    4.38    0.31
  -8   2  -8    3.72    0.31
   8  -2   8    4.72    0.38
   7   1  -8    5.04    0.39
   7   1  -8    4.89    0.37
  -7  -1   8    4.72    0.41
  -7  -1   8    4.72    0.35
   6   1  -8    5.30    0.37
   6   1  -8    5.77    0.40
  -6  -1   8    4.83    0.34
  -6  -1   8    5.02    0.41
   5   1  -8    0.05    0.07
   5   1  -8    0.06    0.06
  -5  -1   8   -0.06    0.06
  -5  -1   8    0.02    0.08
   4   1  -8    9.17    0.53
  -4  -1   8    8.28    0.54
  -4  -1   8    8.15    0.47
   3   1  -8    1.16    0.12
   3   1  -8    0.98    0.12
  -3  -1   8    1.07    0.14
  -3  -1   8    1.09    0.11
   2   1  -8    4.90    0.30
   2   1  -8    4.32    0.26
   2   1  -8    4.90    0.21
  -2  -1   8    4.33    0.31
  -2  -1   8    4.69    0.28
  -2  -1   8    4.65    0.19
   1   1  -8   13.52    0.54
   1   1  -8   12.63    0.69
   1   1  -8   13.30    0.61
  -1  -1   8   12.82    0.71
  -1  -1   8   13.68    0.66
  -1  -1   8   12.95    0.54
  -1  -1   8   12.76    0.48
   0   1  -8    0.02    0.03
   0   1  -8    0.05    0.04
   0   1  -8    0.00    0.02
   0  -1   8    0.08    0.04
   0  -1   8    0.00    0.02
   0  -1   8    0.01    0.04
   0  -1   8    0.01    0.03
  -1   1  -8    0.15    0.04
  -1   1  -8    0.11    0.04
  -1   1  -8    0.10    0.03
   1  -1   8    0.12    0.03
   1  -1   8    0.10    0.03
   1  -1   8    0.11    0.05
   1  -1   8    0.14    0.03
   1  -1   8    0.16    0.04
  -2   1  -8   30.55    1.20
  -2   1  -8   30.09    1.33
   2  -1   8   30.98    1.31
   2  -1   8   29.96    1.19
   2  -1   8   30.90    1.45
  -3   1  -8    0.06    0.04
  -3   1  -8    0.03    0.03
   3  -1   8    0.01    0.03
   3  -1   8    0.02    0.02
   3  -1   8    0.03    0.04
   3  -1   8    0.03    0.04
  -4   1  -8    0.31    0.06
  -4   1  -8    0.33    0.07
   4  -1   8    0.38    0.07
   4  -1   8    0.34    0.09
   4  -1   8    0.38    0.08
   4  -1   8    0.31    0.04
  -5   1  -8    1.78    0.16
  -5   1  -8    1.53    0.14
   5  -1   8    1.51    0.14
   5  -1   8    1.45    0.17
  -6   1  -8    1.81    0.17
  -6   1  -8    1.75    0.16
   6  -1   8    1.73    0.19
  -7   1  -8    1.30    0.15
  -7   1  -8    1.33    0.17
   7  -1   8    1.47    0.18
  -8   1  -8    0.88    0.15
  -8   1  -8    1.16    0.15
   8  -1   8    1.05    0.15
   6   0  -8    0.50    0.11
   6   0  -8    0.57    0.13
   6   0  -8    0.30    0.12
  -6   0   8    0.45    0.11
   5   0  -8    2.29    0.22
   5   0  -8    1.63    0.19
   5   0  -8    2.12    0.21
  -5   0   8    2.06    0.19
   4   0  -8    0.84    0.13
   4   0  -8    0.43    0.10
  -4   0   8    0.52    0.10
   3   0  -8    0.60    0.10
   3   0  -8    0.77    0.11
   3   0  -8    0.63    0.11
  -3   0   8    0.65    0.10
   2   0  -8    7.59    0.32
   2   0  -8    6.76    0.49
   2   0  -8    7.56    0.45
   2   0  -8    7.80    0.40
  -2   0   8    7.75    0.42
  -2   0   8    7.82    0.29
   1   0  -8   22.05    1.15
   1   0  -8   21.55    0.89
   1   0  -8   23.18    1.01
  -1   0   8   22.65    0.80
  -1   0   8   22.95    0.90
  -1   0   8   22.94    1.08
   0   0  -8    1.53    0.10
   0   0  -8    1.69    0.12
   0   0  -8    1.51    0.12
   0   0   8    1.56    0.09
   0   0   8    1.53    0.10
   0   0   8    1.62    0.13
   0   0   8    1.55    0.13
  -1   0  -8    0.69    0.07
  -1   0  -8    0.67    0.07
  -1   0  -8    0.80    0.08
   1   0   8    0.82    0.06
   1   0   8    0.87    0.08
   1   0   8    0.73    0.09
   1   0   8    0.82    0.07
   1   0   8    0.78    0.07
  -2   0  -8   47.28    2.12
  -2   0  -8   49.66    1.92
   2   0   8   51.35    2.09
   2   0   8   50.29    2.30
   2   0   8   48.95    1.90
  -3   0  -8   17.62    0.81
  -3   0  -8   17.74    0.82
   3   0   8   18.30    0.72
   3   0   8   18.50    0.81
   3   0   8   17.88    0.89
  -4   0  -8    1.80    0.14
  -4   0  -8    1.85    0.15
   4   0   8    1.64    0.16
   4   0   8    1.82    0.09
   4   0   8    2.02    0.15
   4   0   8    1.98    0.19
  -5   0  -8    3.63    0.24
  -5   0  -8    3.62    0.23
   5   0   8    3.66    0.24
   5   0   8    3.96    0.30
  -6   0  -8    9.32    0.47
  -6   0  -8    8.41    0.45
   6   0   8    8.22    0.45
   6   0   8    8.10    0.55
  -7   0  -8    0.19    0.07
  -7   0  -8    0.00    0.05
   7   0   8   -0.01    0.04
   7   0   8    0.11    0.06
  -8   0  -8    0.84    0.13
  -8   0  -8    1.08    0.16
   8   0   8    0.87    0.13
  -9   0  -8    0.06    0.08
  -9   0  -8    0.04    0.07
   9   0   8    0.01    0.05
   6  -1  -8   -0.01    0.06
   6  -1  -8    0.02    0.07
   6  -1  -8   -0.03    0.07
  -6   1   8   -0.06    0.06
   5  -1  -8    4.52    0.33
   5  -1  -8    4.72    0.36
   5  -1  -8    4.53    0.35
  -5   1   8    4.27    0.31
   4  -1  -8    9.41    0.53
   4  -1  -8    9.83    0.60
   4  -1  -8   10.33    0.64
  -4   1   8    9.10    0.53
   3  -1  -8    4.34    0.19
   3  -1  -8    4.32    0.34
   3  -1  -8    4.38    0.32
  -3   1   8    4.78    0.29
   2  -1  -8    3.32    0.22
   2  -1  -8    2.90    0.15
   2  -1  -8    3.11    0.24
   2  -1  -8    2.91    0.26
  -2   1   8    3.62    0.23
  -2   1   8    3.18    0.14
   1  -1  -8    0.09    0.06
   1  -1  -8    0.23    0.06
   1  -1  -8    0.09    0.05
   1  -1  -8    0.08    0.03
  -1   1   8    0.33    0.07
  -1   1   8    0.06    0.03
  -1   1   8    0.12    0.04
   0  -1  -8   38.39    1.51
   0  -1  -8   38.62    1.92
   0  -1  -8   38.52    1.68
   0  -1  -8   37.71    2.16
   0   1   8   39.20    1.81
   0   1   8   38.94    1.35
   0   1   8   39.64    1.50
  -1  -1  -8    0.97    0.08
  -1  -1  -8    1.17    0.10
   1   1   8    1.03    0.11
   1   1   8    1.13    0.07
   1   1   8    1.15    0.08
   1   1   8    1.31    0.10
  -2  -1  -8   18.14    0.73
  -2  -1  -8   17.52    0.81
   2   1   8   18.31    0.72
   2   1   8   19.14    0.81
   2   1   8   18.25    0.64
   2   1   8   17.24    0.88
  -3  -1  -8    5.03    0.27
   3   1   8    4.93    0.22
   3   1   8    5.30    0.28
   3   1   8    4.87    0.30
  -4  -1  -8   17.09    0.81
   4   1   8   18.12    0.69
   4   1   8   18.32    0.82
   4   1   8   18.26    0.90
  -5  -1  -8    0.13    0.05
  -5  -1  -8    0.12    0.05
   5   1   8    0.16    0.06
   5   1   8    0.25    0.07
   5   1   8    0.29    0.08
  -6  -1  -8    1.96    0.16
  -6  -1  -8    1.61    0.14
   6   1   8    1.60    0.17
   6   1   8    1.54    0.15
  -7  -1  -8    2.11    0.18
  -7  -1  -8    2.02    0.19
   7   1   8    2.27    0.19
   7   1   8    2.40    0.21
  -8  -1  -8    0.54    0.11
  -8  -1  -8    0.60    0.13
   8   1   8    0.64    0.11
   8   1   8    0.67    0.11
  -9  -1  -8    0.07    0.07
  -9  -1  -8    0.08    0.07
   9   1   8    0.06    0.06
   9   1   8    0.11    0.06
   5  -2  -8    0.14    0.08
   5  -2  -8    0.12    0.08
   5  -2  -8    0.06    0.09
  -5   2   8    0.11    0.08
   4  -2  -8    6.26    0.43
   4  -2  -8    6.91    0.46
   4  -2  -8    5.87    0.39
  -4   2   8    5.21    0.37
   3  -2  -8    3.65    0.16
   3  -2  -8    3.81    0.29
   3  -2  -8    3.54    0.30
   3  -2  -8    3.76    0.27
  -3   2   8    3.77    0.26
  -3   2   8    3.65    0.17
   2  -2  -8    0.10    0.06
   2  -2  -8    0.20    0.04
   2  -2  -8    0.03    0.05
   2  -2  -8    0.02    0.05
  -2   2   8    0.04    0.03
  -2   2   8    0.05    0.06
   1  -2  -8    3.91    0.20
   1  -2  -8    3.90    0.27
   1  -2  -8    3.40    0.29
   1  -2  -8    4.10    0.24
  -1   2   8    3.97    0.20
  -1   2   8    3.90    0.17
  -1   2   8    4.07    0.25
   0  -2  -8   29.98    1.35
   0  -2  -8   30.73    1.54
   0  -2  -8   30.44    1.21
   0   2   8   30.58    1.08
   0   2   8   32.58    1.31
   0   2   8   30.43    1.20
   0   2   8   29.71    1.45
  -1  -2  -8    1.73    0.12
  -1  -2  -8    1.66    0.11
   1   2   8    1.70    0.12
   1   2   8    1.75    0.09
   1   2   8    1.68    0.14
   1   2   8    1.70    0.10
  -2  -2  -8    7.53    0.33
  -2  -2  -8    7.27    0.36
   2   2   8    6.91    0.40
   2   2   8    7.94    0.37
   2   2   8    7.55    0.28
   2   2   8    7.42    0.32
  -3  -2  -8    5.07    0.26
   3   2   8    4.68    0.28
   3   2   8    4.75    0.26
   3   2   8    4.54    0.21
  -4  -2  -8   35.29    1.61
   4   2   8   38.15    1.76
   4   2   8   37.91    1.60
  -5  -2  -8    1.29    0.12
   5   2   8    1.64    0.14
   5   2   8    1.61    0.14
  -6  -2  -8    0.18    0.06
  -6  -2  -8    0.18    0.06
   6   2   8    0.15    0.06
   6   2   8    0.13    0.06
  -7  -2  -8    0.48    0.10
  -7  -2  -8    0.39    0.08
   7   2   8    0.37    0.08
   7   2   8    0.31    0.08
  -8  -2  -8    0.15    0.07
  -8  -2  -8    0.23    0.09
   8   2   8    0.11    0.06
   8   2   8    0.24    0.08
  -9  -2  -8    1.55    0.19
  -9  -2  -8    1.42    0.16
   9   2   8    1.43    0.16
   9   2   8    1.50    0.16
 -10  -2  -8    1.07    0.15
 -10  -2  -8    0.97    0.17
  10   2   8    0.94    0.15
  10   2   8    0.93    0.12
   5  -3  -8   -0.07    0.07
   5  -3  -8   -0.04    0.05
   5  -3  -8   -0.03    0.06
  -5   3   8   -0.02    0.07
   4  -3  -8    2.82    0.27
   4  -3  -8    2.69    0.24
   4  -3  -8    2.86    0.27
  -4   3   8    2.51    0.23
   3  -3  -8    0.02    0.06
   3  -3  -8   -0.03    0.06
   3  -3  -8    0.03    0.02
   3  -3  -8   -0.01    0.05
  -3   3   8    0.11    0.08
  -3   3   8    0.16    0.04
   2  -3  -8    2.05    0.12
   2  -3  -8    1.35    0.16
   2  -3  -8    2.23    0.21
   2  -3  -8    2.16    0.20
  -2   3   8    1.69    0.10
  -2   3   8    1.60    0.16
   1  -3  -8   19.95    1.05
   1  -3  -8   17.86    1.16
   1  -3  -8   19.30    0.92
   1  -3  -8   19.68    0.80
  -1   3   8   20.29    0.80
  -1   3   8   21.00    0.97
  -1   3   8   19.72    0.71
   0  -3  -8    0.79    0.08
   0  -3  -8    0.90    0.11
   0  -3  -8    0.63    0.09
   0   3   8    0.82    0.08
   0   3   8    0.84    0.08
   0   3   8    0.86    0.11
   0   3   8    0.88    0.07
  -1  -3  -8   45.95    1.81
  -1  -3  -8   45.68    2.00
   1   3   8   46.99    1.97
   1   3   8   47.47    2.16
   1   3   8   46.39    1.79
   1   3   8   46.26    1.62
  -2  -3  -8   13.49    0.60
  -2  -3  -8   14.94    0.66
   2   3   8   13.92    0.65
   2   3   8   14.13    0.58
   2   3   8   14.89    0.71
   2   3   8   14.64    0.51
  -3  -3  -8    5.66    0.28
   3   3   8    5.06    0.23
   3   3   8    5.21    0.30
   3   3   8    5.23    0.29
  -4  -3  -8   16.91    0.77
   4   3   8   17.05    0.78
   4   3   8   17.03    0.84
  -5  -3  -8    0.26    0.06
   5   3   8    0.17    0.06
   5   3   8    0.22    0.06
   5   3   8    0.25    0.06
  -6  -3  -8    4.02    0.24
   6   3   8    3.90    0.26
  -7  -3  -8   16.58    0.75
   7   3   8   15.23    0.92
   7   3   8   15.06    0.75
  -8  -3  -8   15.56    0.74
  -8  -3  -8   14.98    0.75
   8   3   8   14.69    0.88
   8   3   8   14.59    0.74
  -9  -3  -8   17.44    0.86
  -9  -3  -8   17.81    0.84
   9   3   8   16.60    0.99
   9   3   8   16.43    0.84
 -10  -3  -8    6.04    0.40
 -10  -3  -8    5.34    0.35
  10   3   8    5.11    0.35
  10   3   8    5.23    0.35
   4  -4  -8    2.48    0.25
   4  -4  -8    2.56    0.27
   4  -4  -8    3.02    0.30
  -4   4   8    2.76    0.24
   3  -4  -8    0.11    0.03
   3  -4  -8    0.09    0.08
   3  -4  -8    0.06    0.07
   3  -4  -8    0.15    0.08
  -3   4   8    0.13    0.05
  -3   4   8    0.23    0.09
   2  -4  -8    3.58    0.18
   2  -4  -8    3.02    0.24
   2  -4  -8    3.17    0.28
  -2   4   8    2.88    0.23
  -2   4   8    3.23    0.16
   1  -4  -8   21.25    1.00
   1  -4  -8   21.35    0.87
   1  -4  -8   22.53    1.16
  -1   4   8   21.33    1.05
  -1   4   8   21.30    0.86
  -1   4   8   20.76    0.77
  -1   4   8   21.35    0.95
   0  -4  -8    2.66    0.18
   0  -4  -8    2.18    0.15
   0  -4  -8    2.44    0.21
   0   4   8    2.64    0.12
   0   4   8    2.39    0.14
   0   4   8    2.44    0.19
   0   4   8    2.52    0.16
  -1  -4  -8   22.18    0.99
  -1  -4  -8   21.48    0.89
   1   4   8   21.65    0.97
   1   4   8   22.23    0.78
   1   4   8   22.16    1.06
   1   4   8   21.92    0.87
  -2  -4  -8    1.11    0.10
  -2  -4  -8    1.25    0.10
   2   4   8    0.95    0.10
   2   4   8    1.53    0.13
   2   4   8    1.29    0.07
   2   4   8    1.16    0.08
  -3  -4  -8    1.04    0.10
   3   4   8    0.93    0.10
   3   4   8    1.02    0.11
   3   4   8    1.00    0.07
  -4  -4  -8   63.04    2.64
   4   4   8   60.59    2.87
   4   4   8   63.87    2.74
   4   4   8   60.59    2.63
  -5  -4  -8   84.89    3.53
   5   4   8   80.81    3.62
   5   4   8   81.57    3.50
   5   4   8   84.74    3.82
  -6  -4  -8   93.33    3.82
   6   4   8   89.23    3.78
   6   4   8   86.76    3.91
  -7  -4  -8  111.09    4.51
   7   4   8  100.79    4.45
  -8  -4  -8   24.58    1.11
   8   4   8   24.15    1.12
   8   4   8   23.47    1.36
  -9  -4  -8    5.93    0.35
  -9  -4  -8    5.69    0.37
   9   4   8    5.15    0.36
   9   4   8    5.05    0.34
 -10  -4  -8    1.73    0.18
 -10  -4  -8    1.86    0.20
  10   4   8    1.44    0.13
  10   4   8    1.39    0.17
   3  -5  -8    0.30    0.05
   3  -5  -8    0.40    0.11
   3  -5  -8    0.29    0.12
  -3   5   8    0.23    0.09
   2  -5  -8   -0.04    0.06
   2  -5  -8    0.04    0.03
   2  -5  -8    0.05    0.07
  -2   5   8    0.01    0.07
  -2   5   8    0.07    0.04
   1  -5  -8   10.30    0.46
   1  -5  -8   10.76    0.64
   1  -5  -8   10.25    0.55
  -1   5   8    9.98    0.40
  -1   5   8   10.50    0.51
  -1   5   8   10.38    0.56
  -1   5   8   10.29    0.46
   0  -5  -8    3.95    0.20
   0  -5  -8    3.41    0.27
   0  -5  -8    2.78    0.22
   0   5   8    3.25    0.21
   0   5   8    3.18    0.23
   0   5   8    3.31    0.16
   0   5   8    3.52    0.19
  -1  -5  -8   20.58    0.85
  -1  -5  -8   20.01    0.93
   1   5   8   20.47    0.92
   1   5   8   20.87    1.00
   1   5   8   20.03    0.73
   1   5   8   20.78    0.82
  -2  -5  -8    2.38    0.16
  -2  -5  -8    2.04    0.15
   2   5   8    2.13    0.16
   2   5   8    2.28    0.10
   2   5   8    2.32    0.17
   2   5   8    2.05    0.12
  -3  -5  -8   12.90    0.60
   3   5   8   13.11    0.53
   3   5   8   12.95    0.62
  -4  -5  -8    3.11    0.18
   4   5   8    2.89    0.22
   4   5   8    3.03    0.20
   4   5   8    2.71    0.20
   4   5   8    3.18    0.13
  -5  -5  -8    5.27    0.27
   5   5   8    5.00    0.29
   5   5   8    5.21    0.31
   5   5   8    4.07    0.28
  -6  -5  -8    0.06    0.05
   6   5   8    0.07    0.05
   6   5   8    0.02    0.02
   6   5   8    0.08    0.05
  -7  -5  -8    1.30    0.13
   7   5   8    1.60    0.15
   7   5   8    1.37    0.15
  -8  -5  -8    1.77    0.15
   8   5   8    1.67    0.17
  -9  -5  -8    0.06    0.07
   9   5   8    0.06    0.05
   9   5   8    0.15    0.07
 -10  -5  -8    0.45    0.12
  10   5   8    0.26    0.09
  10   5   8    0.37    0.06
   2  -6  -8    0.09    0.08
   2  -6  -8    0.17    0.05
   2  -6  -8    0.17    0.10
  -2   6   8    0.19    0.09
   1  -6  -8    9.37    0.42
   1  -6  -8    9.10    0.59
   1  -6  -8    7.85    0.49
  -1   6   8    9.05    0.46
   0  -6  -8    0.65    0.13
   0  -6  -8    0.99    0.12
   0  -6  -8    0.57    0.08
   0   6   8    0.72    0.07
   0   6   8    0.61    0.09
   0   6   8    0.69    0.08
  -1  -6  -8   43.18    1.67
   1   6   8   41.39    1.63
   1   6   8   41.64    1.47
   1   6   8   41.02    1.81
  -2  -6  -8    6.11    0.30
   2   6   8    5.96    0.23
   2   6   8    5.50    0.33
   2   6   8    5.97    0.27
   3   6   8    0.77    0.07
   3   6   8    0.82    0.13
   3   6   8    0.70    0.10
   4   6   8   21.65    0.81
   4   6   8   21.21    1.02
   4   6   8   19.67    0.95
   5   6   8    6.50    0.37
   5   6   8    6.73    0.40
   6   6   8    0.22    0.07
   6   6   8    0.29    0.08
   7   6   8   38.37    1.72
   7   6   8   39.51    1.79
   8   6   8    6.42    0.39
   8   6   8    7.17    0.41
   9   6   8    2.91    0.23
  10   6   8    0.55    0.07
  10   6   8    0.42    0.11
   1  -7  -8    0.65    0.09
   1  -7  -8    0.82    0.16
  -1   7   8    0.50    0.10
  -1   7   8    0.60    0.09
   0  -7  -8   11.11    0.51
   0   7   8   11.08    0.49
   0   7   8   10.85    0.56
  -1  -7  -8    2.45    0.18
   1   7   8    2.28    0.15
   1   7   8    2.48    0.19
   1   7   8    2.55    0.13
   1   7   8    2.75    0.24
  -2  -7  -8   12.03    0.55
   2   7   8   11.84    0.45
   2   7   8   12.25    0.61
   2   7   8   12.87    0.52
   2   7   8   11.75    0.66
   3   7   8    1.28    0.13
   3   7   8    1.54    0.17
   3   7   8    1.25    0.09
   4   7   8    6.15    0.40
   4   7   8    6.92    0.38
   5   7   8    0.03    0.06
   5   7   8    0.07    0.05
   6   7   8    2.06    0.18
   6   7   8    2.34    0.21
   7   7   8   10.75    0.57
   7   7   8   10.96    0.60
   8   7   8    3.05    0.25
   8   7   8    2.78    0.23
   9   7   8    0.28    0.09
  10   7   8    0.60    0.12
   0  -8  -8    1.29    0.13
   0   8   8    1.22    0.12
   0   8   8    1.08    0.14
   0   8   8    1.59    0.20
  -1  -8  -8    2.42    0.18
   1   8   8    2.04    0.15
   1   8   8    2.20    0.23
   1   8   8    2.13    0.19
  -2  -8  -8    3.55    0.22
   2   8   8    3.30    0.19
   2   8   8    3.38    0.24
   2   8   8    3.45    0.29
   3   8   8    1.25    0.17
   3   8   8    1.21    0.09
   3   8   8    1.01    0.13
   4   8   8    5.37    0.37
   4   8   8    5.25    0.34
   4   8   8    5.86    0.24
   5   8   8    3.03    0.23
   5   8   8    3.11    0.26
   6   8   8    0.96    0.15
   6   8   8    1.05    0.14
   7   8   8    0.44    0.11
   7   8   8    0.58    0.11
   8   8   8    7.80    0.47
   8   8   8    8.50    0.50
   9   8   8    0.06    0.06
   9   8   8    0.18    0.09
  -2  -9  -8    1.40    0.14
   2   9   8    1.20    0.18
   2   9   8    1.20    0.11
   2   9   8    1.19    0.15
   3   9   8    2.14    0.13
   3   9   8    1.77    0.21
   3   9   8    1.89    0.19
   4   9   8    1.67    0.17
   4   9   8    1.49    0.20
   5   9   8    0.02    0.07
   5   9   8    0.03    0.05
   6   9   8    0.80    0.15
   6   9   8    1.13    0.15
   7   9   8    0.00    0.04
   7   9   8    0.04    0.07
   8   9   8    4.06    0.32
   8   9   8    4.19    0.31
   9   9   8   -0.05    0.04
   9   9   8    0.01    0.07
   5  10   8    1.10    0.16
   5  10   8    1.42    0.20
   6  10   8    5.85    0.39
   6  10   8    6.24    0.44
   7  10   8    2.14    0.24
   7  10   8    2.11    0.21
  -3  -8   9    2.87    0.29
  -2  -8   9    0.26    0.12
  -1  -8   9    2.11    0.25
   5   7  -9    1.42    0.17
  -5  -7   9    0.81    0.16
   4   7  -9    0.35    0.10
  -4  -7   9    0.40    0.12
   3   7  -9    0.39    0.10
  -3  -7   9    0.23    0.10
  -2  -7   9    0.12    0.08
  -1  -7   9    3.95    0.34
   0  -7   9    2.61    0.18
   0  -7   9    2.48    0.26
   1  -7   9   10.19    0.69
   1  -7   9   11.17    0.51
   2  -7   9    0.83    0.10
   6   6  -9    1.15    0.16
   6   6  -9    1.06    0.17
  -6  -6   9    1.07    0.19
   5   6  -9    0.41    0.11
   5   6  -9    0.30    0.10
  -5  -6   9    0.15    0.10
   4   6  -9    1.70    0.17
  -4  -6   9    1.58    0.20
   3   6  -9   -0.02    0.05
  -3  -6   9    0.05    0.07
   2   6  -9    1.59    0.16
  -2  -6   9    1.59    0.19
  -1  -6   9    0.19    0.08
   0   6  -9    0.25    0.04
   0  -6   9    0.34    0.10
   0  -6   9    0.41    0.08
   1  -6   9    1.66    0.14
   1  -6   9    1.45    0.19
   2  -6   9    3.63    0.22
   3  -6   9    3.46    0.21
   6   5  -9    0.40    0.11
   6   5  -9    0.37    0.11
  -6  -5   9    0.47    0.15
   5   5  -9    4.56    0.34
   5   5  -9    4.62    0.32
  -5  -5   9    4.72    0.38
   4   5  -9    1.88    0.19
   4   5  -9    1.61    0.18
  -4  -5   9    2.61    0.24
   3   5  -9   34.26    1.72
   3   5  -9   33.68    1.54
  -3  -5   9   31.83    1.74
   2   5  -9    7.85    0.45
  -2  -5   9    8.24    0.34
  -2  -5   9    8.92    0.53
  -1  -5   9    6.58    0.43
   0  -5   9   11.20    0.68
   0  -5   9   12.14    0.52
   1  -5   9    5.60    0.41
   1  -5   9    6.15    0.30
   2  -5   9    0.54    0.08
  -3   5  -9    0.25    0.08
   3  -5   9    0.13    0.05
  -4   5  -9    0.29    0.09
   4  -5   9    0.39    0.06
   7   4  -9    1.30    0.17
   7   4  -9    1.07    0.17
  -7  -4   9    1.10    0.20
   6   4  -9   14.28    0.82
   6   4  -9   14.61    0.74
  -6  -4   9   12.70    0.84
   5   4  -9   12.71    0.65
   5   4  -9   13.30    0.72
  -5  -4   9   12.16    0.64
  -5  -4   9    9.73    0.71
   4   4  -9   69.44    3.05
   4   4  -9   73.83    3.44
  -4  -4   9   64.07    3.18
  -4  -4   9   67.63    3.46
   3   4  -9    5.00    0.32
   3   4  -9    4.04    0.26
   3   4  -9    4.68    0.30
  -3  -4   9    4.46    0.29
  -3  -4   9    3.94    0.32
   2   4  -9   37.06    1.86
   2   4  -9   36.45    1.66
   2   4  -9   37.63    1.61
  -2  -4   9   38.24    1.74
  -2  -4   9   35.54    1.88
  -2  -4   9   35.17    1.30
   1   4  -9    1.30    0.13
   1   4  -9    1.86    0.14
  -1  -4   9    1.37    0.10
  -1  -4   9    1.35    0.15
  -1  -4   9    1.89    0.18
   0   4  -9    0.09    0.04
   0   4  -9    0.02    0.05
   0  -4   9    0.03    0.06
   0  -4   9    0.03    0.04
   0  -4   9    0.09    0.06
  -1   4  -9    4.60    0.26
  -1   4  -9    4.55    0.24
   1  -4   9    4.42    0.29
   1  -4   9    4.49    0.24
   1  -4   9    4.18    0.31
  -2   4  -9    0.62    0.09
  -2   4  -9    0.74    0.08
   2  -4   9    0.71    0.08
   2  -4   9    0.85    0.12
  -3   4  -9    0.02    0.05
  -3   4  -9    0.06    0.05
   3  -4   9    0.03    0.04
  -4   4  -9    3.41    0.25
  -4   4  -9    3.94    0.25
   4  -4   9    3.43    0.19
  -5   4  -9   -0.01    0.06
  -5   4  -9    0.01    0.06
   5  -4   9    0.00    0.06
  -6   4  -9    1.18    0.15
  -6   4  -9    0.95    0.15
   6  -4   9    1.48    0.21
   7   3  -9    0.38    0.12
   7   3  -9    0.36    0.12
  -7  -3   9    0.40    0.14
  -7  -3   9    0.38    0.12
   6   3  -9    0.66    0.12
   6   3  -9    0.62    0.13
   6   3  -9    0.69    0.14
  -6  -3   9    0.60    0.12
  -6  -3   9    0.86    0.17
   5   3  -9    1.42    0.16
   5   3  -9    0.94    0.15
   5   3  -9    1.12    0.15
  -5  -3   9    1.53    0.21
  -5  -3   9    1.38    0.15
   4   3  -9    0.03    0.06
   4   3  -9    0.01    0.05
   4   3  -9   -0.02    0.06
  -4  -3   9    0.08    0.07
  -4  -3   9    0.06    0.09
   3   3  -9   30.64    1.46
   3   3  -9   31.08    1.63
   3   3  -9   31.81    1.42
  -3  -3   9   33.21    1.52
  -3  -3   9   32.32    1.66
   2   3  -9    2.40    0.19
   2   3  -9    1.73    0.15
   2   3  -9    2.31    0.18
  -2  -3   9    1.54    0.18
  -2  -3   9    2.25    0.17
  -2  -3   9    1.97    0.11
   1   3  -9   25.52    1.17
   1   3  -9   25.90    1.01
   1   3  -9   25.62    1.13
   1   3  -9   26.14    1.31
  -1  -3   9   23.90    1.32
  -1  -3   9   25.65    0.91
  -1  -3   9   25.57    1.23
   0   3  -9    5.51    0.28
   0   3  -9    5.08    0.25
   0   3  -9    4.43    0.28
   0  -3   9    5.17    0.31
   0  -3   9    4.95    0.25
   0  -3   9    5.01    0.33
  -1   3  -9    4.59    0.23
  -1   3  -9    4.28    0.25
   1  -3   9    4.59    0.23
   1  -3   9    4.80    0.30
   1  -3   9    4.57    0.31
  -2   3  -9   10.55    0.52
   2  -3   9   10.58    0.47
   2  -3   9   10.94    0.58
  -3   3  -9    3.04    0.21
  -3   3  -9    2.98    0.21
   3  -3   9    3.44    0.18
  -4   3  -9    0.13    0.06
  -4   3  -9   -0.01    0.05
   4  -3   9    0.13    0.07
   4  -3   9    0.14    0.04
  -5   3  -9    0.02    0.06
  -5   3  -9    0.05    0.06
   5  -3   9    0.02    0.06
  -6   3  -9    0.90    0.14
  -6   3  -9    0.83    0.12
   6  -3   9    0.75    0.15
   6   2  -9    0.05    0.06
   6   2  -9    0.08    0.08
  -6  -2   9   -0.03    0.08
  -6  -2   9    0.03    0.08
   5   2  -9    6.80    0.44
   5   2  -9    6.41    0.40
  -5  -2   9    6.28    0.46
  -5  -2   9    6.30    0.39
   4   2  -9    2.84    0.23
   4   2  -9    3.91    0.26
   4   2  -9    3.87    0.28
  -4  -2   9    2.76    0.27
  -4  -2   9    2.99    0.23
   3   2  -9    1.15    0.13
   3   2  -9    1.09    0.13
   3   2  -9    1.06    0.12
  -3  -2   9    0.80    0.14
  -3  -2   9    1.08    0.13
   2   2  -9    0.07    0.02
   2   2  -9    0.16    0.06
   2   2  -9    0.02    0.04
   2   2  -9    0.11    0.05
  -2  -2   9    0.14    0.07
  -2  -2   9    0.13    0.04
  -2  -2   9    0.09    0.06
   1   2  -9    0.27    0.04
   1   2  -9    0.33    0.07
   1   2  -9    0.42    0.07
  -1  -2   9    0.37    0.05
  -1  -2   9    0.49    0.09
  -1  -2   9    0.38    0.08
   0   2  -9    9.17    0.39
   0   2  -9    9.31    0.44
   0   2  -9    9.50    0.50
   0  -2   9    9.13    0.39
   0  -2   9    9.00    0.35
   0  -2   9    8.04    0.50
   0  -2   9    9.04    0.48
  -1   2  -9   10.02    0.47
  -1   2  -9    9.57    0.42
   1  -2   9    9.26    0.42
   1  -2   9    9.79    0.52
  -2   2  -9    0.05    0.04
  -2   2  -9    0.03    0.03
  -2   2  -9    0.09    0.05
   2  -2   9    0.04    0.03
   2  -2   9    0.11    0.05
  -3   2  -9    1.05    0.11
  -3   2  -9    1.19    0.12
   3  -2   9    1.22    0.16
   3  -2   9    1.04    0.09
   3  -2   9    1.09    0.13
  -4   2  -9    1.38    0.14
  -4   2  -9    1.74    0.15
   4  -2   9    1.67    0.10
   4  -2   9    1.79    0.20
  -5   2  -9    0.02    0.05
  -5   2  -9    0.05    0.06
   5  -2   9   -0.01    0.05
  -6   2  -9    0.06    0.06
  -6   2  -9   -0.01    0.05
   6  -2   9    0.02    0.07
  -7   2  -9    0.05    0.07
  -7   2  -9    0.09    0.07
   7  -2   9    0.11    0.08
   6   1  -9    1.17    0.17
   6   1  -9    1.00    0.16
  -6  -1   9    0.83    0.17
  -6  -1   9    0.97    0.15
   5   1  -9    0.97    0.15
   5   1  -9    0.98    0.15
  -5  -1   9    0.91    0.13
  -5  -1   9    0.95    0.16
   4   1  -9    0.41    0.10
   4   1  -9    0.37    0.10
  -4  -1   9    0.37    0.11
  -4  -1   9    0.40    0.09
   3   1  -9    0.15    0.07
   3   1  -9    0.12    0.06
  -3  -1   9    0.14    0.07
  -3  -1   9    0.14    0.08
   2   1  -9    2.74    0.19
   2   1  -9    2.18    0.12
   2   1  -9    2.28    0.19
  -2  -1   9    2.39    0.12
  -2  -1   9    2.51    0.19
  -2  -1   9    2.67    0.21
   1   1  -9    1.25    0.09
   1   1  -9    1.31    0.12
   1   1  -9    1.48    0.12
  -1  -1   9    1.35    0.08
  -1  -1   9    0.97    0.12
  -1  -1   9    1.33    0.10
  -1  -1   9    1.44    0.13
   0   1  -9    1.60    0.13
   0   1  -9    1.78    0.11
   0   1  -9    2.05    0.14
   0  -1   9    1.66    0.09
   0  -1   9    1.79    0.14
   0  -1   9    1.81    0.11
   0  -1   9    1.43    0.14
  -1   1  -9    0.21    0.04
  -1   1  -9    0.10    0.05
   1  -1   9    0.25    0.04
   1  -1   9    0.20    0.06
   1  -1   9    0.12    0.03
  -2   1  -9    0.90    0.09
  -2   1  -9    0.86    0.08
  -2   1  -9    0.71    0.09
   2  -1   9    0.85    0.09
   2  -1   9    0.82    0.13
   2  -1   9    1.03    0.08
   2  -1   9    0.91    0.11
  -3   1  -9    0.51    0.08
  -3   1  -9    0.52    0.08
   3  -1   9    0.44    0.07
   3  -1   9    0.58    0.11
   3  -1   9    0.57    0.09
   3  -1   9    0.50    0.06
  -4   1  -9    0.22    0.07
  -4   1  -9    0.13    0.06
   4  -1   9    0.08    0.06
   4  -1   9    0.13    0.05
   4  -1   9    0.12    0.03
   4  -1   9    0.17    0.07
  -5   1  -9    0.13    0.06
  -5   1  -9    0.28    0.07
   5  -1   9    0.19    0.08
   5  -1   9    0.15    0.06
  -6   1  -9   -0.04    0.04
  -6   1  -9    0.02    0.05
   6  -1   9    0.00    0.05
  -7   1  -9    0.03    0.06
  -7   1  -9    0.16    0.07
   7  -1   9    0.00    0.06
  -8   1  -9    0.44    0.11
  -8   1  -9    0.60    0.13
   8  -1   9    0.51    0.12
   6   0  -9    0.31    0.11
   6   0  -9    0.17    0.08
   6   0  -9    0.13    0.10
  -6   0   9    0.17    0.09
   5   0  -9    1.07    0.16
   5   0  -9    0.92    0.15
   5   0  -9    1.01    0.16
  -5   0   9    1.24    0.15
   4   0  -9    0.36    0.10
   4   0  -9    0.34    0.10
   4   0  -9    0.40    0.10
  -4   0   9    0.22    0.09
   3   0  -9    1.18    0.14
   3   0  -9    1.09    0.15
   3   0  -9    1.46    0.15
  -3   0   9    1.21    0.14
   2   0  -9    0.38    0.08
   2   0  -9    0.38    0.08
   2   0  -9    0.37    0.04
  -2   0   9    0.38    0.05
  -2   0   9    0.35    0.08
  -2   0   9    0.36    0.09
   1   0  -9    3.00    0.15
   1   0  -9    2.55    0.18
   1   0  -9    2.95    0.21
  -1   0   9    2.75    0.20
  -1   0   9    2.73    0.13
  -1   0   9    3.14    0.16
   0   0  -9    0.49    0.07
   0   0  -9    0.73    0.08
   0   0  -9    0.62    0.06
   0   0   9    0.47    0.08
   0   0   9    0.64    0.06
   0   0   9    0.46    0.08
   0   0   9    0.46    0.05
  -1   0  -9   11.10    0.47
  -1   0  -9   10.86    0.52
   1   0   9   10.51    0.40
   1   0   9   10.87    0.56
   1   0   9   10.93    0.46
  -2   0  -9    0.00    0.02
  -2   0  -9    0.03    0.04
  -2   0  -9   -0.03    0.02
   2   0   9    0.03    0.03
   2   0   9    0.07    0.04
   2   0   9    0.00    0.04
  -3   0  -9    0.87    0.09
  -3   0  -9    0.82    0.09
   3   0   9    0.64    0.06
   3   0   9    0.70    0.09
   3   0   9    0.71    0.10
  -4   0  -9   12.73    0.62
  -4   0  -9   12.61    0.61
   4   0   9   12.39    0.68
   4   0   9   13.33    0.62
   4   0   9   13.22    0.52
   4   0   9   12.85    0.80
  -5   0  -9    4.07    0.27
  -5   0  -9    4.13    0.26
   5   0   9    4.01    0.32
   5   0   9    4.40    0.27
  -6   0  -9    3.33    0.24
  -6   0  -9    3.48    0.25
   6   0   9    3.45    0.24
   6   0   9    3.75    0.30
  -7   0  -9    0.78    0.13
  -7   0  -9    0.70    0.12
   7   0   9    1.05    0.14
   7   0   9    0.82    0.13
  -8   0  -9    2.36    0.22
  -8   0  -9    2.17    0.20
   8   0   9    2.04    0.22
   5  -1  -9    0.06    0.07
   5  -1  -9    0.04    0.08
   5  -1  -9    0.04    0.07
  -5   1   9    0.04    0.08
   4  -1  -9    0.62    0.13
   4  -1  -9    0.58    0.12
   4  -1  -9    0.47    0.12
  -4   1   9    0.59    0.11
   3  -1  -9    0.07    0.06
   3  -1  -9    0.16    0.08
   3  -1  -9    0.06    0.02
   3  -1  -9    0.06    0.07
  -3   1   9    0.13    0.08
   2  -1  -9    7.50    0.46
   2  -1  -9    7.28    0.51
   2  -1  -9    7.36    0.41
   2  -1  -9    7.48    0.32
  -2   1   9    7.43    0.42
  -2   1   9    7.80    0.30
   1  -1  -9    7.40    0.33
   1  -1  -9    7.23    0.39
   1  -1  -9    7.80    0.44
   1  -1  -9    7.99    0.51
  -1   1   9    6.94    0.41
  -1   1   9    7.36    0.33
  -1   1   9    7.18    0.29
   0  -1  -9    1.97    0.13
   0  -1  -9    1.96    0.15
   0  -1  -9    2.05    0.15
   0   1   9    1.94    0.16
   0   1   9    2.14    0.11
   0   1   9    1.99    0.16
   0   1   9    1.95    0.12
  -1  -1  -9    3.71    0.22
  -1  -1  -9    3.94    0.20
   1   1   9    3.98    0.19
   1   1   9    4.23    0.25
   1   1   9    3.85    0.17
  -2  -1  -9    0.41    0.06
  -2  -1  -9    0.31    0.06
   2   1   9    0.35    0.04
   2   1   9    0.34    0.07
   2   1   9    0.34    0.05
  -3  -1  -9    7.56    0.39
   3   1   9    7.74    0.33
   3   1   9    7.68    0.43
   3   1   9    7.98    0.39
  -4  -1  -9   21.49    0.96
   4   1   9   20.92    1.05
   4   1   9   21.28    0.96
   4   1   9   20.92    0.82
  -5  -1  -9    2.92    0.20
  -5  -1  -9    2.72    0.19
   5   1   9    2.73    0.22
   5   1   9    2.82    0.20
   5   1   9    2.92    0.25
  -6  -1  -9   16.51    0.79
  -6  -1  -9   16.46    0.80
   6   1   9   16.31    0.79
   6   1   9   17.20    1.00
  -7  -1  -9   22.13    1.03
  -7  -1  -9   21.90    1.04
   7   1   9   21.16    1.02
   7   1   9   22.16    1.28
  -8  -1  -9    2.05    0.19
  -8  -1  -9    2.29    0.21
   8   1   9    2.09    0.21
   8   1   9    2.09    0.19
  -9  -1  -9    4.53    0.31
  -9  -1  -9    4.70    0.34
   9   1   9    4.37    0.32
   9   1   9    4.36    0.34
   5  -2  -9    0.02    0.06
   5  -2  -9   -0.01    0.06
   5  -2  -9   -0.09    0.07
  -5   2   9   -0.11    0.07
   4  -2  -9    1.14    0.17
   4  -2  -9    1.03    0.15
   4  -2  -9    1.16    0.16
  -4   2   9    0.73    0.13
   3  -2  -9    3.97    0.33
   3  -2  -9    4.02    0.29
   3  -2  -9    4.00    0.31
   3  -2  -9    3.92    0.18
  -3   2   9    3.95    0.18
  -3   2   9    4.05    0.28
   2  -2  -9   14.35    0.91
   2  -2  -9   14.90    0.83
   2  -2  -9   15.09    0.73
   2  -2  -9   14.92    0.61
  -2   2   9   15.16    0.76
  -2   2   9   14.44    0.55
   1  -2  -9    2.41    0.24
   1  -2  -9    3.05    0.21
   1  -2  -9    2.71    0.21
   1  -2  -9    2.46    0.15
  -1   2   9    2.63    0.16
  -1   2   9    2.95    0.14
  -1   2   9    3.22    0.22
   0  -2  -9    8.46    0.40
   0  -2  -9    7.03    0.34
   0   2   9    7.58    0.30
   0   2   9    7.63    0.42
   0   2   9    7.74    0.34
  -1  -2  -9    0.04    0.04
  -1  -2  -9    0.01    0.03
   1   2   9   -0.01    0.03
   1   2   9    0.02    0.03
   1   2   9    0.05    0.05
   1   2   9    0.00    0.03
  -2  -2  -9    1.20    0.10
  -2  -2  -9    0.90    0.10
   2   2   9    1.31    0.11
   2   2   9    1.17    0.08
   2   2   9    1.17    0.12
   2   2   9    1.05    0.07
  -3  -2  -9    1.04    0.10
   3   2   9    1.07    0.08
   3   2   9    1.25    0.12
   3   2   9    1.14    0.10
  -4  -2  -9   10.45    0.52
   4   2   9   10.89    0.53
   4   2   9   10.77    0.43
   4   2   9   10.72    0.57
  -5  -2  -9   11.03    0.53
   5   2   9   10.49    0.58
   5   2   9   10.89    0.54
  -6  -2  -9    4.29    0.25
  -6  -2  -9    3.78    0.26
   6   2   9    3.70    0.25
   6   2   9    4.00    0.31
  -7  -2  -9    9.89    0.53
  -7  -2  -9   10.56    0.55
   7   2   9   10.12    0.54
   7   2   9   10.62    0.65
  -8  -2  -9    4.35    0.29
  -8  -2  -9    4.89    0.32
   8   2   9    4.23    0.33
   8   2   9    4.26    0.30
  -9  -2  -9    0.99    0.14
  -9  -2  -9    1.16    0.17
   9   2   9    1.00    0.13
   9   2   9    0.76    0.13
   4  -3  -9    0.48    0.12
   4  -3  -9    0.49    0.13
   4  -3  -9    0.52    0.13
  -4   3   9    0.69    0.13
   3  -3  -9    0.17    0.09
   3  -3  -9    0.21    0.03
   3  -3  -9    0.19    0.09
   3  -3  -9    0.27    0.10
  -3   3   9    0.17    0.09
  -3   3   9    0.15    0.05
   2  -3  -9    0.14    0.08
   2  -3  -9    0.38    0.10
   2  -3  -9    0.25    0.09
   2  -3  -9    0.21    0.04
  -2   3   9    0.57    0.11
  -2   3   9    0.39    0.05
   1  -3  -9    2.92    0.23
   1  -3  -9    2.50    0.21
   1  -3  -9    3.29    0.17
  -1   3   9    2.62    0.22
  -1   3   9    3.22    0.17
  -1   3   9    2.78    0.14
   0  -3  -9    2.60    0.20
   0  -3  -9    3.29    0.18
   0   3   9    2.78    0.21
   0   3   9    2.94    0.14
   0   3   9    3.07    0.16
  -1  -3  -9    1.85    0.13
  -1  -3  -9    1.99    0.15
   1   3   9    1.90    0.16
   1   3   9    1.93    0.10
   1   3   9    1.98    0.14
   1   3   9    1.93    0.12
  -2  -3  -9   31.85    1.41
  -2  -3  -9   31.95    1.28
   2   3   9   31.12    1.26
   2   3   9   32.58    1.40
   2   3   9   33.04    1.13
   2   3   9   33.46    1.54
  -3  -3  -9  120.04    5.25
   3   3   9  124.26    4.73
   3   3   9  123.65    5.69
   3   3   9  130.42    5.19
  -4  -3  -9  167.63    6.94
   4   3   9  163.01    6.25
   4   3   9  164.82    7.52
   4   3   9  164.51    6.85
  -5  -3  -9   55.50    2.26
   5   3   9   49.97    2.45
   5   3   9   52.66    2.32
   5   3   9   51.44    2.25
  -6  -3  -9  107.04    4.36
   6   3   9  102.25    4.72
   6   3   9   98.06    4.31
  -7  -3  -9    1.82    0.16
   7   3   9    1.65    0.16
  -8  -3  -9    9.00    0.49
  -8  -3  -9    9.33    0.47
   8   3   9    8.29    0.55
   8   3   9    7.62    0.47
  -9  -3  -9    1.22    0.15
  -9  -3  -9    1.44    0.18
   9   3   9    1.02    0.15
   9   3   9    1.10    0.14
 -10  -3  -9    3.98    0.32
 -10  -3  -9    4.30    0.31
  10   3   9    3.94    0.30
  10   3   9    4.02    0.30
   4  -4  -9    0.07    0.09
   4  -4  -9    0.01    0.07
   4  -4  -9   -0.01    0.07
  -4   4   9   -0.02    0.07
   3  -4  -9    0.04    0.03
   3  -4  -9    0.02    0.07
   3  -4  -9    0.18    0.10
  -3   4   9    0.05    0.08
   2  -4  -9    0.50    0.06
   2  -4  -9    0.45    0.11
   2  -4  -9    0.45    0.11
  -2   4   9    0.40    0.06
  -2   4   9    0.42    0.10
   1  -4  -9    0.62    0.08
   1  -4  -9    0.83    0.13
   1  -4  -9    0.77    0.12
  -1   4   9    0.73    0.08
  -1   4   9    0.79    0.11
  -1   4   9    0.63    0.07
   0  -4  -9    2.68    0.17
   0  -4  -9    2.81    0.20
   0   4   9    2.81    0.16
   0   4   9    2.92    0.21
   0   4   9    2.99    0.14
   0   4   9    2.67    0.18
  -1  -4  -9   22.31    0.98
  -1  -4  -9   20.88    0.88
   1   4   9   21.25    1.04
   1   4   9   21.26    0.86
   1   4   9   21.85    0.96
   1   4   9   21.15    0.77
  -2  -4  -9   46.63    1.82
  -2  -4  -9   46.02    2.00
   2   4   9   46.62    1.98
   2   4   9   46.84    2.17
   2   4   9   46.08    1.61
   2   4   9   45.97    1.79
  -3  -4  -9   20.60    0.88
   3   4   9   18.64    0.88
   3   4   9   19.56    0.95
   3   4   9   18.93    0.77
  -4  -4  -9    9.34    0.43
   4   4   9    8.29    0.35
   4   4   9    8.60    0.47
   4   4   9    8.29    0.44
  -5  -4  -9   11.80    0.55
   5   4   9   11.55    0.58
   5   4   9   11.28    0.57
   5   4   9   10.61    0.60
  -6  -4  -9    4.81    0.28
   6   4   9    4.82    0.30
   6   4   9    4.76    0.30
   6   4   9    5.02    0.32
  -7  -4  -9    3.05    0.21
   7   4   9    2.83    0.22
  -8  -4  -9    1.28    0.14
   8   4   9    1.01    0.14
  -9  -4  -9    2.61    0.22
  -9  -4  -9    2.49    0.23
   9   4   9    2.60    0.22
   9   4   9    2.58    0.22
 -10  -4  -9    1.08    0.15
 -10  -4  -9    0.98    0.17
  10   4   9    0.93    0.15
  10   4   9    1.01    0.12
   3  -5  -9   -0.03    0.07
   3  -5  -9    0.09    0.08
  -3   5   9    0.11    0.09
   2  -5  -9    3.23    0.18
   2  -5  -9    3.12    0.26
   2  -5  -9    3.25    0.29
  -2   5   9    2.98    0.24
   1  -5  -9    3.01    0.24
   1  -5  -9    2.89    0.18
   1  -5  -9    2.99    0.26
  -1   5   9    3.18    0.23
  -1   5   9    2.83    0.18
  -1   5   9    2.87    0.15
   0  -5  -9    0.51    0.09
   0  -5  -9    0.37    0.07
   0   5   9    0.44    0.08
   0   5   9    0.39    0.05
   0   5   9    0.50    0.09
   0   5   9    0.40    0.06
  -1  -5  -9    2.11    0.16
  -1  -5  -9    2.80    0.19
   1   5   9    2.27    0.14
   1   5   9    2.53    0.19
   1   5   9    2.52    0.12
   1   5   9    2.42    0.18
  -2  -5  -9    0.05    0.05
  -2  -5  -9    0.06    0.04
   2   5   9    0.07    0.03
   2   5   9    0.10    0.05
   2   5   9    0.04    0.05
   2   5   9    0.04    0.03
  -3  -5  -9   12.23    0.59
   3   5   9   13.02    0.65
   3   5   9   12.36    0.61
   3   5   9   12.69    0.52
  -4  -5  -9    2.10    0.15
   4   5   9    2.37    0.11
   4   5   9    2.17    0.19
   4   5   9    2.24    0.17
   4   5   9    2.33    0.18
  -5  -5  -9   12.64    0.58
   5   5   9   12.10    0.64
   5   5   9   12.33    0.63
   5   5   9   11.72    0.61
  -6  -5  -9    0.60    0.09
   6   5   9    0.59    0.10
   6   5   9    0.59    0.10
   6   5   9    0.76    0.11
  -7  -5  -9    0.06    0.06
   7   5   9    0.07    0.05
   7   5   9    0.09    0.06
  -8  -5  -9    1.57    0.15
   8   5   9    1.78    0.17
  -9  -5  -9    0.24    0.09
   9   5   9    0.15    0.06
   9   5   9    0.23    0.08
 -10  -5  -9    0.07    0.08
 -10  -5  -9   -0.02    0.06
  10   5   9    0.08    0.05
  10   5   9    0.07    0.07
   2  -6  -9    2.68    0.25
   2  -6  -9    2.77    0.17
   2  -6  -9    2.91    0.29
  -2   6   9    2.80    0.23
   1  -6  -9    2.07    0.15
   1  -6  -9    2.33    0.21
  -1   6   9    2.14    0.15
  -1   6   9    2.11    0.20
   0  -6  -9    6.53    0.39
   0  -6  -9    6.85    0.33
   0   6   9    6.09    0.36
   0   6   9    6.47    0.31
  -1  -6  -9    3.91    0.25
  -1  -6  -9    3.88    0.23
   1   6   9    3.70    0.20
   1   6   9    3.82    0.25
   1   6   9    3.67    0.17
  -2  -6  -9    0.51    0.08
   2   6   9    0.58    0.05
   2   6   9    0.39    0.08
   2   6   9    0.41    0.06
   3   6   9    5.11    0.34
   3   6   9    5.20    0.23
   3   6   9    4.53    0.29
   4   6   9    0.29    0.09
   4   6   9    0.21    0.03
   4   6   9    0.18    0.06
   5   6   9    1.05    0.12
   5   6   9    1.24    0.14
   6   6   9    0.21    0.08
   6   6   9    0.35    0.09
   7   6   9    0.67    0.11
   7   6   9    0.53    0.10
   8   6   9    0.06    0.06
   9   6   9    0.80    0.13
  10   6   9   -0.04    0.04
  10   6   9    0.03    0.04
   1  -7  -9    0.51    0.08
  -1   7   9    0.50    0.10
  -1   7   9    0.43    0.08
   0   7   9    0.07    0.05
   0   7   9    0.04    0.06
  -1  -7  -9    0.82    0.10
   1   7   9    0.70    0.11
   1   7   9    0.70    0.08
  -2  -7  -9    0.77    0.10
   2   7   9    0.66    0.08
   2   7   9    0.73    0.11
   2   7   9    0.77    0.14
   3   7   9    5.20    0.32
   3   7   9    5.58    0.37
   3   7   9    5.42    0.25
   4   7   9    0.55    0.10
   4   7   9    0.55    0.06
   4   7   9    0.55    0.12
   5   7   9    0.59    0.10
   5   7   9    0.44    0.10
   6   7   9    1.06    0.15
   6   7   9    0.96    0.13
   7   7   9    2.38    0.22
   7   7   9    2.06    0.19
   8   7   9    0.49    0.11
   8   7   9    0.72    0.12
   9   7   9    2.13    0.20
  10   7   9    0.01    0.06
  -1  -8  -9    2.16    0.17
   1   8   9    2.12    0.19
   1   8   9    2.26    0.24
   1   8   9    2.37    0.16
  -2  -8  -9    0.55    0.09
   2   8   9    0.44    0.07
   2   8   9    0.52    0.13
   2   8   9    0.30    0.09
   3   8   9    0.00    0.04
   3   8   9    0.09    0.08
   3   8   9    0.08    0.06
   4   8   9    0.07    0.03
   4   8   9    0.10    0.06
   4   8   9    0.02    0.07
   5   8   9    0.05    0.05
   5   8   9    0.06    0.07
   6   8   9    0.08    0.06
   6   8   9    0.08    0.08
   7   8   9    0.42    0.12
   7   8   9    0.40    0.10
   8   8   9    0.93    0.14
   8   8   9    0.68    0.13
   9   8   9   -0.01    0.07
   9   8   9   -0.01    0.05
   3   9   9    0.57    0.14
   3   9   9    0.49    0.07
   3   9   9    0.42    0.10
   4   9   9    0.77    0.13
   4   9   9    0.80    0.15
   5   9   9    0.16    0.09
   5   9   9    0.38    0.10
   6   9   9    0.04    0.07
   6   9   9    0.06    0.06
   7   9   9    0.29    0.09
   7   9   9    0.44    0.12
   8   9   9    1.01    0.16
   8   9   9    0.95    0.15
   4   7 -10    0.58    0.12
  -4  -7  10    0.29    0.12
  -3  -7  10    9.57    0.63
  -2  -7  10    0.22    0.10
  -1  -7  10   12.63    0.78
   0  -7  10    3.90    0.37
   0  -7  10    5.42    0.29
   5   6 -10    2.68    0.23
   5   6 -10    2.92    0.26
  -5  -6  10    1.81    0.24
   4   6 -10    4.23    0.29
  -4  -6  10    3.35    0.32
   3   6 -10    0.00    0.05
  -3  -6  10    0.06    0.08
  -2  -6  10    3.55    0.30
  -1  -6  10   -0.02    0.05
   0  -6  10    0.03    0.05
   0  -6  10   -0.02    0.05
   1  -6  10    2.24    0.17
   2  -6  10    0.38    0.08
   6   5 -10   24.62    1.27
   6   5 -10   23.49    1.14
  -6  -5  10   20.68    1.30
   5   5 -10    3.53    0.27
   5   5 -10    3.25    0.28
  -5  -5  10    3.21    0.31
   4   5 -10    8.71    0.52
   4   5 -10    9.78    0.57
  -4  -5  10    8.88    0.59
   3   5 -10    0.06    0.06
   3   5 -10    0.18    0.08
  -3  -5  10    0.06    0.08
  -2  -5  10    0.32    0.10
  -2  -5  10    0.39    0.06
  -1  -5  10    7.13    0.47
   0   5 -10    3.36    0.15
   0  -5  10    3.43    0.21
   0  -5  10    3.01    0.27
   1  -5  10    3.25    0.20
   2  -5  10    3.91    0.23
   3  -5  10    1.32    0.12
  -4   5 -10    0.44    0.10
   4  -5  10    0.41    0.06
   6   4 -10    3.85    0.33
   6   4 -10    4.24    0.32
  -6  -4  10    4.20    0.37
   5   4 -10    7.32    0.44
   5   4 -10    7.52    0.48
  -5  -4  10    6.53    0.50
   4   4 -10    1.09    0.15
   4   4 -10    0.94    0.13
  -4  -4  10    0.63    0.14
  -4  -4  10    0.73    0.12
   3   4 -10    0.62    0.11
   3   4 -10    0.58    0.11
  -3  -4  10    0.80    0.12
  -3  -4  10    0.85    0.14
   2   4 -10    1.88    0.17
   2   4 -10    1.75    0.14
   2   4 -10    1.69    0.16
  -2  -4  10    1.53    0.18
  -2  -4  10    1.64    0.11
  -2  -4  10    1.50    0.15
   1   4 -10    2.39    0.17
   1   4 -10    2.38    0.18
  -1  -4  10    2.19    0.13
  -1  -4  10    2.15    0.21
  -1  -4  10    2.57    0.20
   0   4 -10    0.26    0.07
   0   4 -10    0.33    0.06
   0  -4  10    0.35    0.08
   0  -4  10    0.35    0.07
   0  -4  10    0.27    0.08
  -1   4 -10    4.19    0.26
  -1   4 -10    4.56    0.24
   1  -4  10    4.88    0.25
   1  -4  10    4.85    0.31
  -2   4 -10    2.93    0.21
  -2   4 -10    2.98    0.19
   2  -4  10    2.88    0.18
   2  -4  10    3.36    0.25
  -3   4 -10    0.41    0.07
  -3   4 -10    0.35    0.08
   3  -4  10    0.53    0.07
  -4   4 -10    0.57    0.11
  -4   4 -10    0.41    0.09
   4  -4  10    0.39    0.06
  -5   4 -10    1.13    0.14
  -5   4 -10    1.07    0.15
   6   3 -10    0.12    0.09
   6   3 -10    0.07    0.08
  -6  -3  10    0.08    0.09
  -6  -3  10    0.06    0.11
   5   3 -10    4.42    0.32
   5   3 -10    4.21    0.34
   5   3 -10    4.42    0.32
  -5  -3  10    5.02    0.33
  -5  -3  10    4.53    0.38
   4   3 -10    0.03    0.06
   4   3 -10   -0.05    0.05
   4   3 -10    0.06    0.07
  -4  -3  10    0.07    0.08
  -4  -3  10    0.09    0.09
   3   3 -10    6.18    0.38
   3   3 -10    5.92    0.36
   3   3 -10    5.31    0.33
  -3  -3  10    5.73    0.40
  -3  -3  10    5.36    0.35
   2   3 -10    4.44    0.33
   2   3 -10    4.74    0.31
   2   3 -10    5.67    0.31
  -2  -3  10    5.13    0.23
  -2  -3  10    5.31    0.32
  -2  -3  10    5.91    0.37
   1   3 -10    2.17    0.13
   1   3 -10    2.12    0.17
   1   3 -10    2.33    0.18
   1   3 -10    1.68    0.14
  -1  -3  10    2.01    0.17
  -1  -3  10    1.98    0.11
  -1  -3  10    1.58    0.17
   0   3 -10    4.74    0.24
   0   3 -10    4.49    0.27
   0  -3  10    4.82    0.30
   0  -3  10    4.80    0.24
  -1   3 -10   12.91    0.65
  -1   3 -10   13.70    0.59
   1  -3  10   13.56    0.58
   1  -3  10   14.69    0.73
  -2   3 -10    0.16    0.05
  -2   3 -10    0.25    0.07
   2  -3  10    0.16    0.07
   2  -3  10    0.22    0.05
  -3   3 -10    0.13    0.06
   3  -3  10    0.10    0.04
   3  -3  10    0.14    0.08
  -4   3 -10    1.28    0.14
  -4   3 -10    0.92    0.13
   4  -3  10    1.39    0.10
  -5   3 -10    0.00    0.05
  -5   3 -10    0.35    0.09
   5  -3  10    0.01    0.06
  -6   3 -10    1.30    0.15
  -6   3 -10    1.20    0.16
   6  -3  10    1.08    0.18
   6   2 -10    0.19    0.10
   6   2 -10    0.29    0.11
  -6  -2  10    0.20    0.10
  -6  -2  10    0.19    0.12
   5   2 -10    2.55    0.24
   5   2 -10    2.31    0.22
  -5  -2  10    2.74    0.27
  -5  -2  10    2.55    0.22
   4   2 -10    3.18    0.25
   4   2 -10    2.82    0.23
  -4  -2  10    2.50    0.22
  -4  -2  10    2.62    0.26
   3   2 -10    0.17    0.07
   3   2 -10    0.13    0.07
  -3  -2  10    0.21    0.09
  -3  -2  10    0.20    0.08
   2   2 -10    2.35    0.19
   2   2 -10    3.01    0.22
   2   2 -10    2.80    0.14
  -2  -2  10    2.36    0.22
  -2  -2  10    2.68    0.20
  -2  -2  10    2.58    0.14
   1   2 -10    0.05    0.04
   1   2 -10    0.01    0.02
   1   2 -10    0.00    0.04
  -1  -2  10    0.03    0.05
  -1  -2  10   -0.02    0.03
  -1  -2  10   -0.05    0.04
   0   2 -10    4.58    0.27
   0   2 -10    5.27    0.25
   0  -2  10    4.87    0.21
   0  -2  10    5.02    0.25
   0  -2  10    4.96    0.31
  -1   2 -10    8.04    0.36
  -1   2 -10    7.39    0.40
   1  -2  10    7.99    0.36
   1  -2  10    8.08    0.45
  -2   2 -10    5.94    0.29
  -2   2 -10    5.74    0.32
   2  -2  10    6.00    0.28
   2  -2  10    6.13    0.37
  -3   2 -10   -0.02    0.04
  -3   2 -10    0.10    0.05
   3  -2  10    0.04    0.05
   3  -2  10    0.06    0.04
  -4   2 -10    3.10    0.23
  -4   2 -10    3.38    0.23
   4  -2  10    4.23    0.33
   4  -2  10    3.59    0.18
  -5   2 -10    0.63    0.11
  -5   2 -10    0.53    0.10
   5  -2  10    0.79    0.14
  -6   2 -10    1.23    0.15
  -6   2 -10    1.08    0.15
   6  -2  10    1.44    0.19
  -7   2 -10    1.05    0.16
  -7   2 -10    1.25    0.15
   7  -2  10    1.19    0.18
   6   1 -10    0.08    0.08
   6   1 -10    0.00    0.08
  -6  -1  10    0.05    0.09
  -6  -1  10    0.05    0.10
   5   1 -10    1.31    0.17
   5   1 -10    1.36    0.18
  -5  -1  10    1.27    0.20
  -5  -1  10    1.12    0.15
   4   1 -10    1.81    0.19
   4   1 -10    1.64    0.18
  -4  -1  10    1.50    0.19
  -4  -1  10    1.71    0.18
   3   1 -10    0.16    0.07
   3   1 -10    0.06    0.07
  -3  -1  10    0.06    0.07
  -3  -1  10    0.11    0.08
   2   1 -10    2.24    0.11
   2   1 -10    1.51    0.15
   2   1 -10    2.36    0.18
  -2  -1  10    1.82    0.17
  -2  -1  10    1.62    0.18
  -2  -1  10    1.94    0.11
   1   1 -10    8.17    0.36
   1   1 -10    8.44    0.42
   1   1 -10    7.85    0.47
  -1  -1  10    8.41    0.32
  -1  -1  10    7.95    0.45
   0   1 -10    2.92    0.19
   0   1 -10    2.83    0.16
   0  -1  10    2.83    0.21
   0  -1  10    2.76    0.16
   0  -1  10    2.77    0.14
  -1   1 -10    0.01    0.04
  -1   1 -10    0.01    0.03
   1  -1  10   -0.02    0.03
   1  -1  10    0.01    0.04
   1  -1  10    0.00    0.03
  -2   1 -10   12.44    0.63
  -2   1 -10   13.53    0.57
   2  -1  10   13.68    0.56
   2  -1  10   13.91    0.70
  -3   1 -10    0.43    0.08
  -3   1 -10    0.36    0.07
   3  -1  10    0.29    0.08
   3  -1  10    0.31    0.07
   3  -1  10    0.34    0.10
   3  -1  10    0.46    0.06
  -4   1 -10    0.76    0.11
  -4   1 -10    0.78    0.11
   4  -1  10    0.92    0.11
   4  -1  10    0.96    0.15
   4  -1  10    0.93    0.13
   4  -1  10    1.03    0.08
  -5   1 -10    2.46    0.19
  -5   1 -10    2.31    0.19
   5  -1  10    2.43    0.24
   5  -1  10    2.44    0.19
  -6   1 -10    5.48    0.33
  -6   1 -10    5.29    0.34
   6  -1  10    5.57    0.43
  -7   1 -10    0.47    0.10
  -7   1 -10    0.66    0.13
   7  -1  10    0.35    0.11
  -8   1 -10    0.02    0.07
  -8   1 -10    0.02    0.07
   8  -1  10   -0.04    0.05
   5   0 -10    0.77    0.14
   5   0 -10    0.58    0.14
  -5   0  10    0.70    0.13
  -5   0  10    0.76    0.16
   4   0 -10    0.20    0.09
   4   0 -10    0.32    0.10
  -4   0  10    0.21    0.09
  -4   0  10    0.26    0.11
   3   0 -10    4.71    0.34
   3   0 -10    4.77    0.31
  -3   0  10    4.72    0.35
  -3   0  10    4.77    0.32
   2   0 -10    2.80    0.14
   2   0 -10    2.08    0.19
   2   0 -10    2.75    0.21
  -2   0  10    2.11    0.21
  -2   0  10    2.43    0.20
  -2   0  10    2.52    0.13
   1   0 -10    0.24    0.06
   1   0 -10    0.22    0.04
   1   0 -10    0.17    0.06
  -1   0  10    0.27    0.04
  -1   0  10    0.24    0.07
  -1   0  10    0.17    0.07
   0   0 -10    2.62    0.15
   0   0 -10    2.54    0.18
   0   0  10    2.55    0.13
   0   0  10    2.58    0.15
   0   0  10    2.76    0.20
  -1   0 -10    1.57    0.11
  -1   0 -10    1.59    0.13
   1   0  10    1.42    0.10
   1   0  10    1.34    0.08
   1   0  10    1.29    0.13
  -2   0 -10    5.65    0.32
  -2   0 -10    6.13    0.29
   2   0  10    6.10    0.36
   2   0  10    6.25    0.28
  -3   0 -10    0.32    0.06
  -3   0 -10    0.33    0.07
   3   0  10    0.44    0.05
   3   0  10    0.51    0.09
   3   0  10    0.41    0.07
  -4   0 -10    1.64    0.14
  -4   0 -10    1.55    0.13
   4   0  10    1.28    0.13
   4   0  10    1.22    0.08
   4   0  10    1.12    0.16
   4   0  10    1.17    0.14
  -5   0 -10   17.62    0.81
  -5   0 -10   17.35    0.80
   5   0  10   16.83    0.80
   5   0  10   16.10    1.02
   5   0  10   16.14    0.88
  -6   0 -10    0.08    0.06
  -6   0 -10    0.04    0.06
   6   0  10   -0.01    0.05
   6   0  10    0.04    0.05
  -7   0 -10   11.41    0.59
  -7   0 -10   11.72    0.61
   7   0  10   11.23    0.74
   7   0  10   10.70    0.59
  -8   0 -10    4.32    0.30
  -8   0 -10    4.13    0.32
   8   0  10    4.63    0.37
   5  -1 -10    2.11    0.23
   5  -1 -10    2.23    0.24
   5  -1 -10    1.94    0.22
  -5   1  10    1.68    0.20
   4  -1 -10    0.74    0.14
   4  -1 -10    0.36    0.11
   4  -1 -10    0.71    0.14
  -4   1  10    0.58    0.12
   3  -1 -10   10.86    0.68
   3  -1 -10    9.55    0.54
   3  -1 -10   10.46    0.62
  -3   1  10    9.37    0.55
   2  -1 -10    0.43    0.09
   2  -1 -10    0.50    0.05
   2  -1 -10    0.34    0.09
   2  -1 -10    0.54    0.11
  -2   1  10    0.33    0.05
  -2   1  10    0.34    0.09
   1  -1 -10    3.21    0.23
   1  -1 -10    2.98    0.21
   1  -1 -10    3.08    0.17
  -1   1  10    3.17    0.15
  -1   1  10    3.03    0.22
  -1   1  10    2.39    0.22
   0  -1 -10   10.95    0.56
   0  -1 -10   12.08    0.50
   0   1  10   11.81    0.49
   0   1  10   11.47    0.60
   0   1  10   11.28    0.43
  -1  -1 -10    2.85    0.16
  -1  -1 -10    2.46    0.18
   1   1  10    2.66    0.15
   1   1  10    2.72    0.13
   1   1  10    2.77    0.20
  -2  -1 -10   -0.03    0.02
  -2  -1 -10    0.10    0.05
   2   1  10   -0.01    0.04
   2   1  10   -0.01    0.03
   2   1  10   -0.02    0.03
  -3  -1 -10   12.08    0.58
   3   1  10   11.96    0.64
   3   1  10   12.52    0.58
   3   1  10   11.94    0.50
  -4  -1 -10    0.10    0.05
  -4  -1 -10    0.05    0.04
   4   1  10    0.06    0.03
   4   1  10    0.05    0.05
   4   1  10    0.06    0.04
  -5  -1 -10    7.43    0.43
  -5  -1 -10    7.99    0.43
   5   1  10    8.82    0.56
   5   1  10    8.01    0.43
   5   1  10    8.55    0.48
  -6  -1 -10   12.66    0.67
  -6  -1 -10   13.84    0.67
   6   1  10   13.71    0.67
   6   1  10   13.50    0.84
  -7  -1 -10    1.09    0.14
  -7  -1 -10    1.09    0.15
   7   1  10    1.10    0.14
   7   1  10    0.98    0.15
  -8  -1 -10    0.47    0.11
  -8  -1 -10    0.46    0.12
   8   1  10    0.58    0.11
   8   1  10    0.59    0.12
  -9  -1 -10    0.17    0.09
  -9  -1 -10    0.16    0.09
   9   1  10    0.26    0.09
   9   1  10    0.14    0.08
   4  -2 -10    2.16    0.22
   4  -2 -10    1.64    0.22
   4  -2 -10    2.00    0.22
  -4   2  10    2.20    0.21
   3  -2 -10    1.00    0.15
   3  -2 -10    1.41    0.18
   3  -2 -10    1.12    0.16
  -3   2  10    1.27    0.10
  -3   2  10    0.98    0.15
   2  -2 -10    0.15    0.04
   2  -2 -10    0.29    0.09
   2  -2 -10    0.12    0.08
   2  -2 -10    0.22    0.08
  -2   2  10    0.27    0.05
  -2   2  10    0.36    0.10
   1  -2 -10    3.35    0.23
   1  -2 -10    3.18    0.17
  -1   2  10    2.98    0.15
  -1   2  10    3.11    0.18
  -1   2  10    3.02    0.23
   0  -2 -10    2.58    0.15
   0  -2 -10    1.85    0.16
   0   2  10    2.43    0.14
   0   2  10    1.92    0.11
   0   2  10    1.86    0.17
  -1  -2 -10   15.09    0.64
  -1  -2 -10   16.45    0.72
   1   2  10   15.16    0.63
   1   2  10   15.02    0.56
   1   2  10   14.80    0.77
  -2  -2 -10   11.86    0.53
  -2  -2 -10   13.20    0.60
   2   2  10   13.40    0.59
   2   2  10   12.88    0.46
   2   2  10   12.01    0.52
   2   2  10   11.41    0.64
  -3  -2 -10   30.18    1.34
   3   2  10   30.56    1.46
   3   2  10   29.58    1.18
   3   2  10   30.65    1.33
  -4  -2 -10   42.94    1.83
   4   2  10   40.74    1.99
   4   2  10   41.22    1.61
   4   2  10   42.80    1.82
  -5  -2 -10    0.15    0.06
   5   2  10    0.16    0.06
   5   2  10    0.21    0.07
  -6  -2 -10    2.76    0.19
  -6  -2 -10    2.85    0.21
   6   2  10    1.90    0.20
   6   2  10    1.99    0.18
  -7  -2 -10    4.55    0.29
  -7  -2 -10    4.42    0.30
   7   2  10    4.17    0.29
   7   2  10    4.16    0.33
  -8  -2 -10    0.21    0.08
  -8  -2 -10    0.31    0.09
   8   2  10    0.13    0.07
   8   2  10    0.30    0.09
  -9  -2 -10    0.60    0.14
  -9  -2 -10    0.71    0.13
   9   2  10    0.59    0.11
   9   2  10    0.56    0.12
   4  -3 -10    0.09    0.09
   4  -3 -10    0.10    0.09
   4  -3 -10    0.03    0.08
  -4   3  10    0.01    0.09
   3  -3 -10   -0.08    0.06
   3  -3 -10   -0.02    0.06
   3  -3 -10    0.03    0.07
  -3   3  10   -0.05    0.07
   2  -3 -10   18.03    1.00
   2  -3 -10   18.22    0.73
  -2   3  10   17.76    0.92
  -2   3  10   17.69    0.67
   1  -3 -10   16.30    0.81
   1  -3 -10   16.86    0.70
  -1   3  10   16.48    0.85
  -1   3  10   16.84    0.70
  -1   3  10   17.11    0.62
   0  -3 -10  175.07    6.84
   0  -3 -10  182.17    7.59
   0   3  10  184.57    8.19
   0   3  10  175.27    6.18
   0   3  10  181.50    6.83
  -1  -3 -10   51.47    2.20
  -1  -3 -10   50.86    1.99
   1   3  10   50.78    2.37
   1   3  10   50.21    1.97
   1   3  10   50.26    1.77
  -2  -3 -10  131.47    5.45
  -2  -3 -10  125.69    4.93
   2   3  10  132.37    4.44
   2   3  10  123.75    4.91
   2   3  10  130.47    5.37
   2   3  10  130.35    5.90
  -3  -3 -10    2.41    0.17
   3   3  10    2.41    0.19
   3   3  10    2.32    0.13
   3   3  10    2.51    0.18
  -4  -3 -10    2.25    0.16
   4   3  10    1.78    0.10
   4   3  10    1.88    0.17
   4   3  10    1.71    0.15
  -5  -3 -10   10.64    0.51
   5   3  10   10.19    0.52
   5   3  10   10.49    0.57
   5   3  10    9.74    0.53
  -6  -3 -10    1.97    0.17
   6   3  10    2.29    0.20
   6   3  10    2.17    0.18
  -7  -3 -10    2.17    0.18
   7   3  10    1.93    0.18
  -8  -3 -10    5.46    0.36
  -8  -3 -10    5.69    0.34
   8   3  10    5.17    0.35
   8   3  10    5.81    0.40
  -9  -3 -10    0.71    0.15
  -9  -3 -10    0.90    0.14
   9   3  10    1.01    0.15
   9   3  10    1.18    0.14
   3  -4 -10    1.06    0.17
   3  -4 -10    1.04    0.16
  -3   4  10    0.99    0.15
   2  -4 -10    4.34    0.35
   2  -4 -10    5.34    0.24
   2  -4 -10    4.56    0.33
  -2   4  10    4.59    0.32
   1  -4 -10    7.46    0.37
   1  -4 -10    8.26    0.46
  -1   4  10    8.53    0.47
  -1   4  10    8.06    0.33
  -1   4  10    7.90    0.37
   0   4  10    1.51    0.11
   0   4  10    1.30    0.15
   0   4  10    1.25    0.09
  -1  -4 -10   14.75    0.63
  -1  -4 -10   14.83    0.70
   1   4  10   15.15    0.75
   1   4  10   14.15    0.54
   1   4  10   14.37    0.61
   1   4  10   14.03    0.68
  -2  -4 -10   14.83    0.61
  -2  -4 -10   13.01    0.66
   2   4  10   13.63    0.51
   2   4  10   14.34    0.58
   2   4  10   14.04    0.66
   2   4  10   13.68    0.71
  -3  -4 -10    4.09    0.23
   3   4  10    3.67    0.24
   3   4  10    3.60    0.25
   3   4  10    3.63    0.18
  -4  -4 -10    2.64    0.17
   4   4  10    2.17    0.18
   4   4  10    2.19    0.12
   4   4  10    2.33    0.19
  -5  -4 -10   -0.05    0.04
   5   4  10    0.05    0.06
   5   4  10    0.11    0.05
   5   4  10    0.07    0.06
  -6  -4 -10    4.37    0.25
   6   4  10    3.79    0.26
   6   4  10    3.79    0.28
  -7  -4 -10    0.51    0.09
   7   4  10    0.51    0.10
  -8  -4 -10    3.00    0.22
   8   4  10    2.92    0.24
  -9  -4 -10    1.01    0.15
  -9  -4 -10    1.11    0.16
   9   4  10    1.38    0.15
   9   4  10    1.05    0.15
   2  -5 -10    1.47    0.11
   2  -5 -10    1.18    0.17
  -2   5  10    1.41    0.17
   1  -5 -10    4.59    0.24
   1  -5 -10    4.41    0.31
  -1   5  10    4.52    0.24
  -1   5  10    4.42    0.31
   0  -5 -10    7.37    0.43
   0  -5 -10    7.44    0.36
   0   5  10    7.36    0.31
   0   5  10    7.88    0.36
   0   5  10    7.51    0.44
  -1  -5 -10    2.83    0.21
  -1  -5 -10    2.51    0.17
   1   5  10    2.76    0.20
   1   5  10    2.96    0.17
   1   5  10    2.73    0.21
  -2  -5 -10    9.78    0.51
  -2  -5 -10   10.82    0.48
   2   5  10   10.28    0.44
   2   5  10   10.12    0.55
   2   5  10   10.77    0.52
   2   5  10    9.97    0.38
  -3  -5 -10   10.89    0.51
   3   5  10    9.69    0.52
   3   5  10   10.25    0.44
   3   5  10   10.48    0.55
  -4  -5 -10    2.05    0.16
   4   5  10    1.93    0.19
   4   5  10    2.40    0.18
   4   5  10    2.29    0.18
   4   5  10    2.37    0.12
  -5  -5 -10    3.13    0.20
   5   5  10    2.99    0.22
   5   5  10    3.07    0.24
   5   5  10    3.07    0.23
  -6  -5 -10    0.54    0.09
   6   5  10    0.65    0.11
   6   5  10    0.64    0.11
   6   5  10    0.66    0.11
  -7  -5 -10    0.20    0.07
   7   5  10    0.22    0.07
  -8  -5 -10    3.50    0.24
   8   5  10    3.30    0.26
  -9  -5 -10    1.39    0.15
   9   5  10    1.22    0.15
   9   5  10    1.25    0.16
 -10  -5 -10    2.10    0.22
 -10  -5 -10    2.24    0.21
  10   5  10    2.24    0.20
  10   5  10    2.14    0.21
   1  -6 -10    0.07    0.08
   1  -6 -10    0.10    0.05
  -1   6  10    0.00    0.08
  -1   6  10    0.08    0.06
   0  -6 -10    0.10    0.05
   0  -6 -10    0.31    0.09
   0   6  10    0.12    0.05
   0   6  10    0.32    0.09
  -1  -6 -10    2.39    0.20
  -1  -6 -10    2.90    0.19
   1   6  10    2.86    0.17
   1   6  10    2.68    0.20
   1   6  10    2.59    0.14
  -2  -6 -10    0.91    0.10
  -2  -6 -10    0.89    0.11
   2   6  10    0.83    0.11
   2   6  10    0.82    0.06
   2   6  10    0.90    0.09
   3   6  10    0.40    0.09
   3   6  10    0.60    0.06
   4   6  10    0.05    0.06
   4   6  10    0.09    0.03
   4   6  10    0.12    0.06
   5   6  10    1.63    0.16
   5   6  10    1.46    0.17
   6   6  10    0.22    0.08
   6   6  10    0.33    0.09
   7   6  10    6.02    0.38
   7   6  10    5.74    0.36
   8   6  10   -0.02    0.04
   9   6  10    0.90    0.14
   0  -7 -10    0.03    0.04
   0   7  10   -0.03    0.04
   0   7  10   -0.01    0.05
  -1  -7 -10    7.59    0.38
   1   7  10    7.61    0.36
   1   7  10    7.16    0.42
  -2  -7 -10    0.40    0.08
   2   7  10    0.31    0.11
   2   7  10    0.38    0.09
   2   7  10    0.34    0.06
   3   7  10    0.70    0.11
   3   7  10    0.67    0.07
   3   7  10    0.64    0.14
   4   7  10    0.40    0.05
   4   7  10    0.29    0.10
   4   7  10    0.40    0.10
   5   7  10   17.12    0.85
   5   7  10   18.08    0.91
   6   7  10    0.29    0.10
   6   7  10    0.23    0.08
   7   7  10    0.12    0.07
   7   7  10    0.17    0.08
   8   7  10    5.62    0.37
   8   7  10    6.08    0.39
   9   7  10    0.13    0.07
  -2  -8 -10    1.03    0.12
   2   8  10    1.28    0.19
   2   8  10    1.06    0.10
   2   8  10    1.02    0.14
   3   8  10    0.03    0.07
   3   8  10    0.02    0.05
   3   8  10   -0.01    0.04
   4   8  10    0.03    0.03
   4   8  10    0.00    0.07
   4   8  10   -0.02    0.04
   5   8  10    7.42    0.45
   5   8  10    7.96    0.49
   6   8  10    0.75    0.13
   6   8  10    0.93    0.15
   7   8  10    0.62    0.13
   7   8  10    0.69    0.13
   8   8  10    2.82    0.26
   8   8  10    3.00    0.25
   4   9  10    0.42    0.10
   4   9  10    0.39    0.13
   5   9  10    0.08    0.08
   5   9  10    0.15    0.08
   6   9  10    1.64    0.18
   6   9  10    1.66    0.21
   7   9  10    0.03    0.08
   7   9  10    0.06    0.06
   4   6 -11    1.22    0.16
  -4  -6  11    0.99    0.18
   3   6 -11    0.22    0.08
  -3  -6  11    0.03    0.08
  -2  -6  11    1.70    0.21
   0  -6  11    0.04    0.05
   1  -6  11    1.65    0.14
   5   5 -11    0.17    0.09
   5   5 -11    0.12    0.08
  -5  -5  11   -0.04    0.09
   4   5 -11    0.14    0.08
   4   5 -11    0.17    0.08
  -4  -5  11    0.05    0.09
   3   5 -11    0.36    0.09
  -3  -5  11    0.26    0.10
   2   5 -11    1.08    0.13
  -2  -5  11    0.93    0.15
  -1  -5  11   -0.03    0.06
   0  -5  11    9.57    0.45
   1  -5  11    0.63    0.09
   2  -5  11    1.86    0.15
   3  -5  11    0.93    0.10
   5   4 -11    2.02    0.21
   5   4 -11    2.03    0.22
  -5  -4  11    2.06    0.25
   4   4 -11    2.88    0.24
   4   4 -11    2.23    0.22
  -4  -4  11    2.26    0.25
   3   4 -11    0.06    0.06
   3   4 -11    0.05    0.06
  -3  -4  11    0.11    0.08
  -3  -4  11    0.02    0.07
   2   4 -11    2.39    0.20
  -2  -4  11    2.30    0.23
  -2  -4  11    2.41    0.14
  -2  -4  11    2.42    0.20
   1   4 -11    1.92    0.16
   1   4 -11    1.91    0.17
  -1  -4  11    1.96    0.12
  -1  -4  11    1.77    0.19
  -1  -4  11    1.92    0.18
   0   4 -11    0.03    0.05
   0   4 -11    0.05    0.04
   0  -4  11   -0.01    0.05
   0  -4  11   -0.01    0.04
  -1   4 -11    0.03    0.04
  -1   4 -11   -0.01    0.05
   1  -4  11    0.00    0.06
   1  -4  11    0.03    0.04
  -2   4 -11    3.19    0.19
  -2   4 -11    2.87    0.21
   2  -4  11    3.07    0.19
   2  -4  11    3.27    0.25
  -3   4 -11    0.67    0.11
  -3   4 -11    0.54    0.08
   3  -4  11    0.68    0.08
  -4   4 -11    1.85    0.17
   4  -4  11    1.78    0.13
   5   3 -11    0.35    0.11
   5   3 -11    0.58    0.13
  -5  -3  11    0.32    0.11
  -5  -3  11    0.34    0.13
   4   3 -11    0.44    0.11
   4   3 -11    0.56    0.12
  -4  -3  11    0.37    0.10
  -4  -3  11    0.60    0.14
   3   3 -11    0.89    0.13
   3   3 -11    1.29    0.15
  -3  -3  11    1.05    0.14
  -3  -3  11    0.78    0.15
   2   3 -11    0.69    0.10
   2   3 -11    0.63    0.10
  -2  -3  11    0.58    0.11
  -2  -3  11    0.55    0.07
  -2  -3  11    0.60    0.12
   1   3 -11    1.48    0.14
   1   3 -11    1.68    0.11
  -1  -3  11    1.92    0.17
  -1  -3  11    1.68    0.11
   0   3 -11    2.53    0.19
   0   3 -11    2.71    0.16
   0  -3  11    2.84    0.17
   0  -3  11    2.95    0.22
  -1   3 -11    0.02    0.03
  -1   3 -11    0.00    0.05
   1  -3  11    0.00    0.04
   1  -3  11    0.03    0.06
  -2   3 -11    0.25    0.07
  -2   3 -11    0.34    0.06
   2  -3  11    0.32    0.06
   2  -3  11    0.28    0.09
  -3   3 -11    0.46    0.09
  -3   3 -11    0.36    0.07
   3  -3  11    0.50    0.07
   3  -3  11    0.55    0.11
  -4   3 -11    1.20    0.14
   4  -3  11    1.29    0.10
  -5   3 -11    1.53    0.16
  -5   3 -11    1.70    0.17
  -6   3 -11    1.24    0.17
  -6   3 -11    1.48    0.17
   6  -3  11    1.52    0.21
   5   2 -11    0.83    0.15
   5   2 -11    0.98    0.16
  -5  -2  11    0.78    0.14
  -5  -2  11    0.79    0.17
   4   2 -11    0.03    0.07
   4   2 -11    0.02    0.06
  -4  -2  11   -0.01    0.08
  -4  -2  11    0.06    0.09
   3   2 -11    0.24    0.08
   3   2 -11    0.07    0.07
  -3  -2  11    0.10    0.08
  -3  -2  11    0.15    0.09
   2   2 -11    2.05    0.17
   2   2 -11    1.53    0.16
   2   2 -11    1.80    0.11
  -2  -2  11    1.65    0.16
  -2  -2  11    1.58    0.11
  -2  -2  11    1.40    0.17
   1   2 -11    3.87    0.19
   1   2 -11    3.60    0.24
  -1  -2  11    3.80    0.26
  -1  -2  11    3.55    0.18
   0   2 -11    1.37    0.11
   0   2 -11    1.17    0.12
   0  -2  11    1.41    0.15
   0  -2  11    1.44    0.11
   0  -2  11    1.43    0.09
  -1   2 -11    0.35    0.07
  -1   2 -11    0.21    0.05
   1  -2  11    0.20    0.07
   1  -2  11    0.12    0.05
  -2   2 -11    2.72    0.20
  -2   2 -11    2.89    0.18
   2  -2  11    2.88    0.23
   2  -2  11    3.09    0.17
  -3   2 -11    2.84    0.21
   3  -2  11    2.77    0.23
   3  -2  11    2.91    0.17
  -4   2 -11    1.95    0.17
  -4   2 -11    1.94    0.17
   4  -2  11    1.78    0.19
   4  -2  11    1.82    0.12
  -5   2 -11    0.95    0.13
  -5   2 -11    0.92    0.13
   5  -2  11    0.87    0.16
  -6   2 -11    2.17    0.21
  -6   2 -11    2.21    0.20
   6  -2  11    2.45    0.27
   5   1 -11    0.35    0.11
   5   1 -11    0.46    0.13
  -5  -1  11    0.40    0.14
  -5  -1  11    0.31    0.11
   4   1 -11    0.59    0.12
   4   1 -11    0.60    0.13
  -4  -1  11    0.58    0.14
  -4  -1  11    0.50    0.12
   3   1 -11    3.64    0.27
   3   1 -11    3.43    0.28
  -3  -1  11    3.78    0.27
  -3  -1  11    3.73    0.30
   2   1 -11    3.85    0.18
   2   1 -11    4.00    0.27
   2   1 -11    3.04    0.24
  -2  -1  11    3.39    0.28
  -2  -1  11    3.16    0.25
  -2  -1  11    3.62    0.17
   1   1 -11   19.12    0.89
   1   1 -11   18.38    0.77
  -1  -1  11   19.04    0.70
  -1  -1  11   19.56    0.96
   0   1 -11    0.77    0.08
   0   1 -11    0.71    0.10
   0  -1  11    0.70    0.07
   0  -1  11    0.87    0.12
   0  -1  11    0.86    0.09
  -1   1 -11    1.18    0.10
  -1   1 -11    0.79    0.11
   1  -1  11    0.93    0.08
   1  -1  11    1.06    0.09
   1  -1  11    1.27    0.14
  -2   1 -11    6.90    0.33
  -2   1 -11    6.65    0.37
   2  -1  11    6.92    0.32
   2  -1  11    6.73    0.41
  -3   1 -11    8.13    0.42
   3  -1  11    7.84    0.47
   3  -1  11    7.86    0.36
  -4   1 -11    1.50    0.14
  -4   1 -11    1.53    0.14
   4  -1  11    1.41    0.14
   4  -1  11    1.44    0.16
   4  -1  11    1.47    0.19
   4  -1  11    1.44    0.10
  -5   1 -11    0.81    0.12
  -5   1 -11    1.02    0.13
   5  -1  11    0.78    0.15
   5  -1  11    0.81    0.12
  -6   1 -11    1.12    0.14
  -6   1 -11    1.00    0.14
   6  -1  11    0.95    0.16
  -7   1 -11    0.00    0.06
  -7   1 -11    0.05    0.07
   7  -1  11    0.05    0.07
   5   0 -11    0.10    0.08
   5   0 -11    0.10    0.10
  -5   0  11    0.09    0.09
  -5   0  11    0.18    0.11
   4   0 -11    0.46    0.11
   4   0 -11    0.25    0.10
  -4   0  11    0.25    0.11
  -4   0  11    0.36    0.11
   3   0 -11    0.09    0.08
   3   0 -11    0.09    0.07
  -3   0  11   -0.04    0.06
  -3   0  11    0.02    0.07
   2   0 -11    1.11    0.08
   2   0 -11    0.91    0.13
  -2   0  11    0.76    0.12
  -2   0  11    0.99    0.14
  -2   0  11    0.93    0.08
   1   0 -11   12.76    0.52
   1   0 -11   11.89    0.61
  -1   0  11   12.01    0.47
  -1   0  11   12.03    0.65
   0   0 -11    0.00    0.03
   0   0 -11   -0.02    0.05
   0   0  11   -0.08    0.03
   0   0  11   -0.04    0.04
   0   0  11   -0.02    0.06
  -1   0 -11   27.04    1.09
  -1   0 -11   28.11    1.22
   1   0  11   26.87    1.08
   1   0  11   26.49    0.97
   1   0  11   27.02    1.32
  -2   0 -11    0.79    0.10
  -2   0 -11    0.74    0.08
   2   0  11    0.71    0.08
   2   0  11    0.54    0.10
  -3   0 -11   22.50    1.01
   3   0  11   22.13    0.89
   3   0  11   22.01    1.11
  -4   0 -11    3.28    0.24
  -4   0 -11    3.79    0.24
   4   0  11    4.22    0.25
   4   0  11    3.80    0.19
   4   0  11    3.72    0.28
   4   0  11    3.79    0.33
  -5   0 -11   15.27    0.73
  -5   0 -11   14.94    0.74
   5   0  11   15.06    0.73
   5   0  11   14.92    0.81
   5   0  11   15.06    0.95
  -6   0 -11    0.01    0.05
  -6   0 -11   -0.02    0.05
   6   0  11    0.06    0.07
   6   0  11    0.04    0.05
  -7   0 -11    1.57    0.17
  -7   0 -11    1.51    0.18
   7   0  11    1.49    0.17
   7   0  11    1.81    0.21
  -8   0 -11    0.29    0.10
  -8   0 -11    0.50    0.12
   8   0  11    0.47    0.12
   4  -1 -11    0.86    0.16
   4  -1 -11    0.93    0.15
   4  -1 -11    0.80    0.16
  -4   1  11    1.12    0.16
   3  -1 -11    5.67    0.39
   3  -1 -11    5.94    0.44
  -3   1  11    4.72    0.35
  -3   1  11    5.51    0.25
   2  -1 -11    0.11    0.07
   2  -1 -11    0.00    0.03
   2  -1 -11   -0.02    0.06
  -2   1  11    0.06    0.07
  -2   1  11    0.08    0.05
   1  -1 -11   14.52    0.70
   1  -1 -11   14.23    0.59
  -1   1  11   14.04    0.53
  -1   1  11   13.89    0.74
   0  -1 -11    5.84    0.33
   0  -1 -11    5.65    0.28
   0   1  11    5.77    0.35
   0   1  11    5.64    0.28
   0   1  11    5.60    0.24
  -1  -1 -11    0.83    0.09
  -1  -1 -11    0.95    0.11
   1   1  11    0.77    0.08
   1   1  11    0.73    0.07
   1   1  11    0.73    0.11
  -2  -1 -11    3.25    0.21
  -2  -1 -11    3.58    0.19
   2   1  11    3.06    0.15
   2   1  11    3.13    0.17
   2   1  11    3.01    0.23
  -3  -1 -11    0.11    0.06
   3   1  11    0.13    0.06
   3   1  11    0.07    0.04
   3   1  11    0.06    0.05
  -4  -1 -11    1.38    0.13
  -4  -1 -11    1.31    0.13
   4   1  11    1.49    0.14
   4   1  11    1.21    0.14
   4   1  11    1.11    0.09
  -5  -1 -11    2.09    0.19
  -5  -1 -11    2.32    0.19
   5   1  11    2.99    0.23
   5   1  11    3.16    0.27
   5   1  11    2.81    0.20
  -6  -1 -11    1.28    0.14
  -6  -1 -11    1.27    0.14
   6   1  11    1.20    0.15
   6   1  11    1.30    0.17
  -7  -1 -11    2.20    0.21
  -7  -1 -11    2.33    0.20
   7   1  11    2.41    0.21
   7   1  11    2.31    0.24
  -8  -1 -11    0.12    0.08
  -8  -1 -11    0.07    0.08
   8   1  11    0.16    0.08
   8   1  11    0.19    0.08
   4  -2 -11   13.02    0.81
   4  -2 -11   13.05    0.73
   4  -2 -11   14.44    0.90
  -4   2  11   13.15    0.74
   3  -2 -11    5.59    0.40
   3  -2 -11    5.50    0.38
   3  -2 -11    5.78    0.45
  -3   2  11    5.44    0.37
   2  -2 -11   37.38    1.51
  -2   2  11   39.53    1.86
  -2   2  11   39.16    1.38
   1  -2 -11    3.54    0.20
   1  -2 -11    3.73    0.26
  -1   2  11    4.12    0.28
  -1   2  11    3.67    0.18
   0  -2 -11   26.88    1.14
   0  -2 -11   30.52    1.29
   0   2  11   29.25    1.38
   0   2  11   28.21    1.14
   0   2  11   27.21    1.01
  -1  -2 -11    0.52    0.09
  -1  -2 -11    0.61    0.08
   1   2  11    0.67    0.08
   1   2  11    0.60    0.06
   1   2  11    0.60    0.10
  -2  -2 -11   26.07    1.07
  -2  -2 -11   26.88    1.19
   2   2  11   25.84    1.05
   2   2  11   26.92    0.94
   2   2  11   26.59    1.29
  -3  -2 -11   27.69    1.22
   3   2  11   27.23    1.21
   3   2  11   27.56    1.08
   3   2  11   26.64    1.33
  -4  -2 -11    9.90    0.50
   4   2  11    9.91    0.55
   4   2  11   10.20    0.51
   4   2  11    9.71    0.41
  -5  -2 -11   16.55    0.78
   5   2  11   16.65    0.79
   5   2  11   16.31    0.86
  -6  -2 -11    0.01    0.06
  -6  -2 -11    0.00    0.04
   6   2  11    0.00    0.04
   6   2  11   -0.02    0.05
  -7  -2 -11    0.13    0.07
  -7  -2 -11    0.11    0.07
   7   2  11    0.13    0.07
   7   2  11    0.05    0.06
  -8  -2 -11    0.59    0.11
  -8  -2 -11    0.60    0.13
   8   2  11    0.47    0.11
   8   2  11    0.48    0.11
  -9  -2 -11    0.21    0.10
  -9  -2 -11    0.22    0.09
   9   2  11    0.14    0.08
   9   2  11    0.12    0.07
   3  -3 -11    8.49    0.49
  -3   3  11    7.20    0.47
   2  -3 -11   16.98    0.85
   2  -3 -11   16.01    0.69
  -2   3  11   17.32    0.88
   1  -3 -11   11.22    0.59
   1  -3 -11   10.72    0.49
  -1   3  11   11.47    0.62
  -1   3  11   11.40    0.44
   0  -3 -11    2.80    0.18
   0  -3 -11    3.50    0.24
   0   3  11    3.14    0.15
   0   3  11    3.28    0.24
   0   3  11    2.81    0.18
  -1  -3 -11    0.08    0.04
  -1  -3 -11    0.01    0.05
   1   3  11    0.07    0.07
   1   3  11    0.03    0.04
   1   3  11   -0.02    0.04
  -2  -3 -11   10.88    0.54
  -2  -3 -11   11.11    0.49
   2   3  11   10.96    0.59
   2   3  11   10.70    0.47
   2   3  11   11.03    0.41
  -3  -3 -11    0.50    0.09
   3   3  11    0.54    0.06
   3   3  11    0.59    0.10
   3   3  11    0.55    0.09
  -4  -3 -11    2.95    0.20
   4   3  11    2.71    0.22
   4   3  11    2.90    0.15
   4   3  11    2.85    0.21
  -5  -3 -11    8.50    0.46
   5   3  11    9.67    0.53
   5   3  11    9.17    0.48
  -6  -3 -11    7.76    0.43
   6   3  11    8.15    0.48
   6   3  11    7.99    0.44
  -7  -3 -11    0.02    0.06
   7   3  11    0.05    0.05
  -8  -3 -11    0.34    0.10
  -8  -3 -11    0.46    0.10
   8   3  11    0.39    0.10
   8   3  11    0.32    0.09
  -9  -3 -11    0.37    0.11
  -9  -3 -11    0.40    0.12
   9   3  11    0.41    0.10
   9   3  11    0.42    0.11
   2  -4 -11    0.15    0.09
   2  -4 -11    0.09    0.04
  -2   4  11    0.15    0.10
   1  -4 -11    4.58    0.25
   1  -4 -11    5.02    0.33
  -1   4  11    4.72    0.25
  -1   4  11    4.86    0.33
   0  -4 -11    3.78    0.22
   0  -4 -11    3.62    0.26
   0   4  11    3.69    0.27
   0   4  11    3.98    0.21
   0   4  11    3.64    0.18
  -1  -4 -11    5.18    0.31
  -1  -4 -11    4.83    0.27
   1   4  11    5.00    0.32
   1   4  11    4.83    0.21
   1   4  11    5.06    0.25
  -2  -4 -11    0.56    0.08
  -2  -4 -11    0.95    0.11
   2   4  11    0.71    0.10
   2   4  11    0.73    0.11
   2   4  11    0.64    0.08
   2   4  11    0.85    0.07
  -3  -4 -11    3.32    0.23
   3   4  11    3.79    0.25
   3   4  11    4.05    0.27
   3   4  11    3.87    0.19
  -4  -4 -11    0.25    0.07
   4   4  11    0.27    0.04
   4   4  11    0.33    0.08
   4   4  11    0.28    0.08
  -5  -4 -11   15.21    0.71
   5   4  11   14.43    0.75
   5   4  11   15.16    0.79
   5   4  11   14.73    0.73
  -6  -4 -11    1.14    0.13
   6   4  11    1.34    0.15
   6   4  11    1.11    0.14
  -7  -4 -11    0.16    0.07
   7   4  11    0.18    0.08
  -8  -4 -11    0.03    0.07
   8   4  11    0.03    0.05
  -9  -4 -11    0.05    0.06
  -9  -4 -11    0.04    0.07
   9   4  11    0.04    0.05
   9   4  11    0.00    0.05
   1  -5 -11    2.56    0.17
   1  -5 -11    2.68    0.24
  -1   5  11    2.61    0.18
  -1   5  11    2.75    0.23
   0  -5 -11    0.10    0.05
   0  -5 -11    0.11    0.08
   0   5  11    0.06    0.07
   0   5  11    0.07    0.05
  -1  -5 -11    0.27    0.09
  -1  -5 -11    0.15    0.06
   1   5  11    0.14    0.04
   1   5  11    0.17    0.08
   1   5  11    0.18    0.05
  -2  -5 -11    1.71    0.14
  -2  -5 -11    1.62    0.15
   2   5  11    1.59    0.16
   2   5  11    1.58    0.12
   2   5  11    1.69    0.15
   2   5  11    1.81    0.10
  -3  -5 -11    2.06    0.17
   3   5  11    2.28    0.13
   3   5  11    2.12    0.18
   3   5  11    2.17    0.19
  -4  -5 -11    0.06    0.06
   4   5  11    0.02    0.03
   4   5  11   -0.05    0.05
   4   5  11    0.01    0.04
  -5  -5 -11   15.21    0.71
   5   5  11   14.56    0.74
   5   5  11   15.34    0.79
   5   5  11   14.88    0.77
  -6  -5 -11   10.27    0.51
   6   5  11    9.62    0.53
   6   5  11   10.49    0.56
   6   5  11    9.08    0.54
  -7  -5 -11    0.73    0.11
   7   5  11    0.56    0.12
   7   5  11    0.66    0.12
  -8  -5 -11    0.44    0.10
   8   5  11    0.58    0.12
  -9  -5 -11    0.45    0.11
   9   5  11    0.36    0.10
   0  -6 -11    0.25    0.10
   0  -6 -11    0.06    0.05
   0   6  11    0.05    0.05
   0   6  11    0.11    0.08
  -1  -6 -11    0.26    0.07
  -1  -6 -11    0.23    0.09
   1   6  11    0.27    0.06
  -2  -6 -11    0.68    0.11
   2   6  11    0.77    0.11
   2   6  11    0.69    0.07
   2   6  11    0.73    0.08
  -3  -6 -11    1.64    0.15
   3   6  11    1.34    0.15
   3   6  11    1.67    0.11
   4   6  11    0.10    0.07
   4   6  11    0.15    0.07
   4   6  11    0.08    0.03
   5   6  11    0.20    0.09
   5   6  11    0.14    0.07
   6   6  11    5.05    0.34
   6   6  11    4.57    0.31
   7   6  11    0.04    0.05
   7   6  11   -0.04    0.05
   8   6  11    1.36    0.17
   9   6  11    0.05    0.06
  -1  -7 -11    1.50    0.14
   1   7  11    1.40    0.12
   1   7  11    1.29    0.16
  -2  -7 -11    0.35    0.08
   2   7  11    0.37    0.09
   2   7  11    0.29    0.06
   3   7  11    1.07    0.17
   3   7  11    1.09    0.10
   3   7  11    1.29    0.15
   4   7  11    2.75    0.26
   4   7  11    2.73    0.22
   4   7  11    2.95    0.15
   5   7  11    2.58    0.24
   5   7  11    2.21    0.20
   6   7  11    0.10    0.07
   6   7  11    0.20    0.09
   7   7  11    0.07    0.07
   7   7  11    0.02    0.05
   8   7  11    1.06    0.16
   8   7  11    0.95    0.14
   9   7  11    3.00    0.26
   3   8  11    0.07    0.05
   3   8  11   -0.02    0.05
   3   8  11    0.10    0.10
   4   8  11    0.93    0.08
   4   8  11    0.69    0.13
   4   8  11    1.01    0.17
   5   8  11    0.01    0.05
   5   8  11   -0.01    0.06
   6   8  11    1.33    0.16
   6   8  11    0.91    0.16
   7   8  11    2.26    0.21
   7   8  11    2.35    0.24
   8   8  11    1.76    0.20
   8   8  11    2.02    0.22
   3   5 -12    0.03    0.06
  -3  -5  12    0.11    0.08
   2   5 -12    0.06    0.07
   0  -5  12    0.22    0.07
   1  -5  12    2.31    0.17
   2  -5  12    0.53    0.09
   4   4 -12    0.05    0.07
  -4  -4  12    0.02    0.08
   3   4 -12    1.02    0.15
  -3  -4  12    0.76    0.15
  -2  -4  12    0.10    0.08
  -1  -4  12   -0.08    0.05
   0   4 -12    4.71    0.29
   0  -4  12    4.80    0.27
   0  -4  12    5.20    0.34
  -1   4 -12    0.40    0.09
  -1   4 -12    0.35    0.07
   1  -4  12    0.39    0.08
   1  -4  12    0.40    0.11
  -2   4 -12    4.95    0.31
   2  -4  12    5.53    0.36
   2  -4  12    5.05    0.28
  -3   4 -12    0.40    0.09
  -3   4 -12    0.44    0.08
   3  -4  12    0.29    0.07
  -4   4 -12    1.04    0.14
   4  -4  12    1.15    0.10
   4   3 -12    1.07    0.16
   4   3 -12    1.49    0.18
  -4  -3  12    0.94    0.17
  -4  -3  12    0.88    0.14
   3   3 -12    1.27    0.15
   3   3 -12    0.97    0.14
  -3  -3  12    1.03    0.15
  -3  -3  12    1.11    0.17
   2   3 -12    0.14    0.07
  -2  -3  12    0.03    0.07
   1   3 -12    0.52    0.09
   1   3 -12    0.64    0.07
  -1  -3  12    0.46    0.11
  -1  -3  12    0.46    0.07
   0   3 -12    0.21    0.05
   0   3 -12    0.20    0.07
   0  -3  12    0.16    0.06
   0  -3  12    0.13    0.08
  -1   3 -12    1.15    0.11
  -1   3 -12    1.02    0.12
   1  -3  12    1.15    0.11
   1  -3  12    1.24    0.15
  -2   3 -12    2.65    0.20
  -2   3 -12    2.59    0.17
   2  -3  12    2.61    0.17
   2  -3  12    2.73    0.23
  -3   3 -12    0.05    0.06
  -3   3 -12    0.01    0.04
   3  -3  12    0.04    0.04
   3  -3  12    0.18    0.09
  -4   3 -12    5.93    0.35
   4  -3  12    5.55    0.28
  -5   3 -12    2.04    0.19
   4   2 -12    0.91    0.15
   4   2 -12    1.06    0.15
  -4  -2  12    0.93    0.15
  -4  -2  12    0.88    0.17
   3   2 -12    0.10    0.07
  -3  -2  12    0.09    0.09
  -3  -2  12    0.01    0.07
   2   2 -12    0.01    0.06
   2   2 -12    0.00    0.03
  -2  -2  12   -0.06    0.06
  -2  -2  12   -0.03    0.04
   1   2 -12    0.04    0.03
   1   2 -12   -0.01    0.06
  -1  -2  12   -0.04    0.04
  -1  -2  12    0.01    0.06
   0   2 -12    2.97    0.18
   0   2 -12    3.20    0.22
   0  -2  12    3.24    0.25
   0  -2  12    2.98    0.16
   0  -2  12    3.19    0.19
  -1   2 -12    1.02    0.10
  -1   2 -12    1.01    0.12
   1  -2  12    1.12    0.14
   1  -2  12    1.07    0.10
  -2   2 -12    4.43    0.24
  -2   2 -12    4.58    0.28
   2  -2  12    4.78    0.24
   2  -2  12    4.20    0.31
  -3   2 -12    0.11    0.05
  -3   2 -12    0.09    0.07
   3  -2  12    0.08    0.04
   3  -2  12    0.12    0.08
  -4   2 -12    1.73    0.17
   4  -2  12    1.64    0.19
   4  -2  12    1.76    0.12
  -5   2 -12    0.53    0.11
  -5   2 -12    0.67    0.12
   5  -2  12    0.94    0.17
  -6   2 -12    0.03    0.07
  -6   2 -12    0.08    0.07
   6  -2  12    0.05    0.08
   4   1 -12    0.48    0.13
   4   1 -12    0.82    0.14
  -4  -1  12    0.62    0.13
  -4  -1  12    0.71    0.16
   3   1 -12    0.07    0.08
  -3  -1  12    0.11    0.09
   2   1 -12    2.86    0.22
   2   1 -12    2.86    0.15
  -2  -1  12    2.82    0.15
  -2  -1  12    2.57    0.23
   1   1 -12    4.50    0.27
   1   1 -12    3.57    0.20
  -1  -1  12    3.83    0.19
  -1  -1  12    3.91    0.28
   0   1 -12    0.17    0.07
   0   1 -12    0.16    0.04
   0  -1  12    0.07    0.04
   0  -1  12    0.09    0.05
   0  -1  12    0.14    0.08
  -1   1 -12   26.28    1.20
  -1   1 -12   26.48    1.08
   1  -1  12   26.27    1.07
   1  -1  12   26.90    1.31
  -2   1 -12    0.80    0.11
  -2   1 -12    1.01    0.10
   2  -1  12    1.19    0.14
   2  -1  12    0.99    0.10
  -3   1 -12    7.35    0.34
  -3   1 -12    7.06    0.38
   3  -1  12    6.48    0.43
   3  -1  12    6.80    0.32
  -4   1 -12    0.44    0.10
   4  -1  12    0.54    0.11
   4  -1  12    0.40    0.06
  -5   1 -12    2.06    0.19
  -5   1 -12    2.07    0.19
   5  -1  12    2.80    0.28
   5  -1  12    2.84    0.24
   5  -1  12    2.34    0.20
  -6   1 -12    0.16    0.08
  -6   1 -12    0.07    0.07
   6  -1  12    0.03    0.07
  -7   1 -12    0.04    0.06
  -7   1 -12    0.06    0.07
   7  -1  12    0.01    0.06
   4   0 -12    0.12    0.10
   4   0 -12    0.13    0.09
  -4   0  12    0.10    0.09
  -4   0  12    0.04    0.09
   3   0 -12    0.86    0.15
  -3   0  12    0.97    0.15
   2   0 -12    0.22    0.09
   2   0 -12    0.23    0.04
  -2   0  12    0.18    0.09
  -2   0  12    0.17    0.05
   1   0 -12   17.92    0.87
   1   0 -12   17.88    0.74
  -1   0  12   18.14    0.92
  -1   0  12   17.91    0.67
   0   0 -12    2.32    0.15
   0   0 -12    2.78    0.20
   0   0  12    2.39    0.13
   0   0  12    2.59    0.16
   0   0  12    2.41    0.21
  -1   0 -12    4.49    0.26
  -1   0 -12    3.97    0.22
   1   0  12    4.00    0.19
   1   0  12    4.04    0.28
   1   0  12    3.99    0.22
  -2   0 -12    8.69    0.48
  -2   0 -12    9.98    0.44
   2   0  12    9.52    0.54
   2   0  12    9.73    0.42
  -3   0 -12    1.21    0.13
   3   0  12    1.21    0.15
   3   0  12    1.28    0.10
  -4   0 -12    0.58    0.10
   4   0  12    0.48    0.13
   4   0  12    0.43    0.06
   4   0  12    0.50    0.11
  -5   0 -12    0.39    0.09
  -5   0 -12    0.47    0.10
   5   0  12    0.65    0.14
   5   0  12    0.51    0.12
   5   0  12    0.52    0.10
  -6   0 -12    1.60    0.17
  -6   0 -12    1.43    0.16
   6   0  12    1.95    0.18
   6   0  12    1.79    0.22
  -7   0 -12    0.12    0.08
  -7   0 -12    0.09    0.08
   7   0  12    0.12    0.08
   7   0  12    0.06    0.06
   3  -1 -12    0.09    0.08
  -3   1  12    0.06    0.09
   2  -1 -12   13.49    0.66
   2  -1 -12   12.29    0.52
  -2   1  12   11.56    0.67
   1  -1 -12    0.04    0.06
   1  -1 -12   -0.02    0.03
  -1   1  12    0.00    0.07
  -1   1  12   -0.01    0.04
   0  -1 -12    6.39    0.31
   0  -1 -12    6.21    0.36
   0   1  12    6.22    0.26
   0   1  12    6.26    0.39
   0   1  12    6.25    0.30
  -1  -1 -12    0.03    0.04
  -1  -1 -12    0.17    0.06
   1   1  12    0.05    0.04
   1   1  12    0.12    0.07
   1   1  12    0.09    0.05
  -2  -1 -12    0.10    0.06
  -2  -1 -12    0.34    0.06
   2   1  12    0.30    0.05
   2   1  12    0.24    0.08
  -3  -1 -12    0.67    0.10
   3   1  12    0.67    0.07
   3   1  12    0.65    0.11
  -4  -1 -12    1.32    0.13
  -4  -1 -12    1.36    0.14
   4   1  12    1.50    0.14
   4   1  12    1.54    0.10
   4   1  12    1.54    0.17
  -5  -1 -12    2.72    0.21
  -5  -1 -12    3.13    0.22
   5   1  12    2.97    0.22
   5   1  12    2.88    0.24
   5   1  12    2.94    0.28
  -6  -1 -12    0.35    0.09
  -6  -1 -12    0.62    0.11
   6   1  12    0.54    0.11
   6   1  12    0.76    0.14
   6   1  12    0.85    0.14
  -7  -1 -12    0.15    0.08
  -7  -1 -12    0.06    0.07
   7   1  12    0.13    0.07
   7   1  12    0.18    0.09
  -8  -1 -12    0.09    0.08
  -8  -1 -12    0.19    0.09
   8   1  12    0.16    0.09
   8   1  12    0.15    0.08
   3  -2 -12    1.30    0.18
  -3   2  12    1.03    0.16
   2  -2 -12    2.97    0.17
   2  -2 -12    3.30    0.26
  -2   2  12    3.21    0.26
   1  -2 -12    6.13    0.29
   1  -2 -12    5.43    0.36
  -1   2  12    6.08    0.38
   0  -2 -12    0.04    0.04
   0  -2 -12    0.13    0.07
   0   2  12    0.05    0.04
   0   2  12    0.00    0.04
   0   2  12    0.11    0.07
  -1  -2 -12   17.62    0.73
  -1  -2 -12   17.07    0.82
   1   2  12   16.91    0.63
   1   2  12   16.82    0.71
   1   2  12   17.38    0.88
  -2  -2 -12    5.40    0.33
  -2  -2 -12    6.18    0.30
   2   2  12    5.84    0.28
   2   2  12    5.95    0.37
   2   2  12    6.13    0.24
  -3  -2 -12    0.86    0.11
   3   2  12    0.87    0.12
   3   2  12    0.87    0.08
  -4  -2 -12   16.30    0.79
   4   2  12   16.63    0.67
   4   2  12   16.67    0.87
   4   2  12   16.39    0.79
  -5  -2 -12    0.44    0.09
   5   2  12    0.14    0.07
   5   2  12    0.16    0.08
  -6  -2 -12    0.74    0.12
  -6  -2 -12    0.72    0.11
   6   2  12    0.53    0.12
   6   2  12    0.55    0.11
  -7  -2 -12    4.56    0.30
  -7  -2 -12    4.38    0.31
   7   2  12    4.12    0.36
   7   2  12    4.28    0.30
  -8  -2 -12    0.11    0.08
  -8  -2 -12    0.15    0.09
   8   2  12    0.21    0.08
   8   2  12    0.23    0.09
   2  -3 -12    5.78    0.26
   2  -3 -12    5.32    0.37
  -2   3  12    4.96    0.36
   1  -3 -12    0.69    0.08
   1  -3 -12    0.86    0.13
  -1   3  12    1.03    0.14
   0  -3 -12    1.78    0.14
   0  -3 -12    1.84    0.18
   0   3  12    1.97    0.19
   0   3  12    1.71    0.14
  -1  -3 -12    6.20    0.30
  -1  -3 -12    5.63    0.35
   1   3  12    6.26    0.38
   1   3  12    5.73    0.25
   1   3  12    5.81    0.29
  -2  -3 -12    0.21    0.07
  -2  -3 -12    0.14    0.05
   2   3  12    0.24    0.05
   2   3  12    0.21    0.04
   2   3  12    0.23    0.08
  -3  -3 -12    0.07    0.06
   3   3  12    0.04    0.06
   3   3  12    0.09    0.04
  -4  -3 -12    2.05    0.17
   4   3  12    1.98    0.19
   4   3  12    2.24    0.12
   4   3  12    2.33    0.18
  -5  -3 -12    3.25    0.22
   5   3  12    3.38    0.24
   5   3  12    2.90    0.25
  -6  -3 -12    1.63    0.16
   6   3  12    1.54    0.16
   6   3  12    1.67    0.18
  -7  -3 -12    0.90    0.14
  -7  -3 -12    0.99    0.13
   7   3  12    1.11    0.15
  -8  -3 -12    0.84    0.14
  -8  -3 -12    0.86    0.13
   8   3  12    0.75    0.14
   8   3  12    0.79    0.13
   1  -4 -12    0.44    0.07
   1  -4 -12    0.48    0.12
  -1   4  12    0.43    0.08
  -1   4  12    0.51    0.12
   0  -4 -12    0.98    0.10
   0  -4 -12    1.04    0.14
   0   4  12    0.97    0.14
   0   4  12    1.02    0.11
  -1  -4 -12    5.57    0.34
  -1  -4 -12    5.57    0.29
   1   4  12    5.49    0.24
   1   4  12    5.36    0.36
   1   4  12    5.82    0.28
  -2  -4 -12    0.13    0.05
  -2  -4 -12    0.15    0.07
   2   4  12    0.22    0.08
   2   4  12    0.21    0.05
   2   4  12    0.26    0.05
  -3  -4 -12    0.01    0.06
   3   4  12    0.00    0.06
   3   4  12   -0.02    0.04
   3   4  12   -0.01    0.03
  -4  -4 -12   10.36    0.54
   4   4  12   11.11    0.61
   4   4  12   11.41    0.46
   4   4  12   10.85    0.56
  -5  -4 -12    4.09    0.27
   5   4  12    4.49    0.29
   5   4  12    4.34    0.31
   5   4  12    4.93    0.32
  -6  -4 -12    3.15    0.22
   6   4  12    2.96    0.25
   6   4  12    2.87    0.23
  -7  -4 -12    0.08    0.07
   7   4  12    0.04    0.05
   7   4  12    0.06    0.07
  -8  -4 -12    0.50    0.11
   8   4  12    0.43    0.11
  -9  -4 -12    0.66    0.14
  -9  -4 -12    0.57    0.12
   9   4  12    0.82    0.13
   9   4  12    0.66    0.13
   1  -5 -12   -0.03    0.07
   1  -5 -12    0.00    0.04
  -1   5  12   -0.01    0.05
  -1   5  12   -0.03    0.08
   0  -5 -12    0.23    0.09
   0  -5 -12    0.09    0.05
   0   5  12    0.16    0.09
   0   5  12    0.15    0.06
  -1  -5 -12    2.33    0.21
  -1  -5 -12    2.66    0.18
   1   5  12    2.80    0.23
   1   5  12    2.65    0.17
  -2  -5 -12    6.41    0.38
  -2  -5 -12    7.05    0.35
   2   5  12    6.89    0.32
   2   5  12    6.48    0.27
   2   5  12    6.34    0.40
  -3  -5 -12    1.33    0.14
   3   5  12    1.29    0.10
   3   5  12    1.31    0.15
   3   5  12    1.27    0.14
  -4  -5 -12    0.79    0.11
   4   5  12    1.00    0.08
   4   5  12    0.93    0.13
   4   5  12    1.16    0.14
  -5  -5 -12    1.44    0.14
   5   5  12    1.33    0.16
   5   5  12    1.25    0.14
   5   5  12    1.17    0.16
  -6  -5 -12    5.97    0.35
   6   5  12    6.18    0.39
   6   5  12    5.88    0.37
   6   5  12    6.03    0.39
  -7  -5 -12    0.98    0.13
   7   5  12    1.24    0.16
   7   5  12    1.03    0.15
  -8  -5 -12    0.16    0.08
   8   5  12    0.14    0.07
  -9  -5 -12    0.05    0.08
   9   5  12    0.11    0.07
  -1  -6 -12    2.80    0.24
  -1  -6 -12    3.31    0.21
   1   6  12    3.23    0.26
   1   6  12    3.13    0.19
  -2  -6 -12    9.12    0.53
  -2  -6 -12   10.90    0.49
   2   6  12   10.16    0.45
  -3  -6 -12    1.73    0.17
   3   6  12    1.99    0.13
   3   6  12    1.82    0.17
  -4  -6 -12    0.58    0.10
   4   6  12    0.22    0.08
   4   6  12    0.35    0.11
   4   6  12    0.30    0.05
   5   6  12    0.41    0.10
   5   6  12    0.43    0.12
   6   6  12    6.13    0.38
   6   6  12    6.14    0.40
   7   6  12    0.00    0.06
   7   6  12   -0.03    0.04
   8   6  12    2.78    0.24
  -2  -7 -12    2.27    0.18
   2   7  12    2.16    0.20
   2   7  12    2.15    0.15
   3   7  12    2.10    0.14
   3   7  12    1.81    0.18
   3   7  12    2.13    0.23
   4   7  12    0.98    0.17
   4   7  12    0.89    0.08
   4   7  12    1.05    0.14
   5   7  12    6.84    0.42
   5   7  12    7.19    0.47
   6   7  12    0.16    0.09
   6   7  12    0.27    0.09
   7   7  12   22.47    1.13
   7   7  12   22.54    1.09
   8   7  12    1.38    0.18
   5   8  12    0.88    0.17
   5   8  12    0.99    0.15
   6   8  12    2.12    0.21
   6   8  12    2.38    0.24
   0  -5  13    0.21    0.07
  -1  -4  13    0.14    0.09
   0  -4  13    1.67    0.15
   0  -4  13    1.75    0.19
  -1   4 -13    0.76    0.09
   1  -4  13    0.74    0.10
   1  -4  13    0.96    0.15
  -2   4 -13    5.69    0.35
  -2   4 -13    5.83    0.31
   2  -4  13    5.61    0.30
   2  -4  13    6.12    0.41
  -3   4 -13    0.77    0.12
  -3   4 -13    0.82    0.11
   3  -4  13    0.83    0.10
   3   3 -13    0.09    0.08
  -3  -3  13   -0.07    0.07
   2   3 -13    0.02    0.06
  -2  -3  13    0.04    0.07
   1   3 -13    0.02    0.03
   1   3 -13    0.05    0.06
  -1  -3  13    0.09    0.08
   0   3 -13    1.09    0.10
   0   3 -13    1.27    0.14
   0  -3  13    1.39    0.17
   0  -3  13    1.18    0.12
  -1   3 -13    0.01    0.06
  -1   3 -13   -0.01    0.04
   1  -3  13   -0.02    0.06
   1  -3  13    0.00    0.05
  -2   3 -13    5.68    0.31
  -2   3 -13    6.25    0.36
   2  -3  13    6.01    0.40
   2  -3  13    6.02    0.31
  -3   3 -13    0.23    0.06
  -3   3 -13    0.16    0.08
   3  -3  13    0.10    0.05
   3  -3  13    0.11    0.08
  -4   3 -13    0.22    0.09
   4  -3  13    0.14    0.05
   3   2 -13    0.50    0.12
  -3  -2  13    0.45    0.12
   2   2 -13    4.24    0.30
  -2  -2  13    4.36    0.31
   1   2 -13    3.06    0.23
   1   2 -13    3.11    0.17
  -1  -2  13    2.98    0.25
   0   2 -13    3.83    0.26
   0   2 -13    3.86    0.22
   0  -2  13    4.13    0.23
   0  -2  13    4.05    0.30
  -1   2 -13    0.40    0.09
  -1   2 -13    0.44    0.07
   1  -2  13    0.50    0.08
   1  -2  13    0.49    0.11
  -2   2 -13    0.24    0.08
  -2   2 -13    0.13    0.05
   2  -2  13    0.18    0.08
   2  -2  13    0.08    0.05
  -3   2 -13    4.30    0.25
  -3   2 -13    4.26    0.29
   3  -2  13    4.48    0.33
   3  -2  13    4.40    0.24
  -4   2 -13    0.07    0.07
   4  -2  13    0.13    0.05
   4  -2  13    0.11    0.08
  -5   2 -13    0.75    0.13
   3   1 -13   15.00    0.78
  -3  -1  13   15.02    0.81
   2   1 -13    1.03    0.08
   2   1 -13    0.87    0.14
  -2  -1  13    1.02    0.15
   1   1 -13    3.50    0.26
   1   1 -13    3.69    0.19
  -1  -1  13    3.50    0.27
   0   1 -13    3.50    0.20
   0   1 -13    3.17    0.24
   0  -1  13    3.55    0.21
   0  -1  13    3.76    0.27
  -1   1 -13    0.40    0.09
  -1   1 -13    0.53    0.07
   1  -1  13    0.52    0.08
   1  -1  13    0.60    0.12
  -2   1 -13    0.08    0.04
  -2   1 -13    0.10    0.07
   2  -1  13    0.05    0.04
   2  -1  13    0.02    0.06
  -3   1 -13    1.19    0.11
  -3   1 -13    1.17    0.14
   3  -1  13    1.23    0.11
   3  -1  13    1.18    0.16
  -4   1 -13    0.74    0.12
   4  -1  13    1.06    0.15
   4  -1  13    0.87    0.09
  -5   1 -13    1.10    0.15
   5  -1  13    1.56    0.19
  -6   1 -13    0.60    0.12
  -6   1 -13    0.58    0.12
   6  -1  13    0.76    0.16
   3   0 -13    0.06    0.09
  -3   0  13    0.01    0.09
   2   0 -13    7.15    0.31
   2   0 -13    6.41    0.42
  -2   0  13    7.64    0.45
   1   0 -13    0.17    0.08
   1   0 -13    0.06    0.04
  -1   0  13    0.13    0.08
   0   0 -13    6.55    0.39
   0   0 -13    6.54    0.32
   0   0  13    6.90    0.42
   0   0  13    7.08    0.33
  -1   0 -13    0.02    0.06
  -1   0 -13   -0.01    0.03
   1   0  13    0.01    0.04
   1   0  13    0.01    0.04
   1   0  13    0.00    0.06
  -2   0 -13    0.08    0.04
  -2   0 -13    0.10    0.07
   2   0  13    0.13    0.05
   2   0  13    0.11    0.08
  -3   0 -13    3.65    0.25
  -3   0 -13    3.48    0.22
   3   0  13    3.66    0.28
   3   0  13    3.89    0.20
  -4   0 -13    0.13    0.07
   4   0  13    0.18    0.05
   4   0  13    0.11    0.08
  -5   0 -13    0.25    0.09
   5   0  13    0.33    0.11
   5   0  13    0.24    0.11
  -6   0 -13    1.31    0.16
  -6   0 -13    1.27    0.15
   6   0  13    1.50    0.21
   6   0  13    1.28    0.16
  -7   0 -13    0.14    0.08
  -7   0 -13    0.03    0.07
   7   0  13   -0.02    0.05
   7   0  13    0.07    0.08
   2  -1 -13    0.01    0.03
   2  -1 -13   -0.01    0.07
  -2   1  13    0.04    0.08
   1  -1 -13    0.69    0.08
   1  -1 -13    0.68    0.12
  -1   1  13    0.73    0.13
   0  -1 -13    0.03    0.06
   0  -1 -13    0.06    0.04
   0   1  13   -0.03    0.06
   0   1  13    0.03    0.05
  -1  -1 -13    2.25    0.16
  -1  -1 -13    2.07    0.18
   1   1  13    2.61    0.16
   1   1  13    2.33    0.21
   1   1  13    2.29    0.13
  -2  -1 -13    1.06    0.10
  -2  -1 -13    0.72    0.11
   2   1  13    0.95    0.09
   2   1  13    0.90    0.13
  -3  -1 -13    1.61    0.16
   3   1  13    1.70    0.18
   3   1  13    1.91    0.13
  -4  -1 -13    0.19    0.08
   4   1  13    0.19    0.09
   4   1  13    0.07    0.04
  -5  -1 -13    5.43    0.34
  -5  -1 -13    5.59    0.34
   5   1  13    5.39    0.38
   5   1  13    6.01    0.35
   5   1  13    5.80    0.46
  -6  -1 -13    0.75    0.13
  -6  -1 -13    0.63    0.12
   6   1  13    0.89    0.16
   6   1  13    0.81    0.13
   6   1  13    0.82    0.15
  -7  -1 -13    0.17    0.09
  -7  -1 -13    0.28    0.10
   7   1  13    0.16    0.08
   7   1  13    0.18    0.09
   2  -2 -13    0.70    0.14
   2  -2 -13    0.87    0.08
  -2   2  13    0.87    0.15
   1  -2 -13    0.02    0.03
   1  -2 -13    0.06    0.07
  -1   2  13   -0.03    0.07
   0  -2 -13    4.95    0.25
   0  -2 -13    4.50    0.31
   0   2  13    4.62    0.25
   0   2  13    4.53    0.32
  -1  -2 -13    0.10    0.05
  -1  -2 -13    0.10    0.07
   1   2  13    0.18    0.05
   1   2  13    0.15    0.08
   1   2  13    0.20    0.06
  -2  -2 -13    1.37    0.12
  -2  -2 -13    1.47    0.15
   2   2  13    1.55    0.10
   2   2  13    1.35    0.16
   2   2  13    1.42    0.11
  -3  -2 -13    0.39    0.09
   3   2  13    0.29    0.06
   3   2  13    0.34    0.09
  -4  -2 -13    0.51    0.10
   4   2  13    0.55    0.07
   4   2  13    0.66    0.12
  -5  -2 -13    2.32    0.20
  -5  -2 -13    2.74    0.21
   5   2  13    2.57    0.24
   5   2  13    2.77    0.21
  -6  -2 -13    0.19    0.08
  -6  -2 -13    0.17    0.08
   6   2  13    0.35    0.11
   6   2  13    0.23    0.08
   6   2  13    0.29    0.11
  -7  -2 -13    1.23    0.16
  -7  -2 -13    1.40    0.16
   7   2  13    1.26    0.19
   7   2  13    1.28    0.16
  -8  -2 -13    0.02    0.06
  -8  -2 -13    0.00    0.07
   8   2  13   -0.01    0.06
   8   2  13    0.05    0.06
   1  -3 -13    0.03    0.07
   1  -3 -13    0.05    0.04
  -1   3  13    0.10    0.08
   0  -3 -13    0.12    0.08
   0  -3 -13    0.10    0.05
   0   3  13    0.08    0.08
   0   3  13    0.04    0.05
  -1  -3 -13    0.04    0.06
  -1  -3 -13    0.06    0.04
   1   3  13    0.14    0.08
   1   3  13    0.12    0.05
  -2  -3 -13    0.00    0.06
  -2  -3 -13    0.06    0.04
   2   3  13    0.05    0.04
   2   3  13    0.03    0.07
   2   3  13    0.08    0.04
  -3  -3 -13    1.26    0.14
   3   3  13    1.45    0.11
   3   3  13    1.36    0.16
  -4  -3 -13    8.13    0.44
   4   3  13    7.87    0.49
   4   3  13    8.30    0.36
  -5  -3 -13    0.45    0.10
   5   3  13    0.40    0.09
   5   3  13    0.44    0.11
  -6  -3 -13    2.61    0.21
   6   3  13    2.62    0.24
   6   3  13    3.11    0.24
  -7  -3 -13    0.03    0.06
  -7  -3 -13   -0.02    0.07
   7   3  13    0.06    0.08
   7   3  13   -0.03    0.04
  -8  -3 -13    0.22    0.09
  -8  -3 -13    0.06    0.08
   8   3  13    0.11    0.07
   8   3  13    0.08    0.08
   1  -4 -13    0.09    0.09
   1  -4 -13    0.18    0.05
  -1   4  13    0.13    0.09
   0  -4 -13    1.76    0.18
   0  -4 -13    1.57    0.13
   0   4  13    1.60    0.14
   0   4  13    1.66    0.19
  -1  -4 -13    0.53    0.08
  -1  -4 -13    0.67    0.12
   1   4  13    0.57    0.08
   1   4  13    0.51    0.11
  -2  -4 -13    1.00    0.11
  -2  -4 -13    1.15    0.14
   2   4  13    0.92    0.10
   2   4  13    0.96    0.08
   2   4  13    0.75    0.13
  -3  -4 -13    0.84    0.12
   3   4  13    0.98    0.14
   3   4  13    0.89    0.09
  -4  -4 -13    2.26    0.19
   4   4  13    2.36    0.14
   4   4  13    2.29    0.19
   4   4  13    2.34    0.21
  -5  -4 -13    1.85    0.17
   5   4  13    1.89    0.19
   5   4  13    1.62    0.17
  -6  -4 -13    1.27    0.15
   6   4  13    1.07    0.15
   6   4  13    1.27    0.17
  -7  -4 -13    0.02    0.07
   7   4  13   -0.02    0.07
   7   4  13   -0.01    0.05
  -8  -4 -13    3.60    0.27
  -8  -4 -13    3.49    0.28
   8   4  13    3.63    0.28
   0  -5 -13    0.17    0.06
   0  -5 -13    0.19    0.10
   0   5  13    0.33    0.07
   0   5  13    0.01    0.09
  -1  -5 -13    0.11    0.08
  -1  -5 -13    0.03    0.04
   1   5  13    0.04    0.05
   1   5  13    0.05    0.08
  -2  -5 -13    0.55    0.11
  -2  -5 -13    0.46    0.08
   2   5  13    0.56    0.08
   2   5  13    0.35    0.10
  -3  -5 -13    0.76    0.12
   3   5  13    0.67    0.12
   3   5  13    0.98    0.09
  -4  -5 -13    1.27    0.14
   4   5  13    1.50    0.17
   4   5  13    1.14    0.15
   4   5  13    1.36    0.10
  -5  -5 -13    0.69    0.11
   5   5  13    0.88    0.13
   5   5  13    0.77    0.13
   5   5  13    0.91    0.15
  -6  -5 -13    3.49    0.24
   6   5  13    3.28    0.27
   6   5  13    3.04    0.25
   7   5  13    0.08    0.08
   7   5  13    0.22    0.08
  -8  -5 -13    7.00    0.40
   8   5  13    6.40    0.42
  -2  -6 -13    0.88    0.14
  -2  -6 -13    0.84    0.11
   2   6  13    0.91    0.10
  -3  -6 -13    1.34    0.16
   3   6  13    1.38    0.12
  -4  -6 -13    8.05    0.46
   4   6  13    8.93    0.54
   4   6  13    8.06    0.48
   4   6  13    8.79    0.37
  -5  -6 -13   18.91    0.88
   5   6  13   18.03    0.91
   5   6  13   18.67    0.97
   6   6  13    0.66    0.14
   6   6  13    0.72    0.13
   7   6  13    8.82    0.51
   4   7  13    0.04    0.04
   4   7  13   -0.04    0.05
   4   7  13    0.03    0.08
   5   7  13    4.14    0.31
   5   7  13    4.47    0.35
   6   7  13    0.28    0.11
   6   7  13    0.37    0.11
   1   3 -14    0.06    0.07
  -1  -3  14    0.00    0.08
   0   3 -14    0.27    0.09
   0   3 -14    0.24    0.06
   0  -3  14    0.23    0.10
   0  -3  14    0.31    0.08
  -1   3 -14    1.55    0.16
  -1   3 -14    1.69    0.13
   1  -3  14    1.80    0.20
   1  -3  14    1.65    0.14
  -2   3 -14    2.12    0.16
  -2   3 -14    2.09    0.19
   2  -3  14    2.16    0.16
   2  -3  14    2.18    0.22
   2   2 -14   -0.02    0.06
  -2  -2  14    0.02    0.08
   1   2 -14    0.21    0.08
   1   2 -14    0.12    0.04
  -1  -2  14    0.17    0.09
   0   2 -14    0.00    0.03
   0   2 -14   -0.03    0.06
   0  -2  14    0.02    0.05
   0  -2  14    0.05    0.08
  -1   2 -14    2.67    0.17
  -1   2 -14    2.37    0.20
   1  -2  14    2.38    0.23
   1  -2  14    2.44    0.17
  -2   2 -14    2.13    0.16
  -2   2 -14    2.02    0.18
   2  -2  14    1.75    0.20
   2  -2  14    2.03    0.15
  -3   2 -14    0.40    0.10
  -3   2 -14    0.51    0.08
   3  -2  14    0.57    0.08
   3  -2  14    0.50    0.13
  -4   2 -14    0.97    0.14
   4  -2  14    1.10    0.17
   4  -2  14    1.00    0.10
   2   1 -14    0.20    0.04
   2   1 -14    0.25    0.10
  -2  -1  14    0.17    0.10
   1   1 -14    0.79    0.13
   1   1 -14    0.89    0.08
  -1  -1  14    0.76    0.14
   0   1 -14    0.13    0.08
   0   1 -14    0.17    0.05
   0  -1  14    0.26    0.07
   0  -1  14    0.19    0.09
  -1   1 -14    2.12    0.19
  -1   1 -14    2.38    0.16
   1  -1  14    2.56    0.23
   1  -1  14    2.64    0.17
  -2   1 -14    0.02    0.07
  -2   1 -14    0.13    0.05
   2  -1  14    0.14    0.06
   2  -1  14    0.07    0.07
  -3   1 -14    5.34    0.36
  -3   1 -14    6.64    0.33
   3  -1  14    6.36    0.31
   3  -1  14    6.37    0.42
  -4   1 -14    0.03    0.07
   4  -1  14    0.06    0.09
   4  -1  14    0.05    0.04
  -5   1 -14    0.04    0.07
   5  -1  14    0.01    0.08
   2   0 -14   -0.01    0.03
   2   0 -14    0.03    0.07
  -2   0  14   -0.06    0.07
   1   0 -14    0.03    0.03
   1   0 -14    0.07    0.08
  -1   0  14    0.10    0.08
   0   0 -14    0.01    0.03
   0   0 -14    0.02    0.06
   0   0  14    0.06    0.05
   0   0  14    0.08    0.08
  -1   0 -14    0.91    0.10
  -1   0 -14    0.71    0.12
   1   0  14    0.88    0.14
   1   0  14    0.96    0.10
  -2   0 -14   -0.02    0.03
  -2   0 -14    0.07    0.07
   2   0  14   -0.03    0.06
   2   0  14    0.01    0.04
  -3   0 -14    4.31    0.24
  -3   0 -14    3.62    0.27
   3   0  14    4.35    0.32
   3   0  14    4.18    0.22
  -4   0 -14    0.01    0.07
   4   0  14    0.07    0.08
   4   0  14    0.13    0.05
  -5   0 -14    3.96    0.29
   5   0  14    4.60    0.34
  -6   0 -14    1.33    0.17
   6   0  14    1.90    0.24
   1  -1 -14    0.04    0.04
   1  -1 -14    0.01    0.07
  -1   1  14    0.04    0.08
   0  -1 -14    0.72    0.13
   0  -1 -14    0.88    0.09
   0   1  14    0.84    0.14
   0   1  14    0.96    0.10
  -1  -1 -14    4.92    0.32
  -1  -1 -14    4.88    0.26
   1   1  14    4.73    0.34
   1   1  14    4.81    0.26
  -2  -1 -14    0.12    0.08
  -2  -1 -14    0.14    0.05
   2   1  14    0.10    0.05
   2   1  14    0.06    0.08
  -3  -1 -14   16.48    0.70
  -3  -1 -14   14.91    0.77
   3   1  14   16.34    0.86
   3   1  14   15.68    0.67
  -4  -1 -14    0.04    0.07
   4   1  14    0.00    0.04
   4   1  14    0.03    0.07
  -5  -1 -14    0.06    0.07
   5   1  14    0.02    0.07
  -6  -1 -14    1.26    0.16
  -6  -1 -14    1.38    0.17
   6   1  14    1.44    0.21
   6   1  14    1.54    0.17
   6   1  14    1.65    0.20
   1  -2 -14    0.06    0.04
   1  -2 -14    0.18    0.09
  -1   2  14    0.23    0.11
   0  -2 -14    1.51    0.12
   0  -2 -14    1.07    0.15
   0   2  14    1.51    0.13
   0   2  14    1.22    0.17
  -1  -2 -14    1.76    0.18
  -1  -2 -14    1.70    0.14
   1   2  14    1.56    0.18
   1   2  14    1.81    0.14
  -2  -2 -14    1.33    0.13
  -2  -2 -14    1.62    0.16
   2   2  14    1.44    0.12
   2   2  14    1.41    0.17
  -3  -2 -14    0.87    0.10
  -3  -2 -14    0.58    0.11
   3   2  14    0.84    0.14
   3   2  14    0.87    0.09
  -4  -2 -14    0.25    0.09
   4   2  14    0.04    0.07
   4   2  14    0.14    0.05
  -5  -2 -14    1.34    0.16
   5   2  14    1.55    0.18
  -6  -2 -14    0.93    0.14
  -6  -2 -14    0.76    0.13
   6   2  14    1.09    0.15
   6   2  14    0.96    0.17
   6   2  14    1.07    0.17
  -7  -2 -14    0.04    0.07
  -7  -2 -14   -0.02    0.07
   7   2  14   -0.02    0.05
   7   2  14   -0.05    0.06
   0  -3 -14    0.10    0.08
   0  -3 -14    0.18    0.05
   0   3  14    0.11    0.06
   0   3  14    0.03    0.08
  -1  -3 -14    0.40    0.11
  -1  -3 -14    0.58    0.08
   1   3  14    0.38    0.11
   1   3  14    0.45    0.08
  -2  -3 -14    0.21    0.09
  -2  -3 -14    0.32    0.07
   2   3  14    0.20    0.06
   2   3  14    0.24    0.09
  -3  -3 -14    0.90    0.13
   3   3  14    0.77    0.13
   3   3  14    1.00    0.09
  -4  -3 -14    0.31    0.09
   4   3  14    0.27    0.10
   4   3  14    0.25    0.05
  -5  -3 -14    0.37    0.10
   5   3  14    0.29    0.10
  -6  -3 -14    9.17    0.51
   6   3  14    9.68    0.58
   6   3  14    9.12    0.52
  -7  -3 -14    2.60    0.22
  -7  -3 -14    2.31    0.22
   7   3  14    2.40    0.25
   7   3  14    2.55    0.23
   7   3  14    2.34    0.27
  -1  -4 -14    1.37    0.13
  -1  -4 -14    0.96    0.15
   1   4  14    1.14    0.16
   1   4  14    1.29    0.12
  -2  -4 -14    0.00    0.04
  -2  -4 -14   -0.01    0.06
   2   4  14   -0.02    0.04
   2   4  14    0.04    0.07
  -3  -4 -14    0.45    0.10
   3   4  14    0.42    0.07
   3   4  14    0.43    0.11
  -4  -4 -14    5.12    0.32
   4   4  14    5.34    0.25
   4   4  14    4.93    0.36
  -5  -4 -14    2.60    0.22
   5   4  14    2.95    0.26
   5   4  14    2.95    0.23
  -6  -4 -14    7.86    0.43
   6   4  14    6.85    0.47
   6   4  14    7.00    0.43
  -7  -4 -14    0.46    0.11
   7   4  14    0.41    0.11
   7   4  14    0.60    0.13
  -2  -5 -14    5.45    0.38
  -2  -5 -14    6.58    0.34
   2   5  14    6.92    0.32
   2   5  14    6.26    0.42
  -3  -5 -14    0.23    0.09
   3   5  14    0.20    0.09
   3   5  14    0.12    0.05
  -4  -5 -14    3.35    0.25
   4   5  14    3.43    0.28
   4   5  14    3.59    0.19
  -5  -5 -14    4.46    0.29
   5   5  14    4.19    0.32
   5   5  14    4.64    0.34
   5   5  14    4.14    0.30
  -6  -5 -14    0.07    0.08
   6   5  14   -0.06    0.06
   6   5  14    0.00    0.05
  -7  -5 -14    0.01    0.08
   7   5  14    0.10    0.07
   7   5  14    0.07    0.08
  -4  -6 -14    3.61    0.27
   4   6  14    3.85    0.20
  -5  -6 -14    0.08    0.07
   5   6  14   -0.01    0.07
   5   6  14    0.04    0.06
   6   6  14    1.32    0.17
   6   6  14    1.54    0.20
   0   1 -15    0.52    0.11
   0   1 -15    0.53    0.07
   0  -1  15    0.39    0.08
   0  -1  15    0.53    0.13
  -1   1 -15    0.17    0.05
  -1   1 -15    0.13    0.08
   1  -1  15    0.14    0.10
   1  -1  15    0.17    0.06
  -2   1 -15    0.04    0.07
  -2   1 -15    0.02    0.04
   2  -1  15   -0.01    0.07
   2  -1  15   -0.01    0.05
  -3   1 -15    4.34    0.30
  -3   1 -15    4.47    0.26
   3  -1  15    4.18    0.34
   3  -1  15    4.21    0.24
   0   0 -15    0.63    0.12
   0   0 -15    0.64    0.08
   0   0  15    0.45    0.12
   0   0  15    0.67    0.10
  -1   0 -15    0.07    0.07
  -1   0 -15    0.08    0.05
   1   0  15    0.14    0.09
   1   0  15    0.11    0.06
  -2   0 -15    0.02    0.04
  -2   0 -15   -0.06    0.06
   2   0  15   -0.01    0.05
   2   0  15    0.00    0.07
  -3   0 -15    6.05    0.32
  -3   0 -15    6.22    0.37
   3   0  15    5.86    0.41
   3   0  15    5.82    0.30
  -4   0 -15    0.46    0.11
   4   0  15    0.40    0.12
   4   0  15    0.48    0.07
   0  -1 -15    1.67    0.13
   0  -1 -15    1.71    0.19
   0   1  15    1.74    0.20
   0   1  15    1.77    0.15
  -1  -1 -15    0.04    0.04
  -1  -1 -15    0.05    0.07
   1   1  15    0.13    0.09
   1   1  15    0.07    0.06
  -2  -1 -15    0.02    0.04
  -2  -1 -15   -0.02    0.06
   2   1  15    0.08    0.08
   2   1  15    0.00    0.04
  -3  -1 -15    0.10    0.05
  -3  -1 -15    0.19    0.09
   3   1  15    0.13    0.05
   3   1  15    0.04    0.08
  -4  -1 -15    0.50    0.11
   4   1  15    0.74    0.08
   4   1  15    0.83    0.15
  -5  -1 -15    4.61    0.32
   5   1  15    5.09    0.38
  -1  -2 -15    0.03    0.07
  -1  -2 -15    0.01    0.04
   1   2  15   -0.01    0.07
   1   2  15    0.03    0.05
  -2  -2 -15    0.14    0.06
  -2  -2 -15    0.15    0.08
   2   2  15    0.18    0.06
   2   2  15    0.18    0.09
  -3  -2 -15    1.18    0.15
  -3  -2 -15    1.17    0.12
   3   2  15    1.01    0.16
   3   2  15    1.17    0.11
  -4  -2 -15    0.29    0.10
   4   2  15    0.19    0.10
  -5  -2 -15    3.07    0.25
   5   2  15    3.55    0.30
  -2  -3 -15    7.85    0.46
  -2  -3 -15    7.81    0.39
   2   3  15    7.41    0.49
   2   3  15    7.74    0.37
  -3  -3 -15    0.36    0.10
  -3  -3 -15    0.52    0.09
   3   3  15    0.37    0.11
   3   3  15    0.41    0.07
  -4  -3 -15   15.46    0.78
   4   3  15   15.31    0.86
   4   3  15   15.80    0.65
  -5  -3 -15    0.24    0.10
   5   3  15    0.29    0.11
  -3  -4 -15   -0.02    0.04
  -3  -4 -15    0.09    0.08
   3   4  15   -0.03    0.04
   3   4  15   -0.02    0.07
  -4  -4 -15    0.73    0.12
   4   4  15    0.63    0.13
   4   4  15    0.73    0.08
  -5  -4 -15    1.04    0.14
   5   4  15    1.24    0.17
   0   0   0    0.00    0.00
;
_shelx_hkl_checksum              27714
loop_
_space_group_symop_operation_xyz
'x, y, z'
'-x, -y, -z'
loop_
_atom_site_label
_atom_site_type_symbol
_atom_site_fract_x
_atom_site_fract_y
_atom_site_fract_z
_atom_site_U_iso_or_equiv
_atom_site_adp_type
_atom_site_occupancy
_atom_site_site_symmetry_order
_atom_site_calc_flag
_atom_site_refinement_flags_posn
_atom_site_refinement_flags_adp
F5 F 0.62347(13) -0.07084(12) 0.14015(7) 0.0417(2) Uani 1 1 d . .
F3 F 0.88394(11) 0.90018(10) 0.52754(6) 0.03319(19) Uani 1 1 d . .
F6 F 0.61995(14) 0.10368(11) -0.00975(8) 0.0463(2) Uani 1 1 d . .
F4 F 0.88364(11) -0.09672(12) 0.02874(8) 0.0427(2) Uani 1 1 d . .
F1 F 0.58489(10) 1.00671(9) 0.59823(7) 0.03223(19) Uani 1 1 d . .
F2 F 0.75744(13) 1.03172(10) 0.69678(7) 0.0382(2) Uani 1 1 d . .
N1 N 0.73844(14) 0.63879(12) 0.51673(8) 0.0226(2) Uani 1 1 d . .
H1 H 0.7132 0.7468 0.4838 0.027 Uiso 1 1 calc R U
N2 N 0.73659(13) 0.50728(12) 0.45998(8) 0.0213(2) Uani 1 1 d . .
C4 C 0.86588(17) 0.53006(18) 0.84821(10) 0.0281(3) Uani 1 1 d . .
H4 H 0.8949 0.5047 0.9233 0.034 Uiso 1 1 calc R U
C5 C 0.85966(17) 0.39823(17) 0.78996(10) 0.0280(2) Uani 1 1 d . .
H5 H 0.8850 0.2822 0.8258 0.034 Uiso 1 1 calc R U
C6 C 0.81712(16) 0.43322(15) 0.68056(10) 0.0236(2) Uani 1 1 d . .
H6 H 0.8131 0.3416 0.6423 0.028 Uiso 1 1 calc R U
C1 C 0.78009(14) 0.60302(14) 0.62630(9) 0.0197(2) Uani 1 1 d . .
C13 C 0.69992(15) 0.54917(14) 0.35821(9) 0.0219(2) Uani 1 1 d . .
H13 H 0.6732 0.6682 0.3273 0.026 Uiso 1 1 calc R U
C7 C 0.69878(15) 0.41539(14) 0.28903(9) 0.0203(2) Uani 1 1 d . .
C8 C 0.65799(17) 0.46521(15) 0.17848(10) 0.0247(2) Uani 1 1 d . .
H8 H 0.6292 0.5857 0.1498 0.030 Uiso 1 1 calc R U
C9 C 0.65913(16) 0.33982(15) 0.10996(9) 0.0242(2) Uani 1 1 d . .
H9 H 0.6308 0.3746 0.0349 0.029 Uiso 1 1 calc R U
C10 C 0.70167(15) 0.16435(15) 0.15161(9) 0.0212(2) Uani 1 1 d . .
C15 C 0.70684(17) 0.02672(16) 0.07780(10) 0.0256(2) Uani 1 1 d . .
C14 C 0.75457(17) 0.91702(15) 0.62872(10) 0.0249(2) Uani 1 1 d . .
C2 C 0.78710(15) 0.73623(14) 0.68521(9) 0.0208(2) Uani 1 1 d . .
C11 C 0.74380(17) 0.11242(16) 0.26174(10) 0.0252(2) Uani 1 1 d . .
H11 H 0.7738 -0.0086 0.2898 0.030 Uiso 1 1 calc R U
C12 C 0.74174(17) 0.23748(15) 0.32996(9) 0.0235(2) Uani 1 1 d . .
H12 H 0.7697 0.2023 0.4051 0.028 Uiso 1 1 calc R U
C3 C 0.82925(16) 0.69861(16) 0.79544(10) 0.0248(2) Uani 1 1 d . .
H3 H 0.8329 0.7896 0.8348 0.030 Uiso 1 1 calc R U
loop_
_atom_site_aniso_label
_atom_site_aniso_U_11
_atom_site_aniso_U_22
_atom_site_aniso_U_33
_atom_site_aniso_U_23
_atom_site_aniso_U_13
_atom_site_aniso_U_12
F5 0.0604(5) 0.0469(5) 0.0367(4) -0.0072(3) -0.0055(4) -0.0409(4)
F3 0.0375(4) 0.0294(4) 0.0326(4) 0.0033(3) -0.0033(3) -0.0187(3)
F6 0.0737(6) 0.0394(4) 0.0427(5) 0.0022(4) -0.0388(4) -0.0274(4)
F4 0.0347(4) 0.0440(5) 0.0481(5) -0.0259(4) -0.0028(3) -0.0147(4)
F1 0.0315(4) 0.0213(3) 0.0412(4) -0.0012(3) -0.0149(3) -0.0067(3)
F2 0.0586(5) 0.0274(4) 0.0404(4) -0.0042(3) -0.0193(4) -0.0244(4)
N1 0.0313(5) 0.0181(4) 0.0205(4) -0.0021(3) -0.0084(4) -0.0116(4)
N2 0.0228(4) 0.0211(4) 0.0214(4) -0.0048(3) -0.0044(3) -0.0105(4)
C4 0.0310(6) 0.0351(6) 0.0198(5) 0.0016(4) -0.0085(4) -0.0157(5)
C5 0.0312(6) 0.0271(5) 0.0246(5) 0.0034(4) -0.0068(4) -0.0133(5)
C6 0.0270(5) 0.0222(5) 0.0221(5) -0.0024(4) -0.0039(4) -0.0122(4)
C1 0.0183(5) 0.0214(5) 0.0185(5) -0.0033(4) -0.0024(4) -0.0087(4)
C13 0.0242(5) 0.0189(5) 0.0216(5) -0.0026(4) -0.0055(4) -0.0086(4)
C7 0.0192(5) 0.0214(5) 0.0199(5) -0.0027(4) -0.0043(4) -0.0088(4)
C8 0.0304(6) 0.0201(5) 0.0232(5) 0.0006(4) -0.0095(4) -0.0100(4)
C9 0.0281(5) 0.0252(5) 0.0195(5) -0.0003(4) -0.0090(4) -0.0108(4)
C10 0.0217(5) 0.0240(5) 0.0204(5) -0.0039(4) -0.0050(4) -0.0117(4)
C15 0.0300(6) 0.0285(5) 0.0233(5) -0.0031(4) -0.0088(4) -0.0155(5)
C14 0.0288(6) 0.0221(5) 0.0260(5) -0.0043(4) -0.0078(4) -0.0118(4)
C2 0.0203(5) 0.0207(5) 0.0212(5) -0.0036(4) -0.0034(4) -0.0094(4)
C11 0.0342(6) 0.0232(5) 0.0243(5) 0.0025(4) -0.0110(4) -0.0166(5)
C12 0.0311(6) 0.0257(5) 0.0193(5) 0.0017(4) -0.0101(4) -0.0157(4)
C3 0.0245(5) 0.0299(6) 0.0222(5) -0.0059(4) -0.0052(4) -0.0131(4)
loop_
_atom_type_symbol
_atom_type_description
_atom_type_scat_dispersion_real
_atom_type_scat_dispersion_imag
_atom_type_scat_source
C C 0.0033 0.0016 'International Tables Vol C Tables 4.2.6.8 and 6.1.1.4'
H H 0.0000 0.0000 'International Tables Vol C Tables 4.2.6.8 and 6.1.1.4'
N N 0.0061 0.0033 'International Tables Vol C Tables 4.2.6.8 and 6.1.1.4'
F F 0.0171 0.0103 'International Tables Vol C Tables 4.2.6.8 and 6.1.1.4'
loop_
_geom_angle_atom_site_label_1
_geom_angle_atom_site_label_2
_geom_angle_atom_site_label_3
_geom_angle
N2 N1 C1 120.00(9)
N2 N1 H1 120.0
C1 N1 H1 120.0
C13 N2 N1 116.51(9)
C3 C4 C5 119.16(10)
C3 C4 H4 120.4
C5 C4 H4 120.4
C6 C5 C4 121.11(11)
C6 C5 H5 119.4
C4 C5 H5 119.4
C5 C6 C1 120.23(10)
C5 C6 H6 119.9
C1 C6 H6 119.9
N1 C1 C6 120.61(9)
N1 C1 C2 120.78(10)
C6 C1 C2 118.61(10)
N2 C13 C7 120.61(10)
N2 C13 H13 119.7
C7 C13 H13 119.7
C8 C7 C12 119.18(10)
C8 C7 C13 119.28(10)
C12 C7 C13 121.53(9)
C9 C8 C7 120.51(10)
C9 C8 H8 119.7
C7 C8 H8 119.7
C10 C9 C8 119.69(10)
C10 C9 H9 120.2
C8 C9 H9 120.2
C9 C10 C11 120.38(10)
C9 C10 C15 120.28(10)
C11 C10 C15 119.34(10)
F6 C15 F4 106.54(10)
F6 C15 F5 106.46(10)
F4 C15 F5 105.43(10)
F6 C15 C10 112.77(10)
F4 C15 C10 112.67(9)
F5 C15 C10 112.42(9)
F2 C14 F3 106.83(10)
F2 C14 F1 106.29(9)
F3 C14 F1 104.65(9)
F2 C14 C2 113.54(9)
F3 C14 C2 112.47(9)
F1 C14 C2 112.43(9)
C3 C2 C1 120.26(10)
C3 C2 C14 119.41(10)
C1 C2 C14 120.31(9)
C12 C11 C10 119.85(10)
C12 C11 H11 120.1
C10 C11 H11 120.1
C11 C12 C7 120.39(10)
C11 C12 H12 119.8
C7 C12 H12 119.8
C4 C3 C2 120.63(10)
C4 C3 H3 119.7
C2 C3 H3 119.7
loop_
_geom_bond_atom_site_label_1
_geom_bond_atom_site_label_2
_geom_bond_distance
F5 C15 1.3375(15)
F3 C14 1.3464(14)
F6 C15 1.3321(13)
F4 C15 1.3373(14)
F1 C14 1.3583(14)
F2 C14 1.3321(12)
N1 N2 1.3582(12)
N1 C1 1.3842(13)
N1 H1 0.8800
N2 C13 1.2802(14)
C4 C3 1.3835(17)
C4 C5 1.3904(17)
C4 H4 0.9500
C5 C6 1.3853(15)
C5 H5 0.9500
C6 C1 1.3986(15)
C6 H6 0.9500
C1 C2 1.4085(14)
C13 C7 1.4630(14)
C13 H13 0.9500
C7 C8 1.3952(14)
C7 C12 1.3971(15)
C8 C9 1.3907(15)
C8 H8 0.9500
C9 C10 1.3821(16)
C9 H9 0.9500
C10 C11 1.3955(15)
C10 C15 1.4993(14)
C14 C2 1.4927(15)
C2 C3 1.3931(15)
C11 C12 1.3823(15)
C11 H11 0.9500
C12 H12 0.9500
C3 H3 0.9500
loop_
_geom_torsion_atom_site_label_1
_geom_torsion_atom_site_label_2
_geom_torsion_atom_site_label_3
_geom_torsion_atom_site_label_4
_geom_torsion
C1 N1 N2 C13 -178.91(10)
C3 C4 C5 C6 -0.15(18)
C4 C5 C6 C1 0.23(18)
N2 N1 C1 C6 -1.18(16)
N2 N1 C1 C2 178.48(9)
C5 C6 C1 N1 179.66(10)
C5 C6 C1 C2 -0.01(16)
N1 N2 C13 C7 178.64(9)
N2 C13 C7 C8 179.89(10)
N2 C13 C7 C12 -1.56(17)
C12 C7 C8 C9 0.30(17)
C13 C7 C8 C9 178.88(10)
C7 C8 C9 C10 -0.22(18)
C8 C9 C10 C11 -0.14(17)
C8 C9 C10 C15 -178.91(10)
C9 C10 C15 F6 -16.88(16)
C11 C10 C15 F6 164.34(11)
C9 C10 C15 F4 103.79(13)
C11 C10 C15 F4 -74.99(14)
C9 C10 C15 F5 -137.25(11)
C11 C10 C15 F5 43.98(15)
N1 C1 C2 C3 -179.97(10)
C6 C1 C2 C3 -0.31(16)
N1 C1 C2 C14 -1.62(16)
C6 C1 C2 C14 178.05(10)
F2 C14 C2 C3 -4.37(15)
F3 C14 C2 C3 117.09(11)
F1 C14 C2 C3 -125.09(11)
F2 C14 C2 C1 177.26(9)
F3 C14 C2 C1 -61.28(13)
F1 C14 C2 C1 56.55(13)
C9 C10 C11 C12 0.44(17)
C15 C10 C11 C12 179.21(10)
C10 C11 C12 C7 -0.37(18)
C8 C7 C12 C11 0.00(17)
C13 C7 C12 C11 -178.55(10)
C5 C4 C3 C2 -0.17(17)
C1 C2 C3 C4 0.40(17)
C14 C2 C3 C4 -177.97(11)
