#------------------------------------------------------------------------------
#$Date: 2019-12-26 21:55:43 +0200 (Thu, 26 Dec 2019) $
#$Revision: 246125 $
#$URL: file:///home/coder/svn-repositories/cod/cif/2/31/18/2311810.cif $
#------------------------------------------------------------------------------
#
# This file is available in the Crystallography Open Database (COD),
# http://www.crystallography.net/. The original data for this entry
# were provided by IUCr Journals, http://journals.iucr.org/.
#
# The file may be used within the scientific community so long as
# proper attribution is given to the journal article from which the
# data were obtained.
#
data_2311810
loop_
_publ_author_name
'Hennings, Erik'
'Schmidt, Horst'
'Voigt, Wolfgang'
_publ_section_title
;
 Crystal structures of hydrates of simple inorganic salts. II. Water-rich
 calcium bromide and iodide hydrates: CaBr2 &#x00B7; 9H2O, CaI2 &#x00B7;
 8H2O, CaI2 &#x00B7; 7H2O and CaI2 &#x00B7; 6.5H2O.
;
_journal_coeditor_code           QS3039
_journal_issue                   'Pt 9'
_journal_name_full
'Acta crystallographica. Section C, Structural chemistry'
_journal_page_first              876
_journal_page_last               881
_journal_paper_doi               10.1107/S2053229614018002
_journal_volume                  70
_journal_year                    2014
_chemical_formula_iupac          'Ca I2, 8H2 O'
_chemical_formula_moiety         'Ca 2+, 2(I -), 8(H2 O)'
_chemical_formula_sum            'Ca H16 I2 O8'
_chemical_formula_weight         438.01
_chemical_name_common            'Calcium iodide octahydrate'
_chemical_name_systematic
;
Calcium iodide octahydrate
;
_space_group_crystal_system      triclinic
_space_group_IT_number           2
_space_group_name_Hall           '-P 1'
_space_group_name_H-M_alt        'P -1'
_atom_sites_solution_hydrogens   difmap
_audit_creation_method           SHELXL-2012
_cell_angle_alpha                86.048(17)
_cell_angle_beta                 84.184(16)
_cell_angle_gamma                72.427(16)
_cell_formula_units_Z            2
_cell_length_a                   7.4521(14)
_cell_length_b                   8.6127(19)
_cell_length_c                   10.725(2)
_cell_measurement_reflns_used    13177
_cell_measurement_temperature    100
_cell_measurement_theta_max      59.53
_cell_measurement_theta_min      2.29
_cell_volume                     652.3(2)
_computing_cell_refinement       'X-AREA (Stoe & Cie, 2009)'
_computing_data_collection       'X-AREA (Stoe & Cie, 2009)'
_computing_data_reduction        'X-RED (Stoe & Cie, 2009)'
_computing_molecular_graphics    'SHELXL2012 (Sheldrick, 2008)'
_computing_publication_material  'SHELXL2012 (Sheldrick, 2008)'
_computing_structure_refinement  'SHELXL2012 (Sheldrick, 2008)'
_computing_structure_solution    'SHELXS97 (Sheldrick, 2008)'
_diffrn_ambient_temperature      100
_diffrn_detector_area_resol_mean 6.67
_diffrn_measured_fraction_theta_full 0.997
_diffrn_measured_fraction_theta_max 0.997
_diffrn_measurement_device       '2-circle goniometer'
_diffrn_measurement_device_type  'Stoe IPDS 2T'
_diffrn_measurement_method       'rotation method'
_diffrn_radiation_type           MoK\a
_diffrn_radiation_wavelength     0.71073
_diffrn_reflns_av_R_equivalents  0.0691
_diffrn_reflns_limit_h_max       9
_diffrn_reflns_limit_h_min       -9
_diffrn_reflns_limit_k_max       11
_diffrn_reflns_limit_k_min       -11
_diffrn_reflns_limit_l_max       13
_diffrn_reflns_limit_l_min       -13
_diffrn_reflns_number            7283
_diffrn_reflns_theta_full        25.242
_diffrn_reflns_theta_max         27.497
_diffrn_reflns_theta_min         2.878
_exptl_absorpt_coefficient_mu    5.218
_exptl_absorpt_correction_T_max  0.5435
_exptl_absorpt_correction_T_min  0.2623
_exptl_absorpt_correction_type   integration
_exptl_absorpt_process_details   '(Coppens, 1970)'
_exptl_crystal_colour            colourless
_exptl_crystal_density_diffrn    2.230
_exptl_crystal_description       plate
_exptl_crystal_F_000             412
_exptl_crystal_size_max          0.3235
_exptl_crystal_size_mid          0.22
_exptl_crystal_size_min          0.1165
_refine_diff_density_max         2.129
_refine_diff_density_min         -2.040
_refine_ls_extinction_method     none
_refine_ls_goodness_of_fit_ref   1.184
_refine_ls_hydrogen_treatment    refall
_refine_ls_matrix_type           full
_refine_ls_number_parameters     164
_refine_ls_number_reflns         2986
_refine_ls_number_restraints     22
_refine_ls_restrained_S_all      1.179
_refine_ls_R_factor_all          0.0370
_refine_ls_R_factor_gt           0.0353
_refine_ls_shift/su_max          0.000
_refine_ls_shift/su_mean         0.000
_refine_ls_structure_factor_coef Fsqd
_refine_ls_weighting_details
;
 w=1/[\s^2^(Fo^2^)+(0.0545P)^2^+3.5145P]
 where P=(Fo^2^+2Fc^2^)/3
;
_refine_ls_weighting_scheme      calc
_refine_ls_wR_factor_gt          0.0945
_refine_ls_wR_factor_ref         0.0960
_reflns_number_gt                2846
_reflns_number_total             2994
_reflns_threshold_expression     I>2\s(I)
_cod_data_source_file            qs3039sup1.cif
_cod_data_source_block           CaI2_8H2O_100K
_cod_database_code               2311810
_shelx_space_group_comment
;
The symmetry employed for this shelxl refinement is uniquely defined
by the following loop, which should always be used as a source of
symmetry information in preference to the above space-group names.
They are only intended as comments.
;
_shelx_hkl_file
;
   1   0   0  204.81    3.92   0
   2   0   0  151.08    3.43   0
   3   0   0  924.25    6.02   0
   4   0   0   25.87    2.40   0
   5   0   0   12.31    2.39   0
   6   0   0 1275.35    5.77   0
   7   0   0 1152.15    5.47   0
   8   0   0  342.28    3.46   0
   9   0   0  326.50    3.70   0
  -9   1   0  518.57    4.17   0
  -8   1   0  775.39    4.60   0
  -7   1   0  382.20    3.72   0
  -6   1   0  322.64    3.46   0
  -5   1   0  224.07    3.03   0
  -4   1   0   17.62    2.33   0
  -3   1   0  244.58    4.39   0
  -2   1   0 4429.99   14.15   0
  -1   1   0 4555.26   17.83   0
   1   1   0  307.43    6.10   0
   2   1   0 5127.54   14.73   0
   3   1   0    6.18    2.07   0
   4   1   0  170.18    2.92   0
   5   1   0  129.81    2.77   0
   6   1   0 1278.20    5.81   0
   7   1   0   52.46    2.44   0
   8   1   0  965.41    5.29   0
   9   1   0  519.78    4.35   0
  -9   2   0  453.86    3.99   0
  -8   2   0   77.28    2.57   0
  -7   2   0  972.43    4.95   0
  -6   2   0  652.57    4.31   0
  -5   2   0  100.51    2.75   0
  -4   2   0   12.34    2.66   0
  -3   2   0 2168.75    8.39   0
  -2   2   0  583.11    6.00   0
  -1   2   0  217.59    4.63   0
   0   2   0 5592.84   19.80   0
   1   2   0 4812.95   19.34   0
   2   2   0  580.15    5.62   0
   3   2   0  182.34    2.93   0
   4   2   0   11.67    1.80   0
   5   2   0  243.10    2.66   0
   6   2   0  417.58    3.55   0
   7   2   0 1449.57    5.88   0
   8   2   0 1034.77    5.24   0
   9   2   0   39.67    2.52   0
  10   2   0  348.88    3.79   0
  -8   3   0  661.20    4.38   0
  -7   3   0  372.52    3.49   0
  -6   3   0   87.87    2.67   0
  -5   3   0  147.68    2.73   0
  -4   3   0  181.44    3.23   0
  -3   3   0   79.59    3.40   0
  -2   3   0   19.47    3.49   0
  -1   3   0 4435.87   13.43   0
   0   3   0 3875.20   14.22   0
   1   3   0   50.32    4.41   0
   2   3   0 1714.33   10.00   0
   3   3   0  405.71    4.39   0
   4   3   0  139.30    2.52   0
   5   3   0  271.46    2.88   0
   6   3   0 1304.68    5.14   0
   7   3   0  852.34    4.27   0
   8   3   0  318.11    2.87   0
   9   3   0  799.39    4.25   0
  -8   4   0  415.40    3.97   0
  -7   4   0   99.71    2.67   0
  -6   4   0  232.49    2.97   0
  -5   4   0  227.73    3.48   0
  -4   4   0   49.05    2.97   0
  -3   4   0  119.93    3.19   0
  -2   4   0 4247.77   11.23   0
  -1   4   0   15.69    3.41   0
   0   4   0  553.00    6.11   0
   1   4   0 4446.66   14.10   0
   2   4   0  530.85    5.82   0
   3   4   0    1.57    2.92   0
   4   4   0  119.61    2.94   0
   5   4   0  302.92    3.55   0
   6   4   0  110.77    2.84   0
   7   4   0  895.55    5.04   0
   8   4   0  701.23    4.65   0
   9   4   0  423.48    4.84   0
  10   4   0  103.58    3.62   0
  -7   5   0  398.56    3.69   0
  -6   5   0  385.52    3.66   0
  -5   5   0  145.49    3.03   0
  -4   5   0  238.22    3.46   0
  -3   5   0  329.24    3.91   0
  -2   5   0   21.97    3.13   0
  -1   5   0 1496.07    7.22   0
   0   5   0 4014.00   11.75   0
   1   5   0   65.74    3.46   0
   2   5   0   76.50    3.74   0
   3   5   0  164.02    3.85   0
   4   5   0  171.02    3.37   0
   5   5   0   16.13    2.31   0
   6   5   0 1299.96    6.53   0
   7   5   0  872.63    5.34   0
   8   5   0   91.75    2.58   0
   9   5   0  359.08    3.98   0
  10   5   0   53.04    3.21   0
  -6   6   0  121.66    3.04   0
  -5   6   0    3.51    2.72   0
  -4   6   0   61.93    2.87   0
  -3   6   0   94.34    3.15   0
  -2   6   0 1706.99    7.06   0
  -1   6   0  948.33    5.90   0
   0   6   0    6.68    3.00   0
   1   6   0  811.66    5.85   0
   2   6   0 1288.91    7.12   0
   3   6   0   17.04    3.21   0
   4   6   0   60.53    2.90   0
   5   6   0  368.41    3.94   0
   6   6   0  555.38    4.71   0
   7   6   0   35.19    2.49   0
   8   6   0  786.67    5.50   0
   9   6   0  259.99    3.86   0
  -6   7   0   64.28    3.16   0
  -5   7   0  109.81    3.12   0
  -4   7   0   20.60    2.72   0
  -3   7   0  673.72    4.63   0
  -2   7   0  273.64    3.80   0
  -1   7   0  127.35    3.42   0
   0   7   0 1795.02    7.37   0
   1   7   0 1006.42    5.98   0
   2   7   0   28.28    3.36   0
   3   7   0    9.09    2.91   0
   4   7   0   49.49    3.27   0
   5   7   0  253.52    3.81   0
   6   7   0  568.27    4.85   0
   7   7   0  667.65    5.29   0
   8   7   0  468.50    4.74   0
   9   7   0   17.43    2.61   0
  -5   8   0    7.63    2.75   0
  -4   8   0   75.71    3.07   0
  -3   8   0   30.43    2.86   0
  -2   8   0  189.41    3.48   0
  -1   8   0 1882.61    7.30   0
   0   8   0  279.98    3.75   0
   1   8   0  127.15    3.59   0
   2   8   0  441.56    4.60   0
   3   8   0   46.31    3.04   0
   4   8   0   26.59    2.92   0
   5   8   0  432.01    4.39   0
   6   8   0  542.84    4.82   0
   7   8   0  289.51    3.98   0
   8   8   0  541.53    5.42   0
   9   8   0  129.48    3.86   0
  -3   9   0  390.48    3.81   0
  -2   9   0  732.76    4.74   0
  -1   9   0   16.30    2.64   0
   0   9   0  233.37    3.47   0
   1   9   0  791.98    5.14   0
   2   9   0   44.23    3.06   0
   3   9   0   15.45    3.14   0
   4   9   0  114.13    3.37   0
   5   9   0  324.89    4.27   0
   6   9   0    2.53    2.40   0
   7   9   0  583.25    5.37   0
   8   9   0  238.18    4.11   0
  -2  10   0   36.70    2.87   0
  -1  10   0  485.31    4.18   0
   0  10   0  866.54    5.12   0
   1  10   0    4.45    2.64   0
   2  10   0   37.09    2.81   0
   3  10   0   33.90    2.93   0
   4  10   0  103.11    3.13   0
   5  10   0  127.79    3.10   0
   6  10   0  455.81    4.54   0
   7  10   0  273.17    4.22   0
   0  11   0   26.44    2.76   0
   1  11   0  148.56    3.44   0
   2  11   0  185.40    3.39   0
   3  11   0   11.45    2.96   0
   4  11   0  161.94    3.51   0
   5  11   0  100.70    3.42   0
   6  11   0  281.55    4.02   0
  -6 -11   1    3.50    2.93   0
  -5 -11   1    3.54    3.09   0
  -4 -11   1  417.46    4.97   0
  -3 -11   1  239.64    3.86   0
  -2 -11   1   48.02    2.88   0
  -1 -11   1  314.84    3.80   0
   0 -11   1  185.94    3.44   0
  -7 -10   1    1.57    2.94   0
  -6 -10   1   11.09    2.69   0
  -5 -10   1  154.98    3.94   0
  -4 -10   1  202.91    3.64   0
  -3 -10   1    6.04    3.03   0
  -2 -10   1 1011.75    5.97   0
  -1 -10   1  311.82    3.79   0
   0 -10   1  110.04    3.25   0
   1 -10   1   74.72    3.16   0
   2 -10   1   22.10    2.95   0
  -8  -9   1    3.13    3.34   0
  -7  -9   1    7.98    2.73   0
  -6  -9   1    9.69    2.47   0
  -5  -9   1   68.88    3.23   0
  -4  -9   1  282.26    4.28   0
  -3  -9   1  949.39    6.38   0
  -2  -9   1  496.73    4.82   0
  -1  -9   1    4.62    2.78   0
   0  -9   1  767.60    5.18   0
   1  -9   1   11.19    2.86   0
   2  -9   1   65.43    3.21   0
   3  -9   1   33.20    2.92   0
  -9  -8   1   35.28    2.64   0
  -8  -8   1  175.53    3.99   0
  -7  -8   1   33.99    2.88   0
  -6  -8   1   37.81    2.76   0
  -5  -8   1  529.81    5.48   0
  -4  -8   1  626.73    5.69   0
  -3  -8   1  351.98    4.49   0
  -2  -8   1  953.18    6.20   0
  -1  -8   1  786.33    5.47   0
   0  -8   1  279.16    3.84   0
   1  -8   1   38.19    3.33   0
   2  -8   1   59.31    2.90   0
   3  -8   1  229.98    3.39   0
   4  -8   1   65.22    3.04   0
   5  -8   1   90.43    3.05   0
  -9  -7   1  430.08    5.76   0
  -8  -7   1   37.98    2.88   0
  -7  -7   1   14.59    2.69   0
  -6  -7   1   51.41    2.72   0
  -5  -7   1  123.53    3.04   0
  -4  -7   1   24.79    2.95   0
  -3  -7   1 1870.38    8.88   0
  -2  -7   1 1217.34    7.17   0
  -1  -7   1  238.53    4.04   0
   0  -7   1  408.04    4.65   0
   1  -7   1   29.64    3.04   0
   2  -7   1   26.68    3.14   0
   3  -7   1   16.82    2.66   0
   4  -7   1  558.21    4.17   0
   5  -7   1  693.07    4.42   0
   6  -7   1   14.17    2.79   0
  -9  -6   1    3.88    2.55   0
  -8  -6   1   34.88    2.67   0
  -7  -6   1   56.88    2.89   0
  -6  -6   1   48.13    2.81   0
  -5  -6   1  149.61    3.44   0
  -4  -6   1 2171.78   10.53   0
  -3  -6   1  643.96    5.89   0
  -2  -6   1  100.72    4.10   0
  -1  -6   1 1383.81    7.65   0
   0  -6   1  764.26    5.60   0
   1  -6   1  104.52    3.50   0
   2  -6   1    9.04    3.05   0
   3  -6   1  658.80    4.47   0
   4  -6   1  301.22    3.60   0
   5  -6   1  144.28    3.04   0
   6  -6   1  562.15    4.23   0
 -10  -5   1   50.62    4.20   0
  -9  -5   1  295.00    3.89   0
  -8  -5   1  396.93    4.18   0
  -7  -5   1   90.26    2.88   0
  -6  -5   1  220.81    3.56   0
  -5  -5   1  251.24    3.66   0
  -4  -5   1  853.99    5.84   0
  -3  -5   1  452.80    5.63   0
  -2  -5   1 4486.46   14.69   0
  -1  -5   1  566.63    5.89   0
   0  -5   1   30.09    3.54   0
   1  -5   1  235.58    3.93   0
   2  -5   1  615.09    4.63   0
   3  -5   1    7.39    2.83   0
   4  -5   1  494.89    4.08   0
   5  -5   1  961.55    4.94   0
   6  -5   1  410.70    3.79   0
   7  -5   1   62.66    2.72   0
 -10  -4   1  619.28    5.88   0
  -9  -4   1  200.25    4.08   0
  -8  -4   1   11.94    2.25   0
  -7  -4   1   13.86    2.09   0
  -6  -4   1    7.06    2.20   0
  -5  -4   1  329.47    3.81   0
  -4  -4   1 3310.06   11.24   0
  -3  -4   1 2690.32   13.30   0
  -2  -4   1 1734.05   10.96   0
  -1  -4   1 1226.38    8.95   0
   0  -4   1  413.79    6.08   0
   1  -4   1   91.18    3.56   0
   2  -4   1  306.95    4.12   0
   3  -4   1  259.72    3.57   0
   4  -4   1 2171.28    7.21   0
   5  -4   1   26.15    2.51   0
   6  -4   1  411.67    3.58   0
   7  -4   1  675.77    4.34   0
   8  -4   1  136.57    2.98   0
 -10  -3   1   12.51    3.06   0
  -9  -3   1  175.70    4.00   0
  -8  -3   1  448.40    3.91   0
  -7  -3   1    7.57    1.97   0
  -6  -3   1    1.33    1.89   0
  -5  -3   1 1679.54    6.89   0
  -4  -3   1 1530.27    7.58   0
  -3  -3   1   22.20    2.64   0
  -2  -3   1 2555.40   15.11   0
  -1  -3   1  655.02    8.04   0
   0  -3   1 1058.40    7.98   0
   1  -3   1  263.96    5.47   0
   2  -3   1  516.68    4.88   0
   3  -3   1  823.30    5.24   0
   4  -3   1  182.07    3.26   0
   5  -3   1  757.93    4.60   0
   6  -3   1 1578.34    6.09   0
   7  -3   1   20.54    2.26   0
   8  -3   1    8.74    2.41   0
 -10  -2   1  255.40    3.16   0
  -9  -2   1  910.72    4.37   0
  -8  -2   1    3.74    1.87   0
  -7  -2   1   76.49    2.37   0
  -6  -2   1  290.52    3.04   0
  -5  -2   1  156.18    2.59   0
  -4  -2   1   89.25    2.32   0
  -3  -2   1 4682.04   12.09   0
  -2  -2   1 9186.69   17.41   0
  -1  -2   1   53.85    5.50   0
   0  -2   1 1655.80   11.26   0
   1  -2   1   42.81    3.42   0
   2  -2   1  101.99    3.45   0
   3  -2   1  718.50    5.32   0
   4  -2   1 2783.67    8.53   0
   5  -2   1 1735.55    6.46   0
   6  -2   1  239.08    3.21   0
   7  -2   1  350.50    3.58   0
   8  -2   1  394.97    3.84   0
   9  -2   1    3.74    2.57   0
  -9  -1   1  101.55    2.63   0
  -8  -1   1    3.51    2.12   0
  -7  -1   1  155.29    2.71   0
  -6  -1   1  211.84    3.18   0
  -5  -1   1  597.34    3.92   0
  -4  -1   1 3600.71    9.25   0
  -3  -1   1 1440.08    6.79   0
  -2  -1   1  480.90    5.19   0
  -1  -1   1 5157.98   16.13   0
   0  -1   1   23.58    2.82   0
   1  -1   1   49.03    3.82   0
   2  -1   1  261.30    4.25   0
   3  -1   1 2460.58    8.82   0
   4  -1   1  544.16    4.27   0
   5  -1   1  696.12    4.49   0
   6  -1   1 1420.65    5.95   0
   7  -1   1  679.81    4.44   0
   8  -1   1   38.06    2.35   0
   9  -1   1   70.37    2.64   0
  -9   0   1  440.52    3.99   0
  -8   0   1  277.43    3.29   0
  -7   0   1   61.40    2.51   0
  -6   0   1  818.66    4.99   0
  -5   0   1 1095.64    5.62   0
  -4   0   1  705.29    4.90   0
  -3   0   1 6177.16   14.54   0
  -2   0   1 5453.02   14.00   0
  -1   0   1  865.36    7.42   0
   1   0   1  162.78    3.58   0
   2   0   1 2547.50   10.26   0
   3   0   1  885.48    5.67   0
   4   0   1 1881.87    7.18   0
   5   0   1 3602.66    9.35   0
   6   0   1  129.33    2.97   0
   7   0   1  169.02    2.87   0
   8   0   1  146.93    2.95   0
   9   0   1   31.00    2.43   0
  -9   1   1    9.46    2.33   0
  -8   1   1   13.10    2.30   0
  -7   1   1   45.06    2.42   0
  -6   1   1  208.51    3.04   0
  -5   1   1  100.45    2.59   0
  -4   1   1 2427.42    8.28   0
  -3   1   1 2075.01    8.31   0
  -2   1   1  975.81    6.55   0
  -1   1   1 1234.87   10.11   0
   0   1   1  403.23    6.13   0
   2   1   1  301.69    4.30   0
   3   1   1  919.52    5.78   0
   4   1   1 5747.68   12.38   0
   5   1   1   62.21    2.26   0
   6   1   1  816.00    4.75   0
   7   1   1 1183.20    5.63   0
   8   1   1   15.37    2.30   0
   9   1   1   12.99    2.33   0
  10   1   1  135.41    2.94   0
  -9   2   1   49.29    2.74   0
  -8   2   1  107.23    2.78   0
  -7   2   1    8.64    2.35   0
  -6   2   1  244.69    3.35   0
  -5   2   1 1503.48    6.06   0
  -4   2   1 1201.09    5.69   0
  -3   2   1  170.75    3.89   0
  -2   2   1 3515.24   12.26   0
  -1   2   1 1874.17   10.04   0
   0   2   1  215.69    5.19   0
   1   2   1    5.68    2.99   0
   2   2   1 1736.73    8.43   0
   3   2   1  839.90    5.65   0
   4   2   1 1596.19    6.70   0
   5   2   1 1808.45    6.56   0
   6   2   1 2449.25    7.38   0
   7   2   1   58.87    2.25   0
   8   2   1   51.44    2.45   0
   9   2   1    8.50    2.01   0
  10   2   1   35.79    2.59   0
  -8   3   1    1.54    2.37   0
  -7   3   1   66.12    2.52   0
  -6   3   1  202.24    2.98   0
  -5   3   1  218.05    3.03   0
  -4   3   1  275.33    3.77   0
  -3   3   1 4025.73   11.03   0
  -2   3   1 1063.01    6.82   0
  -1   3   1  -13.37    4.63   0
   0   3   1 1014.01    7.56   0
   1   3   1 1470.32    8.39   0
   2   3   1   -1.79    2.67   0
   3   3   1  772.84    5.54   0
   4   3   1 5264.14   12.41   0
   5   3   1 1050.70    5.51   0
   6   3   1  574.62    4.07   0
   7   3   1  343.38    3.36   0
   8   3   1  108.33    2.72   0
   9   3   1   13.27    2.42   0
  10   3   1  385.97    4.60   0
  -8   4   1    5.99    2.47   0
  -7   4   1    5.06    2.30   0
  -6   4   1   12.24    2.35   0
  -5   4   1 1428.25    5.74   0
  -4   4   1 1672.72    6.93   0
  -3   4   1  178.32    3.47   0
  -2   4   1  692.08    5.50   0
  -1   4   1 1510.08    7.79   0
   0   4   1    5.24    4.11   0
   1   4   1  642.18    6.35   0
   2   4   1  139.73    3.67   0
   3   4   1 3482.43   10.68   0
   4   4   1   56.79    2.54   0
   5   4   1  952.51    5.26   0
   6   4   1 1730.94    6.57   0
   7   4   1   57.10    2.31   0
   8   4   1    1.89    2.08   0
  -7   5   1    7.62    2.61   0
  -6   5   1  515.53    3.92   0
  -5   5   1  381.93    3.86   0
  -4   5   1   25.19    2.91   0
  -3   5   1 1659.92    6.95   0
  -2   5   1 1098.25    6.22   0
  -1   5   1  230.30    4.11   0
   0   5   1   19.07    3.21   0
   1   5   1  166.70    3.77   0
   2   5   1 1346.10    7.41   0
   3   5   1  522.41    4.85   0
   4   5   1 1881.40    7.69   0
   5   5   1 1876.62    7.45   0
   6   5   1   21.88    2.20   0
   7   5   1   84.96    2.41   0
   8   5   1   99.57    2.46   0
   9   5   1   17.38    2.25   0
  10   5   1   21.91    2.92   0
  -6   6   1   -2.62    2.42   0
  -5   6   1  129.15    3.16   0
  -4   6   1 1357.75    5.97   0
  -3   6   1  665.14    4.83   0
  -2   6   1   98.44    3.69   0
  -1   6   1 1039.58    6.11   0
   0   6   1   12.72    2.88   0
   1   6   1   15.58    3.08   0
   2   6   1  298.35    4.29   0
   3   6   1 1079.59    6.37   0
   4   6   1 1634.72    7.48   0
   5   6   1  213.99    3.38   0
   6   6   1  985.56    5.65   0
   7   6   1  337.67    3.56   0
   8   6   1   35.98    2.26   0
   9   6   1   18.78    2.28   0
  10   6   1  254.57    4.50   0
  -6   7   1  132.18    3.12   0
  -5   7   1  775.97    4.93   0
  -4   7   1  233.38    3.62   0
  -3   7   1  122.05    3.24   0
  -2   7   1 1282.91    6.12   0
  -1   7   1   21.23    3.19   0
   0   7   1  227.30    3.84   0
   1   7   1    9.43    2.88   0
   2   7   1 1469.81    7.07   0
   3   7   1  105.69    3.41   0
   4   7   1  814.24    5.56   0
   5   7   1 1498.06    6.94   0
   6   7   1  381.40    3.75   0
   7   7   1   79.22    2.62   0
   8   7   1   21.59    2.43   0
   9   7   1    7.49    2.37   0
  -5   8   1   14.40    2.91   0
  -4   8   1  555.92    4.30   0
  -3   8   1  751.58    4.72   0
  -2   8   1  214.01    3.69   0
  -1   8   1   26.97    2.89   0
   0   8   1  108.46    3.08   0
   1   8   1  324.06    3.95   0
   2   8   1   95.36    3.81   0
   3   8   1  686.16    5.10   0
   4   8   1 1727.83    7.49   0
   5   8   1   10.31    2.71   0
   6   8   1  194.02    3.29   0
   7   8   1  128.46    3.13   0
   8   8   1   20.09    2.70   0
   9   8   1   11.69    2.79   0
  -3   9   1   71.10    3.04   0
  -2   9   1  324.79    3.75   0
  -1   9   1  104.95    3.03   0
   0   9   1   28.23    2.77   0
   1   9   1  139.43    3.21   0
   2   9   1  522.69    4.69   0
   3   9   1  512.75    4.65   0
   4   9   1   18.61    2.65   0
   5   9   1  489.38    4.78   0
   6   9   1  669.16    5.12   0
   7   9   1   12.40    2.56   0
   8   9   1    8.33    2.57   0
  -2  10   1   98.37    3.04   0
  -1  10   1   53.41    3.02   0
   0  10   1    1.96    2.76   0
   1  10   1   90.74    2.99   0
   2  10   1  154.87    3.54   0
   3  10   1  243.09    3.61   0
   4  10   1  781.63    5.35   0
   5  10   1  498.96    4.76   0
   6  10   1   42.22    2.79   0
   7  10   1   47.09    2.82   0
   0  11   1   21.61    2.96   0
   1  11   1   21.69    3.02   0
   2  11   1  173.27    3.35   0
   3  11   1  588.17    4.74   0
   4  11   1  224.67    3.75   0
   5  11   1  269.65    4.01   0
   6  11   1  131.33    3.67   0
  -5 -11   2  481.86    5.71   0
  -4 -11   2   -1.67    3.03   0
  -3 -11   2   65.72    3.11   0
  -2 -11   2   98.04    3.23   0
  -1 -11   2   10.04    2.70   0
   0 -11   2    1.29    3.02   0
  -7 -10   2  208.31    3.22   0
  -6 -10   2  384.13    4.60   0
  -5 -10   2  160.15    4.28   0
  -4 -10   2  383.29    4.99   0
  -3 -10   2  373.84    4.54   0
  -2 -10   2    3.26    2.80   0
  -1 -10   2    5.55    2.63   0
   0 -10   2  363.88    3.94   0
   1 -10   2   13.37    2.72   0
   2 -10   2  116.53    3.36   0
  -8  -9   2  121.27    2.67   0
  -7  -9   2   16.47    2.21   0
  -6  -9   2  237.05    4.06   0
  -5  -9   2  904.06    7.75   0
  -4  -9   2  541.72    5.72   0
  -3  -9   2  265.51    4.41   0
  -2  -9   2   -2.45    2.66   0
  -1  -9   2   -4.22    3.04   0
   0  -9   2    0.31    2.77   0
   1  -9   2  253.74    3.56   0
   2  -9   2  926.49    5.24   0
   3  -9   2   41.33    2.94   0
  -8  -8   2   15.67    2.16   0
  -7  -8   2  265.67    3.15   0
  -6  -8   2 1217.99    7.80   0
  -5  -8   2    7.18    2.45   0
  -4  -8   2  327.79    4.96   0
  -3  -8   2  189.21    4.20   0
  -2  -8   2  197.85    3.84   0
  -1  -8   2   -5.46    3.20   0
   0  -8   2  609.75    4.92   0
   1  -8   2  312.78    3.76   0
   2  -8   2   22.48    2.78   0
   3  -8   2  509.92    4.06   0
   4  -8   2  653.41    4.44   0
   5  -8   2   32.43    2.83   0
  -9  -7   2   10.80    2.12   0
  -8  -7   2  124.06    2.51   0
  -7  -7   2  378.92    3.31   0
  -6  -7   2   63.16    3.12   0
  -5  -7   2  648.55    5.27   0
  -4  -7   2 1264.65    8.77   0
  -3  -7   2   38.69    3.58   0
  -2  -7   2  131.40    4.01   0
  -1  -7   2  118.96    3.91   0
   0  -7   2  187.49    3.86   0
   1  -7   2   64.95    3.26   0
   2  -7   2 1818.16    6.92   0
   3  -7   2  402.77    3.76   0
   4  -7   2   34.40    2.62   0
   5  -7   2  123.49    3.21   0
   6  -7   2   22.13    2.70   0
  -9  -6   2   35.67    2.08   0
  -8  -6   2   59.19    2.18   0
  -7  -6   2  254.40    4.43   0
  -6  -6   2  916.96    7.06   0
  -5  -6   2 1372.58    7.99   0
  -4  -6   2   44.65    3.98   0
  -3  -6   2  703.04    6.82   0
  -2  -6   2    9.14    3.31   0
  -1  -6   2   37.37    3.24   0
   0  -6   2  280.31    4.24   0
   1  -6   2 2023.34    7.63   0
   2  -6   2  332.31    3.68   0
   3  -6   2   34.49    2.83   0
   4  -6   2 1186.45    5.30   0
   5  -6   2  112.48    2.81   0
   6  -6   2   53.55    2.84   0
  -9  -5   2   -2.90    2.59   0
  -8  -5   2   92.16    3.05   0
  -7  -5   2  962.63    6.70   0
  -6  -5   2  517.25    5.34   0
  -5  -5   2 1464.77    8.25   0
  -4  -5   2  722.78    5.81   0
  -3  -5   2  310.62    5.80   0
  -2  -5   2   53.61    4.10   0
  -1  -5   2  297.18    5.24   0
   0  -5   2 1351.52    7.42   0
   1  -5   2    1.51    2.74   0
   2  -5   2  654.92    4.81   0
   3  -5   2 2077.41    7.05   0
   4  -5   2   82.46    2.80   0
   5  -5   2   27.46    2.70   0
   6  -5   2   43.19    2.75   0
   7  -5   2   70.62    2.72   0
  -9  -4   2   34.96    2.53   0
  -8  -4   2  549.18    4.87   0
  -7  -4   2   51.69    2.61   0
  -6  -4   2 1037.65    6.41   0
  -5  -4   2 1649.21    8.44   0
  -4  -4   2  891.16    7.07   0
  -3  -4   2  519.51    8.62   0
  -2  -4   2   78.79    4.93   0
  -1  -4   2   70.48    4.25   0
   0  -4   2   15.20    3.59   0
   1  -4   2 3179.54   10.17   0
   2  -4   2 2370.59    8.01   0
   3  -4   2  107.36    2.95   0
   4  -4   2  497.91    4.08   0
   5  -4   2  575.74    4.15   0
   6  -4   2    3.91    2.65   0
   7  -4   2  136.16    2.90   0
   8  -4   2  157.02    3.09   0
  -9  -3   2   63.12    3.44   0
  -8  -3   2  125.81    2.93   0
  -7  -3   2  855.11    4.58   0
  -6  -3   2 1249.08    6.11   0
  -5  -3   2    6.57    2.13   0
  -4  -3   2  931.93    6.85   0
  -3  -3   2  365.17    5.33   0
  -2  -3   2   52.79    6.01   0
  -1  -3   2   22.31    4.53   0
   0  -3   2 3818.06   13.68   0
   1  -3   2  655.97    5.75   0
   2  -3   2   20.04    2.87   0
   3  -3   2 2662.40    8.34   0
   4  -3   2  866.66    5.12   0
   5  -3   2   55.06    2.75   0
   6  -3   2    9.23    2.42   0
   7  -3   2   67.13    2.49   0
   8  -3   2  201.64    3.11   0
  -9  -2   2  140.55    2.86   0
  -8  -2   2  410.61    3.60   0
  -7  -2   2  697.80    4.38   0
  -6  -2   2  370.02    3.49   0
  -5  -2   2 2543.42    8.18   0
  -4  -2   2 1971.81    7.86   0
  -3  -2   2    1.01    2.54   0
  -2  -2   2  194.85    3.02   0
  -1  -2   2 1766.25   14.68   0
   0  -2   2  159.22    4.27   0
   1  -2   2 1457.67    7.80   0
   2  -2   2 8475.76   15.73   0
   3  -2   2  631.51    4.67   0
   4  -2   2   10.71    2.49   0
   5  -2   2  594.01    4.46   0
   6  -2   2   12.81    2.36   0
   7  -2   2    5.72    2.28   0
   8  -2   2  662.83    4.50   0
   9  -2   2  304.31    3.59   0
  -9  -1   2  147.73    2.70   0
  -8  -1   2   86.46    2.37   0
  -7  -1   2 1260.66    5.52   0
  -6  -1   2 1398.90    5.78   0
  -5  -1   2 1156.47    5.16   0
  -4  -1   2  946.31    4.94   0
  -3  -1   2    9.51    2.15   0
  -2  -1   2   14.86    2.55   0
  -1  -1   2    8.99    2.96   0
   0  -1   2 2460.01   12.81   0
   1  -1   2 4681.56   13.84   0
   2  -1   2  930.78    5.95   0
   3  -1   2  487.34    4.41   0
   4  -1   2 2380.99    7.83   0
   5  -1   2    2.66    1.99   0
   6  -1   2  159.58    2.87   0
   7  -1   2  192.79    3.11   0
   8  -1   2  364.67    3.74   0
   9  -1   2   63.53    2.61   0
  -9   0   2   79.60    2.78   0
  -8   0   2  558.57    4.18   0
  -7   0   2 1416.74    6.24   0
  -6   0   2   64.63    2.30   0
  -5   0   2 2245.96    7.78   0
  -4   0   2  631.53    4.40   0
  -3   0   2 1053.75    5.60   0
  -2   0   2  222.30    3.32   0
  -1   0   2 3143.67   12.39   0
   0   0   2 1378.01   10.43   0
   1   0   2   40.24    3.61   0
   2   0   2 8259.90   16.44   0
   3   0   2 2147.97    8.27   0
   4   0   2  149.77    2.90   0
   5   0   2   15.60    2.20   0
   6   0   2   78.95    2.50   0
   7   0   2  157.55    2.82   0
   8   0   2  107.33    2.66   0
   9   0   2  527.54    4.34   0
  -9   1   2  111.26    2.84   0
  -8   1   2  328.27    3.51   0
  -7   1   2  208.98    2.99   0
  -6   1   2  858.01    5.02   0
  -5   1   2 1747.99    6.92   0
  -4   1   2  228.15    3.29   0
  -3   1   2  439.11    4.48   0
  -2   1   2  359.27    4.52   0
  -1   1   2  286.13    4.58   0
   0   1   2   93.52    3.51   0
   2   1   2 4360.05   14.10   0
   3   1   2  164.74    3.23   0
   4   1   2 1346.85    6.21   0
   5   1   2  551.47    3.99   0
   6   1   2  150.58    2.89   0
   7   1   2  312.43    3.40   0
   8   1   2  996.56    5.24   0
   9   1   2  547.15    4.14   0
  10   1   2  155.42    3.03   0
  -8   2   2  375.79    3.60   0
  -7   2   2  893.05    4.78   0
  -6   2   2 1273.29    5.75   0
  -5   2   2  397.68    3.75   0
  -4   2   2  810.88    4.95   0
  -3   2   2  187.11    3.38   0
  -2   2   2   19.24    4.25   0
  -1   2   2  825.98    7.11   0
   0   2   2 3548.86   12.63   0
   1   2   2  363.77    4.35   0
   2   2   2  568.24    5.41   0
   3   2   2 6414.84   13.69   0
   4   2   2  739.68    4.97   0
   5   2   2  127.72    2.56   0
   6   2   2  274.94    3.12   0
   7   2   2  149.27    2.67   0
   8   2   2  148.15    2.70   0
   9   2   2  617.45    4.54   0
  10   2   2  424.10    3.99   0
  -8   3   2  367.46    3.67   0
  -7   3   2  340.01    3.43   0
  -6   3   2  889.69    4.79   0
  -5   3   2  749.18    4.59   0
  -4   3   2  711.94    4.62   0
  -3   3   2   86.84    3.53   0
  -2   3   2  388.46    4.94   0
  -1   3   2  969.40    7.13   0
   0   3   2  563.59    5.85   0
   1   3   2 3607.69   11.25   0
   2   3   2 8139.32   15.74   0
   3   3   2   13.47    2.46   0
   4   3   2   30.52    2.36   0
   5   3   2  154.53    2.59   0
   6   3   2   85.97    2.37   0
   7   3   2   40.42    2.27   0
   8   3   2 1021.99    5.11   0
   9   3   2  672.52    4.40   0
  10   3   2  172.46    3.36   0
  -7   4   2  809.75    4.77   0
  -6   4   2  675.02    4.33   0
  -5   4   2  228.44    3.12   0
  -4   4   2  357.22    4.10   0
  -3   4   2   30.34    3.17   0
  -2   4   2   -0.49    3.04   0
  -1   4   2   51.76    3.36   0
   0   4   2 3143.40   10.36   0
   1   4   2 1144.46    6.83   0
   2   4   2   54.28    3.09   0
   3   4   2  867.93    5.24   0
   4   4   2 2250.34    7.89   0
   5   4   2   10.62    2.05   0
   6   4   2   90.90    2.61   0
   7   4   2  122.73    2.49   0
   8   4   2  959.47    5.30   0
   9   4   2   32.35    2.55   0
  10   4   2  576.33    5.07   0
  -7   5   2  634.67    4.39   0
  -6   5   2    1.93    2.26   0
  -5   5   2  602.33    4.10   0
  -4   5   2  281.87    3.84   0
  -3   5   2   21.65    3.24   0
  -2   5   2  117.84    3.44   0
  -1   5   2 1321.66    6.50   0
   0   5   2  708.58    5.27   0
   1   5   2  170.01    3.59   0
   2   5   2 2911.07    9.47   0
   3   5   2 2048.19    7.82   0
   4   5   2    8.04    2.21   0
   5   5   2    5.28    1.93   0
   6   5   2   77.57    2.38   0
   7   5   2  235.48    3.07   0
   8   5   2  446.87    3.90   0
   9   5   2  695.43    5.00   0
  10   5   2  519.00    4.46   0
  -6   6   2  464.89    3.90   0
  -5   6   2  509.66    4.28   0
  -4   6   2    4.95    2.71   0
  -3   6   2   33.57    3.06   0
  -2   6   2  118.13    3.54   0
  -1   6   2   -2.82    2.98   0
   0   6   2  208.13    3.60   0
   1   6   2 3781.68   10.31   0
   2   6   2  620.53    4.86   0
   3   6   2  317.53    3.85   0
   4   6   2  496.08    4.08   0
   5   6   2   26.16    2.21   0
   6   6   2   69.73    2.44   0
   7   6   2  551.69    4.44   0
   8   6   2  421.31    3.74   0
   9   6   2  147.60    3.01   0
  -5   7   2  153.33    3.39   0
  -4   7   2   77.02    3.06   0
  -3   7   2   23.66    3.30   0
  -2   7   2   -2.73    2.75   0
  -1   7   2  740.58    4.99   0
   0   7   2 1969.75    7.34   0
   1   7   2   15.55    3.06   0
   2   7   2  251.46    3.91   0
   3   7   2 1970.67    7.90   0
   4   7   2    8.80    2.72   0
   5   7   2   81.58    2.80   0
   6   7   2   99.39    2.63   0
   7   7   2  190.49    3.02   0
   8   7   2   15.27    2.06   0
   9   7   2  385.80    4.15   0
  -5   8   2  251.26    3.87   0
  -4   8   2   71.45    3.00   0
  -3   8   2   13.09    2.83   0
  -2   8   2  296.57    3.70   0
  -1   8   2  141.50    3.27   0
   0   8   2    6.96    2.56   0
   1   8   2 1182.24    5.94   0
   2   8   2 1306.49    6.53   0
   3   8   2    5.03    3.00   0
   4   8   2    6.49    2.77   0
   5   8   2  138.37    3.28   0
   6   8   2  245.58    3.50   0
   7   8   2  101.32    2.78   0
   8   8   2  388.54    4.18   0
   9   8   2  334.24    4.32   0
  -3   9   2    8.95    2.73   0
  -2   9   2    3.05    3.06   0
  -1   9   2  116.60    3.12   0
   0   9   2 1028.03    5.33   0
   1   9   2  453.20    3.98   0
   2   9   2    3.28    2.55   0
   3   9   2  562.84    4.71   0
   4   9   2  299.23    3.86   0
   5   9   2   21.32    2.56   0
   6   9   2  124.21    3.33   0
   7   9   2  253.65    3.59   0
   8   9   2  245.87    3.93   0
  -2  10   2   12.81    2.61   0
  -1  10   2  611.38    4.53   0
   0  10   2   42.55    2.75   0
   1  10   2  145.95    3.03   0
   2  10   2 1027.38    5.50   0
   3  10   2  103.19    2.92   0
   4  10   2   24.67    2.79   0
   5  10   2   19.54    2.48   0
   6  10   2   95.89    3.00   0
   7  10   2   15.90    2.71   0
   0  11   2  212.30    3.61   0
   1  11   2 1081.36    5.73   0
   2  11   2    6.01    2.61   0
   3  11   2    7.28    2.85   0
   4  11   2  138.86    3.39   0
   5  11   2   10.75    2.82   0
   6  11   2    3.88    3.01   0
  -5 -11   3   14.62    3.30   0
  -4 -11   3    4.80    3.05   0
  -3 -11   3   61.40    3.43   0
  -2 -11   3  155.70    3.70   0
  -1 -11   3  369.13    4.43   0
  -6 -10   3   96.99    3.86   0
  -5 -10   3   34.58    3.37   0
  -4 -10   3   23.58    3.19   0
  -3 -10   3  414.49    5.01   0
  -2 -10   3  261.05    4.06   0
  -1 -10   3  174.97    3.72   0
   0 -10   3  284.40    4.11   0
   1 -10   3  377.45    4.03   0
   2 -10   3  156.19    3.32   0
  -7  -9   3  456.39    3.89   0
  -6  -9   3   22.50    2.02   0
  -5  -9   3    4.60    3.41   0
  -4  -9   3   32.81    3.22   0
  -3  -9   3   84.09    3.50   0
  -2  -9   3   68.36    3.45   0
  -1  -9   3 1018.42    6.01   0
   0  -9   3  529.74    4.45   0
   1  -9   3  218.14    3.71   0
   2  -9   3  111.48    3.11   0
   3  -9   3   12.54    2.76   0
  -8  -8   3  402.65    3.80   0
  -7  -8   3    8.21    1.91   0
  -6  -8   3    9.55    1.96   0
  -5  -8   3  162.69    3.34   0
  -4  -8   3  101.61    3.98   0
  -3  -8   3  210.45    4.40   0
  -2  -8   3  777.80    5.71   0
  -1  -8   3  683.75    5.11   0
   0  -8   3   31.53    3.31   0
   1  -8   3  783.57    5.09   0
   2  -8   3  180.64    3.14   0
   3  -8   3   86.16    2.83   0
   4  -8   3    9.32    2.70   0
  -9  -7   3  212.80    3.05   0
  -8  -7   3   19.47    1.93   0
  -7  -7   3  346.17    3.36   0
  -6  -7   3  339.39    3.16   0
  -5  -7   3   74.11    3.36   0
  -4  -7   3  125.94    4.38   0
  -3  -7   3  380.82    5.41   0
  -2  -7   3  759.48    6.09   0
  -1  -7   3  532.01    4.99   0
   0  -7   3 1342.84    6.60   0
   1  -7   3  422.26    4.29   0
   2  -7   3    8.68    2.66   0
   3  -7   3   28.82    2.45   0
   4  -7   3  143.30    2.90   0
   5  -7   3   -2.01    2.51   0
  -9  -6   3  102.06    2.55   0
  -8  -6   3  642.43    4.25   0
  -7  -6   3  266.73    2.92   0
  -6  -6   3   38.96    1.92   0
  -5  -6   3    6.24    1.94   0
  -4  -6   3   46.12    4.44   0
  -3  -6   3   77.60    4.04   0
  -2  -6   3 1425.12    8.54   0
  -1  -6   3 1581.49    7.96   0
   0  -6   3  846.61    5.80   0
   1  -6   3  217.40    3.65   0
   2  -6   3  532.15    4.23   0
   3  -6   3    7.35    2.41   0
   4  -6   3   84.93    2.80   0
   5  -6   3  160.72    2.92   0
   6  -6   3  674.46    4.45   0
  -9  -5   3  733.36    4.32   0
  -8  -5   3    0.66    1.65   0
  -7  -5   3  100.63    2.17   0
  -6  -5   3  298.08    2.86   0
  -5  -5   3   14.48    1.84   0
  -4  -5   3    8.83    1.89   0
  -3  -5   3 1267.28   10.96   0
  -2  -5   3 1039.26    8.33   0
  -1  -5   3  214.18    4.34   0
   0  -5   3 1620.84    7.60   0
   1  -5   3  744.99    5.10   0
   2  -5   3  172.68    3.27   0
   3  -5   3   23.35    2.53   0
   4  -5   3  154.32    3.05   0
   5  -5   3  239.56    3.09   0
   6  -5   3   38.37    2.48   0
   7  -5   3  190.18    3.16   0
  -9  -4   3   29.11    2.87   0
  -8  -4   3  224.97    3.86   0
  -7  -4   3 1069.59    7.19   0
  -6  -4   3    0.84    1.64   0
  -5  -4   3   68.59    2.05   0
  -4  -4   3   29.38    1.78   0
  -2  -4   3  132.83    5.09   0
  -1  -4   3 4199.94   14.42   0
   0  -4   3 2156.19    9.22   0
   1  -4   3  112.31    3.31   0
   2  -4   3  441.58    4.01   0
   3  -4   3   31.04    2.64   0
   4  -4   3   18.62    2.40   0
   5  -4   3   97.22    2.88   0
   6  -4   3 1264.02    5.49   0
   7  -4   3  537.92    4.07   0
   8  -4   3   57.17    2.88   0
  -9  -3   3  708.43    7.85   0
  -8  -3   3  449.63    4.06   0
  -7  -3   3   24.12    2.27   0
  -6  -3   3   81.94    2.52   0
  -5  -3   3   10.69    2.59   0
  -4  -3   3  426.97    3.29   0
  -3  -3   3 1382.71    5.63   0
  -2  -3   3 3004.97   23.43   0
  -1  -3   3 1332.67    9.81   0
   0  -3   3   20.38    3.25   0
   1  -3   3 2523.26    9.05   0
   2  -3   3  158.53    3.28   0
   3  -3   3   11.89    2.45   0
   4  -3   3  183.37    3.21   0
   5  -3   3 1440.17    5.98   0
   6  -3   3  144.88    2.96   0
   7  -3   3  191.46    2.98   0
   8  -3   3  549.96    4.13   0
  -9  -2   3  215.31    3.15   0
  -8  -2   3  213.90    3.12   0
  -7  -2   3  853.99    4.79   0
  -6  -2   3  142.48    2.66   0
  -5  -2   3   14.86    2.01   0
  -4  -2   3  811.39    5.39   0
  -3  -2   3 1071.87    4.75   0
  -2  -2   3 1011.83    5.35   0
  -1  -2   3 3973.58   18.09   0
   0  -2   3 7003.90   17.57   0
   1  -2   3   27.62    2.91   0
   2  -2   3   10.52    2.80   0
   3  -2   3   22.57    2.54   0
   4  -2   3  820.95    4.76   0
   5  -2   3  337.01    3.76   0
   6  -2   3  375.19    3.55   0
   7  -2   3 1380.38    5.80   0
   8  -2   3  118.26    2.90   0
   9  -2   3   37.60    2.67   0
  -9  -1   3  271.46    3.56   0
  -8  -1   3  960.44    5.34   0
  -7  -1   3   37.78    2.36   0
  -6  -1   3    6.08    2.03   0
  -5  -1   3   41.98    2.23   0
  -4  -1   3  353.49    3.70   0
  -3  -1   3   55.11    2.57   0
  -2  -1   3 5222.39   14.45   0
  -1  -1   3 3034.25   12.91   0
   0  -1   3 1265.77    7.86   0
   1  -1   3  605.52    5.16   0
   2  -1   3  188.47    3.58   0
   3  -1   3   59.92    2.38   0
   4  -1   3   87.21    2.62   0
   5  -1   3  688.58    4.39   0
   6  -1   3 2699.60    7.88   0
   7  -1   3   26.71    2.21   0
   8  -1   3  251.73    3.23   0
   9  -1   3  603.44    4.68   0
  -9   0   3  790.86    4.78   0
  -8   0   3    7.84    2.14   0
  -7   0   3  191.05    3.04   0
  -6   0   3  422.55    3.55   0
  -5   0   3   76.71    2.35   0
  -4   0   3  282.88    2.86   0
  -3   0   3 3186.61    9.18   0
  -2   0   3  932.65    5.69   0
  -1   0   3   80.08    2.69   0
   0   0   3 4368.49   14.62   0
   1   0   3 2130.78    8.66   0
   2   0   3  393.19    4.06   0
   3   0   3  273.11    3.50   0
   4   0   3 1509.59    6.41   0
   5   0   3  256.80    3.09   0
   6   0   3  224.87    3.21   0
   7   0   3 1281.90    5.84   0
   8   0   3  852.21    4.87   0
   9   0   3   15.73    2.52   0
  -9   1   3   24.25    2.57   0
  -8   1   3  478.34    4.03   0
  -7   1   3  533.97    4.05   0
  -6   1   3   11.96    2.09   0
  -5   1   3  208.01    3.19   0
  -4   1   3  538.55    4.42   0
  -3   1   3  645.98    4.93   0
  -2   1   3   57.59    2.86   0
  -1   1   3 9999.99   19.88   0
   0   1   3 2364.80   10.10   0
   1   1   3   29.09    2.33   0
   2   1   3  759.20    6.49   0
   3   1   3  845.68    5.71   0
   4   1   3   22.21    1.97   0
   5   1   3  904.33    4.90   0
   6   1   3 3375.06    8.74   0
   7   1   3  402.66    3.58   0
   8   1   3   97.86    2.47   0
   9   1   3  212.78    3.15   0
  -8   2   3  159.00    3.00   0
  -7   2   3   55.22    2.42   0
  -6   2   3   15.59    2.26   0
  -5   2   3   17.61    2.30   0
  -4   2   3  172.15    3.02   0
  -3   2   3 2564.80    8.71   0
  -2   2   3 3191.57   10.17   0
  -1   2   3  219.67    4.80   0
   0   2   3  736.67    5.71   0
   1   2   3 2637.57    9.09   0
   2   2   3   86.19    3.31   0
   3   2   3  417.53    4.35   0
   4   2   3  276.70    3.42   0
   5   2   3 2088.16    7.32   0
   6   2   3   26.28    2.14   0
   7   2   3  526.61    3.94   0
   8   2   3 1127.21    5.27   0
   9   2   3  180.81    3.15   0
  10   2   3   17.77    2.75   0
  -8   3   3   73.70    2.63   0
  -7   3   3  394.90    3.79   0
  -6   3   3   16.44    2.07   0
  -5   3   3    4.46    2.24   0
  -4   3   3 1675.19    6.70   0
  -3   3   3  916.73    5.24   0
  -2   3   3  254.36    4.32   0
  -1   3   3 4558.96   12.60   0
   0   3   3 1026.35    6.54   0
   1   3   3 1025.34    6.06   0
   2   3   3   22.84    2.93   0
   3   3   3  283.55    3.79   0
   4   3   3  818.98    5.21   0
   5   3   3  383.97    3.51   0
   6   3   3 1260.87    5.57   0
   7   3   3 2674.59    8.12   0
   8   3   3    9.80    2.32   0
   9   3   3   79.33    2.88   0
  10   3   3   21.00    2.86   0
  -7   4   3    2.38    2.32   0
  -6   4   3   14.45    2.26   0
  -5   4   3   82.65    2.60   0
  -4   4   3   59.44    2.57   0
  -3   4   3  175.36    3.85   0
  -2   4   3 2296.86    8.52   0
  -1   4   3 1261.53    6.61   0
   0   4   3  305.76    4.18   0
   1   4   3 1860.91    7.55   0
   2   4   3    5.31    2.48   0
   3   4   3   15.74    2.22   0
   4   4   3    4.87    2.03   0
   5   4   3 2729.04    8.02   0
   6   4   3 1528.06    6.05   0
   7   4   3  262.57    3.16   0
   8   4   3  470.41    4.10   0
   9   4   3  316.09    3.44   0
  10   4   3   12.90    2.75   0
  -7   5   3   14.24    2.64   0
  -6   5   3   66.43    2.59   0
  -5   5   3   11.57    2.29   0
  -4   5   3  374.18    4.38   0
  -3   5   3 1875.22    7.49   0
  -2   5   3  667.22    5.08   0
  -1   5   3  212.07    3.53   0
   0   5   3 2050.59    7.62   0
   1   5   3  335.53    3.97   0
   2   5   3    7.86    2.41   0
   3   5   3  201.60    3.04   0
   4   5   3 1875.86    6.56   0
   5   5   3   39.05    2.06   0
   6   5   3  627.81    4.32   0
   7   5   3 1366.26    5.98   0
   8   5   3  596.73    4.33   0
   9   5   3   47.39    2.34   0
  10   5   3    1.96    2.23   0
  -6   6   3   22.51    2.64   0
  -5   6   3  266.08    3.33   0
  -4   6   3  162.53    3.50   0
  -3   6   3  196.46    3.57   0
  -2   6   3 1009.23    5.50   0
  -1   6   3 1976.34    7.28   0
   0   6   3  151.80    3.26   0
   1   6   3   64.52    2.80   0
   2   6   3   34.76    2.70   0
   3   6   3  345.70    3.66   0
   4   6   3   34.72    2.61   0
   5   6   3  702.20    4.31   0
   6   6   3 1937.88    7.18   0
   7   6   3  135.68    2.77   0
   8   6   3  288.30    3.49   0
   9   6   3   62.11    2.54   0
  -5   7   3    9.03    2.37   0
  -4   7   3    0.08    2.58   0
  -3   7   3 1820.44    6.96   0
  -2   7   3  489.61    4.31   0
  -1   7   3  180.61    3.37   0
   0   7   3  484.15    4.08   0
   1   7   3  182.35    3.30   0
   2   7   3   59.72    2.98   0
   3   7   3  116.71    3.29   0
   4   7   3  459.00    4.14   0
   5   7   3 1464.88    6.30   0
   6   7   3   51.24    2.60   0
   7   7   3  576.66    4.62   0
   8   7   3  614.66    4.80   0
   9   7   3   15.09    2.32   0
  -4   8   3  345.31    3.74   0
  -3   8   3  207.98    3.35   0
  -2   8   3   12.03    2.60   0
  -1   8   3 1079.22    5.38   0
   0   8   3  346.79    3.65   0
   1   8   3   50.85    3.05   0
   2   8   3   77.68    2.91   0
   3   8   3  464.09    4.39   0
   4   8   3  310.06    3.87   0
   5   8   3  377.76    3.76   0
   6   8   3  729.91    5.22   0
   7   8   3  606.69    4.55   0
   8   8   3   34.74    2.32   0
   9   8   3   21.76    2.66   0
  -3   9   3  192.09    3.32   0
  -2   9   3  833.51    4.91   0
  -1   9   3  465.08    3.92   0
   0   9   3   13.58    2.55   0
   1   9   3  195.67    3.12   0
   2   9   3   32.11    2.59   0
   3   9   3   -3.01    3.26   0
   4   9   3  286.91    3.86   0
   5   9   3  976.28    5.44   0
   6   9   3  340.07    4.00   0
   7   9   3  272.99    3.98   0
   8   9   3  178.59    3.44   0
  -2  10   3   55.68    3.01   0
  -1  10   3  207.30    3.44   0
   0  10   3  252.61    3.46   0
   1  10   3   -2.74    2.67   0
   2  10   3   32.58    2.74   0
   3  10   3   73.72    2.84   0
   4  10   3  626.88    4.74   0
   5  10   3   -3.46    2.42   0
   6  10   3  315.19    4.21   0
   7  10   3  370.26    4.41   0
   0  11   3   73.61    3.12   0
   1  11   3    6.11    2.71   0
   2  11   3    9.15    2.65   0
   3  11   3  150.69    3.61   0
   4  11   3  112.09    3.22   0
   5  11   3  324.05    4.13   0
   6  11   3  557.13    5.06   0
  -4 -11   4  120.59    4.11   0
  -3 -11   4  410.86    5.02   0
  -2 -11   4  216.65    3.90   0
  -6 -10   4    5.81    2.31   0
  -5 -10   4  247.14    5.95   0
  -4 -10   4  508.40    6.08   0
  -3 -10   4   63.78    3.22   0
  -2 -10   4  164.41    3.56   0
  -1 -10   4  143.03    3.58   0
   0 -10   4   86.61    3.21   0
   1 -10   4   -2.92    2.84   0
  -7  -9   4    9.99    2.20   0
  -6  -9   4   55.17    2.31   0
  -5  -9   4  485.34    3.89   0
  -4  -9   4   11.21    3.15   0
  -3  -9   4  567.53    5.71   0
  -2  -9   4  558.59    5.02   0
  -1  -9   4   26.40    3.15   0
   0  -9   4    8.02    2.79   0
   1  -9   4  112.12    3.03   0
   2  -9   4   15.58    2.61   0
   3  -9   4    1.76    2.66   0
  -8  -8   4   13.88    2.16   0
  -7  -8   4   42.67    2.16   0
  -6  -8   4  111.11    2.29   0
  -5  -8   4  220.27    2.97   0
  -4  -8   4  826.98    7.99   0
  -3  -8   4  804.01    6.94   0
  -2  -8   4   19.13    3.05   0
  -1  -8   4  142.96    3.30   0
   0  -8   4   95.87    2.91   0
   1  -8   4    5.21    2.48   0
   2  -8   4   79.96    2.92   0
   3  -8   4  879.04    4.91   0
   4  -8   4  121.40    2.98   0
  -8  -7   4    5.61    2.14   0
  -7  -7   4    9.39    1.92   0
  -6  -7   4  195.76    2.70   0
  -5  -7   4  829.81    4.53   0
  -4  -7   4  397.53    6.89   0
  -3  -7   4  500.66    6.12   0
  -2  -7   4  533.88    5.47   0
  -1  -7   4  338.04    4.19   0
   0  -7   4   62.44    2.94   0
   1  -7   4  343.78    3.80   0
   2  -7   4  449.95    3.87   0
   3  -7   4    2.23    2.33   0
   4  -7   4  184.75    3.03   0
   5  -7   4  665.12    4.41   0
  -9  -6   4    1.77    2.09   0
  -8  -6   4   22.18    2.12   0
  -7  -6   4   43.20    1.84   0
  -6  -6   4  347.18    3.11   0
  -5  -6   4   14.59    1.82   0
  -4  -6   4  976.36    4.85   0
  -3  -6   4 1681.96   11.28   0
  -2  -6   4  398.88    5.23   0
  -1  -6   4  400.41    4.89   0
   0  -6   4  110.77    3.23   0
   1  -6   4   67.70    2.81   0
   2  -6   4   17.84    2.59   0
   3  -6   4  996.41    5.04   0
   4  -6   4  908.99    4.98   0
   5  -6   4   48.86    2.70   0
   6  -6   4   91.88    2.99   0
  -9  -5   4    7.89    1.87   0
  -8  -5   4   16.62    1.85   0
  -7  -5   4  190.37    2.48   0
  -6  -5   4   87.92    2.15   0
  -5  -5   4  953.89    4.82   0
  -4  -5   4 1656.70    5.88   0
  -3  -5   4   15.21    4.38   0
  -2  -5   4  290.12    5.14   0
  -1  -5   4  362.45    4.87   0
   0  -5   4  110.23    3.23   0
   1  -5   4    7.51    2.61   0
   2  -5   4 1623.03    6.51   0
   3  -5   4  402.65    3.81   0
   4  -5   4   24.91    2.47   0
   5  -5   4 1050.85    4.97   0
   6  -5   4  342.71    3.43   0
   7  -5   4   32.95    2.62   0
  -9  -4   4   75.38    2.31   0
  -8  -4   4    5.00    1.79   0
  -7  -4   4  125.65    2.25   0
  -6  -4   4  460.56    3.26   0
  -5  -4   4  869.16    4.23   0
  -4  -4   4  425.17    3.23   0
  -3  -4   4 1927.85    6.34   0
  -2  -4   4 2380.79   14.44   0
  -1  -4   4  149.22    4.05   0
   0  -4   4   13.13    2.93   0
   1  -4   4  570.99    4.79   0
   2  -4   4  212.71    3.31   0
   3  -4   4  695.06    4.58   0
   4  -4   4 2151.21    7.00   0
   5  -4   4  308.77    3.51   0
   6  -4   4    1.16    2.53   0
   7  -4   4   98.54    2.74   0
  -9  -3   4    1.38    3.98   0
  -8  -3   4    7.39    2.39   0
  -7  -3   4  187.89    3.24   0
  -6  -3   4  127.21    2.28   0
  -5  -3   4  955.93    4.37   0
  -4  -3   4 1770.83    5.81   0
  -3  -3   4 1835.90    6.35   0
  -2  -3   4  767.82   14.37   0
  -1  -3   4   50.94    3.65   0
   0  -3   4    3.12    2.63   0
   1  -3   4   17.33    2.67   0
   2  -3   4 1115.93    5.62   0
   3  -3   4 2407.13    7.47   0
   4  -3   4  354.37    3.64   0
   5  -3   4  177.76    3.07   0
   6  -3   4  786.08    4.59   0
   7  -3   4   93.33    2.63   0
   8  -3   4   36.58    2.61   0
  -9  -2   4  223.71    3.42   0
  -8  -2   4   45.18    2.30   0
  -7  -2   4   36.31    2.31   0
  -6  -2   4  668.55    4.52   0
  -5  -2   4 2291.84    8.00   0
  -4  -2   4   45.73    2.28   0
  -3  -2   4 2496.01    7.09   0
  -2  -2   4  404.16    5.50   0
  -1  -2   4  917.98    8.23   0
   0  -2   4  218.80    3.79   0
   1  -2   4 1813.95    7.61   0
   2  -2   4  664.44    4.53   0
   3  -2   4   18.72    2.32   0
   4  -2   4 1104.17    5.12   0
   5  -2   4 1939.75    6.50   0
   6  -2   4   31.04    2.45   0
   7  -2   4    5.03    2.32   0
   8  -2   4   10.74    2.43   0
  -9  -1   4    1.39    2.32   0
  -8  -1   4   82.44    2.56   0
  -7  -1   4  232.63    3.17   0
  -6  -1   4  809.02    4.58   0
  -5  -1   4  277.48    3.28   0
  -4  -1   4  853.55    5.06   0
  -3  -1   4 3981.75   11.02   0
  -2  -1   4  167.84    3.15   0
  -1  -1   4  121.13    3.20   0
   0  -1   4  156.57    3.27   0
   1  -1   4   38.00    3.09   0
   2  -1   4   62.43    2.67   0
   3  -1   4 5451.70   11.37   0
   4  -1   4 2182.35    6.94   0
   5  -1   4   11.53    2.24   0
   6  -1   4  434.33    3.71   0
   7  -1   4  173.84    2.95   0
   8  -1   4   15.59    2.43   0
   9  -1   4  282.66    3.74   0
  -9   0   4   14.81    2.40   0
  -8   0   4    6.16    2.12   0
  -7   0   4   97.02    2.36   0
  -6   0   4  591.75    4.08   0
  -5   0   4 1761.13    6.79   0
  -4   0   4 1812.70    6.43   0
  -3   0   4  539.67    4.07   0
  -2   0   4  872.65    5.40   0
  -1   0   4  811.20    5.48   0
   0   0   4  433.55    4.92   0
   1   0   4  857.87    5.35   0
   2   0   4 3905.07    9.90   0
   3   0   4  421.72    3.66   0
   4   0   4  311.29    3.34   0
   5   0   4 2008.86    6.83   0
   6   0   4  238.51    2.99   0
   7   0   4   26.40    2.35   0
   8   0   4   15.56    2.40   0
   9   0   4  118.22    2.76   0
  -8   1   4    3.67    2.29   0
  -7   1   4  269.87    3.26   0
  -6   1   4 1074.68    5.55   0
  -5   1   4  822.97    5.05   0
  -4   1   4 1250.00    6.08   0
  -3   1   4 2391.64    8.65   0
  -2   1   4  789.77    5.49   0
  -1   1   4   89.40    2.95   0
   0   1   4  476.28    4.67   0
   1   1   4 2978.94   11.62   0
   2   1   4   31.80    2.53   0
   3   1   4 2122.47    8.49   0
   4   1   4 4210.31   10.70   0
   5   1   4  390.81    3.60   0
   6   1   4    4.33    2.09   0
   7   1   4  207.51    2.79   0
   8   1   4   85.93    2.46   0
   9   1   4   65.61    2.63   0
  -8   2   4    1.68    2.18   0
  -7   2   4  450.05    3.83   0
  -6   2   4   65.87    2.50   0
  -5   2   4 1473.25    6.30   0
  -4   2   4 1512.17    6.57   0
  -3   2   4  318.80    3.55   0
  -2   2   4  692.37    4.99   0
  -1   2   4   45.88    2.98   0
   0   2   4   84.74    3.04   0
   1   2   4   82.06    3.33   0
   2   2   4  896.65    5.26   0
   3   2   4 3993.33    9.48   0
   4   2   4   53.82    2.63   0
   5   2   4  678.45    4.56   0
   6   2   4 1238.85    5.79   0
   7   2   4   35.48    1.96   0
   8   2   4  125.87    2.61   0
   9   2   4   89.01    2.48   0
  10   2   4  499.76    4.35   0
  -8   3   4   62.54    2.74   0
  -7   3   4  272.36    3.53   0
  -6   3   4  627.72    4.25   0
  -5   3   4 1790.82    6.63   0
  -4   3   4   67.95    2.63   0
  -3   3   4  696.57    4.59   0
  -2   3   4  697.49    4.86   0
  -1   3   4  288.94    4.11   0
   0   3   4   45.16    3.04   0
   1   3   4 3365.24    9.36   0
   2   3   4 1116.61    5.50   0
   3   3   4  215.72    3.50   0
   4   3   4 3203.15    9.92   0
   5   3   4 1221.33    5.28   0
   6   3   4   27.72    2.11   0
   7   3   4    6.00    1.94   0
   8   3   4    8.59    2.05   0
   9   3   4  198.39    2.95   0
  10   3   4  245.03    3.52   0
  -7   4   4  187.51    3.05   0
  -6   4   4  196.60    2.97   0
  -5   4   4  265.66    3.20   0
  -4   4   4  988.15    5.22   0
  -3   4   4 1472.23    6.16   0
  -2   4   4   60.24    3.01   0
  -1   4   4  126.35    3.20   0
   0   4   4  513.88    4.49   0
   1   4   4  117.23    2.91   0
   2   4   4  409.52    3.70   0
   3   4   4 4561.93    9.79   0
   4   4   4  491.20    4.10   0
   5   4   4   14.51    2.09   0
   6   4   4  764.26    4.30   0
   7   4   4   14.06    1.97   0
   8   4   4   22.84    2.40   0
   9   4   4  375.69    3.73   0
  10   4   4  418.79    4.34   0
  -7   5   4    2.79    2.53   0
  -6   5   4  505.08    4.04   0
  -5   5   4 1311.70    5.59   0
  -4   5   4  474.69    3.91   0
  -3   5   4  381.85    4.20   0
  -2   5   4  220.56    3.87   0
  -1   5   4    0.44    2.60   0
   0   5   4  153.03    3.12   0
   1   5   4  931.22    5.31   0
   2   5   4 2278.39    7.42   0
   3   5   4   58.07    2.29   0
   4   5   4  397.80    3.80   0
   5   5   4 1951.90    7.21   0
   6   5   4   16.68    2.12   0
   7   5   4   60.21    2.28   0
   8   5   4   58.73    2.36   0
   9   5   4  207.76    3.19   0
  10   5   4    7.14    2.45   0
  -6   6   4  460.83    3.85   0
  -5   6   4   23.71    2.45   0
  -4   6   4  788.00    4.61   0
  -3   6   4  274.66    3.64   0
  -2   6   4  248.27    3.71   0
  -1   6   4   32.41    2.76   0
   0   6   4  283.17    3.57   0
   1   6   4  700.49    4.84   0
   2   6   4    6.43    2.37   0
   3   6   4 1711.61    6.54   0
   4   6   4 1821.43    6.36   0
   5   6   4    3.48    1.96   0
   6   6   4    3.69    1.95   0
   7   6   4   65.42    2.36   0
   8   6   4  164.55    2.84   0
   9   6   4   71.70    2.48   0
  -5   7   4  422.48    3.70   0
  -4   7   4  562.35    4.09   0
  -3   7   4  122.93    3.14   0
  -2   7   4  221.01    3.42   0
  -1   7   4   49.21    2.70   0
   0   7   4   16.90    2.57   0
   1   7   4   61.19    2.68   0
   2   7   4 2170.17    7.51   0
   3   7   4  689.64    4.61   0
   4   7   4   15.69    2.53   0
   5   7   4  817.00    4.52   0
   6   7   4  260.07    3.29   0
   7   7   4   15.07    2.11   0
   8   7   4   66.55    2.53   0
   9   7   4  225.55    3.38   0
  -4   8   4   87.46    2.93   0
  -3   8   4  319.92    3.82   0
  -2   8   4   53.31    2.85   0
  -1   8   4    6.08    2.54   0
   0   8   4   71.00    2.63   0
   1   8   4 1180.00    5.56   0
   2   8   4  105.24    2.94   0
   3   8   4  156.47    3.12   0
   4   8   4 1670.04    6.36   0
   5   8   4  137.12    2.71   0
   6   8   4    2.47    2.06   0
   7   8   4    7.64    2.07   0
   8   8   4  128.37    2.98   0
   9   8   4   19.71    2.62   0
  -3   9   4  217.97    3.54   0
  -2   9   4    9.64    2.66   0
  -1   9   4   18.63    2.70   0
   0   9   4  123.47    2.91   0
   1   9   4    2.11    2.37   0
   2   9   4  464.51    4.11   0
   3   9   4 1634.81    6.71   0
   4   9   4   32.32    2.63   0
   5   9   4   47.41    2.87   0
   6   9   4  187.86    3.32   0
   7   9   4   16.33    2.61   0
   8   9   4    1.23    2.51   0
  -2  10   4    4.67    2.74   0
  -1  10   4    9.78    2.81   0
   0  10   4    7.76    2.50   0
   1  10   4  689.08    4.56   0
   2  10   4  419.12    4.05   0
   3  10   4    9.43    2.43   0
   4  10   4  228.68    3.60   0
   5  10   4  495.09    4.42   0
   6  10   4    5.45    2.44   0
   7  10   4   41.27    2.68   0
   1  11   4   43.86    2.71   0
   2  11   4   21.12    2.65   0
   3  11   4  845.73    5.45   0
   4  11   4  244.80    3.74   0
   5  11   4    5.48    2.56   0
   6  11   4   14.27    2.82   0
  -5 -10   5    7.13    2.12   0
  -4 -10   5    4.04    3.24   0
  -3 -10   5   67.29    3.33   0
  -2 -10   5   19.78    2.82   0
  -1 -10   5   84.26    3.15   0
   0 -10   5  265.72    3.85   0
   1 -10   5  351.19    4.07   0
  -7  -9   5  212.68    3.08   0
  -6  -9   5   16.75    2.13   0
  -5  -9   5  179.72    2.93   0
  -4  -9   5  257.27    5.59   0
  -3  -9   5   16.90    3.11   0
  -2  -9   5   58.64    2.97   0
  -1  -9   5  228.85    3.57   0
   0  -9   5  404.28    4.53   0
   1  -9   5  223.80    3.62   0
   2  -9   5  459.97    4.12   0
   3  -9   5  200.43    3.35   0
  -7  -8   5   39.55    2.18   0
  -6  -8   5  661.36    4.28   0
  -5  -8   5  246.04    2.81   0
  -4  -8   5   24.51    3.68   0
  -3  -8   5    7.28    2.72   0
  -2  -8   5   58.86    3.03   0
  -1  -8   5   20.82    2.66   0
   0  -8   5  499.84    4.41   0
   1  -8   5  784.19    4.91   0
   2  -8   5  273.88    3.41   0
   3  -8   5   44.37    2.60   0
   4  -8   5  117.58    2.97   0
  -8  -7   5   86.32    2.35   0
  -7  -7   5 1035.69    5.05   0
  -6  -7   5    8.55    1.95   0
  -5  -7   5   80.05    2.05   0
  -4  -7   5  163.44    2.57   0
  -3  -7   5    8.60    3.24   0
  -2  -7   5   13.20    3.02   0
  -1  -7   5  804.95    5.83   0
   0  -7   5  548.22    4.48   0
   1  -7   5  133.26    2.99   0
   2  -7   5  451.25    3.87   0
   3  -7   5  433.99    3.87   0
   4  -7   5  124.12    2.77   0
   5  -7   5   14.48    2.67   0
  -8  -6   5  358.78    3.27   0
  -7  -6   5   12.74    1.87   0
  -6  -6   5  284.13    2.86   0
  -5  -6   5  958.10    4.59   0
  -4  -6   5   -1.13    1.88   0
  -3  -6   5   26.16    3.83   0
  -2  -6   5   45.19    3.38   0
  -1  -6   5  434.74    4.70   0
   0  -6   5   10.34    2.39   0
   1  -6   5 2033.63    7.48   0
   2  -6   5  606.20    4.31   0
   3  -6   5  159.01    2.95   0
   4  -6   5  273.04    3.24   0
   5  -6   5   21.53    2.54   0
   6  -6   5    4.09    2.68   0
  -9  -5   5   39.21    2.22   0
  -8  -5   5   36.18    1.96   0
  -7  -5   5  766.78    4.00   0
  -6  -5   5  521.23    3.61   0
  -5  -5   5    2.62    1.77   0
  -4  -5   5   82.49    2.08   0
  -2  -5   5  226.96    4.95   0
  -1  -5   5  697.77    5.92   0
   0  -5   5 1628.75    7.40   0
   1  -5   5 1198.22    5.88   0
   2  -5   5   23.60    2.61   0
   3  -5   5  798.47    4.71   0
   4  -5   5   26.29    2.74   0
   5  -5   5  207.00    3.12   0
   6  -5   5   12.71    2.39   0
   7  -5   5  516.11    4.26   0
  -9  -4   5   18.82    2.20   0
  -8  -4   5  785.31    4.16   0
  -7  -4   5  244.78    2.70   0
  -6  -4   5  173.84    2.34   0
  -5  -4   5  952.32    4.35   0
  -4  -4   5  121.10    2.19   0
  -3  -4   5   43.10    1.93   0
  -2  -4   5  374.02    7.95   0
  -1  -4   5 1676.45    8.92   0
   0  -4   5  254.99    3.85   0
   1  -4   5 1492.37    6.58   0
   2  -4   5 1314.57    6.20   0
   3  -4   5  378.81    3.70   0
   4  -4   5   12.91    2.43   0
   5  -4   5   13.45    2.41   0
   6  -4   5  251.29    3.16   0
   7  -4   5   27.60    2.50   0
  -8  -3   5    5.25    1.89   0
  -7  -3   5  231.38    2.94   0
  -6  -3   5 1069.56    4.54   0
  -5  -3   5  140.15    2.21   0
  -4  -3   5   30.03    1.76   0
  -3  -3   5  283.73    2.79   0
  -2  -3   5  127.74    3.59   0
  -1  -3   5    6.89    3.52   0
   0  -3   5 2322.40    8.94   0
   1  -3   5 2301.50    8.04   0
   2  -3   5 1055.07    5.44   0
   3  -3   5  516.90    3.97   0
   4  -3   5  186.14    2.93   0
   5  -3   5    9.71    2.28   0
   6  -3   5   71.96    2.71   0
   7  -3   5  479.58    3.89   0
   8  -3   5  645.18    4.51   0
  -9  -2   5   37.11    2.64   0
  -8  -2   5  759.87    4.80   0
  -7  -2   5 1072.20    4.97   0
  -6  -2   5   38.01    2.22   0
  -5  -2   5  164.72    2.96   0
  -4  -2   5  330.57    2.82   0
  -3  -2   5   10.63    1.62   0
  -2  -2   5   48.28    2.91   0
  -1  -2   5 2214.94   10.34   0
   0  -2   5  979.59    6.07   0
   1  -2   5  148.17    3.03   0
   2  -2   5 3545.97    9.01   0
   3  -2   5  193.42    2.88   0
   4  -2   5  177.84    2.86   0
   5  -2   5    6.09    2.22   0
   6  -2   5  384.04    3.66   0
   7  -2   5  183.37    3.06   0
   8  -2   5   31.96    2.45   0
  -9  -1   5  560.30    4.71   0
  -8  -1   5  308.48    3.66   0
  -7  -1   5   25.27    2.25   0
  -6  -1   5  676.70    4.31   0
  -5  -1   5 1087.03    5.39   0
  -4  -1   5   11.60    1.98   0
  -3  -1   5  132.88    2.73   0
  -2  -1   5  591.40    4.95   0
  -1  -1   5 2522.13    9.56   0
   0  -1   5 1401.12    6.86   0
   1  -1   5 5989.24   12.51   0
   2  -1   5 1097.03    5.23   0
   3  -1   5  132.12    2.68   0
   4  -1   5  467.74    3.63   0
   5  -1   5  207.49    2.92   0
   6  -1   5   -0.69    2.23   0
   7  -1   5  336.40    3.45   0
   8  -1   5 1298.87    5.92   0
   9  -1   5  162.79    3.30   0
  -8   0   5  249.78    3.40   0
  -7   0   5 1355.30    6.24   0
  -6   0   5  455.15    4.04   0
  -5   0   5  210.75    3.16   0
  -4   0   5   52.44    2.07   0
  -3   0   5  161.71    2.74   0
  -2   0   5   56.57    2.28   0
  -1   0   5 3127.01    9.70   0
   0   0   5 1244.45    6.68   0
   1   0   5 1663.05    6.71   0
   2   0   5  675.25    4.47   0
   3   0   5 1098.10    5.06   0
   4   0   5   17.43    1.99   0
   5   0   5   29.83    2.21   0
   6   0   5  281.77    3.21   0
   7   0   5  963.92    4.93   0
   8   0   5   32.01    2.24   0
   9   0   5  145.09    3.01   0
  -8   1   5 1186.48    5.60   0
  -7   1   5   80.85    2.60   0
  -6   1   5  446.77    3.91   0
  -5   1   5  361.42    3.62   0
  -4   1   5   86.86    2.51   0
  -3   1   5   17.63    2.01   0
  -2   1   5 1787.14    7.06   0
  -1   1   5 1377.61    6.53   0
   0   1   5  579.48    5.06   0
   1   1   5 5282.55   13.90   0
   2   1   5 1985.82    6.75   0
   3   1   5  399.61    4.28   0
   4   1   5    2.01    1.95   0
   5   1   5  166.68    2.90   0
   6   1   5  333.22    3.37   0
   7   1   5  131.23    2.85   0
   8   1   5  562.03    4.36   0
   9   1   5 1128.54    5.75   0
  -8   2   5  132.81    3.02   0
  -7   2   5  279.79    3.43   0
  -6   2   5  896.71    5.08   0
  -5   2   5   15.26    2.26   0
  -4   2   5    2.15    2.15   0
  -3   2   5   40.79    2.35   0
  -2   2   5  375.66    3.78   0
  -1   2   5    6.83    2.11   0
   0   2   5 4228.30   10.89   0
   1   2   5 1562.42    7.98   0
   2   2   5  420.05    3.71   0
   3   2   5 1015.33    4.86   0
   4   2   5   37.36    2.24   0
   5   2   5   23.53    2.19   0
   6   2   5   34.59    2.29   0
   7   2   5 1380.78    5.88   0
   8   2   5 1021.77    5.34   0
   9   2   5   96.14    2.82   0
  -7   3   5  743.03    4.65   0
  -6   3   5   32.09    2.33   0
  -5   3   5  108.20    2.69   0
  -4   3   5  217.18    3.09   0
  -3   3   5  300.29    3.38   0
  -2   3   5 1443.52    6.30   0
  -1   3   5 2203.34    7.81   0
   0   3   5 1145.58    5.82   0
   1   3   5  291.00    3.48   0
   2   3   5 2596.02    9.74   0
   3   3   5  415.51    3.48   0
   4   3   5   31.16    1.97   0
   5   3   5   92.42    2.31   0
   6   3   5 1159.73    5.04   0
   7   3   5   72.27    2.26   0
   8   3   5  338.12    3.28   0
   9   3   5  822.84    4.68   0
  -7   4   5  124.68    2.82   0
  -6   4   5  568.39    4.08   0
  -5   4   5  149.96    2.84   0
  -4   4   5   40.76    2.40   0
  -3   4   5  420.44    3.75   0
  -2   4   5  332.17    3.52   0
  -1   4   5  694.15    4.87   0
   0   4   5 1569.42    6.48   0
   1   4   5 2568.25    7.75   0
   2   4   5  376.50    3.44   0
   3   4   5   58.58    2.70   0
   4   4   5   12.70    2.16   0
   5   4   5  486.41    3.56   0
   6   4   5    4.75    2.05   0
   7   4   5  716.69    4.31   0
   8   4   5 1159.49    5.31   0
   9   4   5  110.87    2.86   0
  -6   5   5   47.35    2.68   0
  -5   5   5    5.80    2.15   0
  -4   5   5    7.21    2.27   0
  -3   5   5   42.80    2.38   0
  -2   5   5   11.30    2.63   0
  -1   5   5 2263.26    7.59   0
   0   5   5 1141.64    5.69   0
   1   5   5  271.58    3.27   0
   2   5   5  619.75    4.09   0
   3   5   5  516.95    3.68   0
   4   5   5    2.19    2.19   0
   5   5   5  159.87    2.88   0
   6   5   5  255.05    3.18   0
   7   5   5 1188.86    5.51   0
   8   5   5    9.04    2.20   0
   9   5   5  314.82    3.34   0
  -6   6   5   45.52    2.70   0
  -5   6   5  242.96    3.27   0
  -4   6   5   10.42    2.35   0
  -3   6   5   74.02    2.74   0
  -2   6   5  718.10    4.60   0
  -1   6   5  669.14    4.54   0
   0   6   5    3.60    2.57   0
   1   6   5 1908.62    6.87   0
   2   6   5  477.67    3.86   0
   3   6   5   83.00    2.62   0
   4   6   5   33.28    2.21   0
   5   6   5  363.78    3.85   0
   6   6   5  384.23    3.63   0
   7   6   5  210.27    2.98   0
   8   6   5  679.50    4.41   0
   9   6   5  752.62    5.02   0
  -5   7   5    4.24    2.47   0
  -4   7   5   79.12    2.70   0
  -3   7   5   50.87    2.80   0
  -2   7   5  140.24    2.88   0
  -1   7   5  382.45    3.66   0
   0   7   5 1527.19    6.20   0
   1   7   5  670.39    4.58   0
   2   7   5    5.43    2.52   0
   3   7   5  413.51    4.02   0
   4   7   5   37.25    2.30   0
   5   7   5    3.31    2.08   0
   6   7   5  169.59    3.00   0
   7   7   5 1206.62    5.98   0
   8   7   5  134.18    3.01   0
   9   7   5  148.42    2.86   0
  -4   8   5    5.76    2.46   0
  -3   8   5   22.38    2.72   0
  -2   8   5  566.24    4.14   0
  -1   8   5  848.64    4.80   0
   0   8   5  160.79    2.98   0
   1   8   5  219.94    3.17   0
   2   8   5  622.93    4.39   0
   3   8   5   -2.84    2.40   0
   4   8   5   28.49    2.37   0
   5   8   5  224.38    3.42   0
   6   8   5  544.17    4.35   0
   7   8   5    4.78    2.13   0
   8   8   5  124.01    3.09   0
  -3   9   5  231.95    3.57   0
  -2   9   5  111.76    2.82   0
  -1   9   5   26.28    2.57   0
   0   9   5  825.77    4.75   0
   1   9   5  632.86    4.38   0
   2   9   5   25.95    2.47   0
   3   9   5   -3.56    2.52   0
   4   9   5    2.81    2.63   0
   5   9   5  212.31    3.05   0
   6   9   5   80.32    3.00   0
   7   9   5  271.37    3.71   0
   8   9   5  653.12    5.36   0
  -1  10   5  732.08    4.62   0
   0  10   5  174.87    3.19   0
   1  10   5   67.43    2.70   0
   2  10   5  269.41    3.49   0
   3  10   5   28.82    2.59   0
   4  10   5    5.80    2.52   0
   5  10   5   71.08    2.79   0
   6  10   5  374.86    4.22   0
   7  10   5  390.31    4.36   0
   1  11   5  597.52    4.47   0
   2  11   5   61.69    2.85   0
   3  11   5    6.02    2.65   0
   4  11   5    4.88    2.84   0
   5  11   5  479.05    4.33   0
  -3 -10   6  126.62    4.03   0
  -2 -10   6  259.16    4.15   0
  -1 -10   6  600.71    5.36   0
   0 -10   6   36.78    3.11   0
  -6  -9   6    7.10    2.08   0
  -5  -9   6    4.00    2.22   0
  -3  -9   6  612.56    6.54   0
  -2  -9   6  229.69    4.07   0
  -1  -9   6  229.06    3.91   0
   0  -9   6  149.37    3.35   0
   1  -9   6  206.37    3.47   0
   2  -9   6    3.02    2.73   0
  -7  -8   6    6.48    2.05   0
  -6  -8   6    6.63    1.83   0
  -5  -8   6   25.50    2.17   0
  -4  -8   6  251.83    2.90   0
  -3  -8   6   12.53    3.19   0
  -2  -8   6  456.68    5.02   0
  -1  -8   6  740.55    5.60   0
   0  -8   6  216.48    3.59   0
   1  -8   6   47.72    2.55   0
   2  -8   6    9.60    2.41   0
   3  -8   6    1.06    2.50   0
  -8  -7   6   -1.47    2.18   0
  -7  -7   6    4.04    1.88   0
  -6  -7   6   12.71    1.76   0
  -5  -7   6  199.01    2.64   0
  -4  -7   6  159.60    2.49   0
  -3  -7   6  491.89    7.19   0
  -2  -7   6 1166.15    7.77   0
  -1  -7   6   48.59    3.03   0
   0  -7   6  327.41    4.09   0
   1  -7   6  148.04    3.01   0
   2  -7   6   23.50    2.35   0
   3  -7   6   43.29    2.53   0
   4  -7   6  504.85    4.04   0
   5  -7   6  144.43    3.11   0
  -8  -6   6  209.46    2.72   0
  -7  -6   6   78.97    2.19   0
  -6  -6   6   -0.16    1.74   0
  -5  -6   6   55.27    1.99   0
  -4  -6   6  257.15    2.67   0
  -3  -6   6 1315.30   16.24   0
  -2  -6   6  488.15    5.81   0
  -1  -6   6  889.67    6.20   0
   0  -6   6  763.37    5.23   0
   1  -6   6   22.94    2.48   0
   2  -6   6   27.70    2.37   0
   3  -6   6  168.96    2.93   0
   4  -6   6   44.12    2.55   0
   5  -6   6   79.43    2.82   0
   6  -6   6  835.71    4.96   0
  -8  -5   6   59.89    2.25   0
  -7  -5   6    9.79    1.70   0
  -6  -5   6    9.17    1.71   0
  -5  -5   6  466.07    3.22   0
  -4  -5   6   78.55    2.17   0
  -3  -5   6  724.70    4.13   0
  -2  -5   6 1333.57   10.70   0
  -1  -5   6 1028.50    6.86   0
   0  -5   6  114.20    3.19   0
   1  -5   6   31.66    2.44   0
   2  -5   6   60.11    2.63   0
   3  -5   6   16.54    2.38   0
   4  -5   6  525.21    3.90   0
   5  -5   6 1013.80    5.02   0
   6  -5   6   75.03    2.76   0
  -8  -4   6   39.38    2.09   0
  -7  -4   6  174.24    2.48   0
  -6  -4   6  120.02    2.28   0
  -5  -4   6   47.74    1.86   0
  -4  -4   6  557.61    3.45   0
  -3  -4   6 1625.83    5.61   0
  -2  -4   6   85.60    5.73   0
  -1  -4   6  724.98    6.04   0
   0  -4   6  893.30    5.67   0
   1  -4   6   80.66    2.66   0
   2  -4   6   16.71    2.58   0
   3  -4   6  674.89    4.33   0
   4  -4   6  299.15    3.40   0
   5  -4   6    7.11    2.34   0
   6  -4   6  322.26    3.42   0
   7  -4   6  696.21    4.66   0
  -8  -3   6  208.08    2.70   0
  -7  -3   6   -0.24    1.81   0
  -6  -3   6  166.12    2.36   0
  -5  -3   6   74.49    2.03   0
  -4  -3   6 1096.88    4.65   0
  -3  -3   6   14.82    1.82   0
  -2  -3   6 1792.42    8.84   0
  -1  -3   6 2532.42   10.79   0
   0  -3   6  100.13    2.81   0
   1  -3   6   67.48    2.65   0
   2  -3   6   57.14    2.59   0
   3  -3   6   25.22    2.55   0
   4  -3   6    8.03    2.32   0
   5  -3   6 1981.35    6.50   0
   6  -3   6  804.19    4.52   0
   7  -3   6    5.37    2.50   0
   8  -3   6  128.22    3.17   0
  -8  -2   6   18.52    3.72   0
  -7  -2   6   61.19    2.53   0
  -6  -2   6    8.73    1.74   0
  -5  -2   6  375.80    3.04   0
  -4  -2   6  661.12    3.73   0
  -3  -2   6 1582.13    8.42   0
  -2  -2   6 1596.83    7.92   0
  -1  -2   6  216.76    3.21   0
   0  -2   6  381.43    3.98   0
   1  -2   6  205.89    3.02   0
   2  -2   6   19.49    2.09   0
   3  -2   6  130.80    2.69   0
   4  -2   6 1963.21    6.31   0
   5  -2   6  227.46    3.02   0
   6  -2   6   21.08    2.25   0
   7  -2   6  942.41    5.07   0
   8  -2   6   61.83    2.77   0
  -8  -1   6  590.27    4.74   0
  -7  -1   6    7.72    2.16   0
  -6  -1   6   14.67    2.06   0
  -5  -1   6  300.25    3.33   0
  -4  -1   6 1731.72    6.84   0
  -3  -1   6  743.15    4.58   0
  -2  -1   6 1030.47    5.93   0
  -1  -1   6 2427.67    8.68   0
   0  -1   6  990.43    5.71   0
   1  -1   6   98.63    2.51   0
   2  -1   6  285.26    3.12   0
   3  -1   6 1008.15    4.83   0
   4  -1   6    2.62    2.08   0
   5  -1   6  840.43    4.36   0
   6  -1   6 1724.28    6.32   0
   7  -1   6  106.34    2.52   0
   8  -1   6    9.07    2.47   0
  -8   0   6    0.82    2.47   0
  -7   0   6   20.61    2.24   0
  -6   0   6   23.42    2.12   0
  -5   0   6  625.78    4.52   0
  -4   0   6   13.28    2.14   0
  -3   0   6 1124.06    5.33   0
  -2   0   6 2325.05    7.71   0
  -1   0   6  378.97    4.00   0
   0   0   6  343.93    3.70   0
   1   0   6   18.98    2.05   0
   2   0   6   10.69    2.05   0
   3   0   6    1.87    1.85   0
   4   0   6 1230.86    4.95   0
   5   0   6 1880.28    6.86   0
   6   0   6   90.46    2.57   0
   7   0   6  162.09    3.02   0
   8   0   6  555.83    4.28   0
   9   0   6   -1.63    2.53   0
  -8   1   6   11.23    2.18   0
  -7   1   6   83.86    2.48   0
  -6   1   6   94.03    2.41   0
  -5   1   6  204.35    2.89   0
  -4   1   6 1552.62    6.36   0
  -3   1   6 2251.16    7.76   0
  -2   1   6   14.97    1.95   0
  -1   1   6 1452.02    6.43   0
   0   1   6  663.24    4.94   0
   1   1   6  258.13    3.66   0
   2   1   6   20.30    2.39   0
   3   1   6 2369.50    9.21   0
   4   1   6  251.40    3.48   0
   5   1   6   11.38    2.12   0
   6   1   6 1894.67    6.86   0
   7   1   6  928.09    5.00   0
   8   1   6    3.65    2.18   0
   9   1   6    5.66    2.43   0
  -7   2   6    3.43    2.27   0
  -6   2   6   87.80    2.54   0
  -5   2   6  386.06    3.57   0
  -4   2   6  685.51    4.50   0
  -3   2   6  270.10    3.20   0
  -2   2   6 1646.70    6.73   0
  -1   2   6 1754.00    6.96   0
   0   2   6   34.31    2.17   0
   1   2   6   64.11    2.75   0
   2   2   6  520.96    3.78   0
   3   2   6  190.39    2.55   0
   4   2   6   92.00    2.31   0
   5   2   6 4686.98    9.21   0
   6   2   6  271.22    3.58   0
   7   2   6    9.18    2.19   0
   8   2   6  247.32    3.23   0
   9   2   6    0.78    2.32   0
  -7   3   6   15.97    2.49   0
  -6   3   6  146.91    2.74   0
  -5   3   6   29.19    2.18   0
  -4   3   6 1079.64    5.44   0
  -3   3   6 1942.31    6.93   0
  -2   3   6  725.53    4.58   0
  -1   3   6  423.08    3.68   0
   0   3   6  317.93    3.39   0
   1   3   6   53.91    2.29   0
   2   3   6    5.13    2.14   0
   3   3   6 1407.51    5.32   0
   4   3   6 1892.39    6.03   0
   5   3   6   57.84    2.28   0
   6   3   6  236.94    2.88   0
   7   3   6 1154.21    4.96   0
   8   3   6   71.41    2.34   0
   9   3   6   35.74    2.27   0
  -7   4   6   11.46    2.53   0
  -6   4   6   32.52    2.46   0
  -5   4   6  384.28    3.57   0
  -4   4   6  973.84    5.12   0
  -3   4   6  172.33    2.83   0
  -2   4   6 1171.10    5.59   0
  -1   4   6  636.06    4.42   0
   0   4   6  229.98    3.09   0
   1   4   6   84.69    2.44   0
   2   4   6  902.75    5.53   0
   3   4   6  682.71    4.04   0
   4   4   6    1.39    2.03   0
   5   4   6 1161.10    4.88   0
   6   4   6 1713.54    5.88   0
   7   4   6   99.08    2.44   0
   8   4   6   42.88    2.20   0
   9   4   6    7.08    2.13   0
  -6   5   6   57.81    2.59   0
  -5   5   6  277.47    3.34   0
  -4   5   6  157.61    2.78   0
  -3   5   6 1035.07    5.06   0
  -2   5   6  956.27    4.93   0
  -1   5   6  111.93    2.68   0
   0   5   6  332.37    3.61   0
   1   5   6   86.07    2.64   0
   2   5   6   97.93    2.56   0
   3   5   6   43.35    2.22   0
   4   5   6 2181.27    8.40   0
   5   5   6 1281.93    5.11   0
   6   5   6   14.15    2.02   0
   7   5   6  572.84    3.83   0
   8   5   6  185.70    2.71   0
   9   5   6   17.10    2.27   0
  -5   6   6  222.02    3.18   0
  -4   6   6  639.86    4.25   0
  -3   6   6  839.22    4.67   0
  -2   6   6  141.28    2.80   0
  -1   6   6  271.07    3.45   0
   0   6   6  270.75    3.48   0
   1   6   6   16.15    2.46   0
   2   6   6   59.60    2.55   0
   3   6   6 2431.59    6.86   0
   4   6   6  103.59    2.86   0
   5   6   6  140.22    2.91   0
   6   6   6 1368.66    6.29   0
   7   6   6  142.01    2.49   0
   8   6   6    9.97    2.23   0
   9   6   6    9.35    2.44   0
  -4   7   6  106.11    2.64   0
  -3   7   6  388.93    3.61   0
  -2   7   6  691.96    4.50   0
  -1   7   6  481.15    4.08   0
   0   7   6  174.53    3.03   0
   1   7   6  101.69    2.85   0
   2   7   6  178.23    3.09   0
   3   7   6   14.90    2.36   0
   4   7   6  730.19    4.22   0
   5   7   6 1319.98    6.37   0
   6   7   6   88.61    2.63   0
   7   7   6   35.71    2.44   0
   8   7   6  187.45    2.94   0
   9   7   6   23.76    2.71   0
  -3   8   6  508.13    3.98   0
  -2   8   6   99.70    2.87   0
  -1   8   6  193.27    3.19   0
   0   8   6   -1.26    2.50   0
   1   8   6    8.23    2.42   0
   2   8   6   32.75    2.61   0
   3   8   6  661.17    4.33   0
   4   8   6  836.89    4.57   0
   5   8   6   40.19    2.37   0
   6   8   6  302.29    3.66   0
   7   8   6  404.07    4.01   0
   8   8   6   -0.06    2.40   0
  -2   9   6  311.84    3.57   0
  -1   9   6  142.91    2.99   0
   0   9   6  108.77    2.74   0
   1   9   6   32.46    2.49   0
   2   9   6  412.99    3.89   0
   3   9   6  228.55    3.56   0
   4   9   6   43.76    2.56   0
   5   9   6  926.20    4.94   0
   6   9   6  363.99    4.11   0
   7   9   6   10.19    2.63   0
   8   9   6   12.10    2.34   0
  -1  10   6    6.73    2.56   0
   0  10   6   12.87    2.55   0
   1  10   6   66.37    2.75   0
   2  10   6    2.75    2.51   0
   3  10   6   97.29    2.88   0
   4  10   6 1171.10    5.68   0
   5  10   6  176.38    3.12   0
   6  10   6   13.76    2.86   0
   2  11   6  230.53    3.44   0
   3  11   6  414.29    4.09   0
   4  11   6    5.83    2.73   0
  -2 -10   7    1.04    3.13   0
  -5  -9   7  481.12    3.77   0
  -4  -9   7   15.22    2.17   0
  -3  -9   7    4.30    3.19   0
  -2  -9   7  172.11    3.76   0
  -1  -9   7   -0.44    2.71   0
   0  -9   7    2.64    2.67   0
   1  -9   7  340.59    3.99   0
  -6  -8   7  241.47    2.90   0
  -5  -8   7   10.11    1.96   0
  -4  -8   7  247.77    2.94   0
  -3  -8   7  557.42    8.51   0
  -2  -8   7    0.58    2.75   0
  -1  -8   7    4.08    2.69   0
   0  -8   7   92.52    2.97   0
   1  -8   7  147.20    3.21   0
   2  -8   7    1.12    2.38   0
   3  -8   7  574.83    4.49   0
  -7  -7   7   64.23    2.44   0
  -6  -7   7   15.90    1.96   0
  -5  -7   7  669.69    3.86   0
  -4  -7   7  491.75    3.46   0
  -3  -7   7   13.76    5.14   0
  -2  -7   7    4.97    2.86   0
  -1  -7   7   25.34    2.69   0
   0  -7   7   41.26    2.77   0
   1  -7   7  195.83    3.20   0
   2  -7   7  677.74    4.54   0
   3  -7   7  479.57    3.96   0
   4  -7   7    5.38    2.75   0
  -7  -6   7   39.24    1.96   0
  -6  -6   7  883.83    4.48   0
  -5  -6   7  140.24    2.32   0
  -4  -6   7   73.28    2.12   0
  -3  -6   7  379.87    3.45   0
  -2  -6   7  154.91    5.35   0
  -1  -6   7   88.90    3.23   0
   0  -6   7  359.73    3.97   0
   1  -6   7  492.44    4.05   0
   2  -6   7  237.08    3.12   0
   3  -6   7  488.47    4.00   0
   4  -6   7  340.70    3.73   0
   5  -6   7  216.46    3.20   0
  -8  -5   7  112.12    2.52   0
  -7  -5   7  375.19    3.07   0
  -6  -5   7    5.46    1.86   0
  -5  -5   7  192.09    2.41   0
  -4  -5   7 1311.55    5.04   0
  -3  -5   7  144.73    2.61   0
  -2  -5   7    6.48    4.61   0
  -1  -5   7   68.58    3.06   0
   0  -5   7   77.22    2.87   0
   1  -5   7   21.95    2.36   0
   2  -5   7 1219.84    5.65   0
   3  -5   7  866.45    4.71   0
   4  -5   7  366.36    3.49   0
   5  -5   7  138.98    3.06   0
   6  -5   7   48.98    2.63   0
  -8  -4   7   44.56    2.11   0
  -7  -4   7    2.85    1.90   0
  -6  -4   7  571.73    3.54   0
  -5  -4   7 1127.78    4.67   0
  -4  -4   7    7.60    1.70   0
  -3  -4   7  114.55    2.16   0
  -2  -4   7  194.90    3.37   0
  -1  -4   7   49.21    3.79   0
   0  -4   7   65.49    2.92   0
   1  -4   7 1267.58    6.11   0
   2  -4   7  676.51    4.28   0
   3  -4   7   87.91    2.67   0
   4  -4   7  840.13    4.68   0
   5  -4   7  216.92    3.11   0
   6  -4   7   68.82    2.87   0
   7  -4   7    1.11    2.53   0
  -8  -3   7    8.52    2.09   0
  -7  -3   7  516.61    3.45   0
  -6  -3   7  497.31    3.66   0
  -5  -3   7   53.55    1.94   0
  -4  -3   7  684.52    3.95   0
  -3  -3   7 1187.04    4.84   0
  -2  -3   7   49.04    2.74   0
  -1  -3   7  170.32    3.75   0
   0  -3   7  280.41    3.93   0
   1  -3   7  934.72    5.00   0
   2  -3   7  512.08    3.87   0
   3  -3   7 2160.46    6.62   0
   4  -3   7  623.33    4.02   0
   5  -3   7   10.46    2.24   0
   6  -3   7  112.41    2.82   0
   7  -3   7  125.16    2.86   0
  -7  -2   7   26.71    1.88   0
  -6  -2   7  173.26    2.34   0
  -5  -2   7 1227.65    4.69   0
  -4  -2   7  438.65    5.06   0
  -3  -2   7  125.42    3.30   0
  -2  -2   7    1.79    2.23   0
  -1  -2   7   23.75    2.20   0
   0  -2   7  235.45    3.21   0
   1  -2   7 1486.72    6.00   0
   2  -2   7 1300.52    5.44   0
   3  -2   7  936.56    4.63   0
   4  -2   7  292.83    3.15   0
   5  -2   7  145.64    2.67   0
   6  -2   7   57.10    2.24   0
   7  -2   7   62.42    2.50   0
   8  -2   7   40.86    2.72   0
  -8  -1   7   18.02    2.50   0
  -7  -1   7  309.56    3.72   0
  -6  -1   7 1637.93    6.56   0
  -5  -1   7   74.56    2.38   0
  -4  -1   7  296.43    3.12   0
  -3  -1   7  741.84    5.06   0
  -2  -1   7   40.28    2.33   0
  -1  -1   7    0.34    2.09   0
   0  -1   7 1376.23    6.10   0
   1  -1   7 1326.37    5.50   0
   2  -1   7   30.26    2.04   0
   3  -1   7 1262.66    5.13   0
   4  -1   7 1076.38    4.94   0
   5  -1   7  421.31    3.38   0
   6  -1   7   26.23    2.28   0
   7  -1   7   44.21    2.34   0
   8  -1   7  171.18    3.04   0
  -8   0   7  224.98    3.48   0
  -7   0   7  500.24    4.22   0
  -6   0   7   53.08    2.35   0
  -5   0   7  371.39    3.71   0
  -4   0   7 1456.11    6.03   0
  -3   0   7   14.90    1.99   0
  -2   0   7   21.17    2.13   0
  -1   0   7  145.09    2.75   0
   0   0   7  300.59    3.53   0
   1   0   7    7.63    2.09   0
   2   0   7 2157.86    6.51   0
   3   0   7 2355.69    6.71   0
   4   0   7  168.29    2.58   0
   5   0   7  460.18    3.99   0
   6   0   7    3.62    2.30   0
   7   0   7   37.97    2.39   0
   8   0   7  134.64    2.99   0
  -7   1   7  107.68    2.73   0
  -6   1   7 1235.42    5.59   0
  -5   1   7 1233.92    5.61   0
  -4   1   7  131.32    2.62   0
  -3   1   7   51.04    2.22   0
  -2   1   7  386.08    3.55   0
  -1   1   7  296.04    3.32   0
   0   1   7  814.85    5.11   0
   1   1   7 2272.42    8.29   0
   2   1   7 1202.27    6.34   0
   3   1   7  258.37    2.78   0
   4   1   7 1830.75    7.66   0
   5   1   7   32.63    2.38   0
   6   1   7  127.27    2.74   0
   7   1   7   18.09    2.18   0
   8   1   7  394.04    4.01   0
   9   1   7   71.36    2.86   0
  -7   2   7  875.31    5.24   0
  -6   2   7  165.52    2.85   0
  -5   2   7   81.22    2.52   0
  -4   2   7  877.67    4.80   0
  -3   2   7  303.75    3.31   0
  -2   2   7  106.11    2.44   0
  -1   2   7  365.59    3.50   0
   0   2   7 1201.93    5.91   0
   1   2   7  861.37    4.70   0
   2   2   7 2202.20    6.64   0
   3   2   7 1526.83    5.44   0
   4   2   7  579.54    3.64   0
   5   2   7    9.34    1.75   0
   6   2   7   65.95    2.00   0
   7   2   7  385.24    3.89   0
   8   2   7   33.30    2.47   0
   9   2   7  209.10    3.05   0
  -7   3   7   18.32    2.51   0
  -6   3   7  361.33    3.66   0
  -5   3   7 1485.60    6.28   0
  -4   3   7   61.31    2.29   0
  -3   3   7   53.44    2.24   0
  -2   3   7   10.94    1.90   0
  -1   3   7  166.62    2.99   0
   0   3   7  177.29    2.83   0
   1   3   7 1265.59    6.24   0
   2   3   7 1516.95    5.64   0
   3   3   7  550.33    3.66   0
   4   3   7  663.92    3.82   0
   5   3   7  358.11    3.08   0
   6   3   7   10.22    1.83   0
   7   3   7   23.69    2.05   0
   8   3   7  215.88    2.84   0
   9   3   7  680.54    4.55   0
  -6   4   7 1030.47    5.40   0
  -5   4   7   19.91    2.15   0
  -4   4   7   95.64    2.49   0
  -3   4   7  202.14    3.02   0
  -2   4   7    1.39    2.12   0
  -1   4   7   34.28    2.34   0
   0   4   7 1108.12    5.33   0
   1   4   7 1322.77    5.79   0
   2   4   7    7.85    2.39   0
   3   4   7 2167.47    6.42   0
   4   4   7  680.99    3.93   0
   5   4   7   39.31    2.08   0
   6   4   7    5.37    1.88   0
   7   4   7  301.92    3.00   0
   8   4   7  203.72    2.90   0
   9   4   7  118.41    2.74   0
  -6   5   7   89.59    3.32   0
  -5   5   7  303.82    3.34   0
  -4   5   7  760.99    4.49   0
  -3   5   7   13.59    2.19   0
  -2   5   7   22.48    2.14   0
  -1   5   7  110.90    2.62   0
   0   5   7  341.39    3.43   0
   1   5   7  301.33    3.34   0
   2   5   7 2572.04    8.41   0
   3   5   7  388.59    4.32   0
   4   5   7    9.38    2.12   0
   5   5   7  511.50    3.56   0
   6   5   7   96.62    2.45   0
   7   5   7    3.20    1.88   0
   8   5   7  101.09    2.53   0
   9   5   7  776.29    4.71   0
  -5   6   7  223.68    3.23   0
  -4   6   7   37.07    2.39   0
  -3   6   7   45.01    2.40   0
  -2   6   7   11.12    2.17   0
  -1   6   7   64.34    2.35   0
   0   6   7 1191.72    5.49   0
   1   6   7 1034.71    5.18   0
   2   6   7  375.86    3.48   0
   3   6   7  284.72    3.13   0
   4   6   7  678.55    5.23   0
   5   6   7   17.45    2.00   0
   6   6   7  105.15    2.33   0
   7   6   7   57.32    2.20   0
   8   6   7  691.66    4.23   0
   9   6   7    4.76    2.26   0
  -4   7   7  294.42    3.37   0
  -3   7   7   10.62    2.18   0
  -2   7   7   12.95    2.12   0
  -1   7   7  235.44    3.03   0
   0   7   7  346.73    3.57   0
   1   7   7   58.74    2.56   0
   2   7   7 1132.82    5.25   0
   3   7   7  662.37    4.23   0
   4   7   7  148.04    2.65   0
   5   7   7   51.94    2.61   0
   6   7   7    1.54    1.96   0
   7   7   7  242.42    2.97   0
   8   7   7   46.54    2.34   0
  -3   8   7    1.20    2.44   0
  -2   8   7   36.83    2.35   0
  -1   8   7   37.97    2.52   0
   0   8   7   35.44    2.62   0
   1   8   7  965.92    5.05   0
   2   8   7  510.83    4.08   0
   3   8   7   76.53    2.64   0
   4   8   7  476.30    3.73   0
   5   8   7   12.34    2.47   0
   6   8   7   -0.14    2.32   0
   7   8   7   36.70    2.47   0
   8   8   7  368.09    3.86   0
  -2   9   7   14.94    2.61   0
  -1   9   7   87.97    2.91   0
   0   9   7  611.07    4.25   0
   1   9   7  206.49    3.12   0
   2   9   7   63.74    2.72   0
   3   9   7  931.52    5.14   0
   4   9   7   21.22    2.46   0
   5   9   7   18.30    2.61   0
   6   9   7   12.47    2.63   0
   7   9   7  299.71    4.09   0
   0  10   7   61.43    2.61   0
   1  10   7  411.95    3.81   0
   2  10   7  558.47    4.26   0
   3  10   7  134.40    3.03   0
   4  10   7    3.40    2.64   0
   5  10   7   87.26    2.78   0
   6  10   7   70.76    3.17   0
  -4  -9   8    2.10    2.15   0
  -3  -9   8   83.72    5.67   0
  -2  -9   8   92.99    3.52   0
  -1  -9   8  164.39    3.68   0
   0  -9   8  571.72    4.94   0
  -5  -8   8   30.04    2.12   0
  -4  -8   8    3.26    1.87   0
  -3  -8   8   19.95    5.38   0
  -2  -8   8  203.76    5.03   0
  -1  -8   8  529.39    5.17   0
   0  -8   8  118.81    3.09   0
   1  -8   8  242.62    3.35   0
   2  -8   8  316.39    3.79   0
  -6  -7   8   52.00    2.15   0
  -5  -7   8   23.85    1.77   0
  -4  -7   8    4.23    1.82   0
  -3  -7   8  236.44    2.80   0
  -2  -7   8   22.46    4.15   0
  -1  -7   8  248.31    3.93   0
   0  -7   8  746.56    5.20   0
   1  -7   8  514.21    4.24   0
   2  -7   8   67.47    2.65   0
   3  -7   8    9.02    2.48   0
   4  -7   8   24.53    2.67   0
  -7  -6   8   29.53    2.29   0
  -6  -6   8   13.99    1.90   0
  -5  -6   8  151.30    2.38   0
  -4  -6   8   99.73    2.21   0
  -3  -6   8   14.23    1.72   0
  -2  -6   8  257.79    5.68   0
  -1  -6   8 1205.63    7.92   0
   0  -6   8   43.04    2.59   0
   1  -6   8  195.97    2.99   0
   2  -6   8  211.45    3.00   0
   3  -6   8  109.96    2.69   0
   4  -6   8    8.84    2.26   0
   5  -6   8  206.63    3.42   0
  -7  -5   8  162.15    2.69   0
  -6  -5   8  279.56    3.01   0
  -5  -5   8    9.37    1.76   0
  -4  -5   8   41.34    2.02   0
  -3  -5   8  127.13    2.46   0
  -2  -5   8  695.82    5.03   0
  -1  -5   8   28.40    3.43   0
   0  -5   8  816.12    5.40   0
   1  -5   8 1168.57    5.70   0
   2  -5   8  142.81    2.75   0
   3  -5   8   82.16    2.50   0
   4  -5   8   22.04    2.37   0
   5  -5   8   48.64    2.67   0
   6  -5   8   18.80    2.76   0
  -7  -4   8  147.12    2.37   0
  -6  -4   8   11.14    1.80   0
  -5  -4   8   58.15    1.89   0
  -4  -4   8   57.60    1.89   0
  -3  -4   8  185.39    2.37   0
  -2  -4   8  281.43    4.00   0
  -1  -4   8  868.21    6.59   0
   0  -4   8 1392.56    6.76   0
   1  -4   8   30.71    2.58   0
   2  -4   8  346.82    3.36   0
   3  -4   8    5.85    2.11   0
   4  -4   8   21.71    2.19   0
   5  -4   8   81.85    2.53   0
   6  -4   8  688.16    4.47   0
  -8  -3   8  106.26    2.48   0
  -7  -3   8    9.98    1.93   0
  -6  -3   8  406.65    3.36   0
  -5  -3   8    3.25    1.61   0
  -4  -3   8    8.92    1.65   0
  -3  -3   8   99.94    3.75   0
  -2  -3   8 1506.46    7.39   0
  -1  -3   8  693.15    4.65   0
   0  -3   8 1202.99    6.22   0
   1  -3   8  684.68    4.41   0
   2  -3   8  534.52    3.86   0
   3  -3   8   16.07    2.07   0
   4  -3   8  112.02    2.51   0
   5  -3   8  199.89    2.84   0
   6  -3   8    8.25    2.28   0
   7  -3   8  160.24    3.08   0
  -7  -2   8  390.60    3.17   0
  -6  -2   8   15.53    1.91   0
  -5  -2   8    0.45    1.68   0
  -4  -2   8   31.43    2.84   0
  -3  -2   8  850.79    6.01   0
  -2  -2   8   19.24    2.49   0
  -1  -2   8  694.72    4.74   0
   0  -2   8 1409.67    6.06   0
   1  -2   8  612.45    4.05   0
   2  -2   8  120.83    2.57   0
   3  -2   8    1.44    2.39   0
   4  -2   8   11.38    2.15   0
   5  -2   8   59.93    2.33   0
   6  -2   8 1018.03    4.71   0
   7  -2   8  631.33    4.53   0
  -7  -1   8   27.74    3.87   0
  -6  -1   8   79.26    2.74   0
  -5  -1   8   21.63    2.37   0
  -4  -1   8   79.61    2.62   0
  -3  -1   8  162.04    3.08   0
  -2  -1   8 1058.23    5.88   0
  -1  -1   8 1622.68    6.77   0
   0  -1   8   35.06    2.33   0
   1  -1   8 1236.51    5.92   0
   2  -1   8  472.55    3.49   0
   3  -1   8   15.72    2.04   0
   4  -1   8    3.23    2.31   0
   5  -1   8  961.91    4.48   0
   6  -1   8  148.10    2.90   0
   7  -1   8    6.87    2.42   0
   8  -1   8  690.87    5.01   0
  -7   0   8  336.05    3.78   0
  -6   0   8  110.21    2.63   0
  -5   0   8    1.42    1.98   0
  -4   0   8   84.42    2.47   0
  -3   0   8  307.71    3.22   0
  -2   0   8 1643.67    7.08   0
  -1   0   8  237.46    3.24   0
   0   0   8 2004.98    7.15   0
   1   0   8 1051.85    5.26   0
   2   0   8    6.38    2.06   0
   3   0   8   18.66    2.03   0
   4   0   8  332.15    2.99   0
   5   0   8   89.41    2.64   0
   6   0   8  148.59    2.89   0
   7   0   8 1679.92    6.96   0
   8   0   8  253.44    3.60   0
  -7   1   8  130.89    2.92   0
  -6   1   8    8.96    2.16   0
  -5   1   8   95.43    2.45   0
  -4   1   8  319.57    3.31   0
  -3   1   8  127.39    2.61   0
  -2   1   8 1603.30    6.39   0
  -1   1   8 1137.92    5.85   0
   0   1   8 1106.98    5.90   0
   1   1   8  602.16    4.61   0
   2   1   8   68.63    2.48   0
   3   1   8  108.97    2.21   0
   4   1   8   13.67    1.78   0
   5   1   8  462.20    4.30   0
   6   1   8  985.82    5.55   0
   7   1   8   88.54    2.86   0
   8   1   8   71.77    2.85   0
  -7   2   8   60.53    2.81   0
  -6   2   8  196.56    3.06   0
  -5   2   8   74.93    2.40   0
  -4   2   8   60.44    2.24   0
  -3   2   8  471.63    3.70   0
  -2   2   8 1642.60    6.44   0
  -1   2   8  228.14    2.87   0
   0   2   8 1016.02    5.72   0
   1   2   8  740.02    4.39   0
   2   2   8  498.53    3.64   0
   3   2   8  132.53    2.38   0
   4   2   8  815.94    3.96   0
   5   2   8  343.71    2.96   0
   6   2   8   42.54    2.08   0
   7   2   8  871.23    4.28   0
   8   2   8  788.70    4.32   0
   9   2   8   45.08    2.64   0
  -6   3   8   10.39    2.26   0
  -5   3   8   47.68    2.24   0
  -4   3   8   79.33    2.39   0
  -3   3   8  396.41    3.56   0
  -2   3   8   87.76    2.35   0
  -1   3   8 1081.27    5.21   0
   0   3   8 1774.66    7.01   0
   1   3   8   45.58    2.52   0
   2   3   8  257.67    2.97   0
   3   3   8    2.64    2.01   0
   4   3   8   31.36    1.95   0
   5   3   8    1.15    1.96   0
   6   3   8 1457.21    5.28   0
   7   3   8  552.50    3.56   0
   8   3   8   11.84    2.16   0
   9   3   8  223.69    3.08   0
  -6   4   8   12.05    2.45   0
  -5   4   8   16.67    2.19   0
  -4   4   8  219.75    3.08   0
  -3   4   8  359.47    3.49   0
  -2   4   8 1094.96    5.15   0
  -1   4   8 1331.38    5.65   0
   0   4   8  141.28    2.63   0
   1   4   8  563.89    4.36   0
   2   4   8  145.43    2.79   0
   3   4   8    5.44    2.04   0
   4   4   8  224.56    2.79   0
   5   4   8 1349.81    5.06   0
   6   4   8  189.30    2.59   0
   7   4   8   56.70    2.19   0
   8   4   8  985.53    4.75   0
   9   4   8  143.66    2.82   0
  -5   5   8    1.86    2.47   0
  -4   5   8  164.80    2.95   0
  -3   5   8  375.88    3.50   0
  -2   5   8  410.94    3.62   0
  -1   5   8  847.32    4.76   0
   0   5   8  710.14    4.46   0
   1   5   8  513.66    4.00   0
   2   5   8  101.69    2.83   0
   3   5   8   56.86    2.31   0
   4   5   8  220.59    2.81   0
   5   5   8   71.47    2.22   0
   6   5   8  459.36    3.35   0
   7   5   8 1377.55    5.42   0
   8   5   8   36.64    2.35   0
  -4   6   8  320.13    3.47   0
  -3   6   8   23.09    2.32   0
  -2   6   8  693.89    4.26   0
  -1   6   8  816.17    4.64   0
   0   6   8  258.82    3.22   0
   1   6   8  194.62    2.97   0
   2   6   8   14.38    2.32   0
   3   6   8    6.81    2.36   0
   4   6   8   -0.90    2.07   0
   5   6   8  917.51    4.39   0
   6   6   8  672.60    3.94   0
   7   6   8   30.48    2.27   0
   8   6   8  142.00    2.70   0
  -3   7   8  192.53    2.98   0
  -2   7   8  698.36    4.37   0
  -1   7   8    4.35    2.28   0
   0   7   8  478.83    3.79   0
   1   7   8  358.10    3.52   0
   2   7   8    8.44    2.17   0
   3   7   8    4.39    2.27   0
   4   7   8  490.17    5.44   0
   5   7   8  230.27    2.83   0
   6   7   8   10.68    2.11   0
   7   7   8  685.61    4.28   0
   8   7   8  475.54    3.83   0
  -2   8   8  188.05    3.10   0
  -1   8   8  533.05    4.05   0
   0   8   8  476.13    3.99   0
   1   8   8    3.26    2.37   0
   2   8   8   14.47    2.57   0
   3   8   8   54.92    2.60   0
   4   8   8   12.47    2.20   0
   5   8   8   48.34    2.32   0
   6   8   8 1382.62    5.62   0
   7   8   8  181.95    2.95   0
  -1   9   8  200.78    3.10   0
   0   9   8  144.66    2.93   0
   1   9   8   87.84    2.86   0
   2   9   8   23.87    2.56   0
   3   9   8   23.50    2.59   0
   4   9   8  263.24    3.34   0
   5   9   8  670.66    5.46   0
   6   9   8   -2.50    2.56   0
   1  10   8   71.94    2.72   0
   2  10   8   10.97    2.73   0
   3  10   8  130.13    3.07   0
   4  10   8   87.52    2.98   0
   5  10   8    3.92    2.92   0
  -4  -8   9  512.02    3.72   0
  -3  -8   9  150.00    2.52   0
  -2  -8   9   39.32    4.07   0
  -1  -8   9  161.23    4.38   0
   0  -8   9   48.31    2.93   0
   1  -8   9   14.49    2.55   0
  -5  -7   9  374.91    3.30   0
  -4  -7   9    2.12    1.90   0
  -3  -7   9  124.42    2.41   0
  -2  -7   9  673.59    7.80   0
  -1  -7   9   47.09    3.64   0
   0  -7   9   25.22    2.69   0
   1  -7   9    1.66    2.29   0
   2  -7   9   25.52    2.35   0
   3  -7   9   44.65    2.66   0
  -6  -6   9  131.40    2.46   0
  -5  -6   9   10.83    1.88   0
  -4  -6   9  352.60    3.04   0
  -3  -6   9  629.42    3.84   0
  -2  -6   9   21.92    2.37   0
  -1  -6   9   21.49    3.43   0
   0  -6   9  217.42    4.03   0
   1  -6   9   99.10    2.75   0
   2  -6   9   90.97    2.61   0
   3  -6   9  382.04    3.58   0
   4  -6   9  362.64    3.67   0
  -7  -5   9    8.70    2.04   0
  -6  -5   9   23.17    1.92   0
  -5  -5   9  335.05    2.93   0
  -4  -5   9  592.35    3.62   0
  -3  -5   9   19.60    1.90   0
  -2  -5   9  583.19    5.10   0
  -1  -5   9  566.91    5.82   0
   0  -5   9   42.41    3.16   0
   1  -5   9   91.89    3.22   0
   2  -5   9  167.94    2.87   0
   3  -5   9  278.84    3.37   0
   4  -5   9  154.51    2.85   0
   5  -5   9  559.10    4.07   0
  -7  -4   9    5.44    2.05   0
  -6  -4   9  398.60    3.23   0
  -5  -4   9   88.72    2.08   0
  -4  -4   9  128.98    2.25   0
  -3  -4   9 1100.55    4.71   0
  -2  -4   9  306.16    4.26   0
  -1  -4   9   24.59    2.25   0
   0  -4   9   23.45    2.83   0
   1  -4   9   -4.55    2.66   0
   2  -4   9   97.52    2.60   0
   3  -4   9  468.93    3.69   0
   4  -4   9  709.74    4.31   0
   5  -4   9  359.24    3.49   0
   6  -4   9   27.96    2.64   0
  -7  -3   9   67.63    2.18   0
  -6  -3   9    2.45    1.84   0
  -5  -3   9  243.03    2.69   0
  -4  -3   9 1618.27    5.57   0
  -3  -3   9   13.12    2.66   0
  -2  -3   9   51.87    2.80   0
  -1  -3   9  722.10    4.85   0
   0  -3   9    6.17    2.26   0
   1  -3   9    5.21    2.52   0
   2  -3   9  648.83    4.26   0
   3  -3   9  447.83    3.53   0
   4  -3   9  109.24    2.44   0
   5  -3   9  606.26    3.95   0
   6  -3   9  375.18    3.55   0
  -7  -2   9    8.66    1.97   0
  -6  -2   9  235.32    2.65   0
  -5  -2   9  428.08    3.12   0
  -4  -2   9    3.68    2.84   0
  -3  -2   9  320.94    4.05   0
  -2  -2   9 1418.85    6.78   0
  -1  -2   9   -0.87    2.08   0
   0  -2   9   51.76    2.13   0
   1  -2   9   16.12    2.09   0
   2  -2   9  497.04    3.59   0
   3  -2   9   13.84    1.97   0
   4  -2   9 1307.61    5.35   0
   5  -2   9  813.14    4.27   0
   6  -2   9  141.80    2.64   0
   7  -2   9  114.17    3.12   0
  -7  -1   9   48.29    5.95   0
  -6  -1   9   76.83    2.88   0
  -5  -1   9   57.12    2.49   0
  -4  -1   9 1205.87    6.17   0
  -3  -1   9  899.27    5.44   0
  -2  -1   9   32.16    2.61   0
  -1  -1   9  198.18    3.01   0
   0  -1   9   57.01    2.23   0
   1  -1   9  139.45    2.51   0
   2  -1   9  400.68    3.20   0
   3  -1   9 1119.85    4.86   0
   4  -1   9  542.07    3.49   0
   5  -1   9   18.33    2.26   0
   6  -1   9  639.96    4.59   0
   7  -1   9   52.81    2.68   0
  -7   0   9    4.75    2.49   0
  -6   0   9   38.72    2.29   0
  -5   0   9 1445.78    6.27   0
  -4   0   9  331.94    3.36   0
  -3   0   9  102.14    2.82   0
  -2   0   9  777.28    5.04   0
  -1   0   9  248.20    3.51   0
   0   0   9   31.71    2.28   0
   1   0   9  352.23    3.45   0
   2   0   9  662.96    4.50   0
   3   0   9  396.61    3.84   0
   4   0   9  573.52    3.57   0
   5   0   9 1311.33    6.21   0
   6   0   9  237.35    3.42   0
   7   0   9    6.61    2.40   0
   8   0   9    9.03    2.83   0
  -6   1   9  599.39    4.51   0
  -5   1   9   33.17    2.19   0
  -4   1   9  345.13    3.42   0
  -3   1   9 1734.98    6.75   0
  -2   1   9   37.31    2.23   0
  -1   1   9    7.47    2.25   0
   0   1   9    9.19    2.24   0
   1   1   9   41.48    2.36   0
   2   1   9   34.12    2.35   0
   3   1   9 1261.68    4.81   0
   4   1   9  958.58    4.29   0
   5   1   9  263.50    2.84   0
   6   1   9  230.21    2.67   0
   7   1   9   85.46    2.88   0
   8   1   9   13.20    2.61   0
  -6   2   9    8.66    2.23   0
  -5   2   9  581.88    4.29   0
  -4   2   9 1271.23    5.75   0
  -3   2   9    8.43    1.90   0
  -2   2   9  128.50    2.66   0
  -1   2   9  543.43    4.16   0
   0   2   9   64.95    2.61   0
   1   2   9   53.78    2.71   0
   2   2   9 1519.66    5.54   0
   3   2   9  771.91    4.03   0
   4   2   9   24.64    2.04   0
   5   2   9 1014.28    4.41   0
   6   2   9  405.04    3.14   0
   7   2   9   89.26    2.26   0
   8   2   9   19.14    2.22   0
  -6   3   9  415.61    4.02   0
  -5   3   9  221.35    3.00   0
  -4   3   9   27.65    2.02   0
  -3   3   9  816.32    4.61   0
  -2   3   9  654.04    4.14   0
  -1   3   9   37.82    2.00   0
   0   3   9   35.13    2.18   0
   1   3   9  176.48    2.87   0
   2   3   9  315.44    3.17   0
   3   3   9   94.87    2.40   0
   4   3   9 1998.17    5.97   0
   5   3   9  528.90    3.59   0
   6   3   9    3.93    1.84   0
   7   3   9  226.62    2.67   0
   8   3   9   92.68    2.37   0
  -5   4   9  169.20    3.19   0
  -4   4   9 1257.49    5.68   0
  -3   4   9  288.52    3.18   0
  -2   4   9   50.91    2.10   0
  -1   4   9   14.16    1.88   0
   0   4   9    4.87    1.93   0
   1   4   9  105.65    2.73   0
   2   4   9 1087.12    4.95   0
   3   4   9 1372.01    5.27   0
   4   4   9  406.82    3.24   0
   5   4   9  253.39    2.94   0
   6   4   9  407.67    3.20   0
   7   4   9   11.73    2.05   0
   8   4   9  112.48    2.55   0
  -4   5   9   14.59    2.32   0
  -3   5   9  118.80    2.55   0
  -2   5   9  444.72    3.60   0
  -1   5   9   37.02    2.12   0
   0   5   9   39.22    2.10   0
   1   5   9  487.03    4.08   0
   2   5   9  484.94    4.50   0
   3   5   9  131.42    2.58   0
   4   5   9 1062.64    5.21   0
   5   5   9  421.72    3.24   0
   6   5   9  299.72    3.02   0
   7   5   9   66.94    2.29   0
   8   5   9    9.63    2.37   0
  -4   6   9  272.34    3.38   0
  -3   6   9  733.58    4.56   0
  -2   6   9    4.47    2.00   0
  -1   6   9    2.41    2.14   0
   0   6   9   61.38    2.43   0
   1   6   9   49.44    2.31   0
   2   6   9   29.26    2.31   0
   3   6   9 1127.22    4.82   0
   4   6   9  841.85    4.30   0
   5   6   9  107.68    2.34   0
   6   6   9  489.08    3.57   0
   7   6   9   16.20    2.26   0
   8   6   9    3.29    2.40   0
  -3   7   9   36.77    2.47   0
  -2   7   9   39.55    2.36   0
  -1   7   9  107.64    2.69   0
   0   7   9   55.53    2.44   0
   1   7   9   73.27    2.59   0
   2   7   9  872.32    5.28   0
   3   7   9  407.95    4.24   0
   4   7   9   71.42    2.29   0
   5   7   9  813.41    4.34   0
   6   7   9   41.59    2.35   0
   7   7   9    7.41    2.18   0
  -2   8   9  223.08    3.23   0
  -1   8   9   39.02    2.50   0
   0   8   9  151.69    2.88   0
   1   8   9   97.99    2.73   0
   2   8   9  144.72    2.98   0
   3   8   9  538.19    4.86   0
   4   8   9  798.81    4.44   0
   5   8   9  142.17    2.89   0
   6   8   9    8.71    2.23   0
   7   8   9   68.01    2.62   0
   0   9   9   11.46    2.58   0
   1   9   9    3.72    2.33   0
   2   9   9  643.30    4.74   0
   3   9   9  246.58    3.76   0
   4   9   9  148.34    3.69   0
   5   9   9  270.94    3.54   0
   6   9   9   82.20    2.73   0
  -2  -8  10   31.94    4.43   0
  -1  -8  10   10.01    3.74   0
  -4  -7  10  183.47    2.70   0
  -3  -7  10    8.28    1.96   0
  -2  -7  10    4.05    2.48   0
  -1  -7  10   38.43    3.81   0
   0  -7  10  388.12    4.86   0
   1  -7  10   16.92    2.62   0
   2  -7  10  244.64    3.42   0
  -5  -6  10  151.64    2.72   0
  -4  -6  10   17.31    1.89   0
  -3  -6  10   39.39    1.91   0
  -2  -6  10   63.08    2.97   0
  -1  -6  10   78.41    3.79   0
   0  -6  10  123.62    3.68   0
   1  -6  10  457.30    4.31   0
   2  -6  10  645.16    4.69   0
   3  -6  10    1.04    2.43   0
  -6  -5  10  129.79    2.58   0
  -5  -5  10    6.80    1.98   0
  -4  -5  10  248.05    2.69   0
  -3  -5  10   10.19    1.67   0
  -2  -5  10    8.92    2.57   0
  -1  -5  10  116.59    2.72   0
   0  -5  10  652.21    5.41   0
   1  -5  10  243.67    3.51   0
   2  -5  10  249.12    3.28   0
   3  -5  10  304.28    3.69   0
   4  -5  10  303.84    3.59   0
  -6  -4  10   75.46    2.42   0
  -5  -4  10  428.74    3.24   0
  -4  -4  10   16.33    1.74   0
  -3  -4  10   15.88    1.71   0
  -2  -4  10   35.46    2.57   0
  -1  -4  10  331.09    3.81   0
   0  -4  10   34.73    2.39   0
   1  -4  10  464.66    4.17   0
   2  -4  10  902.22    5.07   0
   3  -4  10  356.72    3.49   0
   4  -4  10   73.78    2.58   0
   5  -4  10   21.40    2.74   0
  -6  -3  10  355.92    3.15   0
  -5  -3  10   43.42    2.00   0
  -4  -3  10   52.02    2.00   0
  -3  -3  10   84.12    3.13   0
  -2  -3  10  144.76    3.14   0
  -1  -3  10   73.67    2.70   0
   0  -3  10  570.60    4.23   0
   1  -3  10 1084.16    5.21   0
   2  -3  10    4.33    1.96   0
   3  -3  10  250.55    3.19   0
   4  -3  10  186.51    2.79   0
   5  -3  10   41.95    2.36   0
   6  -3  10    0.61    2.43   0
  -6  -2  10   19.99    1.92   0
  -5  -2  10  341.14    2.99   0
  -4  -2  10  135.14    3.47   0
  -3  -2  10    2.72    2.31   0
  -2  -2  10   52.41    2.48   0
  -1  -2  10  407.57    3.83   0
   0  -2  10  872.14    4.86   0
   1  -2  10  194.30    2.84   0
   2  -2  10  649.89    3.90   0
   3  -2  10  968.57    4.50   0
   4  -2  10    5.41    1.95   0
   5  -2  10    4.24    2.04   0
   6  -2  10  144.53    2.63   0
  -6  -1  10  591.07   10.08   0
  -5  -1  10  107.32    3.03   0
  -4  -1  10    7.69    2.36   0
  -3  -1  10   10.77    2.20   0
  -2  -1  10  178.50    3.09   0
  -1  -1  10   56.01    2.45   0
   0  -1  10  500.35    3.95   0
   1  -1  10  938.35    4.91   0
   2  -1  10  835.26    4.84   0
   3  -1  10  299.91    3.01   0
   4  -1  10   14.03    1.98   0
   5  -1  10   30.81    2.03   0
   6  -1  10   -1.38    2.57   0
   7  -1  10  144.74    3.33   0
  -6   0  10   56.19    4.02   0
  -5   0  10    8.81    3.73   0
  -4   0  10  208.11    3.45   0
  -3   0  10   24.68    2.26   0
  -2   0  10   13.59    2.16   0
  -1   0  10  352.72    3.56   0
   0   0  10 1812.78    6.81   0
   1   0  10  101.48    2.69   0
   2   0  10  657.76    4.33   0
   3   0  10  355.42    3.68   0
   4   0  10  341.04    3.72   0
   5   0  10   18.43    2.46   0
   6   0  10  283.94    3.67   0
   7   0  10  145.79    3.33   0
  -6   1  10  226.48    3.39   0
  -5   1  10  528.42    4.14   0
  -4   1  10    0.79    1.97   0
  -3   1  10   13.42    3.40   0
  -2   1  10   79.03    3.80   0
  -1   1  10  615.04    4.42   0
   0   1  10  120.98    2.93   0
   1   1  10  470.27    3.93   0
   2   1  10 1405.03    5.29   0
   3   1  10   59.08    2.18   0
   4   1  10  100.55    2.23   0
   5   1  10    8.45    1.88   0
   6   1  10   49.32    2.02   0
   7   1  10   -1.63    2.14   0
  -6   2  10  436.40    3.29   0
  -5   2  10    4.31    2.40   0
  -4   2  10   48.54    2.11   0
  -3   2  10    4.45    1.94   0
  -2   2  10  162.73    2.81   0
  -1   2  10  341.61    4.36   0
   0   2  10  988.03    5.19   0
   1   2  10 1585.43    6.01   0
   2   2  10  121.58    2.44   0
   3   2  10  493.21    3.34   0
   4   2  10  125.25    2.31   0
   5   2  10    4.57    1.94   0
   6   2  10  158.68    2.51   0
   7   2  10  565.32    3.93   0
   8   2  10   99.11    2.65   0
  -5   3  10  367.91    3.79   0
  -4   3  10    8.47    2.06   0
  -3   3  10    1.30    2.01   0
  -2   3  10   59.23    2.22   0
  -1   3  10  718.80    4.73   0
   0   3  10  605.77    4.31   0
   1   3  10  708.47    4.39   0
   2   3  10  739.87    4.19   0
   3   3  10  341.01    2.98   0
   4   3  10   21.89    1.94   0
   5   3  10   13.12    2.04   0
   6   3  10  271.00    2.86   0
   7   3  10   18.58    2.20   0
   8   3  10  142.98    2.75   0
  -5   4  10   18.68    2.70   0
  -4   4  10    9.83    2.18   0
  -3   4  10    0.49    2.07   0
  -2   4  10  549.45    3.91   0
  -1   4  10   48.40    2.21   0
   0   4  10  733.92    4.83   0
   1   4  10 1027.39    5.06   0
   2   4  10  350.63    3.40   0
   3   4  10  228.91    2.83   0
   4   4  10   11.07    1.90   0
   5   4  10   37.58    1.98   0
   6   4  10    0.95    2.07   0
   7   4  10  374.10    3.29   0
   8   4  10  605.91    4.06   0
  -4   5  10   49.96    2.59   0
  -3   5  10   57.09    2.44   0
  -2   5  10   91.57    2.40   0
  -1   5  10  251.97    3.04   0
   0   5  10 1232.99    5.93   0
   1   5  10    3.62    2.12   0
   2   5  10  422.37    3.59   0
   3   5  10  440.12    3.44   0
   4   5  10   13.70    1.97   0
   5   5  10   32.10    1.94   0
   6   5  10  582.23    3.73   0
   7   5  10  186.51    2.80   0
   8   5  10    4.20    2.37   0
  -3   6  10   32.68    2.41   0
  -2   6  10  151.49    2.78   0
  -1   6  10  280.93    3.26   0
   0   6  10  139.30    2.71   0
   1   6  10  847.72    5.21   0
   2   6  10  683.69    5.19   0
   3   6  10    1.89    2.16   0
   4   6  10   38.48    2.41   0
   5   6  10   52.83    2.18   0
   6   6  10   28.70    2.18   0
   7   6  10   75.43    2.60   0
  -2   7  10   54.73    2.61   0
  -1   7  10  325.14    3.49   0
   0   7  10  649.23    4.41   0
   1   7  10  327.77    3.70   0
   2   7  10  170.90    3.20   0
   3   7  10  127.70    2.70   0
   4   7  10    7.91    2.24   0
   5   7  10    5.42    2.17   0
   6   7  10  153.62    2.72   0
   7   7  10  499.67    3.85   0
  -1   8  10  364.30    3.71   0
   0   8  10   31.80    2.55   0
   1   8  10  447.79    4.05   0
   2   8  10  200.45    3.56   0
   3   8  10  194.88    3.60   0
   4   8  10   44.00    2.54   0
   5   8  10   71.17    2.46   0
   6   8  10  133.35    2.84   0
   2   9  10   36.53    2.78   0
   3   9  10  112.77    3.49   0
   4   9  10   -1.86    2.71   0
  -2  -7  11  228.11    4.19   0
  -1  -7  11   10.43    2.59   0
   0  -7  11  173.37    4.19   0
  -4  -6  11  310.77    3.30   0
  -3  -6  11   13.50    1.94   0
  -2  -6  11   14.01    3.02   0
  -1  -6  11  585.38    4.68   0
   0  -6  11  216.47    3.71   0
   1  -6  11    1.10    2.95   0
   2  -6  11    3.07    2.71   0
  -5  -5  11   41.85    2.15   0
  -4  -5  11    3.86    1.87   0
  -3  -5  11   86.53    2.16   0
  -2  -5  11  944.69    6.42   0
  -1  -5  11   28.08    2.65   0
   0  -5  11   58.71    3.23   0
   1  -5  11  247.11    3.75   0
   2  -5  11   -1.62    2.80   0
   3  -5  11   10.45    2.51   0
  -5  -4  11   -2.52    1.85   0
  -4  -4  11  182.58    2.53   0
  -3  -4  11  499.43    3.79   0
  -2  -4  11    2.45    2.40   0
  -1  -4  11  220.15    3.32   0
   0  -4  11  657.23    4.56   0
   1  -4  11   24.38    2.63   0
   2  -4  11   27.76    2.62   0
   3  -4  11    5.24    2.26   0
   4  -4  11  243.53    3.14   0
  -5  -3  11  174.68    2.53   0
  -4  -3  11   56.08    2.01   0
  -3  -3  11   38.10    2.87   0
  -2  -3  11  675.95    5.16   0
  -1  -3  11  543.68    4.43   0
   0  -3  11    1.40    2.22   0
   1  -3  11  119.47    2.52   0
   2  -3  11   20.82    2.13   0
   3  -3  11   93.79    2.74   0
   4  -3  11  183.52    2.84   0
   5  -3  11  409.74    3.48   0
  -6  -2  11   19.62    2.18   0
  -5  -2  11   13.51    2.00   0
  -4  -2  11   17.90    2.82   0
  -3  -2  11  986.60    6.32   0
  -2  -2  11  363.18    3.99   0
  -1  -2  11   82.90    2.68   0
   0  -2  11  591.27    4.24   0
   1  -2  11  128.14    2.54   0
   2  -2  11    4.21    1.92   0
   3  -2  11  189.22    2.62   0
   4  -2  11  317.23    3.09   0
   5  -2  11  112.32    2.41   0
   6  -2  11  246.40    3.23   0
  -5  -1  11   18.38    2.72   0
  -4  -1  11  487.77    4.72   0
  -3  -1  11    6.63    2.46   0
  -2  -1  11  240.33    3.35   0
  -1  -1  11  951.28    5.33   0
   0  -1  11   67.90    2.33   0
   1  -1  11    5.18    2.06   0
   2  -1  11   12.37    2.17   0
   3  -1  11   17.14    2.04   0
   4  -1  11   66.57    2.54   0
   5  -1  11  602.84    3.77   0
   6  -1  11  439.68    4.42   0
  -5   0  11   50.28    4.49   0
  -4   0  11    2.53    4.01   0
  -3   0  11  572.40    4.56   0
  -2   0  11 1117.67    5.97   0
  -1   0  11   14.02    2.10   0
   0   0  11  102.10    2.53   0
   1   0  11  416.05    3.68   0
   2   0  11   33.21    2.17   0
   3   0  11   37.61    2.31   0
   4   0  11  699.27    5.35   0
   5   0  11  375.55    3.16   0
   6   0  11   38.71    2.43   0
   7   0  11  737.63    4.26   0
  -5   1  11    0.68    4.09   0
  -4   1  11  389.61    5.57   0
  -3   1  11  331.19    5.03   0
  -2   1  11   -5.43    3.10   0
  -1   1  11  690.81    5.41   0
   0   1  11  542.95    4.20   0
   1   1  11   24.34    2.22   0
   2   1  11   23.96    2.01   0
   3   1  11  104.00    2.23   0
   4   1  11  521.10    3.47   0
   5   1  11  179.62    2.57   0
   6   1  11  735.00    4.00   0
   7   1  11  245.83    3.06   0
  -5   2  11  306.13    3.68   0
  -4   2  11   76.20    2.56   0
  -3   2  11  258.81    3.16   0
  -2   2  11 1176.89    6.82   0
  -1   2  11  417.34    4.62   0
   0   2  11   76.20    2.73   0
   1   2  11   29.50    2.35   0
   2   2  11   10.09    1.87   0
   3   2  11   33.91    1.94   0
   4   2  11  624.36    3.85   0
   5   2  11  526.24    3.45   0
   6   2  11  325.90    3.03   0
   7   2  11   91.81    2.43   0
  -4   3  11  127.91    2.85   0
  -3   3  11 1027.05    5.52   0
  -2   3  11   61.41    2.31   0
  -1   3  11  178.57    3.33   0
   0   3  11  298.11    3.53   0
   1   3  11   49.81    2.31   0
   2   3  11   20.87    2.08   0
   3   3  11  424.72    3.20   0
   4   3  11  328.86    3.00   0
   5   3  11  182.00    2.60   0
   6   3  11  606.75    3.74   0
   7   3  11  392.94    3.30   0
  -4   4  11  300.42    3.52   0
  -3   4  11   37.98    2.24   0
  -2   4  11  289.11    3.29   0
  -1   4  11 1006.60    5.68   0
   0   4  11    5.27    2.25   0
   1   4  11   12.41    2.30   0
   2   4  11   10.40    2.10   0
   3   4  11  155.59    2.60   0
   4   4  11   -2.30    1.98   0
   5   4  11 1072.69    4.67   0
   6   4  11  401.94    3.40   0
   7   4  11   73.86    2.49   0
  -3   5  11  512.90    4.11   0
  -2   5  11  558.54    4.04   0
  -1   5  11    7.67    2.23   0
   0   5  11  111.94    2.75   0
   1   5  11  134.94    2.90   0
   2   5  11  294.73    3.24   0
   3   5  11  331.54    3.26   0
   4   5  11  655.68    3.89   0
   5   5  11  429.48    3.38   0
   6   5  11   27.44    2.18   0
   7   5  11  440.63    3.63   0
  -2   6  11  108.08    2.64   0
  -1   6  11  479.12    3.95   0
   0   6  11  118.83    2.86   0
   1   6  11   13.75    2.36   0
   2   6  11  140.25    2.82   0
   3   6  11   95.03    2.50   0
   4   6  11  178.96    2.79   0
   5   6  11  345.25    3.22   0
   6   6  11  635.54    4.05   0
  -1   7  11   26.36    2.54   0
   0   7  11    5.96    2.48   0
   1   7  11    4.94    2.45   0
   2   7  11   15.05    2.70   0
   3   7  11   17.55    2.43   0
   4   7  11  602.27    3.89   0
   5   7  11  442.03    3.55   0
   6   7  11  118.05    2.76   0
   1   8  11   10.77    2.64   0
   2   8  11    1.79    2.94   0
   3   8  11  314.64    3.82   0
   4   8  11  265.66    3.40   0
   5   8  11   -3.21    2.52   0
  -2  -6  12    6.20    2.93   0
  -1  -6  12   24.51    2.68   0
   0  -6  12    6.30    2.63   0
  -3  -5  12   19.36    2.03   0
  -2  -5  12   10.32    2.68   0
  -1  -5  12   54.39    2.71   0
   0  -5  12  116.68    2.93   0
   1  -5  12   48.75    3.17   0
   2  -5  12  162.83    3.53   0
  -4  -4  12   35.52    2.18   0
  -3  -4  12  289.55    3.13   0
  -2  -4  12  106.85    3.18   0
  -1  -4  12    1.55    2.25   0
   0  -4  12   22.39    2.25   0
   1  -4  12  168.87    3.00   0
   2  -4  12  530.30    4.39   0
   3  -4  12  141.07    2.87   0
  -4  -3  12  565.63    3.73   0
  -3  -3  12   70.53    3.24   0
  -2  -3  12   -1.08    2.42   0
  -1  -3  12   12.26    2.36   0
   0  -3  12  167.11    3.05   0
   1  -3  12   30.38    2.05   0
   2  -3  12  172.06    3.05   0
   3  -3  12  468.06    3.69   0
   4  -3  12  329.19    3.37   0
  -5  -2  12  628.43    3.89   0
  -4  -2  12   55.82    3.80   0
  -3  -2  12    7.43    2.52   0
  -2  -2  12  225.08    3.56   0
  -1  -2  12   29.19    2.42   0
   0  -2  12   13.04    2.07   0
   1  -2  12  239.92    3.13   0
   2  -2  12  737.61    4.76   0
   3  -2  12   76.62    2.66   0
   4  -2  12  176.92    2.91   0
   5  -2  12  341.85    3.30   0
  -5  -1  12   33.67    3.36   0
  -4  -1  12  164.80    3.78   0
  -3  -1  12  306.74    3.90   0
  -2  -1  12    1.95    2.25   0
  -1  -1  12   46.85    2.43   0
   0  -1  12   10.84    2.10   0
   1  -1  12  539.94    4.10   0
   2  -1  12    2.47    2.10   0
   3  -1  12  396.17    3.78   0
   4  -1  12  679.80    4.84   0
   5  -1  12   32.39    3.03   0
  -4   0  12  227.91    5.18   0
  -3   0  12   46.37    2.65   0
  -2   0  12  105.27    2.75   0
  -1   0  12    5.23    2.15   0
   0   0  12  186.99    2.87   0
   1   0  12  237.37    3.09   0
   2   0  12  650.69    4.54   0
   3   0  12  758.44    4.74   0
   4   0  12   68.22    2.18   0
   5   0  12  105.72    2.29   0
   6   0  12   94.24    2.56   0
  -4   1  12    1.47    3.48   0
  -3   1  12  440.03    5.40   0
  -2   1  12    3.85    3.21   0
  -1   1  12   -0.27    2.43   0
   0   1  12   54.83    2.24   0
   1   1  12  729.27    4.18   0
   2   1  12  244.06    2.88   0
   3   1  12  181.12    2.90   0
   4   1  12  453.97    3.33   0
   5   1  12  328.22    3.04   0
   6   1  12   25.85    2.02   0
  -4   2  12  569.58    5.90   0
  -3   2  12    8.81    3.41   0
  -2   2  12    9.76    3.20   0
  -1   2  12    3.72    2.94   0
   0   2  12  215.64    3.60   0
   1   2  12   14.74    2.15   0
   2   2  12  360.06    3.12   0
   3   2  12  945.64    4.48   0
   4   2  12  171.70    2.60   0
   5   2  12  127.21    2.50   0
   6   2  12    2.69    2.00   0
  -3   3  12   13.21    2.20   0
  -2   3  12  123.38    3.34   0
  -1   3  12   91.57    3.09   0
   0   3  12   10.69    2.75   0
   1   3  12  461.02    3.77   0
   2   3  12 1049.19    4.98   0
   3   3  12    6.34    2.26   0
   4   3  12  316.35    3.11   0
   5   3  12  173.48    2.65   0
   6   3  12   43.10    2.19   0
  -3   4  12  147.86    3.03   0
  -2   4  12    2.06    2.32   0
  -1   4  12   23.38    2.76   0
   0   4  12  192.93    3.32   0
   1   4  12  352.03    3.53   0
   2   4  12  148.82    2.82   0
   3   4  12  539.46    3.79   0
   4   4  12  615.21    3.84   0
   5   4  12    4.06    2.05   0
   6   4  12   36.56    2.26   0
  -2   5  12   25.13    2.56   0
  -1   5  12  133.28    2.98   0
   0   5  12   38.03    2.74   0
   1   5  12  283.34    3.45   0
   2   5  12  742.67    4.50   0
   3   5  12  461.98    3.67   0
   4   5  12  142.59    2.45   0
   5   5  12   49.80    2.34   0
   6   5  12   10.64    2.21   0
  -1   6  12    7.11    2.22   0
   0   6  12  105.16    3.12   0
   1   6  12  557.99    4.38   0
   2   6  12   74.27    2.74   0
   3   6  12  388.65    3.43   0
   4   6  12  252.75    3.16   0
   5   6  12  145.33    2.73   0
   1   7  12   28.38    3.13   0
   2   7  12  374.77    3.86   0
   3   7  12  573.61    4.21   0
   4   7  12   61.10    2.54   0
  -2  -4  13   11.36    2.82   0
  -1  -4  13  701.06    5.43   0
   0  -4  13   93.22    2.90   0
   1  -4  13   12.23    2.36   0
   2  -4  13  196.18    3.29   0
  -3  -3  13   75.25    3.49   0
  -2  -3  13  235.40    4.02   0
  -1  -3  13   15.09    2.32   0
   0  -3  13   58.14    2.65   0
   1  -3  13  562.40    4.33   0
   2  -3  13   63.62    2.60   0
   3  -3  13    0.02    2.51   0
  -3  -2  13   35.30    2.92   0
  -2  -2  13    1.27    2.41   0
  -1  -2  13  295.79    3.62   0
   0  -2  13  805.24    5.16   0
   1  -2  13    8.05    2.14   0
   2  -2  13   71.75    2.53   0
   3  -2  13  125.18    3.04   0
   4  -2  13    4.92    2.42   0
  -3  -1  13   -0.01    2.59   0
  -2  -1  13  350.30    3.95   0
  -1  -1  13  428.17    4.24   0
   0  -1  13   21.75    2.38   0
   1  -1  13  199.32    3.09   0
   2  -1  13  410.56    3.71   0
   3  -1  13    9.92    2.18   0
   4  -1  13   21.10    2.70   0
  -3   0  13  294.20    4.35   0
  -2   0  13   18.45    2.69   0
  -1   0  13   85.02    2.81   0
   0   0  13  750.01    4.90   0
   1   0  13  297.76    3.64   0
   2   0  13   38.27    2.44   0
   3   0  13    6.87    2.02   0
   4   0  13    6.50    2.07   0
   5   0  13   29.73    2.32   0
  -3   1  13   -2.05    3.55   0
  -2   1  13   68.43    3.54   0
  -1   1  13  872.37    5.12   0
   0   1  13   72.55    2.63   0
   1   1  13   63.31    2.42   0
   2   1  13  307.62    3.07   0
   3   1  13    7.32    2.04   0
   4   1  13    0.64    2.04   0
   5   1  13  206.29    2.77   0
  -3   2  13   94.57    3.88   0
  -2   2  13  357.24    4.60   0
  -1   2  13   20.60    2.87   0
   0   2  13  221.33    3.37   0
   1   2  13  725.37    4.47   0
   2   2  13   13.80    2.14   0
   3   2  13   -0.36    2.00   0
   4   2  13    4.44    1.97   0
   5   2  13   92.99    2.54   0
  -2   3  13   18.36    2.95   0
  -1   3  13  548.83    4.74   0
   0   3  13  680.01    4.85   0
   1   3  13   10.74    2.75   0
   2   3  13   58.89    2.17   0
   3   3  13   80.51    2.33   0
   4   3  13  116.41    2.42   0
   5   3  13  171.10    2.69   0
  -1   4  13  123.43    3.38   0
   0   4  13   66.49    3.09   0
   1   4  13  456.89    3.87   0
   2   4  13  118.40    2.73   0
   3   4  13   17.21    1.99   0
   4   4  13   37.89    2.25   0
   5   4  13  135.72    2.67   0
  -1   5  13  132.19    3.51   0
   0   5  13  757.72    5.26   0
   1   5  13   55.80    2.77   0
   2   5  13   13.30    2.47   0
   3   5  13    7.22    2.27   0
   4   5  13   42.10    2.32   0
   5   5  13    7.57    2.23   0
   1   6  13   64.61    3.07   0
   2   6  13  232.90    3.37   0
   3   6  13    4.39    2.43   0
  -1  -2  14   23.27    2.61   0
   0  -2  14   69.67    2.81   0
   1  -2  14    7.13    2.36   0
   2  -2  14   59.58    2.59   0
  -2  -1  14    3.22    2.65   0
  -1  -1  14  267.63    3.78   0
   0  -1  14   -0.03    2.37   0
   1  -1  14    3.53    2.46   0
   2  -1  14   26.21    2.39   0
   3  -1  14  396.26    3.98   0
  -2   0  14  383.82    4.66   0
  -1   0  14   27.11    2.72   0
   0   0  14    1.36    2.28   0
   1   0  14   -0.55    2.06   0
   2   0  14  161.69    2.86   0
   3   0  14   -4.22    2.34   0
  -2   1  14   63.21    3.28   0
  -1   1  14   34.21    2.67   0
   0   1  14   45.12    2.51   0
   1   1  14   62.60    2.46   0
   2   1  14   22.67    2.32   0
   3   1  14  246.68    3.03   0
   4   1  14  521.56    3.84   0
  -1   2  14   75.96    2.64   0
   0   2  14    0.28    2.26   0
   1   2  14   13.10    2.12   0
   2   2  14   52.25    2.47   0
   3   2  14  441.57    3.65   0
   4   2  14   93.33    2.64   0
   0   3  14   39.26    2.85   0
   1   3  14  122.38    2.65   0
   2   3  14   57.85    2.39   0
   3   3  14  314.34    3.36   0
   4   3  14  381.01    3.31   0
   1   4  14    3.06    2.56   0
   2   4  14   80.45    2.50   0
   3   4  14  382.77    3.53   0
;
_shelx_hkl_checksum              58687
_shelx_res_file
;
TITL
CELL  0.71073  7.45210  8.61270 10.72490 86.04800 84.18400 72.42700
ZERR 2  0.00140  0.00190  0.00220  0.01700  0.01600  0.01600
LATT 1
SFAC Ca I  O  H
UNIT 2  4  16  32
OMIT -3 55
L.S. 10
ACTA
BOND
FMAP 2
PLAN 1
DFIX O1 H1A 0.82 0.01
DFIX O1 H1B 0.82 0.01
DFIX H1A H1B 1.32 0.01
DFIX O2 H2A 0.82 0.01
DFIX O2 H2B 0.82 0.01
DFIX H2A H2B 1.32 0.01
DFIX O3 H3A 0.82 0.01
DFIX O3 H3B 0.82 0.01
DFIX H3A H3B 1.32 0.01
DFIX O4 H4A 0.82 0.01
DFIX O4 H4B 0.82 0.01
DFIX O5 H5A 0.82 0.01
DFIX O5 H5B 0.82 0.01
DFIX H5A H5B 1.32 0.01
DFIX O6 H6A 0.82 0.01
DFIX O6 H6B 0.82 0.01
DFIX H6A H6B 1.32 0.01
DFIX O7 H7A 0.82 0.01
DFIX O7 H7B 0.82 0.01
DFIX H7A H7B 1.32 0.01
DFIX O8 H8A 0.82 0.01
DFIX O8 H8B 0.82 0.01
WGHT    0.054500    3.514500
FVAR       0.46678
MOLE 1
I1    2    0.709731    0.713647   -0.000684    11.00000    0.01371    0.01851 =
         0.01503   -0.00335   -0.00141   -0.00563
I2    2    0.414742    0.297855    0.388471    11.00000    0.00936    0.01374 =
         0.01892   -0.00194   -0.00382    0.00038
O1    3   -0.247854    0.955500    0.241384    11.00000    0.00920    0.02342 =
         0.02490   -0.01272   -0.00582   -0.00085
O5    3    0.151582    0.916982    0.100344    11.00000    0.02212    0.01898 =
         0.01715   -0.00136    0.00075   -0.00403
O6    3   -0.189963    0.998683    0.503884    11.00000    0.00788    0.01659 =
         0.01858   -0.00003   -0.00339   -0.00085
O7    3    0.106065    0.685159    0.488724    11.00000    0.01702    0.01471 =
         0.01652   -0.00356   -0.00082    0.00204
CA1   1    0.058985    0.885103    0.320495    11.00000    0.00804    0.01202 =
         0.01321   -0.00179   -0.00287   -0.00085
O4    3    0.003201    1.183320    0.275001    11.00000    0.01396    0.01634 =
         0.01836    0.00105   -0.00334   -0.00512
O8    3    0.250231    0.694791   -0.096315    11.00000    0.01673    0.01693 =
         0.02305   -0.00039   -0.00117   -0.00505
O3    3    0.397851    0.768642    0.294830    11.00000    0.01005    0.03751 =
         0.01982   -0.00231    0.00032   -0.00110
O2    3    0.058792    0.633112    0.229262    11.00000    0.02507    0.01564 =
         0.02711   -0.00652   -0.01235   -0.00171
H4A   4    0.078662    1.231162    0.244843    11.00000    0.01559
H5A   4    0.155427    1.002388    0.062987    11.00000    0.02755
H6A   4   -0.238372    0.931420    0.537769    11.00000    0.04017
H6B   4   -0.274309    1.080247    0.485633    11.00000    0.03712
H7B   4    0.083877    0.712520    0.561761    11.00000    0.03545
H7A   4    0.174706    0.590748    0.489110    11.00000    0.06874
H1A   4   -0.345224    1.030266    0.254254    11.00000    0.02744
H1B   4   -0.250935    0.918643    0.173700    11.00000    0.04582
H3A   4    0.468016    0.749064    0.230357    11.00000    0.05570
H5B   4    0.207953    0.842674    0.053927    11.00000    0.07937
H2A   4    0.001379    0.619665    0.171670    11.00000    0.07643
H3B   4    0.463930    0.748570    0.353842    11.00000    0.08742
H2B   4    0.150045    0.551771    0.235095    11.00000    0.06004
H8B   4    0.353546    0.683247   -0.135630    11.00000    0.01785
H8A   4    0.249964    0.602029   -0.072943    11.00000    0.02378
H4B   4   -0.043523    1.186223    0.208366    11.00000    0.05998
HKLF 4
REM
REM R1 =  0.0353 for    2846 Fo > 4sig(Fo)  and  0.0370 for all    2986 data
REM    164 parameters refined using     22 restraints
END
WGHT      0.0545      3.5144
REM Highest difference peak  2.129,  deepest hole -2.040,  1-sigma level  0.216
Q1    1   0.7187  0.6139  0.0255  11.00000  0.05    2.13
;
_shelx_res_checksum              594
_shelxl_version_number           .000002012
loop_
_space_group_symop_operation_xyz
'x, y, z'
'-x, -y, -z'
loop_
_atom_site_type_symbol
_atom_site_label
_atom_site_fract_x
_atom_site_fract_y
_atom_site_fract_z
_atom_site_U_iso_or_equiv
_atom_site_adp_type
_atom_site_calc_flag
_atom_site_occupancy
I I1 0.70973(4) 0.71365(4) -0.00068(3) 0.01542(11) Uani d 1
I I2 0.41474(4) 0.29786(4) 0.38847(3) 0.01461(11) Uani d 1
O O1 -0.2479(5) 0.9555(5) 0.2414(4) 0.0192(8) Uani d 1
O O5 0.1516(6) 0.9170(5) 0.1003(4) 0.0200(8) Uani d 1
O O6 -0.1900(5) 0.9987(4) 0.5039(3) 0.0148(7) Uani d 1
O O7 0.1061(5) 0.6852(5) 0.4887(3) 0.0175(7) Uani d 1
Ca Ca1 0.05899(13) 0.88510(11) 0.32050(9) 0.01136(19) Uani d 1
O O4 0.0032(5) 1.1833(5) 0.2750(4) 0.0160(7) Uani d 1
O O8 0.2502(5) 0.6948(5) -0.0963(4) 0.0189(7) Uani d 1
O O3 0.3979(5) 0.7686(6) 0.2948(4) 0.0238(8) Uani d 1
O O2 0.0588(6) 0.6331(5) 0.2293(4) 0.0226(8) Uani d 1
H H4A 0.079(7) 1.231(7) 0.245(6) 0.016(16) Uiso d 1
H H5A 0.155(11) 1.002(4) 0.063(6) 0.028(19) Uiso d 1
H H6A -0.238(8) 0.931(6) 0.538(7) 0.04(2) Uiso d 1
H H6B -0.274(7) 1.080(5) 0.486(8) 0.04(2) Uiso d 1
H H7B 0.084(11) 0.713(8) 0.562(2) 0.04(2) Uiso d 1
H H7A 0.175(13) 0.591(5) 0.489(7) 0.07(3) Uiso d 1
H H1A -0.345(6) 1.030(6) 0.254(6) 0.027(19) Uiso d 1
H H1B -0.251(10) 0.919(9) 0.174(4) 0.05(3) Uiso d 1
H H3A 0.468(10) 0.749(12) 0.230(4) 0.06(3) Uiso d 1
H H5B 0.208(15) 0.843(6) 0.054(6) 0.08(4) Uiso d 1
H H2A 0.001(12) 0.620(11) 0.172(8) 0.08(4) Uiso d 1
H H3B 0.464(10) 0.749(15) 0.354(5) 0.09(4) Uiso d 1
H H2B 0.150(9) 0.552(7) 0.235(9) 0.06(3) Uiso d 1
H H8B 0.354(5) 0.683(9) -0.136(6) 0.018(17) Uiso d 1
H H8A 0.250(11) 0.602(4) -0.073(7) 0.024(18) Uiso d 1
H H4B -0.044(14) 1.186(13) 0.208(5) 0.06(3) Uiso d 1
loop_
_atom_site_aniso_label
_atom_site_aniso_U_11
_atom_site_aniso_U_22
_atom_site_aniso_U_33
_atom_site_aniso_U_12
_atom_site_aniso_U_13
_atom_site_aniso_U_23
I1 0.01371(17) 0.01851(18) 0.01503(17) -0.00563(12) -0.00141(11) -0.00335(12)
I2 0.00936(16) 0.01374(17) 0.01892(18) 0.00038(11) -0.00382(11) -0.00194(12)
O1 0.0092(16) 0.0234(19) 0.025(2) -0.0009(14) -0.0058(14) -0.0127(15)
O5 0.0221(19) 0.0190(19) 0.0172(18) -0.0040(15) 0.0007(14) -0.0014(14)
O6 0.0079(15) 0.0166(17) 0.0186(17) -0.0008(13) -0.0034(13) 0.0000(13)
O7 0.0170(17) 0.0147(17) 0.0165(18) 0.0020(14) -0.0008(14) -0.0036(13)
Ca1 0.0080(4) 0.0120(4) 0.0132(4) -0.0009(3) -0.0029(3) -0.0018(3)
O4 0.0140(17) 0.0163(17) 0.0184(18) -0.0051(13) -0.0033(14) 0.0010(14)
O8 0.0167(18) 0.0169(18) 0.0231(19) -0.0051(14) -0.0012(15) -0.0004(15)
O3 0.0100(17) 0.038(2) 0.0198(19) -0.0011(16) 0.0003(14) -0.0023(17)
O2 0.025(2) 0.0156(18) 0.027(2) -0.0017(15) -0.0123(16) -0.0065(15)
loop_
_atom_type_symbol
_atom_type_description
_atom_type_scat_dispersion_real
_atom_type_scat_dispersion_imag
_atom_type_scat_source
Ca Ca 0.2262 0.3064 'International Tables Vol C Tables 4.2.6.8 and 6.1.1.4'
I I -0.4742 1.8119 'International Tables Vol C Tables 4.2.6.8 and 6.1.1.4'
O O 0.0106 0.0060 'International Tables Vol C Tables 4.2.6.8 and 6.1.1.4'
H H 0.0000 0.0000 'International Tables Vol C Tables 4.2.6.8 and 6.1.1.4'
loop_
_geom_angle_atom_site_label_1
_geom_angle_atom_site_label_2
_geom_angle_atom_site_label_3
_geom_angle_site_symmetry_1
_geom_angle_site_symmetry_3
_geom_angle
Ca1 O6 Ca1 . 2_576 113.76(13)
O7 Ca1 O1 . . 114.68(15)
O7 Ca1 O5 . . 140.93(14)
O1 Ca1 O5 . . 81.07(14)
O7 Ca1 O3 . . 79.41(14)
O1 Ca1 O3 . . 151.32(14)
O5 Ca1 O3 . . 73.52(14)
O7 Ca1 O2 . . 74.52(14)
O1 Ca1 O2 . . 76.94(13)
O5 Ca1 O2 . . 74.97(15)
O3 Ca1 O2 . . 83.70(15)
O7 Ca1 O4 . . 141.83(13)
O1 Ca1 O4 . . 79.94(13)
O5 Ca1 O4 . . 73.51(13)
O3 Ca1 O4 . . 104.77(14)
O2 Ca1 O4 . . 143.25(14)
O7 Ca1 O6 . . 72.05(12)
O1 Ca1 O6 . . 72.44(12)
O5 Ca1 O6 . . 145.51(13)
O3 Ca1 O6 . . 136.08(13)
O2 Ca1 O6 . . 118.41(14)
O4 Ca1 O6 . . 80.31(12)
O7 Ca1 O6 . 2_576 73.43(13)
O1 Ca1 O6 . 2_576 132.70(12)
O5 Ca1 O6 . 2_576 123.34(13)
O3 Ca1 O6 . 2_576 74.09(13)
O2 Ca1 O6 . 2_576 143.70(13)
O4 Ca1 O6 . 2_576 71.54(12)
O6 Ca1 O6 . 2_576 66.24(13)
O7 Ca1 Ca1 . 2_576 69.26(9)
O1 Ca1 Ca1 . 2_576 103.02(10)
O5 Ca1 Ca1 . 2_576 145.08(11)
O3 Ca1 Ca1 . 2_576 105.41(11)
O2 Ca1 Ca1 . 2_576 139.94(12)
O4 Ca1 Ca1 . 2_576 73.17(9)
O6 Ca1 Ca1 . 2_576 33.16(8)
O6 Ca1 Ca1 2_576 2_576 33.08(8)
loop_
_geom_bond_atom_site_label_1
_geom_bond_atom_site_label_2
_geom_bond_site_symmetry_2
_geom_bond_distance
_geom_bond_publ_flag
Ca1 O1 . 2.409(4) y
Ca1 O2 . 2.442(4) y
Ca1 O3 . 2.414(4) y
Ca1 O4 . 2.496(4) y
Ca1 O5 . 2.413(4) y
Ca1 O6 . 2.588(4) y
Ca1 O6 2_576 2.593(4) y
Ca1 O7 . 2.383(4) y
Ca1 O6 2_576 2.593(4) ?
Ca1 Ca1 2_576 4.339(2) ?
