#------------------------------------------------------------------------------
#$Date: 2019-12-25 22:49:07 +0200 (Wed, 25 Dec 2019) $
#$Revision: 245953 $
#$URL: file:///home/coder/svn-repositories/cod/cif/2/31/15/2311521.cif $
#------------------------------------------------------------------------------
#
# This file is available in the Crystallography Open Database (COD),
# http://www.crystallography.net/. The original data for this entry
# were provided by IUCr Journals, http://journals.iucr.org/.
#
# The file may be used within the scientific community so long as
# proper attribution is given to the journal article from which the
# data were obtained.
#
data_2311521
loop_
_publ_author_name
'Gotoh, Kazuma'
'Ishida, Hiroyuki'
_publ_section_title
;
 Crystal structures of two 1:2 dihydrate compounds of chloranilic acid
 with 2-carb-oxy-pyridine and 2-carb-oxy-quinoline.
;
_journal_issue                   'Pt 12'
_journal_name_full
'Acta crystallographica. Section E, Crystallographic communications'
_journal_page_first              1840
_journal_page_last               1844
_journal_paper_doi               10.1107/S2056989017015997
_journal_volume                  73
_journal_year                    2017
_chemical_formula_iupac          '2C10 H7 N O2, C6 H2 Cl2 O4, 2H2 O'
_chemical_formula_moiety         '2(C10 H7 N O2), C6 H2 Cl2 O4, 2(H2 O)'
_chemical_formula_sum            'C26 H20 Cl2 N2 O10'
_chemical_formula_weight         591.36
_chemical_name_systematic
;
 chloranilic acid--2-carboxyquinoline (1/2) dihydrate
;
_space_group_IT_number           2
_space_group_name_Hall           '-P 1'
_space_group_name_H-M_alt        'P -1'
_symmetry_cell_setting           triclinic
_symmetry_space_group_name_Hall  '-P 1'
_symmetry_space_group_name_H-M   'P -1'
_atom_sites_solution_hydrogens   geom
_atom_sites_solution_primary     direct
_atom_sites_solution_secondary   difmap
_cell_angle_alpha                96.652(4)
_cell_angle_beta                 94.109(3)
_cell_angle_gamma                99.009(4)
_cell_formula_units_Z            1
_cell_length_a                   4.4745(2)
_cell_length_b                   10.5448(8)
_cell_length_c                   13.6111(6)
_cell_measurement_reflns_used    9714
_cell_measurement_temperature    200(2)
_cell_measurement_theta_max      30.14
_cell_measurement_theta_min      3.02
_cell_volume                     627.37(6)
_computing_cell_refinement
;
RAPID-AUTO (Rigaku, 2006)
;
_computing_data_collection
;
RAPID-AUTO (Rigaku, 2006)
;
_computing_data_reduction
;
RAPID-AUTO (Rigaku, 2006)
;
_computing_molecular_graphics
;
ORTEP-3 for Windows (Farrugia, 2012)
;
_computing_publication_material
;
CrystalStructure (Rigaku, 2010) and PLATON (Spek, 2015)
;
_computing_structure_refinement
;
SHELXL2016 (Sheldrick, 2015)
;
_computing_structure_solution
;
SHELXS97 (Sheldrick, 2008)
;
_diffrn_ambient_temperature      200(2)
_diffrn_detector_area_resol_mean 10.000
_diffrn_measured_fraction_theta_full 0.998
_diffrn_measured_fraction_theta_max 0.997
_diffrn_measurement_device_type  'Rigaku R-AXIS RAPIDII'
_diffrn_measurement_method       \w
_diffrn_radiation_type           'Mo K\a'
_diffrn_radiation_wavelength     0.71075
_diffrn_reflns_av_R_equivalents  0.1217
_diffrn_reflns_limit_h_max       6
_diffrn_reflns_limit_h_min       -6
_diffrn_reflns_limit_k_max       14
_diffrn_reflns_limit_k_min       -14
_diffrn_reflns_limit_l_max       19
_diffrn_reflns_limit_l_min       -19
_diffrn_reflns_number            12358
_diffrn_reflns_theta_full        25.242
_diffrn_reflns_theta_max         30.034
_diffrn_reflns_theta_min         3.026
_diffrn_standards_number         0
_exptl_absorpt_coefficient_mu    0.323
_exptl_absorpt_correction_T_max  0.990
_exptl_absorpt_correction_T_min  0.925
_exptl_absorpt_correction_type   numerical
_exptl_absorpt_process_details
;
(<i>NUMABS</i>; Higashi, 1999)
;
_exptl_crystal_colour            brown
_exptl_crystal_density_diffrn    1.565
_exptl_crystal_density_method    'not measured'
_exptl_crystal_description       platelet
_exptl_crystal_F_000             304.00
_exptl_crystal_size_max          0.410
_exptl_crystal_size_mid          0.210
_exptl_crystal_size_min          0.030
_refine_diff_density_max         0.518
_refine_diff_density_min         -0.450
_refine_ls_extinction_method     none
_refine_ls_goodness_of_fit_ref   1.005
_refine_ls_hydrogen_treatment    mixed
_refine_ls_number_parameters     197
_refine_ls_number_reflns         3666
_refine_ls_number_restraints     2
_refine_ls_restrained_S_all      1.005
_refine_ls_R_factor_all          0.0722
_refine_ls_R_factor_gt           0.0524
_refine_ls_shift/su_max          0.000
_refine_ls_shift/su_mean         0.000
_refine_ls_structure_factor_coef Fsqd
_refine_ls_weighting_details
'w=1/[\s^2^(Fo^2^)+(0.0879P)^2^] where P=(Fo^2^+2Fc^2^)/3'
_refine_ls_weighting_scheme      calc
_refine_ls_wR_factor_gt          0.1388
_refine_ls_wR_factor_ref         0.1493
_reflns_number_gt                2755
_reflns_number_total             3666
_reflns_threshold_expression     'I > 2\s(I)'
_cod_data_source_file            lh5860sup1.cif
_cod_data_source_block           II
_cod_original_cell_volume        627.38(6)
_cod_database_code               2311521
_shelx_space_group_comment
;
The symmetry employed for this shelxl refinement is uniquely defined
by the following loop, which should always be used as a source of
symmetry information in preference to the above space-group names.
They are only intended as comments.
;
_shelx_hkl_file
;
   0   0   2 4755.67  193.27
   0   0  -2 5483.62  262.86
   0   0  -2 5340.64  254.51
   0   1  -233502.57 2166.09
   0  -1   234818.66 2292.70
   0   1  -236186.92 2366.67
   0  -1   231944.92 2006.17
   0   1   220229.56 1172.73
   0   1   221383.57 1188.53
   0  -1  -222118.93 1356.99
   0  -1  -221397.90 1213.10
   0  -2   0 1661.56   98.18
   0   2   0 1486.51   83.40
   0   2   0 1676.21  120.30
   0  -2   0 2009.57  104.68
   0  -2   136557.80 2546.59
   0  -2   136890.55 2504.70
   0   2  -129316.96 1869.18
   0   2  -131902.20 2091.17
   0  -2  -1  151.49   49.82
   0   2   1  125.08   36.78
   0   2   1  149.11   29.90
   0  -2  -1  146.07   47.31
   0   0  -3 1189.04   69.92
   0   0   3 1153.75   67.55
   0   0  -3 1159.43   69.43
   1   0   0 2110.06  108.65
  -1   0   0 2383.76  209.51
  -1   0   0 2131.58  157.61
   1   0   0 2367.41  141.95
   0   2  -2 203747.  22315.
   0  -2   2 157128.  16163.
   0  -2   2 171211.  18011.
   0   2  -2 183603.  20139.
   0  -1   3   59.07   17.39
   0   1  -3   99.88   35.16
   0   1  -3  110.43   34.26
   0  -1   3  107.10   32.90
   1  -1   013718.62  748.12
   1  -1   013057.20  720.78
  -1   1   011145.56  632.98
  -1   1   011775.13  626.93
  -1   0   1 6289.68  437.45
  -1   0   1 6611.54  437.31
   1   0  -1 6779.84  375.17
   1   0  -1 6219.23  402.35
   1  -1  -1  684.38   72.88
  -1   1   1  669.35   46.84
   1  -1  -1  838.57   88.09
  -1   1   1  658.73   66.56
   1   0   156685.57 4400.53
   1   0   149079.41 3615.80
  -1   0  -154407.23 4054.90
  -1   0  -145417.81 3244.44
  -1   1  -1 9673.72  535.07
  -1   1  -1 9138.41  428.32
   1  -1   1   11.87   26.03
  -1   1  -1 9991.00  537.79
  -1   1  -1 9851.47  466.81
   0   1   311196.69  630.56
   0  -1  -3 9925.82  535.96
   0   1   311467.95  594.56
   0  -1  -310654.49  542.93
   0  -2  -235781.69 2376.30
   0   2   235721.61 2514.93
   0   2   234635.98 2394.56
   0  -2  -228130.40 1813.70
   1   0  -246017.90 3693.04
  -1   0   242497.26 3124.80
   1   0  -253564.48 4061.08
  -1   0   245466.77 3298.94
  -1  -1   026253.67 1696.06
  -1  -1   023982.04 1802.39
   1   1   019573.90 1184.89
   1   1   018670.89 1112.84
  -1  -1   1  827.19   76.50
  -1  -1   1 1096.50  152.15
   1   1  -1 1185.71  179.25
   1   1  -1 1454.52  139.45
  -1   1   234534.64 2346.47
   1  -1  -240626.25 2860.89
   1  -1  -231973.55 2085.33
  -1   1   231931.55 2057.33
   1  -2   0 134597.  12772.
  -1   2   0 158624.  16613.
  -1   2   0 149570.  15230.
   1  -2   0 115337.  10996.
   0  -2   3  561.74   76.19
   0   2  -3  557.07   81.05
   0   2  -3  458.37  111.36
   0  -2   3  586.36   83.01
  -1   1  -2 1885.38   91.71
  -1   1  -2 1842.11  152.60
  -1   1  -2 1782.70  140.37
   1   1   111360.48  688.54
  -1  -1  -1 8984.20  515.35
  -1  -1  -1 8976.82  452.68
   1   1   113391.69  756.49
   1  -2   140524.05 2877.31
   1  -2   138200.36 2826.56
  -1   2  -146002.84 3346.41
  -1   2  -145115.48 3321.16
  -1   0  -217145.83 1107.67
   1   0   2   -2.77    1.50
  -1   0  -217815.12  975.27
   1   1  -2 8946.50  488.16
   1   1  -210302.31  705.03
  -1  -1   2 7975.64  534.54
  -1  -1   2 9890.42  543.13
  -1   2   1 457922.  67822.
  -1   2   1 471571.  68154.
  -1   2   1 431283.  63042.
  -1   2   1 530292.  76628.
   1  -2  -1  764.23  105.25
   0   3  -1 7334.46  459.25
   0  -3   1 6392.33  381.07
   0   3   0 1472.58  131.22
   0  -3   0 1824.78  153.53
   0   3   0 2316.05  179.31
   0  -3   1 5581.93  328.73
   0   3  -1 7469.48  487.45
   0  -3   0 1971.00  237.78
   0   0  -4 1913.61  176.98
   0   0   4 2249.05  149.06
   0   0  -4 1820.83  170.10
   0   1  -4 120597.  11310.
   0   1  -4 104531.   9820.
   0  -1   499086.62 9092.99
   0  -1   4 104304.   9584.
  -1   0   3 858578. 152973.
   1   0  -3 711579. 122384.
  -1   0   3 849500. 152145.
   1   0  -3 841231. 145878.
   0  -3   2 2711.35  198.79
   1  -2   2 2959.40  138.54
   1  -2   2 3086.00  201.82
   0   3  -2 2486.04  285.29
   0   3  -2 2380.63  182.81
   0  -3   2 2424.29  194.90
  -1   2  -2 2972.66  180.51
  -1   2  -2 3536.22  233.15
   0   3   125307.21 1643.53
   0  -3  -125695.57 1827.71
   0   3   122840.24 1488.18
   0  -3  -131817.66 2136.16
  -1   2   217518.93  945.25
  -1   2   216744.34 1276.18
  -1   2   222334.74 1211.03
  -1   2   221236.92 1370.65
   0   2   339822.74 2843.46
   0  -2  -331898.17 2152.60
   0  -2  -341822.38 3075.10
   0   2   333389.82 2318.15
  -1   1   360535.39 5165.73
   1  -1  -367930.58 5315.81
  -1   1   368458.23 5288.70
   1  -1  -366136.54 5606.49
  -1  -1  -224601.53 1477.90
  -1  -1  -226233.87 1742.05
   1   1   230103.14 2056.89
   1   1   230791.55 1995.03
   1   2  -115639.09  982.90
   1   2  -118069.63 1260.91
  -1  -2   121242.76 1546.00
  -1  -2   116625.60 1096.70
   1   1  -378006.79 6893.77
  -1  -1   383757.17 7448.18
   1   1  -386907.94 7646.55
  -1  -1   392440.20 8188.37
   1   2   0  247.15   74.91
  -1  -2   0  217.01   56.44
   1   2   0  188.51   55.37
  -1  -2   0  239.41   79.49
   0   1   4  529.46   78.12
   0  -1  -4  568.12  119.68
   0  -1  -4  490.61   88.45
   0   1   4  527.37   74.98
  -1   1  -318499.95 1166.42
  -1   1  -316594.41 1234.06
  -1   0  -366896.96 5011.19
   1   0   376712.65 6845.88
  -1   0  -359103.94 4861.80
   0  -2   446124.15 3408.75
   0   2  -465813.93 5417.01
   0  -2   456009.37 4419.74
  -1  -2   222358.44 1594.19
   1   2  -218012.46 1180.33
  -1  -2   225167.74 1963.78
   1   2  -219308.81 1225.63
  -1   3   091016.95 8279.43
   1  -3   0 123177.  11821.
  -1   3   098038.96 8631.29
   1  -3   0 107525.  10379.
  -1  -2  -1 102108.   9408.
  -1  -2  -1 106581.  10112.
   1   2   193793.43 8634.81
   1   2   193427.44 8589.00
   1  -3   115196.33  934.54
  -1   3  -114260.42  835.01
  -1   3  -113736.14  926.98
   1  -3   115840.76 1070.21
   0   3  -3  894.65  190.65
   0  -3   3  784.00  154.39
   0  -3   3  885.99  111.42
   0   3  -3 1036.46  227.03
   0  -3  -2   18.62   79.81
   0   3   2   24.12   34.88
   0   3   2   10.35   32.84
   0  -3  -2   16.73   49.85
   1  -3  -1 155185.  16183.
   1  -3  -1 171753.  18233.
  -1   3   1 145580.  15106.
  -1   3   1 148998.  14965.
   1  -2   3   37.70   37.71
  -1   2  -3   25.84   73.32
   1  -2   3   25.90   25.13
  -1   2  -3   21.49   19.80
  -1   2   3 7811.51  476.13
  -1   2   3 4715.01  304.81
   1   0  -460625.80 4741.18
  -1   0   466339.18 5473.09
  -1   0   468319.62 5916.00
   1   0  -456559.33 4579.44
   1  -3   218227.24 1167.27
  -1   3  -219191.76 1158.20
   1  -3   217749.57 1137.11
  -1   3  -214373.19  910.07
  -1  -1  -363247.71 5477.24
   1   1   382421.08 7135.27
  -1  -1  -373764.82 5900.06
   1   1   378188.00 6649.65
  -1  -2   332842.59 2376.02
   1   2  -332049.71 2207.02
   1   2  -330349.85 2339.04
  -1  -2   333798.39 2387.21
  -1  -1   422997.99 1654.08
  -1  -1   424076.30 1552.12
   1   1  -422329.88 1660.32
   1   1  -424416.37 1551.31
  -1   1   451036.66 3996.48
  -1   1   458432.30 4294.41
   1  -1  -460272.96 5059.51
   1  -1  -463601.65 4900.96
   0   0  -512521.35  734.06
   0  -1   5 2466.38  233.31
   0   1  -5 2897.20  255.41
   0  -1   5 2510.39  150.75
   0   0   514335.78  956.53
   0   0  -514320.48  848.57
   0   1  -5 2709.39  183.59
  -1  -2  -218564.95 1167.35
   1   2   217831.92 1096.94
   1   2   222343.17 1395.44
  -1  -2  -217568.57 1118.92
   0   2   445863.40 3277.47
   0  -2  -438020.81 2698.63
   0  -2  -440654.89 2840.40
   0   2   443714.76 3307.51
  -1   3   2 4988.64  228.97
  -1   3   2 5178.09  332.26
   1  -3  -2   -5.09    3.15
  -1   1  -4 1241.97  117.20
  -1   1  -4 1328.69  130.54
   0  -4   121861.02 1503.67
   0   4  -126512.56 1932.72
   0  -4   124511.06 1611.27
   0   4  -128368.38 1995.26
   0   4   016033.96 1034.59
   0  -4   019330.70 1230.80
   0   4   016950.61 1131.43
   0  -4   016375.62 1038.01
   0   3  -490492.59 7900.22
   0  -3   483908.10 7641.06
   0  -3   4 100502.   8884.
   0   3  -479931.75 7023.33
   0   3   326201.13 1691.53
   0  -3  -328362.22 1940.91
   0   3   322870.37 1669.21
   0  -3  -327617.31 1829.17
  -1   0  -455314.84 4408.85
  -1   0  -465259.10 5344.72
   1   0   467445.56 5221.70
   1   3  -120440.76 1386.25
  -1  -3   115443.33  970.90
   1   3  -120245.83 1323.60
  -1  -3   115607.40 1039.21
   1  -3   3 4900.11  238.20
  -1   3  -3 5696.62  360.67
   1  -3   3 4127.77  329.46
  -1   3  -3 4612.02  375.48
   0  -1  -5 2505.66  147.69
   0   1   5 2472.32  150.55
   0  -1  -5 2564.48  143.85
   0   1   5 2564.11  233.45
   0  -2   523085.41 1533.86
   0   2  -526993.27 1757.10
   0  -2   524547.15 1650.25
   0   2  -522718.42 1632.99
   0  -4   2  206.06   59.23
   0   4  -2  201.52  109.97
   0   4  -2  188.23   52.56
   0  -4   2  157.21   96.52
  -1  -3   0  795.19  163.84
   1   3   0  775.33  104.96
  -1  -3   0  594.18   91.47
   1   3   0  828.60  114.43
   1  -2   4 8417.22  512.22
  -1   2  -4 7895.46  467.80
   1  -2   4 8447.28  393.83
  -1   2  -4 9376.86  449.16
  -1  -3   2 6244.09  491.82
   1   3  -2 5605.64  450.68
  -1  -3   2 5708.12  364.59
   1   3  -2 5624.98  338.02
   0  -4  -1 3405.59  222.75
   0   4   1 3384.82  250.77
   0   4   1 2777.11  189.36
   0  -4  -1 3209.06  192.62
  -1  -2   4  868.24   93.55
  -1  -2   4  848.15  143.24
   1   2  -4  920.60  102.91
   1   2  -4  969.69  163.98
  -1   2   4 1576.77  125.59
  -1   2   4 1471.47  193.53
  -1   3   315807.56  991.88
  -1   3   311779.22  542.60
   1  -3  -311918.59  754.43
   1  -3  -315909.19  749.12
   1   3   1 6301.81  356.21
  -1  -3  -1 6200.26  352.98
  -1  -3  -1 7029.52  550.86
   1   3   1 5619.56  323.54
   1  -4   0 2111.36  215.71
   1  -4   0 2273.22  178.78
  -1   4   0 2239.49  129.86
  -1   4   0 2107.80  158.17
  -1   4  -1 7318.25  405.40
  -1   4  -1 6431.55  379.27
   1  -4   1 7010.68  476.82
   1  -4   1 8506.29  499.75
  -1  -2  -3  108.29   30.87
  -1  -2  -3  102.78   40.77
   1   2   3  142.44   40.15
   1   2   3  119.85   37.37
   1   0  -5  962.66   70.92
  -1   0   5  851.03  149.05
  -1   0   5  894.84   60.90
   1   0  -5  813.68   97.60
  -1  -1  -4  545.90   40.06
   1   1   4  527.77   69.49
   1   1   4  480.84   56.26
  -1  -1  -4  491.10  114.02
   0  -4   348930.84 3691.45
   0   4  -348713.21 3737.52
   0  -4   347156.63 3659.02
   0   4  -344715.65 3363.80
  -1  -1   5   10.04   26.91
  -1  -3   324454.69 1693.21
   1   1  -5   -1.86   38.42
  -1  -1   5    5.66   36.18
   1   3  -320504.45 1299.24
  -1  -3   323314.94 1553.41
   1   1  -5   15.21   51.28
   1   3  -320661.84 1357.70
   1  -4  -111131.63  692.13
  -1   4   110212.83  592.93
   1  -4  -110746.89  575.53
  -1   4   111836.20  888.82
  -1   1   533130.21 2333.29
   1  -1  -540165.53 3086.42
  -1   1   536473.27 2355.04
   1  -1  -539731.01 2753.37
   1  -4   2  497.68  111.37
  -1   4  -2  356.22   54.52
  -1   4  -2  320.00   78.78
   1  -4   2  389.56   62.91
   0  -4  -282139.42 7346.83
   0   4   280396.66 6903.60
   0  -4  -294321.66 8437.16
   0   4   274966.90 6771.11
  -1   3  -420774.96 1269.21
   1  -3   416604.80 1065.81
  -1   3  -418269.85 1280.05
   1  -3   418958.52 1093.79
   0  -2  -5   12.31   24.37
   0  -2  -5   12.98   18.47
   0   2   5   23.48   19.64
   0   2   5   14.43   28.23
   0  -3   5 2947.80  215.09
   0  -3   5 3087.03  194.10
   0   3  -5 2715.35  247.99
   0   3  -5 1932.35  161.17
   0  -3  -4 3812.93  271.39
   0  -3  -4 3159.60  290.27
   0   3   4 2898.27  144.72
   0   3   4 2983.41  272.79
   0   1  -622913.33 1448.72
   0  -1   629014.78 2003.97
   0   1  -621795.27 1374.43
   0  -1   624527.85 1785.69
  -1  -3  -221935.83 1371.42
   1   3   224691.38 1815.00
   1   3   224408.86 1622.24
  -1  -3  -220103.78 1342.31
   1  -1   592602.41 7810.83
  -1   1  -591282.04 8433.81
  -1   1  -5 101716.   9472.
   0   0   642651.40 3115.61
   0   0  -637924.48 2843.86
   0   0  -637699.96 2774.59
   2  -1   0 2464.85  170.13
  -2   1   0 2416.96  142.44
   2  -1   0 2306.50  143.65
  -2   1   0 1960.61  198.91
   2  -1  -1 1857.50  132.12
  -2   1   1 1740.19  122.17
  -2   1   1 1884.97  186.98
   2  -1  -1 1782.77  118.22
  -1   4   219427.94 1150.70
  -1   4   223648.43 1742.69
   1  -4  -222294.68 1499.52
   1  -4  -222934.41 1348.99
  -1   0  -524261.54 1632.84
  -1   0  -529134.37 2054.44
   1   0   5   -7.28    4.43
  -2   0   1  227.44   45.07
  -2   0   1  284.45   55.07
   2   0  -1  274.12   53.31
   2   0  -1  299.82   58.34
  -2   0   034080.07 2378.83
   2   0   040634.05 2978.87
  -2   0   029580.79 1939.89
   2   0   034511.78 2457.80
  -1  -2   597438.23 8758.66
  -1  -2   586384.32 8074.33
   1   2  -5 102817.   9711.
   1   2  -583648.81 7496.09
   0  -4   427029.94 1828.72
   0  -4   424139.36 1568.81
   0   4  -430585.36 2164.43
   0   4  -428410.44 1972.48
   1  -4   3 110711.  10293.
  -1   4  -3 107207.  10126.
  -1   4  -398683.43 9283.10
   1  -4   398465.51 9357.79
  -1   2  -522337.37 1478.38
  -1   2  -524440.76 1437.15
   1  -2   522802.68 1731.46
   1  -2   527733.30 1658.73
   2  -1   1 8185.38  482.07
  -2   1  -1 9008.35  575.58
  -2   1  -1 9897.51  572.97
   2  -1   1 8788.29  501.82
  -1  -3   4   63.64   40.00
   1   3  -4   96.66   54.19
  -1  -3   4   -0.39   46.53
   1   3  -4   60.35   37.32
  -1   3   4 4718.71  362.40
  -1   3   4 6531.05  544.45
   0  -2   6  278.97   80.80
   0   2  -6  302.13   47.80
   0  -2   6  311.59   63.02
   0   2  -6  308.44   55.86
  -2   1   2    7.01   58.80
   2  -1  -2   26.82   34.81
  -2   1   2   24.42   18.23
   2  -1  -2   20.02   34.18
  -2   2   0 8942.60  508.37
  -2   2   0 9504.57  527.53
  -2   2   0 9969.62  594.96
   2  -2   0   12.68   25.31
  -1   2   5 1227.19  199.88
   1  -2  -5  857.55   38.46
   1  -2  -5 1244.03   46.51
  -1   2   5 1339.32  186.88
  -2   0   2  748.33   80.23
   2   0  -2  962.17  111.51
   2   0  -2  881.94   82.99
  -2   0   2  793.43   78.32
   2  -2  -1 3564.30  189.52
  -2   2   1 3093.59  211.15
  -2   2   1 2926.13  170.54
   2  -2  -1 2849.08  175.17
   2   0   1 111024.  10099.
  -2   0  -188848.47 7762.94
   2   0   190370.65 8536.84
  -2   0  -185014.32 7927.33
   0  -1  -646317.89 3510.45
   0   1   648954.85 3991.78
   0  -1  -647323.14 3572.24
   0   1   656615.92 4347.11
   1   2   4  598.95   70.79
   1   2   4  551.60   51.89
  -1  -2  -4  750.31   68.55
  -1  -2  -4  715.48  163.75
   0  -4  -310777.75  662.01
   0   4   310138.13  604.91
   0  -4  -310301.97  594.64
   0   4   3 9619.57  603.59
  -2   2  -1 2320.91  194.73
  -2   2  -1 2180.71  117.21
  -2   2  -1 2349.79  218.43
  -2   2  -1 2821.52  145.29
   1   4  -1 136413.  14212.
   1   4  -1 156650.  16683.
  -1  -4   1 194521.  22116.
  -1  -4   1 181207.  21159.
   2   1  -153988.14 4287.00
   2   1  -151510.74 4176.94
  -2  -1   146704.08 3494.55
  -2  -1   148372.37 3786.73
   0   5  -116304.54 1150.91
  -2  -1   024988.64 1571.11
   2   1   033637.78 2341.98
  -2  -1   024105.90 1627.30
   2   1   029273.00 2041.97
   0  -5   117403.30 1131.64
   0   5  -119947.04 1342.78
   0  -5   116529.72 1037.92
  -1  -1  -5 109129.  10561.
  -1  -1  -5 111753.  10423.
  -1  -4   026254.40 1739.04
   1   4   025765.52 1746.95
  -1  -4   023178.10 1618.24
   1   4   027009.97 1903.58
   1   1   5 124008.  11990.
   1   1   5 131930.  13239.
   1   0  -614777.81 1086.44
  -1   0   614196.90  854.85
  -1   0   613487.02  943.18
   1   0  -613806.39  838.63
  -2   2   2  677.49   76.05
  -1  -4   215414.76  947.04
  -2   2   2  860.88   96.91
  -2   1  -219857.24 1271.57
  -1  -4   215742.30 1024.40
   2  -2  -2  876.54   63.56
   2  -1   223856.95 1632.46
   1   4  -217336.61 1129.48
  -2   1  -217121.08  959.81
   2  -1   228158.85 1786.60
   2  -2  -2  881.12  171.57
   1   4  -220492.46 1398.59
   1   3   3  120.58   41.68
  -1  -3  -3  114.93   73.93
   1   3   3  124.33   43.67
  -1  -3  -3  113.24   60.54
   0   5   0   12.94   37.88
   0  -5   0    9.14   27.06
   0  -5   0    7.18   27.73
   0   5   0   13.75   25.27
  -1   4   3 4396.77  441.77
   1  -4  -3 4064.67  375.79
  -1   4   3 4261.74  205.99
   2   1  -2 3601.70  325.66
  -2  -1   2 3420.14  217.70
  -2  -1   2 2996.75  205.52
   2   1  -2 3228.24  201.29
  -1  -1   6 2439.67  148.98
   1   1  -6 3102.02  209.39
   1   1  -6 3019.93  337.28
  -1  -1   6 2413.45  172.71
   2   0  -3 1552.86  153.50
  -2   0   3 1686.84  145.94
  -2   0   3 1330.55  102.90
   2   0  -3 1405.70  143.58
   0  -5   2   68.46   77.25
   0   5  -2   51.06   39.58
   0   5  -2   72.13   73.12
   0  -5   2   42.89   34.76
  -2   1   3 1203.50  130.27
  -2   1   3 1153.38  129.59
   2  -1  -3 1121.47  112.23
   2  -1  -3 1117.83  121.70
  -1   3  -5   62.16   76.20
   1  -3   5   73.27   71.58
  -1   3  -5   83.09   34.64
   1  -3   5   66.39   28.48
  -2   0  -2 8663.43  558.58
   2   0   211985.22  705.80
   2   0   211115.46  724.00
  -2   0  -2 9649.77  532.57
  -2   2  -220896.53 1193.44
  -2   2  -217653.50 1297.21
  -2   2  -218294.21 1171.56
  -2   2  -220867.09 1214.02
   1  -4   417613.64 1027.75
  -1   4  -416636.78 1022.29
   1  -4   416068.97 1059.63
  -1   4  -413755.84  862.73
   2   1   1 2380.34  190.21
  -2  -1  -1 2373.65  279.75
   2   1   1 2283.32  237.77
  -2  -1  -1 2587.07  156.79
  -1   1   632565.31 2347.77
   1  -1  -629320.51 1916.94
   1  -1  -630931.93 2427.89
  -1   1   633768.53 2278.95
   1   4   111523.32  672.31
  -2   3   040125.55 2968.07
  -2   3   046974.50 3462.86
  -1  -4  -112749.92  809.63
   1   4   111626.15  713.90
  -2   3   041295.58 3189.88
  -1  -4  -111540.46  684.39
  -2   3   039697.58 2868.21
  -1   5  -1 8479.20  630.89
  -1   5  -1 8563.71  490.49
   1  -5   1 8551.69  603.36
   1  -5   1 8540.80  498.31
  -1  -4   315876.18 1094.83
   1   4  -312711.77  910.36
   1   4  -312846.56  836.84
  -1  -4   314151.43 1077.20
   0  -5  -1   26.16   36.26
   0   5   1   25.57   37.51
   0  -5  -1   31.74   37.83
   0   5   1   31.50   47.33
  -1   5   0 4379.30  309.43
   0  -3   6 5334.05  449.43
   1  -5   0 4719.82  303.14
  -1   5   0 4491.13  300.99
   0   3  -6 5225.42  327.05
   0   3  -6 4870.07  353.64
   0  -3   6 5734.13  331.74
   1  -5   0 4574.67  258.23
   0  -3  -526365.28 1739.55
   0   3   529645.81 2355.67
   0   3   540553.18 2760.21
   0  -3  -529361.36 2097.73
   0  -4   5 9419.08  581.76
   0  -4   5 7350.67  417.64
   0   4  -5 8945.33  557.90
   0   4  -5 9115.36  573.04
  -2   3   131320.60 2106.05
  -2   3   126491.73 1807.19
  -2   3   128639.36 2030.31
  -2   3   130237.65 2095.64
  -1  -3   5   29.22   31.09
   1   3  -5   35.83   43.92
   1   3  -5   25.59   59.32
  -1  -3   5   36.17   42.74
  -2   3  -1 3146.78  177.39
  -2   3  -1 3770.02  240.59
  -2   3  -1 3555.65  214.64
  -2   3  -1 3638.98  197.87
   2   1  -3 7418.65  486.65
  -2  -1   3 9752.11  570.94
  -2  -1   3 6850.74  398.57
   2   1  -3 9107.86  663.63
   0  -5   3 1292.19  135.97
   0   5  -3 1370.10  152.26
   0  -5   3 1116.99  185.56
   0   5  -3 1443.72  249.43
  -2   2   315557.69  897.91
   2  -2  -313364.52  756.16
  -2   2   311452.38  717.72
   2  -2  -313334.95  883.77
   0  -2  -6  871.60   67.79
   0   2   6  895.88  157.52
   0   2   6 1045.62   93.78
   0  -2  -6  999.84  103.20
  -1   5  -2  178.09   50.84
  -1   5  -2  166.98   83.33
   1  -5   2  239.25   58.85
   1  -5   2  219.15   93.63
   1  -1   6   -5.69    3.43
  -1   1  -6 6015.12  436.67
  -1   1  -6 6797.75  433.36
   1  -5  -1 6237.25  393.41
  -1   5   1 6214.82  530.91
   1  -5  -1 6648.25  350.72
  -1   5   1 7097.71  381.99
   1   2  -6 5712.69  351.50
  -1  -2   6 5469.66  457.95
   1   2  -6 5400.00  358.99
  -1  -2   6 6062.34  474.26
  -2   1  -3 1162.46   65.29
   2  -1   3 1007.97  107.33
  -2   1  -3 1169.25  140.80
  -1   3   5 1572.15  147.01
  -1   3   5 1438.29  158.39
   0   1  -7  110.59   64.10
   0  -1   7  156.22   79.31
   0  -1   7  129.48   72.07
   0   1  -7  154.92   43.22
  -2   3   210611.51  738.10
  -2   3   211582.79  859.02
   0   4   417747.75 1032.51
   0   4   416133.07 1074.46
  -2   3   211864.91  628.07
  -2   3   210853.63  594.23
   0  -4  -414159.34  826.74
   0  -4  -416173.00 1112.62
   1   0   6 4446.87  219.04
  -1   0  -6 4668.94  294.03
   1   0   6 4999.69  235.83
   2   1   250862.53 3941.40
  -2  -1  -240049.97 2814.63
   2   1   244762.90 3429.65
  -1   0  -6 5164.79  362.78
  -2  -1  -244059.66 3594.48
   2   2  -114339.38  903.20
  -2  -2   117287.11 1115.14
  -2  -2   116780.14 1337.69
   2   2  -116010.46 1029.33
   1  -2   633076.89 2110.65
  -1   2  -628585.65 2156.62
   1  -2   629341.97 2148.67
  -1   2  -635041.73 2266.85
  -2   3  -2 2731.38  149.33
   2   0  -4  689.97  100.17
  -2   0   4  841.94  140.02
   2   0  -4  623.21   94.76
  -2   3  -2 2723.35  201.28
  -2   0   4  760.58  113.99
  -2   3  -2 2473.95  162.32
   0   0   711201.43  718.44
   0   0  -711675.19  679.55
   0   0  -7 9941.59  569.77
  -2   2  -331762.29 2071.84
  -2   2  -337891.15 2483.28
  -2   2  -333676.09 2426.12
  -2   2  -335916.11 2715.93
   2  -1  -464701.97 5063.01
  -2   1   476648.83 6344.12
   2  -1  -457478.62 5076.71
  -2   1   456296.82 4493.62
   2   2   0 1803.09  209.41
  -2  -2   0 1743.00  167.03
  -2  -2   0 1804.97  134.86
   2   2   0 1432.87  105.54
  -1  -4  -2 6756.23  429.28
  -1  -4  -2 7722.90  445.87
   1   4   2 9473.28  601.38
   1   4   2 7298.35  439.16
   2   0   3 1424.84   76.18
  -2   0  -3 2243.58  183.14
   2   0   3 2244.56  156.47
  -2   0  -3 1882.35   97.81
   0  -5  -2  369.36   74.32
   0   5   2  351.46   50.53
   0  -5  -2  288.87   91.27
   0   5   2  301.24  121.28
   1   2   5   88.12   77.96
   2   2  -276668.26 6754.07
  -2  -2   261979.90 5073.31
  -2  -2   270173.22 5953.00
   1   2   5   61.84   46.22
  -1  -2  -5   51.97   70.34
  -1  -2  -5   68.77   30.67
   2   2  -272203.96 6340.80
  -1   2   612527.09  953.69
  -1   2   613302.02  827.73
   1  -2  -6   -1.16    2.73
  -1  -4   416196.44 1040.87
   1   4  -418364.19 1198.29
  -1  -4   414055.62  944.85
   1   4  -413910.53  947.20
  -1   4   418103.73  966.80
   1  -4  -417596.73 1289.69
  -1   4   418553.55 1280.47
   1  -5   3 2708.42  193.08
   1  -5   3 2550.60  158.84
  -1   5  -3 2790.65  197.30
  -1   5  -3 2958.71  280.40
  -1  -3  -4 5984.51  378.60
  -1  -3  -4 6031.87  334.80
   1   3   4 5801.89  328.98
   1   3   4 5486.08  375.02
   0   2  -713069.81  803.92
   0  -2   713760.81  812.40
   0  -2   714386.71  922.73
   0   2  -713952.46  919.66
   1  -5  -2  292.33   79.40
  -1   5   2  280.85   94.33
  -1   5   2  360.25   46.32
   1  -5  -2  253.41   54.27
   0  -5   411391.72  710.23
   0   5  -410819.07  821.12
   0   5  -412032.29  787.17
   0  -5   411792.13  770.25
   2   1  -417288.63 1113.84
  -2  -1   414943.12 1143.54
  -2  -1   417790.68 1180.69
   2   1  -416577.30 1172.29
   1  -4   5 9118.10  482.94
  -1   4  -510342.64  659.91
  -1   4  -511171.41  713.81
   1  -4   510690.22  683.34
   2   2   1  568.03   85.90
  -2  -2  -1  483.83   53.82
   2   2   1  634.46   72.74
  -2  -2  -1  837.23  200.54
   0   1   7   12.45   23.39
   0  -1  -7   13.74   31.43
   0   1   7   45.64   49.50
   0  -1  -7    4.88   19.91
  -2  -2   3 6445.44  406.44
  -2   2   414137.14  775.81
   2  -2  -413333.60  725.92
   2   2  -3 7379.81  519.12
   2  -2  -414312.92  962.49
  -2  -2   3 6192.62  410.51
   2   2  -3 7984.40  520.72
  -2   2   412510.02  902.31
  -2   3   3  166.29   26.87
  -2   3   3  142.78   55.36
  -2   3   3  170.11   32.11
  -2   3   3  193.27   56.55
   1   1   613406.47  764.78
  -1  -1  -610393.69  624.36
  -1  -1  -612053.54  774.51
   1   1   611477.31  679.34
   1  -3   6 1632.71  113.33
  -1   3  -6 1490.25  133.22
   1  -3   6 1587.36  153.98
  -1   3  -6 1536.76  107.94
  -2   4   062005.74 4936.38
  -2   4   062589.03 5127.32
  -2   4   051819.97 4100.85
  -2   4   056641.56 4629.80
  -2   3  -3  468.48   66.60
  -2   3  -3  501.12   55.15
  -2   3  -3  550.02   91.62
  -2   3  -3  531.14   54.14
  -1   0   7 4332.87  265.80
  -1   0   7 4390.51  280.15
   1   0  -7 4532.90  242.57
   1   0  -7 4715.73  322.73
  -2   4  -1  221.94   41.31
  -2   4  -1  281.04   52.90
  -2   4  -1  267.92   79.78
   2  -4   1    6.94   18.40
  -1  -1   7 6519.64  503.79
   0   4  -612744.65  813.43
   0  -4   612592.04  835.74
   1   1  -7 6056.56  334.88
   1   1  -7 6458.23  500.85
  -1  -1   7 6789.31  386.52
   0   4  -612638.98  953.54
   0  -4   612872.46  775.23
   2   1   3 6355.56  401.95
  -2  -1  -3 6872.05  337.84
   2   1   3 7055.87  400.09
  -2  -1  -3 6212.53  536.37
  -1  -3   6  333.73   80.83
   1   3  -6  302.19  110.03
  -1  -3   6  341.20   76.01
   1   3  -6  357.82  153.31
  -2   4   1 8753.22  459.13
  -2   4   1 8946.34  581.33
  -2   4   1 9282.39  564.62
  -2   4   1 9341.15  565.37
  -2   1  -448124.34 4094.65
  -2   1  -447546.88 3671.37
   0  -5  -356408.59 4643.35
   0   5   349250.46 3761.21
   0  -5  -357608.15 4932.85
   0   5   345312.76 3805.70
   1   4   3 5205.99  316.77
  -1  -4  -3 4998.40  300.74
   1   4   3 5503.62  358.04
  -1  -4  -3 5903.02  507.10
  -2   2  -4 2925.63  356.15
  -1   5  -4 5662.67  329.98
  -2   2  -4 2554.37  286.31
  -1   5  -4 7509.31  456.52
   1  -5   4 6544.08  418.50
   1  -5   4 6592.90  430.73
   2   0  -5 1123.06   98.46
  -2   0   5  954.71  134.96
   2   0  -5  832.57  117.63
  -2   0   5  941.57  214.17
  -1   1   7  715.02   98.65
  -1   1   7  699.35   48.36
   1  -1  -7  648.50   49.28
  -2  -2  -213965.18 1112.88
  -2  -2  -218144.67 1189.65
   2   2   213983.50  913.93
   1  -1  -7  730.03  107.89
   2   2   215725.14 1114.32
   0   3  -7  225.82   64.71
   0   3  -7  192.98  101.09
  -1  -5   1 1750.31  160.09
  -1  -5   1 1560.30  263.26
   1   5  -1 1441.84  215.11
   1   5  -1 1809.44  184.85
   0  -3   7  155.65   87.69
   0  -3   7  113.23   32.76
   1   4  -5    0.60   30.15
   0   3   6 3477.13  238.12
  -1  -4   5   56.84   81.44
   0  -3  -6 3010.03  201.79
   0  -3  -6 3421.39  243.99
  -1  -4   5   30.64   49.13
   0   3   6 3402.62  250.72
   1   4  -5   17.14   44.72
  -2   4  -2 7238.70  413.24
   2  -4   2 8536.73  460.96
  -2   4  -2 7571.36  460.62
   2  -4   2 7702.94  476.33
  -1   5   312930.64  714.90
   1  -5  -314819.32 1000.37
   2  -1  -5 1785.53  118.97
   1  -5  -315704.11  876.04
  -1   5   313260.46 1034.29
  -2   1   5 2180.34  203.53
  -2   1   5 1983.94  115.60
   2  -1  -5 1721.01  171.52
  -2   0  -4 4095.63  406.70
  -2   0  -4 4298.33  186.95
   2   0   4 4599.04  311.26
  -1  -5   2  566.25  118.55
   1   5  -2  574.36  113.06
   1   5  -2  493.61   94.45
  -1  -5   2  495.11  167.10
  -2  -2   448397.09 3918.08
   2   2  -453311.39 4451.28
  -2  -2   451415.84 4037.67
   2   2  -452929.54 4219.94
  -2   4   249465.72 3674.33
   1   5   031241.35 2221.98
  -2   4   244026.14 3562.87
  -2   4   241833.01 3051.89
   1   5   030359.13 2269.59
  -2   4   245174.42 3646.74
  -1  -5   032982.45 2472.37
  -1  -5   027586.42 1943.97
   0  -4  -5  786.51   97.84
   0  -4  -5  657.75  103.89
   0   4   5  754.96  202.23
   0   4   5  849.05  110.25
   0  -5   5 2490.33  194.57
   0  -5   5 2152.82  197.79
   0   5  -5 1780.01  143.24
   0   5  -5 2183.76  265.63
  -1  -2   7 1449.62  119.04
  -1  -2   7 1963.05  210.34
   1   2  -7 2093.89  173.75
   1   2  -7 2224.49  209.83
  -1   3   638083.97 2808.48
   1  -3  -634032.65 2172.85
   1  -3  -638439.65 2487.83
  -1   3   632983.81 2567.19
  -2  -1   5 2044.51  188.36
   2   1  -5 1998.61  213.86
  -2  -1   5 2136.82  257.05
   2   1  -5 2029.46  193.85
  -2  -3   1  619.36  154.82
   2   3  -1  569.96   91.16
   2   3  -1  588.17   97.99
  -2  -3   1  561.10  106.65
   1  -4  -525664.97 1468.56
  -1   4   520908.44 1618.51
   0  -6   138616.64 2864.01
   1  -4  -521731.23 1224.68
   0   6  -145450.04 3486.95
   0   6  -139380.34 3189.89
  -1   4   519838.46 1293.76
   0  -6   135665.82 2917.55
  -2   3   4 4028.92  297.63
  -2   3   4 4773.16  195.50
   1  -1   715198.73  824.67
  -2   3   4 4903.72  327.38
  -1   1  -719061.94 1250.51
  -1   1  -717365.61 1198.49
  -2   3   4 5134.31  219.51
   1  -1   716522.38  909.88
  -2  -3   2  107.42  113.30
  -2  -3   2  111.66   57.81
   2   3  -2   77.07   44.28
   2   3  -2  101.75   46.07
   0   2   7  881.24  147.68
   0   2   7  955.49  179.43
   0  -2  -7  753.23  101.55
   0  -2  -7  926.76   72.55
   2   3   0  229.86   61.59
  -2  -3   0  262.76  122.94
  -2  -3   0  218.46   51.21
   2   3   0  278.03  111.20
   1   5  -3 9359.53  591.08
  -1  -5   310402.69  725.06
   1   5  -3 7157.10  590.88
  -1  -5   3 7954.59  629.83
   0  -6   2 9677.66  614.92
   0   6  -2 8335.57  672.23
   0  -6   2 9516.41  630.80
   0   6  -2 9643.50  598.52
   0   6   048892.68 3742.03
   0  -6   043102.77 3393.37
   0   6   043686.53 3537.45
   0  -6   045669.70 3496.53
  -2   3  -418378.50 1025.73
  -2   3  -416805.64 1313.75
  -2   3  -416921.26  935.41
  -2   3  -418225.85 1198.74
  -1  -3  -5 1554.00  159.77
   1   3   5 1274.00  101.02
  -1  -3  -5 1395.50  129.09
   1   3   5 1384.96  109.22
   2  -2  -5 2484.91  230.36
  -2   2   5 2470.63  213.96
   2  -2  -5 2613.57  126.18
  -2   2   5 2363.78  120.56
   1   5   1  551.27  152.36
   1  -2   7 4262.15  305.43
  -1   2  -7 3907.75  263.66
   1   5   1  575.54  129.67
  -1  -5  -1  669.78  107.21
   1  -2   7 4466.03  230.69
  -1  -5  -1  646.24   91.97
  -1   2  -7 4624.06  235.14
  -1   6  -1 6064.36  354.44
   1  -6   1 6598.78  421.62
   1  -6   1 6799.07  420.39
  -1   6  -1 5721.58  471.23
   1   2   6 4334.33  245.21
  -1  -2  -6 4514.65  295.78
   1   2   6 4517.52  283.23
  -1  -2  -6 3860.83  262.56
   1   0   720629.10 1246.39
  -1   0  -717775.57 1176.17
  -1   0  -720089.85 1556.35
   1   0   720369.01 1261.00
   2  -4   3  558.55   83.13
  -2   4  -3  555.90   74.53
  -2   4  -3  612.96   81.37
   2  -4   3  594.59   71.01
   1  -6   0 5682.25  500.33
  -1   4  -6   35.88   21.93
   1  -4   6   40.82   78.37
  -1   6   0 5026.42  358.95
  -1   4  -6   48.55   45.96
  -1   6   0 5616.60  409.87
   1  -6   0 5802.59  349.50
   1  -4   6   27.68   32.98
   0  -1   842529.41 3346.94
   0   1  -842564.13 3379.71
   0  -1   845981.39 3577.01
   0   1  -841655.99 3289.72
  -1   2   7 4211.57  284.23
   1  -2  -7 3872.34  170.56
  -1   2   7 3488.30  347.49
   1  -2  -7 2134.61  117.39
  -2  -3   3   26.45   53.11
   2   3  -3   14.74   71.08
  -2  -3   3   53.14   59.94
   2   3  -3   37.95   47.56
  -2  -1  -4  103.73   53.49
   2   1   4   77.63  101.08
   1  -6   2  925.11  104.69
   2   1   4   64.18   18.36
   1  -6   2 1172.13  125.10
  -1   6  -2  878.19  160.39
  -2  -1  -4   61.02   32.10
  -1   6  -2  985.50  123.36
  -2   4   335340.27 2361.67
  -2   4   337836.91 2786.92
  -2   4   333016.51 2182.99
  -2   4   335067.87 2949.56
   2   3   1 1660.68  146.65
  -2  -3  -1 1566.56  179.32
  -2  -3  -1 1856.09  149.92
   2   3   1 1626.30  154.47
   2   2   310936.01  673.80
  -2  -2  -3 9148.30  545.82
  -2  -2  -3 8652.88  712.95
   2   2   3 7821.07  483.90
   0   0   819822.31 1282.33
   0   0  -814747.72  964.96
   0   0  -814775.56  990.86
   0  -6   312413.42  905.59
   0   6  -313150.64 1001.28
   0  -6   314654.55  981.90
   0   6  -315310.01 1051.93
   0   6   1 4364.98  445.05
   0   6   1 3962.08  240.42
   0  -6  -1 5364.11  386.28
   0  -6  -1 5310.90  539.03
  -1   5  -517894.73 1201.98
   1  -5   515947.76  950.55
  -1   5  -516575.58 1056.54
   1  -5   515926.09 1210.43
  -1   6   1  700.80  103.90
   1  -6  -1  791.43  179.74
  -1   6   1  684.53  117.05
   1  -6  -1  703.03  109.01
   0  -5  -4   99.98   64.44
   0  -5  -4  115.72   55.72
   0   5   4  101.02   61.61
   0   5   4  106.49   34.44
   0  -2   8  355.38   96.94
  -2   1  -515245.24 1048.38
   0  -2   8  405.60   82.03
  -2   1  -517478.86 1130.44
   0   2  -8  373.90   73.50
   0   2  -8  419.11   70.05
  -1  -4  -4 6120.33  369.09
  -1  -4  -4 6028.70  509.06
   1   4   4 6154.90  461.49
  -1  -5   4  716.18  196.53
  -1  -5   4  669.74  102.41
   1   4   4 6225.89  403.19
   1   5  -4  841.22  195.21
   1   5  -4  750.34  130.98
  -2  -2   5 1948.38  192.13
   2   2  -5 1760.82  180.82
   2   2  -5 2009.96  252.64
  -2  -2   5 2167.08  199.05
  -1   5   4 8841.25  445.01
  -1   5   4 8916.95  618.12
   1  -5  -4 9498.72  778.08
  -2   2  -5 8468.55  545.56
  -2   2  -5 7942.92  551.43
  -1  -4   6 6112.13  548.98
   1   4  -6 6579.84  460.03
   1   4  -6 5786.12  389.99
  -1  -4   6 6756.16  597.50
   1  -3   723840.38 1435.41
  -1   3  -724106.60 1673.71
  -1   3  -726036.88 1674.66
   1  -3   724895.59 1925.49
  -2   5   0  403.28   83.22
  -1  -3   782503.22 7402.14
   2  -5   0  369.68   54.21
   1   3  -786923.62 7878.46
  -2   5   0  398.61   52.91
   1   3  -778694.10 7387.28
  -1  -3   780039.18 7660.24
   2  -5   0  345.80  102.76
  -2   0   6 172613.  18743.
   2   0  -6 135005.  15011.
   2   0  -6 180857.  19274.
  -2   0   6 133919.  14288.
   0  -4   7    0.00   21.75
   0   4  -7    6.86   32.49
   0  -4   7    3.57   25.67
   0   4  -7   19.81   36.48
  -1  -5  -217997.13 1428.03
   1   5   219223.43 1277.32
   1   5   220818.90 1664.05
  -1  -5  -218750.88 1375.41
  -2   5  -119540.77 1235.60
   2  -5   116366.69 1116.84
   2  -5   119259.03 1339.53
  -2   5  -118257.85 1219.84
  -1   6  -335985.08 2929.13
  -1   6  -333592.85 2467.43
   1  -6   328793.08 2239.32
   1  -6   331574.66 2200.38
  -1  -1  -7 2841.08  197.63
   1   1   7 3311.55  230.53
   1   1   7 3030.20  194.41
  -1  -1  -7 2945.77  230.35
  -2   1   6 7634.27  537.32
   2  -1  -6 5807.32  316.17
  -2   1   6 6686.01  392.16
   2  -1  -6 6038.69  438.37
   2   0   5  122.07   56.17
   2   0   5  102.71   16.06
  -2   0  -5   85.47   54.47
  -2   0  -5   84.34   10.13
   2   3  -4  429.90   95.83
   2  -5  -146849.50 3622.75
  -2  -3   4  374.83  141.12
  -2  -3   4  316.38   74.16
  -2   5   145567.23 3752.03
   2  -5  -141959.38 3125.16
  -2   5   151295.62 3832.95
   2   3  -4  354.76   93.73
   0   5  -619366.67 1474.31
   0  -1  -829992.50 2173.82
   0   1   832422.18 2342.69
   0  -5   620720.52 1599.57
   0  -1  -831108.96 2242.84
   0   5  -620444.76 1403.81
   0  -5   618101.72 1171.22
   0   1   830847.01 2137.39
  -1   0   8 6080.07  383.86
   1   0  -8 5956.89  412.11
  -1   0   8 6017.04  390.47
   1   0  -8 6111.18  405.76
  -2  -3  -2 7748.26  576.28
  -2  -3  -2 6391.56  379.31
   2   3   2 5526.13  332.58
   2   3   2 6444.17  403.82
   2   1  -616476.10 1030.73
  -2  -1   618712.86 1250.22
  -2  -1   619420.53 1346.89
   2   1  -618678.80 1319.38
  -2   4  -424981.96 1728.39
   2  -4   423751.06 1702.17
   0  -6   4  953.46  197.15
  -2   4  -427313.95 1716.32
   0   6  -4  988.30  231.96
   2  -4   426681.22 1630.17
   0  -6   4 1044.29  145.51
   0   6  -4 1011.38  250.45
   1   1  -8  326.58   92.98
   0  -6  -2 7323.25  485.46
   1   1  -8  352.49  124.64
  -2   3   5  477.20   99.92
   0  -6  -2 6906.78  479.10
   0   6   2 5830.95  542.96
  -2   3   5  654.89  106.57
  -1  -1   8  341.72   91.90
  -1  -1   8  358.97  124.55
   0   6   2 6520.33  382.49
  -1   6   2 1578.55  102.71
  -1   6   2 1413.16  161.26
   1  -6  -2 1908.39  294.90
   1  -6  -2 1619.65  149.29
  -2   5  -2 4807.49  363.72
   2  -5   2 4799.85  279.93
   2  -5   2 5287.39  440.32
  -2   5  -2 4567.79  351.48
  -2   3  -5 4615.01  178.82
  -2   3  -5 5150.67  489.99
  -2   3  -5 5736.09  373.57
  -2   3  -5 4531.89  179.32
  -2   4   4  417.08  106.58
  -2   4   4  407.27  153.88
   0  -3   8 2854.20  286.58
   0   3  -8 3172.47  213.66
   0  -3   8 2447.59  150.24
   0   3  -8 3283.65  356.86
   0   4   6 6089.86  342.14
   0  -4  -6 5520.80  330.91
   0  -4  -6 4573.83  419.28
   0   4   6 5077.23  398.28
   0   3   741726.22 3242.45
   0  -3  -742401.99 3252.75
   0  -3  -744394.11 3480.46
   0   3   744463.38 3669.58
  -2   5   234377.50 2560.67
  -2   5   238201.78 2657.52
  -2   5   237816.92 2988.77
  -2   5   241525.31 2847.44
  -1   4   6  369.37   97.69
  -1   4   6  380.07   93.50
   1  -4  -6  437.20   28.22
   1  -1  -8 8817.64  525.13
   1  -4  -6  297.97   17.99
   1  -1  -8 9430.61  644.31
  -1   1   8 9616.27  634.29
  -1   1   810345.96  563.06
   2  -2  -6   14.71   10.51
  -2   2   6   -2.64   36.61
  -2   2   6    5.52   11.32
   2  -2  -6   -9.47   78.89
  -1  -5   5 4395.82  484.32
  -1  -5   5 3783.96  320.66
   1   5  -5 4608.69  372.30
   1   5  -5 3541.06  297.82
  -2  -2  -4 7744.16  469.64
   1  -6   4  943.41  117.35
  -1   6  -4  804.42  157.67
   1  -6   4  968.85   92.73
  -2  -2  -4 6324.25  592.80
   2   2   4 6995.79  465.55
   2   2   4 7937.60  442.90
  -1   6  -4  981.60  120.15
   1  -3  -7 1285.06   62.53
  -1   3   7 1516.65  180.12
  -1   3   7 1528.66  153.46
  -1  -2   8 1256.82  122.34
  -1  -2   8 1611.53  143.35
   1   2  -8 1617.87  169.38
   1   2  -8 1449.76  204.02
   2   4  -1 4570.69  333.32
  -2  -4   1 4228.01  383.36
  -2  -4   1 4821.30  380.27
   2   4  -1 4680.85  435.69
   2  -5   3 2220.36  140.46
  -2   5  -3 1948.33  148.76
   2  -5   3 2367.28  284.46
  -2   5  -3 1811.30  161.48
  -2  -1  -5  270.93   80.22
   1   3   6  461.11  138.77
   1   3   6  397.36  113.54
   2   1   5  379.37   49.10
  -1  -3  -6  397.07   98.00
  -2  -1  -5  294.74   42.88
  -1  -3  -6  326.92  121.67
   2   1   5  372.99  152.06
  -1  -5  -3  117.61   53.29
  -1  -5  -3  161.54  109.71
   1   5   3  149.75  120.96
   1   5   3  162.58   62.43
   2   4  -2  325.28  106.55
   2   4  -2  225.25   88.11
  -2  -4   2  185.92  153.76
  -2  -4   2  265.45   89.74
   1  -5   6  572.00   54.24
  -1   5  -6  574.17  108.19
  -1   5  -6  824.63  191.43
   1  -5   6  674.16  110.53
   1  -4   7 7791.76  542.35
  -1   4  -7 9540.64  645.09
  -1   4  -7 9155.61  579.09
   1  -4   7 9694.51  571.62
  -2  -2   6 7778.18  546.60
   2   2  -6 8043.70  592.88
  -2  -2   6 7246.79  488.23
   2   2  -6 6689.60  524.79
  -2  -3   5    2.82   43.45
  -2  -3   5  -29.83   60.16
   2   3  -5   -4.12   22.58
   2   3  -5    9.74   32.03
   2   4   0 7108.60  478.08
  -2  -4   0 6537.53  511.84
   2   4   0 7166.98  632.39
  -2  -4   0 8078.05  534.90
   1  -1   8 4975.65  267.57
  -1   1  -8 4991.36  329.56
   1  -1   8 5367.78  256.97
  -1   1  -8 4562.89  436.85
  -1   5   5  325.59   34.08
   1  -5  -5  283.94  135.44
  -1   5   5  312.27   99.12
   0  -5  -5 7168.82  481.80
   0  -5  -5 5975.14  357.60
   0   5   5 6149.67  327.12
   0   5   5 5585.33  400.40
  -1   6   314474.55  864.61
  -1   6   313655.63  961.33
   1  -6  -317291.58 1120.33
   1  -6  -317155.66 1411.05
   2   3   3  239.70  129.27
   0   6  -5   19.49   47.93
   2   3   3  272.53  111.83
  -2  -3  -3  218.86   75.29
   0  -6   5    3.84   56.13
   0   6  -5    9.14   55.89
  -2  -3  -3  174.50   68.40
   0  -6   5    6.92   38.26
   0  -2  -8 4784.86  315.91
   0   2   8 5550.30  427.57
   0  -2  -8 5957.90  421.07
   0   2   8 6101.48  416.76
   0   6   3 7491.96  648.00
   0  -6  -3 8309.94  623.35
   0   6   3 8233.91  462.38
   0  -6  -3 9952.27  660.93
  -1  -4  -519106.49 1287.12
  -1  -4  -521158.93 1714.86
   1   4   516401.36 1089.32
   1   4   517611.51 1209.40
   1   2   7 3773.82  213.43
  -1  -2  -7 3661.24  337.46
   1   2   7 3772.50  246.47
  -1  -2  -7 3646.35  200.41
  -1   2  -8 4240.65  235.89
   1  -2   8 4109.47  228.33
   1  -2   8 3590.03  368.74
  -1   2  -8 3597.87  350.60
   2   4  -3 7034.78  493.45
  -2  -4   3 9648.61  659.51
   2   4  -3 9425.05  614.79
  -2  -4   3 8316.92  624.87
  -1  -6   1 1216.42  252.01
  -1  -6   1 1333.34  151.18
   1   6  -1 1694.85  306.89
   1   6  -1 1385.99  189.22
  -2   1  -6 3252.98  250.99
  -2   1  -6 2509.55  225.90
  -2   5   3 6600.67  335.34
  -2   5   3 7603.91  642.40
  -2   5   3 7140.88  673.02
  -1  -6   214169.31 1276.25
  -1  -6   212930.85  895.02
   1   6  -212908.29  877.82
   1   6  -212240.08  901.69
   1   4  -7 1610.23  290.38
  -1  -4   7 1604.84  189.15
   1   4  -7 1368.80  161.37
  -1  -4   7 1727.54  193.43
  -2   2  -6 1599.94  181.92
  -2   2  -6 1684.25  158.29
  -1   0  -8  439.94  163.67
   1   0   8  401.72   42.35
  -1   0  -8  347.40   68.84
   1   0   8  381.89   63.28
   2  -4   5 3786.60  190.93
  -2   4  -5 3485.75  258.67
  -2   4  -5 4405.89  248.68
   2  -4   5 3422.42  262.59
  -1   2   8  647.92  105.74
  -1   2   8  720.01  161.43
   1  -2  -8  889.04   86.42
   1  -2  -8  763.74   73.76
  -1  -6   021395.25 1560.78
   1   6   024247.13 2079.73
   1   6   025095.49 1783.40
  -1  -6   021207.52 1603.10
  -2   0   721370.75 1716.23
   2   0  -718755.91 1606.40
   2   0  -719403.08 1215.44
  -2   0   717546.62 1189.99
  -2  -4  -1 3508.02  330.22
  -2  -4  -1 3172.29  284.59
   2   4   1 2955.90  314.40
   2   4   1 3951.85  306.30
   0  -5   718655.21 1498.10
   0  -1   9 2336.36  218.77
   0   1  -9 2503.08  272.82
   0  -5   716920.93 1104.86
   0  -1   9 2766.33  214.47
   0   5  -718112.01 1461.88
   0   1  -9 2636.83  186.14
   0   5  -718976.38 1474.81
  -1  -6   3 5906.62  463.28
   1   6  -3 6614.57  532.87
  -1  -6   3 6732.39  477.58
   1   6  -3 6765.86  499.82
  -2   1   714869.25  911.50
   2  -1  -713674.85 1178.17
   2  -1  -713578.69  747.88
  -2   1   716111.52 1144.57
  -1  -3   8  807.61  197.52
   1   3  -8  995.74  142.51
  -1  -3   8  918.34  125.11
  -2   3   611060.03  797.13
  -2   3   614653.38  968.58
   1   3  -8  801.82  126.75
  -2   4   5 1553.59  197.61
  -2   4   5 1605.91  173.54
  -2   0  -6  509.15  100.69
  -2   0  -6  562.51   94.29
  -1   6  -5 2910.05  389.66
   1  -6   5 2577.83  174.21
   1  -6   5 2139.33  192.70
  -1   6  -5 2812.78  341.37
  -2   5  -4   19.89   35.22
   2  -5   4   48.25   86.20
  -2   5  -4   20.76   39.98
   2  -5   4   44.14   48.80
   0   4  -8 1377.26  146.26
   0  -4   8 1079.89  128.89
   0  -4   8 1222.03  190.05
   0   4  -8 1220.56  147.28
   2   1  -7 6022.29  620.18
  -2  -1   7 6470.60  502.90
  -2  -1   7 6098.21  600.17
   2   1  -7 5738.19  346.73
  -1  -5   6 5066.43  544.72
  -1  -5   6 3962.69  327.97
   0   0   9  639.85  119.83
   0   0  -9  555.65   72.22
   1   5  -6 3496.46  393.11
   1   5  -6 4359.54  332.50
   0   0  -9  617.67   68.65
  -1   3  -8 5865.76  403.09
   1  -3   8 6559.30  487.71
   1  -3   8 6846.50  398.01
  -1   3  -8 6899.98  393.64
   2   4  -449684.84 3946.83
  -2  -4   446262.74 3748.94
  -2  -4   433190.41 2672.06
   2   4  -438066.05 3439.21
  -2   3  -6  142.47  128.58
  -2   3  -6  181.80  131.76
  -3   1   1  170.92   65.83
   3  -1  -1  163.59  100.30
   3  -1  -1  141.27   53.24
  -3   1   1  184.82   50.20
   0  -2   9 2674.85  247.45
   0   2  -9 2772.67  213.07
   0  -2   9 2526.66  198.58
   0   2  -9 2615.38  246.28
   0  -7   111202.65  752.20
   0  -7   111366.35  795.07
   0   7  -112279.77  909.85
   0   7  -111359.65  757.02
   3  -1   0 1429.98  182.74
   3  -1   0 1633.32  240.63
  -3   1   0 1399.36  113.32
  -3   1   0 1279.86  144.82
   1   6   1  932.49  233.67
  -1  -6  -1  756.59  154.43
  -1  -6  -1  727.16  121.27
   1   6   1  603.33  195.88
   0  -7   2 1675.30  176.26
   1  -7   1  610.89  107.94
  -1   7  -1  522.85  104.90
   0   7  -2 1455.38  277.35
   0  -7   2 1938.85  302.06
   0   7  -2 2180.51  223.09
   1  -7   1  594.31  155.24
  -1   7  -1  611.05  164.57
   2  -6   0 4347.79  333.41
  -2   6   0 3843.67  292.68
   2  -6   0 4185.85  295.71
  -2   6   0 4359.68  258.47
  -2   6  -1 1513.32  129.99
   2  -6   1 1546.15  222.18
   2  -6   1 1430.83  128.07
  -2   6  -1 1313.35  139.88
   3  -2  -1 9320.19  611.57
   3  -2   014731.79 1002.67
   3  -2   015893.64 1106.92
  -3   2   015753.14 1087.47
   3  -2  -1 9307.69  568.28
  -3   2   1 8697.17  626.74
  -3   2   1 9702.43  748.22
  -3   2   017661.04 1100.01
  -3   1   2 3733.17  388.21
  -3   1   2 4293.32  448.23
   3  -1  -2 3034.41  193.22
   3  -1  -2 3317.80  244.56
   0  -7   010779.47  739.07
   0  -7   011634.90  777.85
   0   7   011158.99  823.66
   0   7   012187.10  930.52
   1  -7   0  105.96   52.10
  -1   7   0  123.93   64.75
  -1   7   0  117.18   45.46
   1  -7   0  133.54   67.88
   1   5   4 8632.21  731.85
  -1  -5  -4 8935.96  569.76
   1   5   4 8496.89  522.59
  -1  -5  -4 8065.15  692.13
  -2  -2  -5 2541.25  181.50
  -3   0   1   88.10  119.00
   2   2   5 2599.99  155.84
  -3   0   1   63.17   44.93
   2   2   5 3088.14  267.84
   3   0  -1   31.70   65.29
  -2  -2  -5 2490.65  244.24
   3   0  -1   70.37   78.59
  -1  -1  -8 1568.72  145.61
   1   1   8 1479.42  124.36
   1   1   8 1626.69  156.35
  -1  -1  -8 1463.90  158.75
   1  -7   2  407.37  166.90
  -1   7  -2  404.98  166.42
  -1   7  -2  396.26   85.22
   1  -7   2  383.24   88.64
  -2  -3   613650.62  956.41
   2   3  -612505.38  923.34
   2   3  -612288.91  820.37
  -2  -3   612065.86  865.28
   2   4   216303.47 1116.47
   1   6  -4 2316.64  223.48
  -1  -6   4 2599.22  259.55
  -2  -4  -216751.84 1242.45
   1   6  -4 2879.17  254.83
   2   4   217256.80 1345.37
  -1  -6   4 3404.21  304.00
  -2  -4  -215007.86 1076.29
   3   0   0  299.22  106.81
  -3   0   0  270.66   87.03
  -3   0   0  271.02   54.49
   3   0   0  275.19  114.89
  -3   1  -1 4573.90  449.75
  -3   1  -1 3559.74  238.66
   3  -1   1 4576.29  324.46
   3  -1   1 4638.80  321.57
  -1   6   4 1621.16  112.65
   1  -6  -4 1915.76  310.35
  -1   6   4 1898.99  343.78
   1  -6  -4 1975.25  150.55
   2  -6  -1 4226.10  300.63
  -2   6   1 4979.84  388.52
   2  -6  -1 4999.89  330.87
  -2   6   1 4078.79  271.88
  -2   2   7 8158.69  736.99
  -2   2   7 7633.81  356.52
   2  -2  -7 5974.92  444.54
   2  -2  -7 7428.42  340.87
   3   0  -224337.83 1744.45
   2  -6   214712.58  999.13
   2  -6   215842.07 1021.53
  -2   6  -214924.40  964.19
   3   0  -226284.77 1794.62
  -3   0   224080.29 1646.21
  -2   5   4 5012.47  372.72
  -2   5   4 4429.50  367.28
  -2   6  -214620.76  973.11
  -3   0   226974.59 1967.53
   0  -6   617968.54 1334.02
  -3   2  -1 5954.03  415.95
  -3   2   2  163.00   52.85
   3  -2   1 6383.21  404.82
   0   6  -618879.33 1350.60
   0   6  -618638.48 1541.59
   0  -6   618815.60 1448.44
  -3   2  -1 6789.29  373.96
  -3   2   2  148.09   56.21
   3  -2  -2  152.08   74.29
   3  -2  -2  212.97   67.96
   0   7  -3  188.05   98.13
   0  -7   3  159.64  129.70
   0  -7   3  162.73   85.58
   0   7  -3  156.50  138.19
  -2  -3  -4 5840.09  562.58
   0   6   4  372.95   87.65
   0  -6  -4  470.28  177.88
  -2  -3  -4 6175.95  344.28
   2   3   4 7377.49  549.83
   2   3   4 7690.16  532.41
   0   6   4  293.03   99.06
   0  -6  -4  435.46  147.78
  -1   0   9 1278.36  225.67
   1   1  -9 7803.38  544.94
   1   0  -9 1315.39  234.24
  -1   0   9 1383.99  148.12
   1   1  -9 6881.30  418.60
  -1  -1   9 7236.85  468.01
   1   0  -9 1223.20   94.81
  -1  -1   9 6821.62  410.80
   0   4   7 1571.96  142.41
   0  -4  -7 1326.46  100.60
   0  -4  -7 1519.33  147.59
   0   4   7 1570.80  249.82
   1  -4  -7 4726.07  192.21
   0   1   9 1071.83  114.58
   0  -1  -9  877.65   76.80
  -1   4   7 5777.75  449.00
  -1   4   7 6593.18  594.86
   0   1   9 1138.24  106.23
   1  -4  -7 4094.56  177.38
   0  -1  -9 1085.97  104.04
  -2  -2   7 1469.11  297.02
  -2  -2   7 1398.34  146.33
   2   2  -7 1371.12  205.58
   2   2  -7 1467.71  309.75
  -1   7   120571.47 1338.11
   1  -7  -118969.45 1281.67
  -1   7   116532.45 1242.56
   1  -7  -119850.32 1425.85
   1  -5   7  162.32   36.64
  -1   5  -7  241.59   86.49
  -1   5  -7  200.61   47.57
   1  -5   7  250.63   84.12
  -2  -1  -617111.78  959.47
  -2  -1  -612677.07 1076.87
   2   1   615279.20 1175.73
   0   7   1 3746.12  255.59
   0  -7  -1 4551.25  367.11
   0  -7  -1 3761.12  293.17
   0   7   1 3535.12  316.88
  -3   1   3 8922.16  610.29
  -3   1   3 9349.74  750.04
   3  -1  -3 7753.27  670.30
   3  -1  -3 8259.31  493.63
  -3   0  -123774.39 1729.10
  -3   0  -122242.56 1491.46
   3   0   124560.55 1911.45
   3   0   129070.65 2088.84
  -1   7  -3 3989.75  416.22
   1  -7   3 3615.12  265.74
   1  -7   3 3978.52  360.66
  -1   7  -3 4683.91  368.54
   0  -3   9 8571.08  724.41
   0   3  -9 9607.61  823.13
   0   3  -9 9225.96  706.59
   0  -3   9 9284.37  676.79
   0   3   8  803.67  162.11
   0   3   8  802.68  189.89
   0  -3  -8  742.02   76.65
   0  -3  -8  744.63   68.63
  -3   3   0  727.87   78.36
  -3   3   0  749.66  129.49
  -3   3   0  728.67  128.97
  -3   3   0  689.36  145.68
   1   6   2 5522.78  530.40
  -1  -6  -2 6493.96  436.07
  -1  -6  -2 6145.88  458.01
   1   6   2 7108.56  460.66
   2   4  -5 1495.29  302.68
  -1   5   621165.74 1195.13
  -3   3   1 2478.58  187.54
  -3   3   1 2753.45  193.37
  -2  -4   5 2018.01  362.83
   1  -5  -621150.92 1537.80
  -1   5   619357.50 1444.85
   2   4  -5 1926.48  190.05
  -3   3   1 2744.69  190.78
  -2  -4   5 2109.18  401.71
  -3   3   1 2763.26  172.00
   3   0  -311647.82  797.93
   3   0  -312665.88  785.21
  -3   0   313643.42  914.44
  -3   0   312713.46  874.20
  -1   3   811715.53  855.75
   1  -3  -810997.35  582.93
  -1   3   812023.39  804.93
   2  -6  -2   11.25   42.73
  -2   6   2   11.67   40.72
   2  -6  -2   -1.96   17.10
  -2   6   2  291.05   67.33
   0   5   6 4431.98  295.52
   0   5   6 3677.54  409.07
   0  -5  -6 4237.45  418.62
   0  -5  -6 4165.12  257.79
   2  -4   6  378.36   92.40
   3  -1   2  254.05   77.63
   3  -1   2  222.04   60.57
  -3   1  -2  173.50   76.73
  -1  -3  -716692.28 1158.33
   1   3   718772.06 1227.47
  -1  -3  -717011.68 1191.38
  -3   1  -2  221.33   56.27
  -2   4  -6  420.31   89.10
  -2   4  -6  500.03   51.49
   1   3   717161.88 1244.01
   2  -4   6  432.72   24.89
   1  -1  -9 2495.47  174.15
  -1   1   9 2910.16  161.17
  -1  -2   9 3650.02  260.62
   1   2  -9 4064.64  280.44
   1   2  -9 4129.75  324.73
   1  -1  -9 2244.97  191.95
  -1   1   9 2874.02  235.40
  -1  -2   9 3734.35  324.20
   2  -5   5  327.87   42.39
  -2   5  -5  220.73   57.54
   2  -5   5  328.11  149.35
  -2   5  -5  287.91   71.28
   3   1  -110541.60  704.10
  -3  -1   110669.35  782.18
  -3  -1   111529.24  745.25
   3   1  -112213.01  817.13
   1  -4   8  795.52   69.06
   1  -4   8  750.90  207.35
  -1   4  -8  776.96  137.87
  -1   4  -8  802.27  110.80
   2  -6   3 8141.57  493.66
   2  -6   3 7200.23  499.75
  -2   6  -3 7853.89  634.69
  -2   6  -3 6955.67  528.21
  -3   2   3   37.95   64.10
  -3   2  -2 2094.42  163.31
  -3   2   3   28.64   42.29
   3  -2  -3   12.16   67.62
   3  -2  -3   14.13   35.62
  -3   2  -2 1841.97  154.84
  -3   2  -2 1983.19  153.05
  -3   2  -2 1731.03  176.77
  -3   3  -1  754.57   97.82
  -3   3  -1  634.32  155.50
  -3   3  -1  743.67   73.89
  -3   3  -1  815.20  132.43
   1   4   6   35.53   38.15
  -1  -4  -6   58.57   47.10
   1   4   6   50.26   35.66
  -1  -4  -6   55.90   75.34
   1  -6   6  157.10   46.87
   3   1  -2 3698.88  263.35
   0   7  -4  520.77  111.78
  -3  -1   2 3722.96  273.28
   0  -7   4  410.69   89.33
  -1   6  -6  156.48  110.62
  -1   6  -6  173.19   89.91
   1  -6   6  139.45  108.90
  -3  -1   2 4176.36  350.15
   0  -7   4  507.00  123.37
   3   1  -2 4331.44  444.58
   0   7  -4  511.52  122.84
  -3  -1   0 2215.46  270.76
  -3  -1   0 2105.87  249.95
   3   1   0 2200.60  257.94
   3   1   0 1845.87  173.18
  -3   3   2 2601.34  201.90
  -3   3   2 2635.90  225.80
  -3   3   2 2569.02  226.90
  -3   3   2 2665.84  203.00
  -1  -6   5 3667.00  324.55
  -1  -6   5 3471.15  272.50
   1   6  -5 3862.40  359.53
   1   6  -5 4658.20  404.64
   1   4  -8 3546.31  304.63
  -1  -4   8 3523.44  433.19
  -1  -4   8 3177.50  279.18
   1   4  -8 3318.87  303.76
   1  -7  -210886.05  784.68
  -2   1  -7 1924.34  184.44
  -1   7   2 9771.82  729.78
  -1   7   210042.98  583.18
   1  -7  -211663.14  814.56
  -2   1  -7 1475.89  168.89
  -2   2  -7   -2.19   39.79
  -2   2  -7   40.16   46.60
   2   5  -1 3195.99  290.15
  -2  -5   1 2816.31  288.43
  -2   4   6 4468.86  389.06
  -2   4   6 4675.38  360.23
  -2  -5   1 3613.78  300.27
   2   5  -1 3188.39  272.38
   2   5  -2   41.54   63.51
  -2  -4  -318920.42 1432.12
   3   0   2 7487.50  483.69
  -3   0  -2 7129.24  446.20
  -2  -5   2    1.75  100.24
   2   5  -2    8.47   47.86
   3   0   2 8780.12  760.03
   2   4   320859.12 1464.78
  -2  -5   2   11.98   37.32
   2   4   320749.36 1610.09
  -2  -4  -320590.62 1359.71
  -3   0  -2 7093.00  536.67
  -1  -5   7 7233.82  529.76
  -1  -5   7 7192.86  727.08
   1   5  -7 6759.59  672.66
   1   5  -7 6392.38  464.38
   0   7   2  191.73   58.20
   0  -7  -2  196.16   79.52
   0   7   2  162.63   83.75
   0  -7  -2  149.11   82.09
   1  -7   4  510.67  132.05
  -1   7  -4  426.05  164.70
  -1   7  -4  425.62  137.68
   1  -7   4  440.31  145.53
  -2   0   8 5936.14  613.03
  -2   0   8 5278.94  303.18
   2   0  -8 4812.30  385.89
   2   0  -8 4769.62  265.55
  -3   1   4 3730.15  250.05
  -3   1   4 4163.13  454.81
   3  -1  -4 3402.68  194.05
   3  -1  -4 3544.61  398.69
   1   2   8  283.79   79.62
  -1  -2  -8  241.76   71.75
  -1  -2  -8  326.14   67.16
   1   2   8  314.43   76.50
  -1   1  -9 2500.31  293.41
   1  -1   9 2496.20  160.51
  -1   1  -9 2245.85  213.98
   1  -1   9 2546.63  165.17
  -3  -1   3  518.01  107.39
   3   1  -3  559.70   85.78
  -3  -1   3  619.98  180.46
   3   1  -3  575.78  107.39
  -3   3  -2 5607.16  507.66
   3   1   1 1446.24  177.85
  -3  -1  -1 1383.92  171.18
  -3   3  -2 7033.76  458.10
  -3   3  -2 5925.75  362.68
  -3  -1  -1 1179.29  164.90
  -3   3  -2 7173.40  396.22
   3   1   1 1525.53  174.66
  -2   3   7 8202.83  603.28
  -2   3   7 9377.39  619.15
   0   5  -8  245.98   77.48
   0  -5   8  333.57  137.52
   0   5  -8  233.25   91.91
   0  -5   8  232.38  133.69
  -2  -5   0  296.17  110.28
   2   5   0  267.42   92.76
   2   5   0  230.52   74.96
  -2  -5   0  276.26  143.87
   1  -2   9 2970.33  233.83
  -1   2  -9 3692.71  219.50
   1  -2   9 2796.41  130.34
  -1   2  -9 2921.47  229.59
  -3   0   4 8712.93  602.98
  -3   0   4 8423.41  685.69
   3   0  -4 7710.03  455.96
   3   0  -4 7297.53  634.77
  -2  -5   311401.87  771.51
   2   5  -313031.46  913.76
   2   5  -311524.94 1054.48
  -2  -5   3 9884.84  910.84
   0   2   9 2350.10  293.73
   0   2   9 2406.85  261.97
   0  -2  -9 2201.15  202.91
   0  -2  -9 2257.49  229.32
  -2  -1   8  224.59  161.42
   2   1  -8  232.79   53.11
  -2  -1   8  299.58  112.30
   2   1  -8  203.19   82.89
   2  -1  -8  256.22   89.53
  -2   1   8  226.99  139.64
   2  -1  -8  204.58   47.39
  -2   1   8  180.53   41.37
  -2   0  -712596.03 1061.42
  -2   0  -715858.91 1057.73
  -2   6   3  137.80   98.74
   2  -6  -3   56.62   13.75
  -2   6   3   41.68   15.05
   2  -6  -3   66.48   60.99
  -2   5   5   43.29   51.08
  -2   5   5    0.21   53.23
  -2   3  -7 5108.48  375.37
  -2   3  -7 4574.57  515.19
  -3   3   311756.42  685.96
  -3   3   312851.13  979.54
  -3   3   312444.15  878.59
  -3   3   311571.13  693.51
   1   5   5  750.93  115.49
  -1  -5  -5  792.72  172.51
  -1  -5  -5  892.69  139.80
   1   5   5  769.77  146.24
  -2  -3   7 1978.61  357.56
   2   3  -7 1792.52  265.86
  -2  -3   7 1656.25  265.31
   2   3  -7 1631.11  193.98
  -1   6   5 1278.00   82.91
  -1   6   5 1354.34  196.91
   1  -6  -5 1299.23   91.20
   1  -6  -5 1319.52  251.54
   3  -1   3  603.10   67.97
  -3   1  -3  404.86  102.48
   3  -1   3  540.72   98.78
  -3   1  -3  557.54   68.81
   3  -2  -4  603.47   60.98
   3  -2  -4  592.07  185.78
  -3   2   4  575.75  165.20
  -3   2   4  506.30   60.89
   2  -6   410548.03  736.10
  -3   2  -3  500.83   39.33
  -2   6  -411951.16  801.85
  -2   6  -411117.77  794.60
   2  -6   411385.76  751.74
  -3   2  -3  503.07  156.35
  -3   2  -3  424.92  158.23
  -3   2  -3  506.30   63.43
  -1  -6  -3 4999.74  392.75
   1   6   3 5561.27  442.17
  -1  -6  -3 6116.41  583.80
   1   6   3 5418.52  471.35
  -1   0  -9 3513.95  264.24
   1   0   9 3631.82  234.59
   1   0   9 3197.83  198.88
  -1   0  -9 3578.12  304.80
  -1  -3   9 2897.20  240.73
  -1   2   9 1025.02  120.84
   1  -2  -9 1189.89   81.30
  -3   4   0  167.14   41.35
   1   3  -9 3573.09  303.84
  -3   4   0  132.32   39.03
   1   3  -9 3160.45  292.86
  -1  -3   9 3140.25  258.92
  -1   2   9 1007.95  130.45
   1  -2  -9 1112.61   71.07
  -3   4   0  148.84   78.43
  -3   4   0  152.54   59.37
   0  -4   9 1623.86  163.52
   0   4  -9 2125.55  265.52
   0  -6   7  512.85  128.43
   0   4  -9 1904.01  188.72
   0  -6   7  582.65  108.69
   0   6  -7  512.83  102.14
   0   6  -7  567.49  130.57
   0  -4   9 2061.19  162.72
  -3   4   1 5509.32  305.46
  -3   4   1 6192.19  424.74
  -3   4   1 5405.72  421.34
  -3   4   1 5635.73  338.22
   0   6   5 4145.20  231.16
   0  -6  -5 5114.56  388.93
   0   6   5 4253.39  354.16
   0  -6  -5 4391.45  368.14
  -2  -3  -5  333.97   88.34
   2   3   5  272.31   89.34
  -2  -2  -6 1842.13  145.10
   2   2   6 1739.56  148.48
   2   3   5  242.83   73.22
  -2  -3  -5  311.10   99.27
   2   2   6 1862.88  185.01
  -2  -4   6 2999.04  288.49
   2   4  -6 2794.78  395.75
  -2  -4   6 3705.04  331.79
   2   4  -6 3284.59  275.82
   0   7  -5 6027.06  645.16
   0  -7   5 5797.43  398.70
   0  -7   5 5821.82  458.43
   0   7  -5 6998.06  550.13
  -3   4  -1 8706.64  563.51
  -3   4  -1 7981.44  484.37
  -3   4  -1 7475.59  425.34
  -3   4  -1 8718.58  525.26
  -2  -5  -1 2825.45  284.71
   2   5   1 3190.07  279.92
  -2  -5  -1 2861.74  220.80
   2   5   1 3221.87  390.37
   1  -3   9  950.38  105.70
  -3  -2   1 5556.17  504.94
   1  -3   9  928.41  228.47
   3   2  -1 4999.54  359.65
  -1   3  -9  837.06  184.92
   3   2  -1 5362.86  384.93
  -1   3  -9  807.35   83.22
  -3  -2   1 5454.18  469.04
  -1   7   3 4745.40  265.45
   1  -7  -3 4705.59  347.61
   1  -7  -3 4923.19  402.97
  -1   7   3 3769.29  467.74
   3   1  -4 6721.68  640.70
   3   1  -4 7533.22  488.31
  -3  -1   4 6975.64  639.28
  -3  -1   4 7490.08  533.39
  -3  -1  -2 1684.31  179.20
   3   1   2 1408.45  157.91
   3   1   2 1587.83  114.89
  -2  -5   4 8359.96  684.10
   2   5  -4 6615.10  669.89
   2   5  -4 9976.47  707.27
  -3  -1  -2 1485.56  193.21
  -2  -5   410063.34  750.70
   3   0   3  173.79   44.97
  -3   0  -3  118.38   42.21
  -3  -2   2  547.25  146.96
  -3  -2   2  552.24  199.49
   3   2  -2  579.16  164.05
   3   0   3  168.11   76.41
   3   2  -2  581.92  102.71
  -3   0  -3  167.02  133.10
   0  -1  1013955.07 1049.09
   0   1 -1014404.41  969.73
   0  -1  1013322.50  823.05
   0   1 -1014275.87  945.37
  -3   3  -3 5876.30  450.74
  -3   3  -3 6883.32  402.64
  -3   3  -3 6056.72  526.95
  -3   3  -3 6411.48  364.05
  -3   4   2  625.17  179.45
  -3   4   2  592.12   84.66
  -3   4   2  553.06   50.78
  -3   4   2  565.83   63.35
  -3  -2   0 5764.81  472.19
   3   2   0 6444.78  543.05
   3   2   0 5823.46  415.41
  -3  -2   0 6013.54  382.22
   1   6  -610689.99  966.57
  -1  -6   6 9971.45  674.82
  -1  -6   6 8900.95  654.00
   1   6  -610241.78  955.99
   2   2  -8 3535.80  316.21
  -2  -2   8 3495.09  286.30
   2   2  -8 3695.72  257.21
  -2   5  -615752.95 1095.95
  -2   5  -619140.85 1131.39
   2  -5   616556.87 1217.60
   2  -5   619023.00 1154.43
  -1   7  -5 9879.01  709.16
   2  -2  -8  250.15   79.27
  -2   2   8  325.09   31.16
  -1   7  -511221.01  788.48
   1  -7   5 9276.13  650.98
   0   7   3 4264.59  492.60
   0  -7  -3 5299.75  376.79
   0   7   3 5004.25  300.87
   1  -7   5 7864.15  547.33
   0  -7  -3 5220.49  393.35
   2  -2  -8  253.95   24.48
  -2   2   8  333.14  100.55
   1   7  -1  230.43   99.78
   0   0  10 3223.77  208.33
  -1  -7   1  194.41   98.94
   1   7  -1  183.83  164.70
  -1  -7   1  157.22   73.55
   0   0  10 3522.46  248.93
   0   0 -10 3415.76  306.32
   0   0 -10 2912.44  214.58
  -1  -7   2 2872.05  317.71
   1   7  -2 2554.52  418.89
   0  -2  10 4308.71  318.73
   0   2 -10 4471.82  322.52
  -1  -7   2 2629.68  247.71
   0  -2  10 4579.88  370.63
   1   7  -2 2794.41  398.03
  -3   4  -2 2883.70  199.60
  -3   4  -2 3122.91  290.84
  -3   4  -2 3258.03  246.23
  -3   4  -2 2840.76  217.66
  -3   1   511219.13  957.00
  -3   1   5 9835.48  602.86
   3  -1  -5 9119.67  517.28
   1  -5   8 2578.96  153.32
  -1   5  -8 2655.82  244.86
   3  -1  -5 9584.13  692.57
   1  -5   8 2601.21  369.17
  -3   0   5 5246.15  473.95
   3   0  -5 5089.35  409.39
   3   0  -5 4652.70  282.21
  -3   0   5 4763.22  500.01
  -3   3   4 3460.88  272.85
  -3   3   4 4000.86  264.31
  -3   3   4 3234.40  191.06
  -3   3   4 3320.39  300.00
  -2  -1  -718846.81 1256.11
  -2  -1  -716247.23 1180.08
   3   2  -3 5449.54  408.26
   2   1   7   35.33   37.71
   2   1   7  -10.17    6.18
  -3  -2   3 5615.50  443.02
  -3  -2   3 6442.79  606.15
   3   2  -3 6387.89  445.98
  -2  -4  -4 2790.43  299.22
   2   4   4 2302.11  198.21
   2   4   4 2388.52  190.97
  -2  -4  -4 2228.00  156.84
   1  -6   7 2778.64  167.15
  -1   6  -7 3500.85  331.74
   1  -6   7 2909.10  259.44
  -1   6  -7 3372.81  301.64
   2  -4   7 5993.03  445.52
  -2   4  -7 8695.29  408.14
   2  -4   7 6869.72  304.06
  -2   4  -7 5758.43  527.60
  -1  -1  -9 6133.10  393.88
   1   1   9 5974.67  376.18
  -1  -1  -9 5724.52  415.89
   1   1   9 5368.90  273.85
   1  -4  -8   -2.49    4.68
  -1   4   8  656.18  130.13
  -1   4   8  785.63  195.88
   2  -7   1 2181.22  189.32
   2  -7   1 1855.52  147.52
  -2   7  -1 1870.01  274.57
  -2   7  -1 1802.92  137.26
   1   7   0 5021.45  386.03
  -1  -7   0 3838.68  327.27
  -1  -7   0 4799.26  363.11
   1   7   0 4803.29  625.83
   0  -4  -8 2037.44  141.21
   0  -4  -8 1869.43  148.30
   0   4   8 1961.71  183.59
   0   4   8 1850.70  147.47
  -1   5   7 4956.96  457.95
  -1   5   7 4909.82  519.12
   1  -5  -7 1339.99   61.95
  -2   7   0   50.93   83.57
   2  -7   0   47.95   88.90
   2  -7   0   41.68   30.29
  -2   7   0   39.91   31.64
  -1  -7   3 2687.80  241.54
  -1  -7   3 2702.29  280.20
   1   7  -3 2704.80  449.67
   1   7  -3 3143.93  424.53
  -2   6   4  144.38   63.31
  -2   6   4  152.88   20.39
  -2   6   4  118.03   19.66
  -2   6   4  126.63   77.29
  -3  -2  -1 7009.30  562.74
   3   2   1 5672.60  413.79
   3   2   1 6465.60  422.40
  -3  -2  -1 6801.47  598.27
   2   5   2 3780.04  304.54
  -2  -5  -2 3258.92  320.69
  -2  -5  -2 3559.47  326.02
   2   5   2 3905.04  308.24
  -3   2   5   12.14   19.01
   3  -2  -5    5.38   21.16
   3  -2  -5   11.32   40.26
  -3   2   5   -7.25   69.81
  -3   2  -4 1160.98  153.71
  -3   2  -4 1417.86  157.50
  -3   2  -4 1408.71   73.02
  -2   6  -5  104.90   33.92
   2  -6   5  101.25  111.51
  -2   6  -5  108.62   69.48
   2  -6   5  141.77   61.02
   0   5   7 3370.88  230.04
   0  -5  -7 2988.65  238.88
   0   5   7 2811.44  239.66
   0  -5  -7 3581.07  233.53
   3  -1   4  -19.03   40.98
  -3   1  -4   22.51   14.45
  -3   1  -4   14.58   79.33
  -3   1  -4   25.60   11.35
   1   1 -10 4626.74  346.53
  -1  -1  10 5046.46  400.47
   1   1 -10 4481.25  281.36
  -1  -1  10 4684.51  333.57
  -3   4   310825.65  787.30
  -3   4   310751.54  715.04
  -3   4   313159.70  770.32
  -3   4   311824.76  730.73
   2  -7   2  573.57   92.08
  -2   7  -2  390.76   79.25
   2  -7   2  433.08   78.75
  -2   7  -2  515.16   90.45
  -1   0  10  478.70   63.01
  -1   0  10  516.02  103.62
   1   0 -10  424.98   58.23
   1   0 -10  415.42   95.80
   1   4   7 3144.45  294.26
   1   4   7 2485.81  259.36
  -2  -5   5 3337.02  350.46
   2   5  -5 2372.13  364.29
  -1  -4  -7 3212.02  226.30
   2   5  -5 3143.82  283.95
  -2  -5   5 2863.77  411.75
  -1  -4  -7 2813.63  235.54
   2  -7  -1 1107.62  136.48
  -2   7   1 1009.30   85.46
  -2   7   1  927.52  215.06
   2  -7  -1  998.93   80.92
  -1  -5   8 9135.96  865.79
   1   5  -8 8087.25  591.46
  -1  -5   810040.12  901.44
  -2   4   7  367.35  119.66
   1   5  -8 8486.14  761.43
  -2   4   7  410.91   97.66
  -3  -1   5  109.56   67.20
  -1  -6  -4 3606.73  423.24
  -1  -6  -4 4021.23  304.31
   1   6   4 3879.89  269.12
  -3  -1   5   90.49   63.39
   1   6   4 3766.87  313.17
   3   1  -5  103.83   46.00
   3   1  -5   87.98   68.76
  -3  -1  -3  469.65   52.28
   3   1   3  442.76   81.13
   3   1   3  551.36  114.37
  -3  -1  -3  377.85  114.08
   0   1  10  550.67   85.62
   0  -1 -10  455.26   56.94
   0   1  10  547.86  123.13
   0  -1 -10  576.27  121.07
   0  -7   6  464.21   99.54
   0   7  -6  518.04  134.58
  -1   4  -9  601.62   98.78
  -1  -3  -8 3276.96  213.58
  -1  -3  -8 3150.98  345.98
  -1   4  -9  544.46  116.71
   1   3   8 3205.04  220.85
   0  -7   6  487.37  204.31
   0   7  -6  352.09   93.45
   1  -4   9  465.02  108.11
   1  -4   9  421.26   63.18
   1   3   8 3028.52  211.88
   0  -3  1015611.65 1011.30
   0   3 -1015943.75 1315.46
   0  -3  1014128.70 1031.86
   0   3 -1014259.75  966.09
   0   3   9 3045.79  218.90
   0   3   9 2939.66  343.13
   0  -3  -9 2608.64  226.68
   0  -3  -9 2672.47  199.28
  -3   4  -3 8943.84  716.70
  -3   4  -3 9649.01  529.19
  -3   4  -3 8599.73  457.53
  -3   4  -3 6768.18  609.46
  -3  -2   4 5464.76  417.67
   3   2  -4 5053.26  413.64
   3   2  -4 4999.03  351.43
  -3  -2   4 4503.63  367.21
   1  -3  -9  166.74   36.58
  -1   3   9  213.15   81.34
   1  -3  -9  135.04   28.00
  -1   3   9  193.00   85.40
   1   4  -9 8394.32  820.85
   1   4  -9 7004.21  695.23
  -1  -4   9 7090.91  518.95
  -1  -4   9 6490.62  451.23
   1   7   1  -10.20   27.08
  -1  -7  -1   17.04   86.86
   1   7   1   38.74   53.50
  -1  -7  -1   22.55   86.89
  -2   5   6 3438.80  389.51
  -2   5   6 3204.48  437.96
  -1  -7   4  575.12  129.54
  -1  -7   4  678.19  126.72
   1   7  -4  754.94  137.14
   1   7  -4  621.30  211.75
  -3   3  -4 3687.62  185.63
  -3   3  -4 3719.01  284.38
  -3   3  -4 3532.31  178.90
   1  -8   132698.73 2572.71
   1  -8   134538.39 2900.61
  -1   8  -130645.94 2217.26
  -1   8  -128639.16 2232.82
   1   2 -10 4422.54  400.07
  -1  -2  10 4114.66  286.43
  -1  -2  10 3598.68  241.41
   1   2 -10 3773.64  287.65
  -1   7   4 6330.98  325.23
  -1   7   4 4990.07  403.02
  -2   2  -8  715.35  120.34
   1  -7  -4 6876.52  385.21
   1  -7  -4 6245.54  481.44
  -2   2  -8  663.44  132.29
  -2   1  -8 1308.32  154.68
  -2   1  -8 1639.76  240.01
  -3   5   0  392.77   60.37
  -3   5   0  475.21   68.28
  -3   5   0  519.84   88.50
  -3   5   0  370.65   48.07
   3   0   410249.62  697.82
  -3   0  -410564.47  561.11
  -3   0  -4 8983.45  671.78
   3   0   410405.90  550.83
  -2  -4   7 3871.07  429.36
   2   4  -7 4529.86  478.89
   2   4  -7 4302.47  541.17
  -2  -4   7 3780.29  422.16
   0  -8   1 8187.79  559.99
   0   8  -1 9797.25  641.98
   0   8  -1 7023.41  533.40
   0  -8   1 8347.16  729.58
   1  -8   2 5027.16  497.47
   1  -8   2 4911.71  372.19
  -1   8  -2 5306.92  388.44
  -1   8  -2 4597.17  384.26
   1  -6  -6   37.66   78.46
  -1   6   6   38.96   18.00
  -1   6   6   37.38  113.41
   1  -6  -6  -15.77    9.21
   2  -7   3  943.05  157.59
   2  -7   3  808.61  107.65
  -2   7  -3 1104.29  220.92
   0   8  -2  216.39   89.34
  -2   7  -3  840.55  171.64
   0   8  -2  241.70  145.20
   0  -8   2  217.77  143.72
   0  -8   2  209.71   75.93
  -1   1  10  294.14   40.75
  -1   1  10  355.93   91.76
  -1   8   0  178.31   91.26
   1  -1 -10  253.62   67.59
   1  -8   0  269.09  114.62
  -1   8   0  266.76  107.35
   1  -8   0  166.64  131.75
   1  -1 -10  238.96   36.28
  -2  -3   815670.79 1088.00
  -2  -3   814947.21 1047.99
   2   3  -817060.91 1322.43
   2   3  -817535.10 1226.24
  -3  -2  -221536.25 1623.67
   3   2   225551.47 1832.10
   3   2   223027.46 1681.69
  -3  -2  -221251.71 1435.44
  -3   5   1 5522.04  403.71
  -3   5  -1  363.98   89.96
  -3   5  -1  318.34   85.16
  -3   5   1 6085.36  439.61
  -3   5  -1  341.23  103.16
  -3   5  -1  424.78   82.04
  -3   5   1 5773.36  375.93
  -2   3   8  352.15   85.95
  -2   3   8  347.83  101.75
  -1  -5  -6  555.27  106.93
  -1  -5  -6  611.83   92.68
   1   5   6  660.56   92.10
   1   5   6  577.73   99.89
  -2   0   9  214.78  149.01
  -2   0   9  207.85   44.97
   0  -5   9 1636.69  174.62
   2   0  -9  150.92  143.21
   0  -5   9 2493.36  203.10
   0   5  -9 1915.37  198.23
   2   0  -9  180.73   38.80
   0   5  -9 2085.56  250.94
   2  -7  -2  113.23   47.19
  -2   7   2  163.86  119.36
   2  -7  -2  110.54   65.14
  -2   7   2  143.70   34.86
  -1   7  -6 2113.54  333.25
  -1   7  -6 2430.96  209.51
   1  -7   6 1783.23  177.40
   1  -7   6 2430.62  179.44
   0  -7  -4  481.70   74.95
   0   7   4  486.12  108.66
   0   7   4  590.41   71.08
   0  -7  -4  553.95  185.89
   0  -8   0  854.72  203.33
   0   8   0  948.21  182.80
   0   8   0 1070.69  133.11
   0  -8   0  836.74  122.50
   0   6  -8 5122.82  466.84
   0  -6   8 4480.32  337.45
   0   6  -8 5112.19  382.27
   0  -6   8 5001.76  317.19
  -3   3   5 1666.63  120.37
  -3   3   5 1599.14  164.44
  -3   3   5 1694.92  200.77
  -3   3   5 1564.57   94.81
   0  -6  -6 4071.23  339.58
   0   6   6 3816.93  210.27
   0   6   6 3964.00  335.21
   0  -6  -6 4561.54  358.66
  -1  -6   7 7792.94  536.84
  -2  -3  -6 3353.54  295.87
   1   6  -7 8903.62  630.42
   2   3   6 4206.65  351.02
   1   6  -7 7664.49  576.55
  -2  -3  -6 3878.69  279.08
   2   3   6 4379.02  355.20
  -1  -6   7 9740.21  734.32
  -2   3  -834997.38 2844.85
  -2   3  -832178.41 2588.73
  -2  -1   9 2643.01  360.55
   0  -8   3 2465.91  351.33
   2   1  -9 2772.66  249.66
   0   8  -3 2498.66  299.12
   0   8  -3 2760.69  427.51
  -2  -1   9 3065.94  279.34
   2   1  -9 2974.45  292.22
   0  -8   3 2470.11  266.79
  -3  -3   1 2748.85  322.08
  -3  -3   1 2617.19  282.41
   3   3  -1 2412.79  205.73
   3   3  -1 2551.73  217.16
  -3   1   6   45.44   28.90
  -3   1   6   47.59   57.48
   3  -1  -6   52.19   38.44
   3  -1  -6   80.47   64.55
  -3  -3   2 1407.89  311.80
  -1   8  -3    3.49   37.41
   1  -8   3    5.63   37.12
   1  -8   3    3.65   60.57
  -3  -3   2 1552.44  273.23
   3   3  -2 1322.41  153.89
  -1   8  -3    0.16   35.79
   3   3  -2 1432.27  172.57
   3   0  -6  909.03   86.77
  -3   4   4  729.61  112.98
  -3   4   4  714.77  130.08
  -3   0   6  786.46  123.49
  -3   0   6  777.66   86.65
  -3   4   4  852.23   86.32
   3   0  -6  963.69  161.99
  -3   4   4  857.08   73.32
  -2   0  -8 3056.19  403.95
  -2   0  -8 3483.44  280.59
  -2   1   9 1868.11  183.44
   2  -1  -9 1703.94  301.77
  -2   1   9 1608.82  108.06
   2  -1  -9 1819.66   99.27
  -2  -5  -320044.91 1378.04
   2   5   317602.68 1228.18
  -2  -5  -317317.68 1556.24
   2   5   316271.88 1099.65
  -1   8   1 5787.98  350.30
  -1   8   1 4760.49  389.82
   1  -8  -1 6062.38  399.92
   1  -8  -1 6181.02  466.84
  -3   5   2 5859.53  384.22
  -3   5  -2 1265.27  113.91
  -3   5   2 5626.31  303.61
  -3   5  -2  863.74  148.44
  -3   5   2 5611.15  532.06
  -3   5   2 4757.28  246.30
  -3   5  -2 1161.53  222.12
  -3   5  -2 1103.42  127.79
  -1  -2  -9   13.90   35.60
  -1  -2  -9   17.70   32.98
   1   2   9   14.54   21.62
   1   2   9   17.14   22.34
   2   2   7   76.22   51.23
  -2  -2  -7  101.23   63.30
   2   2   7   90.85   92.87
  -2  -2  -7   85.44   38.77
  -3  -3   0 1088.56  117.99
  -3  -3   0 1189.44  203.60
   3   3   0 1022.22  127.94
   3   3   0 1032.57  187.31
  -2   5  -7  517.86   93.42
   2  -5   7  661.79   64.10
  -2   5  -7  612.69   45.55
   2  -5   7  522.33  123.00
  -1  -7  -2 1034.41  201.97
   1   7   2 1317.89  145.22
  -1  -7  -2 1212.80  283.70
   1   7   2  892.42  142.01
  -1   1 -1016869.20 1218.67
  -1   1 -1015406.40 1028.72
   1  -1  1017627.75 1101.43
   1  -1  1021314.78 1359.35
  -2   6   5  760.98  245.50
  -2   6   5  881.01  135.25
   2   6  -2 1812.98  233.71
  -3  -2   5 6211.55  445.72
   3   2  -5 6949.14  557.91
  -2  -6   2 1423.28  220.08
   3   2  -5 7472.84  502.48
  -3  -2   5 6553.89  476.87
  -2  -6   2 1491.09  271.64
   2   6  -2 1557.34  217.88
  -1  -7   5 8089.32  652.44
   1   7  -5 8150.82  600.33
  -1  -7   5 8521.49  772.34
   1   7  -5 8588.70  672.83
  -2  -5   6  178.20   97.52
  -2  -6   112025.33  942.58
   1  -2  10 1261.97   97.83
  -2  -5   6  216.54   88.81
   2   5  -6  235.75  107.99
  -3  -3   3  785.03  226.54
  -3  -3   3  779.14  230.45
  -1   2 -10 1196.43  200.91
  -2  -6   111013.68  908.42
  -1   2 -10 1275.06   72.69
   2   5  -6  185.33   80.57
   3   3  -3  810.93  128.80
   2   6  -111899.15  805.75
   3   3  -3  767.06  217.63
   2   6  -1 9930.61  723.01
   0  -8  -1 1751.92  205.57
   0   8   1 1951.51  279.65
   0   8   1 1507.89  223.76
   0  -8  -1 1368.87  235.01
   2   4   5 7501.12  519.21
  -2  -4  -5 8642.80  547.30
   2   4   5 8722.78  575.14
  -2  -4  -5 8564.19  910.44
  -3   4  -414873.99 1120.55
  -3   4  -414526.09  861.53
  -3   4  -415668.35  945.59
  -3   4  -415505.54 1077.12
  -1  -3  10  575.33  142.58
  -1  -3  10  722.77  112.62
   1   3 -10  783.56  195.12
   1   3 -10  741.59  121.97
   3  -2  -6 7324.80  554.39
   3  -2  -6 6896.86  380.43
  -3   2   6 7581.56  447.20
  -3   2   6 7407.13  659.45
  -3   2  -5 4723.58  504.65
  -3   2  -5 6171.50  436.83
   2  -7   4  666.82  175.36
  -2   7  -4  747.15  100.55
  -2   7  -4  997.78  141.10
   2  -7   4  840.67   90.19
  -2   6  -6 4083.94  242.37
   2  -6   6 4102.98  351.83
  -2   6  -6 4122.72  320.03
   2  -6   6 4312.78  240.73
   0   2  10  160.34   81.54
   0   2  10  201.95  111.01
   0  -2 -10  202.90   84.74
   0  -2 -10  207.96   73.51
  -3   1  -5 4272.22  406.17
  -3   1  -5 4204.53  347.18
   0  -4  10  551.48  110.61
   0   4 -10  661.65   98.96
   0   4 -10  479.43   91.31
   0  -4  10  583.42  142.53
   3   1  -6   56.46   89.39
  -3  -1   6   43.66   48.23
   3   1  -6   16.17   58.09
  -3  -1   6   19.79   38.37
   0  -8   428550.42 2149.27
   0   8  -429173.15 2170.10
   3   1   4 6246.60  445.62
   0   8  -427682.81 2175.27
  -3  -1  -4 6030.81  304.36
   0  -8   432137.54 2590.93
   3   1   4 6223.34  364.03
  -3  -1  -4 6246.17  680.19
   2   6  -3 7515.81  542.26
  -2  -6   3 7788.10  733.03
  -2  -6   3 6415.80  529.32
   2   6  -3 6435.48  507.84
   2   2  -9 3069.17  291.41
  -2  -2   9 2974.28  260.55
  -2  -2   9 3898.48  291.20
   2   2  -9 3278.82  231.28
  -2  -6   0 4077.59  312.51
   2   6   0 4006.44  350.53
   2   6   0 4290.79  339.94
  -2  -6   0 4008.25  550.34
  -1   2  10  792.02  114.28
  -1   2  10  657.82  115.88
   1  -2 -10  841.01  101.65
   1  -2 -10  810.29   98.17
  -2   7   3 4905.29  299.95
   2  -7  -3 4398.22  492.17
   2  -7  -3 4495.71  262.63
  -2   7   3 4424.48  406.15
   1  -6   8   39.72   29.10
  -1   6  -8   31.12   68.79
  -1   6  -8   58.41   65.40
   1  -6   8   52.83  102.39
   1  -8   4  809.52  103.59
  -1   0 -10 1513.71  227.54
   1  -8   4  713.53  104.76
  -1   0 -10 1515.55  183.45
  -1   8  -4  897.96  145.05
   1   0  10 1557.60  127.75
   1   0  10 1617.70  105.39
  -1   8  -4  751.26  198.72
   3   2   3 4118.87  310.29
  -3  -2  -3 4733.03  324.42
  -3  -2  -3 4879.71  599.88
   3   2   3 4614.84  265.67
  -3  -3  -112039.72 1127.84
   3   3   112164.87  809.66
  -3  -3  -110168.64  627.74
   3   3   110511.40  720.68
  -1   8   2 3332.42  212.99
   0  -7   711702.53 1112.72
   0   7  -713191.53 1004.91
  -3   5  -3 4145.84  233.36
  -3   5  -3 4147.73  319.85
   0   7  -711788.48  892.11
  -1   8   2 3234.45  327.22
   1  -8  -2 3701.51  335.50
  -3   5  -3 3691.94  330.65
   0  -7   711785.34  958.91
  -3   5  -3 4246.82  223.62
   1  -8  -2 3401.21  301.40
  -3   5   3 1640.01  126.10
  -3   5   3 1711.58  201.67
  -3   5   3 1647.35  169.46
   2  -2  -9 3418.13  305.00
  -3   3  -529357.45 2256.39
  -2   2   9 4849.35  229.80
  -2   2   9 3990.23  334.36
  -3   3  -524260.20 1856.33
   2  -2  -9 4014.70  188.24
  -1   5  -918477.72 1373.40
  -1   5  -920773.01 1459.42
   1  -5   916965.23 1283.93
   1  -5   918640.26 1145.82
   2  -4   8  209.41   11.92
  -1   3 -10 1492.59  170.48
  -1   3 -10 1557.35   93.16
   1  -3  10 1410.51  175.16
  -2   4  -8   10.87   77.08
  -2   4  -8  206.15   61.13
   1  -3  10 1476.64   87.79
  -1  -6  -5   53.80   79.30
  -1  -6  -5   47.51   91.75
   1   6   5   30.99   62.26
   1   6   5   46.68   87.24
   3   3  -4   45.88   59.78
  -3  -3   4   28.10   66.37
  -3  -3   4   53.93   93.57
   3   3  -4   36.82   53.16
   1  -7  -5  891.31  136.51
  -1   7   5 1078.39   93.29
   1  -7  -5  879.45   86.70
  -1   7   5  886.54  156.28
  -2  -1  -8  539.09   93.91
   2   1   8  555.58   43.41
  -2  -1  -8  474.73  100.38
  -3   0  -5 1673.20   77.17
   3   0   5 1629.84  165.68
  -3   0  -5 1625.45  301.37
   2   6  -4   33.66   77.37
  -2  -6   4   40.17   51.02
   2   6  -4   80.94   74.10
  -2  -6   4   67.77  139.09
   0  -8  -2 2864.09  242.24
   0   8   2 2671.75  300.44
  -1   5   8 7883.46  777.14
  -1   5   8 7733.45  659.23
   0  -8  -2 2772.15  375.62
   0   8   2 3232.22  236.12
   1  -5  -8 7554.82  361.83
  -2  -6  -1 2689.45  219.87
  -2  -6  -1 2939.21  458.52
   2   6   1 2908.18  256.95
   2   6   1 2777.31  393.65
  -3   4   5    0.60   12.28
  -3   4   5    0.21   27.14
  -3   4   5    3.47    8.04
  -3   4   5    0.02   34.38
   0   1 -11 1685.05  142.40
   0  -1  11 1709.06  159.36
   0  -1  11 1600.10  126.69
   0   1 -11 1776.76  246.19
  -1   4   9   30.09   46.96
   1  -4  -9    1.38    2.85
   1  -4  -9   26.32   11.58
  -1   4   9   51.33   57.01
  -1  -5   911995.17  836.17
   1   5  -912507.07  902.41
  -1  -5   912623.39  941.19
   1   5  -912533.01  943.30
  -2  -4   8 6361.18  464.27
   2   4  -8 7766.94  565.28
  -3   3   6 6138.10  516.22
  -3   3   6 6193.37  302.58
  -2   5   7 4635.69  610.49
   2   4  -8 7541.75  628.92
  -3   3   6 5443.88  412.43
  -2  -4   8 6678.99  480.15
  -2   5   7 4499.32  367.79
   1   7   321804.73 1531.89
  -1  -7  -321586.68 1581.46
   1   7   319919.41 1551.35
  -1  -7  -320488.35 1786.95
  -1   7  -7 2329.40  212.26
   1  -7   7 2786.62  192.22
  -1   7  -7 2269.11  251.04
   1  -7   7 2062.92  307.75
  -2   4   8 3045.40  336.64
  -2   4   8 3310.05  302.32
   0   5   8 2609.67  181.98
   0  -5  -8 2908.35  198.62
   0  -5  -8 3089.81  259.03
   0   5   8 2313.90  205.67
   0  -7  -5 1032.29  108.29
   0   7   5  927.46  163.84
   0  -7  -5 1037.13  227.28
   0   7   5 1071.53   88.58
   0  -8   5 5702.70  389.69
   0   4   9 1004.47  131.64
   0   4   9 1181.44  193.14
   0  -8   5 7297.61  572.72
   0  -4  -9 1216.20   93.83
   0   8  -5 6155.97  460.61
   0   8  -5 6768.75  533.35
   0  -4  -9 1098.72  151.34
   0  -2  11 2795.00  342.42
   0   2 -11 3038.78  375.20
  -2  -5  -440959.79 3484.71
   2   5   445486.62 3889.09
   0  -2  11 2728.20  269.09
  -2  -5  -438865.41 3158.46
   0   2 -11 2725.26  276.63
   2   5   437398.05 2918.82
  -1  -7   6  215.80   99.58
   1   7  -6  254.12  113.20
  -1  -7   6  316.09  101.97
   1   7  -6  245.74  105.21
  -3  -3  -2 6624.40  787.16
   3   3   2 6058.90  431.27
   3   2  -6  281.52  104.17
   3   2  -6  273.95   74.26
  -3  -2   6  290.45  130.07
  -3  -3  -2 6809.44  426.10
  -3  -2   6  280.65   93.15
  -2   7  -5  427.80   64.16
  -2   7  -5  657.14  114.74
   2  -7   5  616.49   77.38
   2  -7   5  493.80  172.62
   0   0  11  101.44   46.56
   0   0 -11  123.25   52.26
   0   0  11   99.34   84.77
   0   0 -11   75.39   76.13
   1   4   818813.40 1333.05
  -1  -4  -818883.46 1373.60
   1   4   821644.18 1455.73
  -1  -4  -818831.66 1277.72
   1   1  10  595.77   53.60
  -1  -1 -10  550.05   86.01
   1   1  10  612.19   63.87
  -1  -1 -10  523.85   99.94
  -3   6   0 2744.84  235.06
   3   0  -7 1793.14  126.41
  -3   6   0 2355.06  205.67
   3   0  -7 1707.75  333.73
  -3   6   0 2712.19  268.41
  -3   6   0 2375.81  178.09
  -3   0   7 2167.28  179.08
  -3   0   7 1674.08  193.85
  -3   1   721038.78 1476.04
   3  -1  -717651.71 1159.00
  -3   1   719409.26 1452.48
   3  -1  -718825.30 1455.91
  -1   6   7 1698.00  203.76
  -1   6   7 1282.58   53.22
   1  -6  -7 1433.69  181.35
   1  -8   5 3376.25  231.78
  -1   8  -5 3101.80  384.42
  -1   8  -5 3949.86  343.11
   1  -8   5 2553.87  219.08
   1   6  -8 6549.12  638.49
  -1  -6   8 8395.49  637.23
  -1  -6   8 8678.37  723.22
   1   6  -8 7269.15  568.76
  -3   6  -1 1202.05   95.92
  -3   4  -5 3857.55  184.23
  -3   6  -1 1454.83  146.30
  -3   6  -1 1415.08  125.99
  -3   4  -5 3760.18  301.75
  -3   4  -5 4072.15  195.69
  -3   6  -1 1367.01  108.75
  -3   4  -5 4185.77  381.32
  -2  -3   9 2985.48  387.66
   2   3  -9 2691.90  414.70
  -2  -3   9 2480.66  246.26
   2   3  -9 2587.26  224.80
   2   5  -7  540.77  188.06
   2   5  -7  540.38  133.05
  -2  -5   7  589.03  135.39
  -2  -5   7  532.34  192.34
  -3   5   4 7391.30  393.79
  -3   5   4 7505.89  406.84
  -1  -4  10  720.87  193.35
  -3   5   4 6644.65  549.29
  -1  -4  10  520.72   90.04
  -3   6   1 3743.52  265.65
  -3   5  -4   57.61   32.50
   1   4 -10  583.57  213.19
  -3   5  -4   61.63   36.77
  -3   6   1 2974.10  231.17
  -3   5  -4   44.73   34.33
  -3   6   1 2876.02  240.76
  -3   5   4 7608.50  687.89
  -3   6   1 3327.89  325.76
   1   4 -10  803.68  152.96
  -3   5  -4   62.19   56.41
  -1   8   3  471.50  107.98
   1  -8  -3  509.85   75.04
   1  -8  -3  473.74  124.06
  -1   8   3  605.97  230.39
   3   3  -5 2181.23  301.73
  -2   7   4 1702.50  352.96
  -2   7   4 1891.41  113.63
  -3  -3   5 1904.86  209.32
  -3  -3   5 1828.47  184.01
   2  -7  -4 1734.41  204.54
   3   3  -5 1911.43  224.46
  -1  -5  -717119.42 1467.59
   1   5   713194.59 1064.36
   1   5   717652.39 1277.14
  -1  -5  -716657.60 1309.98
  -1   4 -10 8986.03  572.01
   1  -4  10 6824.54  398.88
   1  -4  10 9446.69  848.87
  -1   4 -10 8492.83  634.40
  -1  -1  11 9398.45  629.20
  -1  -1  11 8958.02  661.79
   1   1 -11 8563.00  540.46
   1   1 -11 9141.77  659.06
   1   3   9 4817.61  285.88
  -1  -3  -9 4903.11  403.70
  -1  -3  -9 4023.40  401.05
   1   3   9 4585.39  384.10
  -2  -6   510270.96 1076.30
  -2  -6   5 7828.77  576.52
   2   6  -5 7910.50  830.46
   2   6  -5 9179.70  680.43
  -2   2  -9  275.74  152.44
  -2   2  -9  263.83  105.20
   0  -6   9   32.78   36.91
   0  -6   9   44.62   49.74
   0   6  -9   69.13   60.11
   0   6  -9   48.25   55.07
  -2   6   6 8644.51  716.37
  -2   6   6 8520.55  772.76
  -1   0  11 4973.77  372.87
  -1   0  11 5086.81  328.00
   1   0 -11 4158.29  331.84
   1   0 -11 4234.33  263.07
   0  -6  -7  679.91  128.81
   0   6   7  616.71   84.42
   0  -6  -7  626.94  102.35
   0   6   7  606.26  179.95
   3   2   4 4795.24  390.98
   2  -8   1 2999.70  359.19
  -3  -2  -4 4207.81  386.83
  -3  -2  -4 3766.03  238.66
   2  -8   1 2574.59  203.32
   3   2   4 4651.26  326.81
  -2   8  -1 2432.52  176.40
  -2   8  -1 2221.73  290.97
  -2   1  -9 1970.88  206.76
  -2   1  -9 2267.27  196.76
  -2  -3  -7 6481.23  513.95
   2   3   7 6512.89  373.66
   2   3   7 7053.91  471.19
  -2  -3  -7 7542.83  429.13
  -3  -1   7 6413.44  452.29
   2   6   2 2098.26  203.64
  -2  -6  -2 2180.84  204.15
  -2  -6  -2 2033.52  258.76
  -2   3   9 9048.94  707.77
  -2   3   9 9451.09  659.45
   3   1  -7 5858.47  449.49
  -3  -1   7 5146.41  412.24
   2   6   2 1970.96  214.51
   3   1  -7 4788.86  405.14
  -3   6  -2  984.87   84.43
  -3   6  -2 1066.70  177.11
  -3   6  -2  875.35   89.64
  -3   6  -2  973.21  139.96
   2  -8   0  172.60   70.46
  -2   8   0  177.67  139.77
  -2   8   0  196.37   91.36
   2  -8   0  206.30   53.26
  -3  -1  -5  321.58  106.83
  -3   2   7 2741.62  137.05
   3   1   5  278.47   86.35
   3   1   5  245.46   44.17
   3  -2  -7 2770.50  160.50
  -3  -1  -5  225.80   24.19
  -3   2   7 2607.81  245.90
   3  -2  -7 2780.53  286.85
  -3   2  -6 6160.74  508.30
  -3   2  -6 6895.89  646.80
   1  -3 -10 6517.18  333.86
   1  -3 -10 5318.98  308.76
  -1   3  10 6310.62  569.66
  -1   3  10 5981.45  477.50
   0  -3  11  948.44  131.71
   0   3 -11 1116.46  140.67
   0  -3  11 1169.65  120.72
   0   3 -11  950.33   95.90
  -3  -4   1 7878.58  870.77
   3   4  -1 7840.05  582.27
  -3  -4   1 7841.16  531.88
   3   4  -2 4060.39  443.26
   3   4  -1 8105.04  579.24
  -3  -4   2 4658.40  629.07
  -3  -4   2 5296.79  413.60
   3   4  -2 4603.42  481.31
   0  -3 -10 2713.51  169.40
   0   3  10 2703.12  326.69
   0  -3 -10 2234.56  208.19
   0   3  10 2652.80  195.16
   2  -6   7 3444.13  326.37
  -2   6  -7 3009.10  218.74
   2  -6   7 3010.71  194.58
  -2   6  -7 3408.35  292.66
   0  -5  10  253.92   78.18
   0   5 -10  270.36   84.67
   0  -5  10  319.92  113.11
   0   5 -10  280.84   76.76
  -2   8  -2  325.58   85.04
   2  -8   2  412.16   91.47
  -2   8  -2  309.97   75.01
   2  -8   2  375.56   82.84
   0   8   3   20.53   33.28
   0   8   3    0.97   96.66
   0  -8  -3   -3.56   29.73
   0  -8  -3    5.20   49.68
  -3   1  -6 6776.00  529.64
  -3   1  -6 8312.14  566.12
   2   4   634154.77 2519.48
  -2  -4  -634206.24 2839.11
   2   4   633303.59 2588.60
  -2  -4  -636084.43 2677.12
   2  -5   811374.16  882.36
  -2   5  -8 9155.67  766.79
   2  -5   812379.87  660.74
  -2   5  -812101.59  659.03
  -3   6   2 6122.89  626.75
   1   8  -2 2697.45  449.19
  -2   0  10  472.72  104.84
   1   8  -2 3028.16  280.76
  -1  -8   2 2523.51  224.75
  -3   6   2 6433.94  402.18
  -2   0  10  316.77   41.35
   2   0 -10  342.83   49.65
  -1  -8   2 2790.88  307.40
  -3   6   2 6488.08  366.01
  -3   6   2 5917.00  414.71
   2   0 -10  420.53  119.05
   1   2 -11  115.19   76.00
  -1  -2  11  150.48   57.24
  -1  -2  11  148.29   66.65
   1   2 -11  143.15  100.53
   0   1  1112209.50  878.27
   0   1  1112157.52  952.97
   0  -1 -11 9450.52  582.88
   0  -1 -1112087.68  805.79
   1   8  -1 2217.75  410.48
  -1  -8   1 2681.42  321.91
   1   8  -1 2588.25  257.70
  -1  -8   1 2236.44  235.87
  -2   3  -9 9544.92  637.78
  -2   3  -911681.47  866.98
  -2  -1  10 5736.89  609.99
  -2  -1  10 6109.46  396.16
   2   1 -10 5263.19  411.18
   2   1 -10 6271.73  707.78
  -3  -4   3 5304.63  383.32
   3   4  -3 5252.32  511.28
   3   4  -3 4857.46  376.70
  -3  -4   3 5309.33  638.03
  -3  -4   0 9614.29 1019.32
   3   4   0 8629.78  600.45
  -3  -4   0 8114.72  635.82
   3   4   0 8199.21  694.08
  -2   8   1 1470.93  209.18
  -2   8   1 1554.43  126.28
   2  -8  -1 1230.69  222.54
   2  -8  -1 1454.97  116.61
  -3   3  -6   33.40   46.54
  -3   3  -6   28.88   51.27
  -2  -2  -8  657.62  128.09
   2   2   8  525.90   88.49
   2   2   8  646.34   74.80
  -2  -2  -8  676.48   54.53
   1   8  -3  359.04  113.45
  -1  -8   3  338.54  167.78
   1   8  -3  381.46  226.19
  -1  -8   3  342.23  113.45
   1  -1 -11 9089.55  549.40
   1  -1 -11 8873.25  563.07
  -1   1  1110527.06  709.32
  -1   1  1110749.70  793.08
   0  -7   8 7660.48  537.69
   0   7  -8 7371.77  775.71
   0   7  -8 7084.81  681.33
   0  -7   8 7603.60  642.29
  -2   0  -9  367.05   84.41
  -2   0  -9  477.64  181.57
  -3  -3  -325032.07 2069.79
   3   3   321158.22 1510.47
  -3  -3  -321045.21 1411.57
   3   3   319691.83 1333.74
   0   8  -6 5467.40  607.76
  -2   1  10    5.24   38.60
   0   8  -6 6142.48  501.31
   0  -8   6 5148.89  370.14
   2  -1 -10   -3.12   11.46
   2  -1 -10   11.17   38.04
   0  -8   6 6120.62  685.15
  -2   1  10    7.97   23.38
   1   8   0 2437.16  320.85
  -1  -8   0 2294.97  279.15
  -1  -8   0 2264.84  241.02
   1   8   0 2197.70  220.32
   2  -8   3 5441.12  529.87
   2  -8   3 6123.80  412.65
  -2   8  -3 5294.93  382.50
  -2   8  -3 5294.98  455.39
  -3   6  -3 1408.28  151.66
  -3   6  -3 1298.52  179.48
  -3   4   6  246.00  162.49
  -3   6  -3 1611.20  179.01
  -3   6  -3 1425.55  138.83
  -3   4   6  222.90  135.25
  -1  -7  -418101.43 1272.27
  -1  -7  -416955.83 1252.92
   1   7   419653.58 1339.18
   1   7   418466.07 1628.09
  -1  -6  -6   63.74   56.62
   1   6   6   53.85   39.19
   1   6   6   40.93   53.38
  -1  -6  -6   91.60   64.17
  -1   7   6   98.19   28.76
   1  -7  -6   52.88   67.10
  -1   7   6   75.40   72.75
   1  -7  -6  118.78   33.75
  -3   0  -6 1329.08  139.72
  -3   0  -6 1190.61  174.84
  -1   6  -9 3689.03  325.31
   1  -6   9 3304.30  256.74
  -1   6  -9 4003.12  526.14
   1  -6   9 3358.19  331.12
  -1  -7   7 4983.06  455.76
   1   7  -7 4422.59  413.92
  -1  -7   7 3486.80  270.19
   1   7  -7 4801.99  593.42
   1  -8   6 4033.43  342.52
  -1   8  -6 4221.71  438.05
  -1   8  -6 3626.59  297.00
   2  -7   6 1529.25  163.94
   2  -7   6 1271.37  173.53
  -2   7  -6 1689.37  156.78
   1  -8   6 3201.00  268.93
  -2   7  -6 1402.11  283.29
  -1  -2 -10  429.07   80.79
   1   2  10  544.96   85.09
   1   2  10  490.35   58.40
  -1  -2 -10  568.60   82.27
  -3  -4   4  204.55  180.53
  -3  -4   4  272.91  155.96
   3   4  -4  292.87  106.72
   3   4  -4  242.02   84.06
  -3  -4  -1  909.12  337.61
  -3  -3   6 2456.81  409.80
   3   3  -6 2165.19  361.90
   3   3  -6 2110.17  274.89
   3   4   1  867.95  113.59
  -3  -4  -1  978.11  118.78
  -3  -3   6 2231.36  248.31
   3   4   1  885.18  126.92
  -3   6   3 8876.29  624.25
  -3   6   3 9231.22  727.64
   3   2  -7 4109.07  531.24
  -3   6   311303.11  645.75
  -3  -2   7 5153.24  422.01
  -3  -2   7 4519.83  563.56
   3   2  -7 4860.18  436.66
  -3   6   3 8046.10  479.70
   2   2 -10 1378.83  182.15
   2   2 -10 1602.69  213.85
  -2  -2  10 1597.17  189.14
  -2  -2  10 1671.75  158.17
  -1  -8   418200.53 1427.08
  -2  -6   6 3510.68  498.99
   1   8  -420384.92 1511.35
  -2  -6   6 4630.91  419.86
   2   6  -6 4159.95  508.01
  -1  -8   419048.32 1580.71
   1   8  -419286.76 1539.70
  -3   5  -5 6357.19  516.90
  -3   5  -5 6680.48  379.68
  -3   5   5  -12.72   45.91
  -3   5   5   -6.55   90.67
  -3   5  -5 7749.01  432.48
  -3   3   7 1545.86  190.12
  -3   3   7 1752.40  243.47
  -3   3   7 1822.64   78.22
   1  -8  -4  469.46  106.32
  -1   8   4  365.48  134.81
  -1   8   4  410.72   49.75
   1  -8  -4  475.84  120.82
  -2   8   2 6325.99  356.56
  -2   8   2 5562.62  456.98
   2  -8  -2 5676.29  425.80
   2  -8  -2 6963.77  460.83
   2   5   511137.56  750.69
  -2  -5  -514265.70 1091.31
  -2  -5  -512841.96 1035.66
   2   5   514022.96  966.89
   1   3 -11 2921.35  252.26
   1   3 -11 3399.81  279.65
  -1  -3  11 2827.71  213.05
  -1  -3  11 2396.77  254.75
  -1   7  -8   31.34   42.85
  -1   7  -8  -13.77   35.19
   1  -7   8   14.00   51.40
   1  -7   8   16.17   41.21
   2   6   3 9397.39  760.52
  -2   4  -9 3662.69  270.41
   1   8   1 3620.03  429.44
  -1  -8  -1 2420.95  348.16
  -2   4  -9 3976.51  333.68
  -2  -6  -3 9655.84  765.14
  -1  -8  -1 2569.31  222.40
   1   8   1 2587.54  282.21
   2   6   3 8940.14  640.69
  -2  -6  -3 9834.77  787.02
  -1   1 -1112093.77  886.90
   1  -1  1117047.01 1021.50
  -1   1 -1114874.95 1196.54
   1  -1  1119369.39 1259.73
  -1   2 -11 6999.48  448.33
   1  -2  1111038.95  677.76
  -1   2 -11 8050.33  572.94
   1  -2  1111225.77  647.26
  -2   7   513435.50  927.09
  -2   7   514838.28 1140.01
   0  -4  11   60.81   61.33
   0   7   611124.04  646.77
   0  -7  -612650.53 1077.10
   0  -7  -612734.40  949.94
   0   4 -11   61.09   38.39
   0  -4  11   51.05   41.71
   0   4 -11   24.00   43.68
   0   7   611948.15  896.01
  -3   4  -611535.90  978.48
  -3   4  -611895.61  942.02
   1  -9   1 9655.91  685.24
  -1   9  -1 9423.15  957.28
  -1   9  -1 9947.64  686.34
   1  -9   1 7972.58  565.99
   1  -5  10    5.64   19.03
  -1   5 -10   -9.51   78.83
  -1   5 -10   12.80   35.65
   1  -5  10  -32.13   45.67
  -2  -4   912851.01  969.53
  -2  -4   910725.34  782.97
   2   4  -910961.81  844.91
   2   4  -910343.92  717.62
  -1   9  -2  137.42  161.32
   1  -9   2  150.85   68.47
   1  -9   2  163.59   73.05
  -1   9  -2  149.27   64.29
   2  -2 -10  165.88   29.40
  -2   2  10  135.11   95.06
  -2   2  10  122.51  132.10
   2  -8   4 1587.60  207.64
   2  -8   4 1185.98  223.21
  -2   8  -4 1200.11  125.25
  -2   8  -4 1439.80  218.89
   3   0  -8  181.04   41.94
   2   5  -8  572.64  143.77
  -3   0   8  128.81   75.23
  -2  -5   8  394.23  107.27
   2   5  -8  502.73  107.25
  -3   0   8  120.28   65.82
   3   0  -8  144.80   93.05
  -2  -5   8  564.06  126.32
  -1   9   054697.89 5013.40
   1  -9   055572.33 5074.77
   1  -9   059370.94 5427.60
  -1   9   064168.99 5675.04
  -2   5   8   35.93  120.29
  -2   5   8   38.98   53.15
  -3   1   8   14.59   27.49
   3  -1  -8  -16.43   51.47
   0  -2 -1118349.48 1339.79
  -3   1   8   -9.42   85.68
   0   2  1119471.01 1512.35
   3  -1  -8    1.74   15.29
   0   2  1119124.08 1375.05
   0  -2 -1115763.08 1086.51
   0  -8  -4 3489.32  443.49
   0  -8  -4 3304.91  350.65
   0   8   4 2905.17  311.29
   0   8   4 3558.18  230.08
   0   9  -2   -4.82   47.52
   0  -9   2   19.55   44.09
   0  -9   1 2787.56  237.42
   0   9  -2    1.53   32.65
   0   9  -1 2524.69  262.34
   0  -9   1 2507.67  220.68
   0  -9   2    4.31  101.53
   0   9  -1 3158.28  355.81
  -1   2  11  761.28  162.70
   1  -2 -11  638.69   76.96
  -3  -2  -5  200.73   28.89
   3   2   5  232.63  153.93
  -1   2  11  817.00  192.08
   1  -2 -11  880.13  103.02
  -3  -2  -5  236.49  174.43
   3   2   5  259.20   39.61
  -2  -1  -9   95.14  101.60
  -2  -1  -9   85.38   61.41
   2   1   9   79.61   18.64
  -1  -5  10 3325.87  324.09
   1   5 -10 3149.29  283.81
   1   5 -10 3204.96  303.07
  -1  -5  10 3046.74  255.69
  -3   6  -4 6088.26  319.23
  -3   6  -4 6572.76  424.03
  -3   6  -4 4791.20  399.80
  -3   6  -4 5806.62  429.24
   1   6  -9 8884.99  664.36
   1  -5  -9  509.71   29.88
  -2  -7   2    9.26   32.75
  -1   5   9  798.80  239.46
  -1   5   9  643.80  100.62
   1   6  -9 8064.97  585.97
  -2  -7   2  -20.35   41.15
   2   7  -2   -1.18   44.70
   2   7  -2    8.19   63.84
  -1  -6   910110.84 1036.43
  -1  -6   911162.33  817.96
   1   0  1119381.05 1235.78
   1   0  1118192.18 1187.97
  -1   0 -1115377.11 1177.88
  -1   0 -1116834.97 1276.84
   1  -9   3  750.04  120.18
   1  -9   3  717.68  130.52
  -1   9  -3  578.76  118.82
  -1   9  -3  731.71  121.55
  -1   3 -11 7638.77  468.05
   1  -3  11 7546.48  440.06
  -1   3 -11 8245.06  588.09
   1  -3  11 8018.19  752.99
  -2  -7   1  615.45  116.28
   2   7  -1  765.14  141.89
   2   7  -1  616.77  140.25
  -2  -7   1  733.22  164.11
  -2   4   9 2306.10  284.30
  -2   4   9 2702.53  407.23
  -3  -4   5  714.08  132.61
   3   4  -5  726.42  242.80
  -3  -4   5  632.06  132.21
   3   4  -5  711.61  118.31
  -3  -4  -222892.28 1901.23
   3   4   218285.52 1306.71
  -3  -4  -220797.00 1583.81
   3   4   220625.26 1454.74
  -1  -8   5  507.57  115.69
  -1  -8   5  464.98  205.84
   1   8  -5  502.86  138.28
   1   8  -5  563.57  218.90
   0   9  -320216.30 1665.54
   0  -9   319517.00 1574.69
   0   9  -318089.61 1567.47
   0  -9   318269.77 1379.99
   0  -9   0   62.79   52.89
   0   9   0    1.71   44.71
   0   9   0   -3.39   30.46
   0  -9   0  -11.18   40.14
  -3  -1   8  575.70   80.78
   3   1  -8  768.70   90.17
   3   1  -8  557.34  218.09
  -3  -1   8  651.03  213.16
  -2  -7   3  498.37  161.30
  -2  -7   3  510.72  117.54
   2   7  -3  540.37  161.24
   2   7  -3  488.26  130.92
  -2   6   7 8053.53  670.98
  -2   6   7 7304.13  533.44
   3   1   6  689.68  177.50
  -3  -1  -6  779.50   58.16
  -3  -1  -6  741.54  250.22
   3   3   4 9179.22  620.70
  -1   6   8 1229.86  225.92
  -1   6   8 1199.83  181.33
   1  -6  -8 1162.99   62.30
  -3  -3  -4 9005.72  757.19
  -3  -3  -4 9402.14  556.63
   3   3   4 7464.68  515.95
  -1   9   1  619.18   88.84
   1  -9  -1  608.49  139.50
  -1   9   1  546.16  150.50
   1  -9  -1  635.85   96.82
   0   5   9  231.98   51.48
   0  -5  -9  309.15   94.56
   0  -5  -9  264.01   68.48
   0   5   9  198.98  115.21
   2  -8  -3 3931.75  321.90
  -2   8   3 3536.22  457.46
  -2   8   3 4143.90  260.46
   2  -8  -3 3963.43  214.58
  -3   6   4 1307.06   78.87
  -3   6   4 1111.24  235.26
   0  -8   7 7672.91  631.46
  -3   6   4 1045.37   63.63
  -3   6   4 1268.95  291.23
   0   8  -7 8488.24  882.12
   0   8  -7 8049.58  649.27
   0  -8   7 6697.23  581.93
  -3   2   8 2995.23  289.24
   3  -2  -8 2924.39  157.10
  -3   2   8 3924.29  199.41
   3  -2  -8 2870.33  298.46
  -3   2  -7  379.92  118.82
  -1   4  10   48.94   44.88
  -3   2  -7  381.10   95.32
   1  -4 -10   53.90   17.57
  -1   4  10   46.03   63.94
   1  -4 -10   -3.46   11.36
  -1  -8  -2    5.84   33.69
  -1  -8  -2    9.75   37.50
  -2  -7   0 3039.39  239.80
   2   7   0 3960.07  331.07
   2   7   0 3462.74  336.02
  -2  -7   0 3757.54  541.96
   1   8   2   23.22   39.13
   1   8   2    3.19   45.86
  -2  -3  1024048.77 1843.75
   2   3 -1023279.05 2124.43
   2   3 -1025515.51 2074.77
  -2  -3  1026195.43 2031.65
   2  -6   8   34.94   45.14
  -2   6  -8   -7.16   31.48
   2  -6   8    1.99   10.65
  -2   6  -8    3.35   19.77
  -3   7   0    3.00   60.68
  -3   7   0   30.76   47.06
  -3   7   0   31.66   47.82
  -3   7   0   15.53   34.88
  -3   7  -1   12.71   39.91
  -3   7  -1   -4.70   36.32
  -3   7  -1   -3.82   40.69
  -3   7  -1    8.56   36.88
   1   4   924134.09 1712.62
   1   4   921538.09 1470.93
  -1  -4  -923900.66 1984.79
  -1  -4  -925282.97 1810.07
  -1  -5  -8 5903.05  455.60
   1   5   8 4080.77  290.18
  -3   1  -7  353.86  104.39
   1   5   8 5476.52  343.07
  -3   1  -7  213.67  166.54
  -1  -5  -8 4998.08  346.08
   0  -4 -10  464.03   81.41
   0  -4 -10  473.04  104.93
   0   4  10  452.78  124.13
   0   4  10  434.04   92.14
   0  -6  10  240.75   63.00
   0   6 -10  285.04  110.99
   0  -6  10  163.83  124.99
   0   6 -10  193.52   83.88
  -1   9  -4  182.61   85.19
   1  -9   4  171.88   94.43
   1  -9   4  194.53   63.98
  -1   9  -4  275.68  164.65
  -3   7   1  223.19  105.34
  -3   7   1  231.74   87.06
  -3   3  -7  690.53  187.14
  -3   3  -7  644.26  120.78
  -3   7   1  218.92   80.57
  -3   7   1  198.31   46.73
   0  -6  -8 5834.71  433.75
   0   6   8 6282.36  392.86
   0   6   8 4892.90  393.33
   0  -6  -8 5277.06  379.95
  -2  -7   4  584.40  179.36
   2   7  -4  539.25  139.86
   2   7  -4  393.34  130.71
  -2  -7   4  522.05  131.01
   1   7   5 7931.38  610.78
  -2  -4  -7 7144.15  440.16
   2   4   7 6026.11  453.49
  -1  -7  -5 6654.97  559.38
   2   4   7 7388.75  629.80
  -2  -4  -7 6951.05  732.02
   1   7   5 7849.30  502.52
  -1  -7  -5 7470.90  535.60
   1  -8   7  312.48   73.63
   0   9  -418779.99 1589.63
   0  -9   418054.29 1556.03
  -1   8  -7  312.92   77.04
  -1   8  -7  232.82  153.86
   1  -8   7  220.09   77.60
  -2  -6   7 1655.31  229.49
   0   9  -416340.32 1285.57
  -2  -6   7 1150.74  186.23
   0  -9   420559.06 1674.74
   2   6  -7 1192.03  168.53
   2   6  -7 1271.37  205.10
   3   3  -7 1093.96  144.33
   0  -1  12    7.26   30.12
   0   1 -12    3.88   21.17
  -3  -3   7 1060.54  175.90
   0   9   1 2550.65  471.22
   0   1 -12   12.61   31.64
   0  -9  -1 2752.94  252.71
   0   9   1 3531.30  288.28
   3   3  -7 1014.95  189.53
   0  -1  12   34.04   49.54
   0  -9  -1 2188.90  287.57
  -3  -3   7  998.48  187.74
  -2  -3  -8 5459.03  589.43
   2   3   8 5362.43  458.70
   2   3   8 4658.34  304.56
  -2  -3  -8 5450.90  344.74
   1   4 -11 2664.23  253.57
  -1  -4  11 2156.51  181.49
   1   4 -11 2335.38  340.86
  -1  -4  11 1931.70  250.04
   2  -8   5 4965.01  322.44
  -2   8  -5 5200.83  503.26
   2  -8   5 4152.69  346.01
  -2   8  -5 3471.48  235.73
  -3   4   7  162.70   73.81
  -3   4   7  135.93  147.10
  -3   7  -2  152.47   56.44
  -3   7  -2  126.03   43.03
  -3   7  -2  145.89   55.73
  -3   7  -2  107.97   59.98
  -2   7  -7   -3.82   32.73
   2  -7   7    7.02   16.37
   2  -7   7   23.14   43.65
  -2   7  -7    0.56   62.86
   2  -5   910541.10  923.96
  -1  -7   8   78.00   53.12
  -1  -7   8  114.78   98.95
   1   7  -8  110.73   80.50
   2  -5   910642.72  556.92
  -2   5  -914274.27  829.83
   1   7  -8   85.37   78.88
  -2   5  -913616.96 1021.40
   0   2 -12 5964.84  421.69
   0  -2  12 6148.16  388.47
   0  -2  12 5888.58  450.55
   0   2 -12 4918.49  390.19
  -3   5  -614606.63 1134.16
  -3   5  -614624.50  818.76
  -3   5  -615521.92  858.50
  -3   5   6 1804.01  239.96
  -3   5   6 1941.29  220.03
  -2  -6  -4 8800.79  589.27
   2   6   4 8084.93  655.98
   2   6   411281.35  955.42
   0  -7   9  513.91  110.53
   0   7  -9  683.34  117.46
   0   7  -9  770.87  154.64
  -2  -6  -410387.40  831.55
   0  -7   9  728.64   98.03
  -1   8   5 1397.92  340.33
  -1   8   5 1370.43   84.71
   1  -8  -5 1256.11  170.31
   1  -8  -5 1640.87  117.62
   1   1  11   32.40   25.21
  -1  -1 -11   19.79   34.59
   1   1  11   22.80   33.86
  -1  -1 -11   32.79   40.51
  -2   2 -10 6879.78  496.78
  -2   2 -10 6659.79  704.83
   1  -4  11 1421.30   86.33
  -1   4 -11 1551.09  281.77
   1  -4  11 1603.18  215.01
  -1   4 -11 1450.16  126.12
  -2   3  10    3.61   26.50
  -2   3  10   -4.54   33.16
  -2  -7  -1 6153.33  446.50
   2   7   1 6293.70  467.42
  -2  -7  -1 6270.93  742.83
   2   7   1 6134.34  506.52
  -3  -5   2  296.91  197.44
   3   5  -2  362.19  104.60
   3   5  -2  332.03  181.34
  -3  -5   2  242.11  115.43
   0   0  12  913.97  151.13
   0   0  12  864.15   99.98
  -1   9   2 2301.35  260.16
   1  -9  -2 2811.00  274.75
   1  -9  -2 2927.88  287.56
   0   0 -12  796.25  102.71
   0   0 -12  925.99  166.98
  -1   9   2 3318.96  227.61
   3   2  -8  -16.94   31.83
  -3  -2   8    4.35   49.39
   3   2  -8   18.53   38.45
  -3  -2   8   13.84   48.26
   3   5  -1    8.70   44.92
  -3  -5   1   -9.32   51.62
   3   5  -1   15.16   41.25
  -3  -5   1   29.11   78.35
  -1  -3 -10 1147.06  120.78
   1   3  10  950.22  115.52
  -2   1 -10   61.02   59.25
  -2   1 -10  103.78   59.37
  -1  -3 -10  806.99  112.65
   1   3  10  871.01  128.38
  -3   6  -5   48.96   68.99
  -3   6  -5  140.07   46.64
  -3   6  -5   69.85   19.38
  -3   6  -5   59.34   64.03
  -1   7   7   81.67   25.01
  -1   7   7   35.97  110.92
   1  -7  -7   47.01   61.22
   1  -7  -7   41.19   18.12
  -3   7   214313.14  912.77
  -3   7   213767.44  911.17
  -3   7   215395.80 1139.53
  -3   7   213737.82  815.80
   0  -5  11 5447.92  354.30
   0   5 -11 4642.88  357.46
   0   5 -11 5042.43  426.55
  -3   0  -7  901.80  150.34
  -3   0  -7 1062.95  227.44
   0  -5  11 5228.16  435.13
  -3  -4   6 1590.13  226.54
   3   4  -6 1789.46  204.93
  -3  -4   6 1548.81  194.59
   3   4  -6 1491.82  218.59
  -4   1   1    1.02   58.14
  -4   1   1   -1.58   36.63
   4  -1  -1    0.83   27.28
  -1  -8   6  867.37  146.38
   1   8  -6  910.76  163.28
   1   8  -6  983.57  203.63
   4  -1  -1   -9.18   24.50
   4  -2  -1  545.62  112.98
   4  -2  -1  548.62  126.02
  -4   2   1  552.50  165.04
  -4   2   1  635.61  141.76
   3   4   314676.59 1027.48
   3   4   315538.36 1168.42
  -3  -4  -314495.72  937.58
  -3  -4  -316152.74 1295.17
  -3  -5   3  120.73   65.23
  -2   7   6  883.56  141.03
  -1  -6  -714575.10 1024.46
   3   5  -3  147.38   88.69
  -3  -5   3  119.25   99.51
  -2   7   6  832.31  166.20
  -1  -6  -715909.24 1328.86
   1   6   713137.73  827.17
   3   5  -3  155.84   81.75
   1   6   713194.62 1072.67
  -1  -1  12 1850.98  226.22
  -1  -1  12 1929.14  208.42
   1   1 -12 1749.55  247.10
   1   1 -12 1861.20  143.92
  -2   3 -10 7438.28  500.09
  -2   3 -10 9297.20  694.70
   4  -2   0 5539.62  330.87
  -4   2   0 7576.38  545.01
   4  -2   0 5379.22  330.43
  -4   2   0 6724.58  643.27
  -2  -5  -6 2765.10  189.15
  -2  -5  -6 3129.52  313.36
   2   5   6 2526.76  265.80
   2   5   6 2627.18  195.26
  -2   0  11  282.57   46.07
   2   0 -11  289.18   72.41
   2   0 -11  213.58  150.19
  -2   0  11  269.11   90.42
   4  -1   0  263.41  110.02
  -4   1   0  294.16  171.47
   4  -1   0  311.03  101.46
  -4   1   0  270.57   91.24
  -3   3   8  103.07  128.76
  -3   3   8  173.35  101.23
   4  -1  -2  802.64  106.43
  -4   1   2  719.57  101.20
   4  -1  -2  714.88  109.13
  -4   1   2  680.93  118.32
  -3   7  -3   40.98   23.88
   1  -3 -11  492.61   67.58
   1   0 -12 1138.58  222.96
   1   0 -12 1018.71   91.91
  -3  -5   0  -13.72   97.58
  -3   7  -3   29.56   36.24
  -3   7  -3   47.72   42.22
  -3   7  -3   34.22   49.40
   3   5   0   12.96   42.36
  -3  -5   0   19.31   36.52
  -1   0  12 1202.09  106.10
  -1   3  11  473.98  178.60
   1  -3 -11  343.81   52.56
  -1   0  12 1119.10  196.16
   3   5   0   10.72   69.63
  -1   3  11  323.80   69.80
   2   2   9  121.90   20.49
   2   2   9  122.66   22.91
  -2  -2  -9  112.57   94.34
  -2  -2  -9  107.61   70.35
  -4   2   2 6227.51  455.86
   2   1 -11  801.65  143.65
  -2  -1  11  896.66  210.85
  -2  -1  11  691.16   63.99
   4  -2  -2 5528.78  350.31
   4  -2  -2 4919.09  355.34
   2   1 -11  903.11   95.22
  -4   2   2 5120.51  344.72
  -3   4  -7 6499.49  546.07
  -3   4  -7 5985.48  447.66
   2   7  -5   36.45   73.61
  -2  -7   5   -5.86   63.96
  -2  -7   5   18.06   57.01
   2   7  -5   65.50  124.21
   0   8   5   96.38   80.27
  -2   8   4   41.58   59.93
   0   3 -12  241.90   86.70
   0   3 -12  269.79  115.90
   0  -8  -5  162.33   98.24
   0  -3  12  272.98   69.80
   0  -8  -5  134.33  131.84
   0   8   5  165.43   41.81
  -2   8   4   43.89   30.44
   0  -3  12  281.21   84.01
   2  -8  -4   59.91   13.82
   2  -8  -4   39.79   68.80
   0   3  11 1289.70  238.69
   0  -3 -11 1100.73  140.59
   0  -3 -11 1305.97   99.72
   0   3  11 1675.64  160.35
   1   8   3  194.10   65.46
  -1  -8  -3  193.90   85.89
  -1  -8  -3  189.77  142.20
   1   8   3  155.57  132.45
   0   9  -5   10.56   54.92
   0  -9   5   -5.30   52.31
   0  -9   5   15.60   38.73
   0   9  -5   13.28   46.91
   0   9   2  726.43  188.43
   0  -9  -2  462.96   82.09
   0  -9  -2  458.37   98.03
   0   9   2  512.76  150.26
   1  -9   5  669.19  161.52
  -1   9  -5 1054.33  175.89
   1  -9   5  656.60   84.14
  -1   9  -5  957.05  187.25
  -1   6 -10  -37.48   39.69
   1  -6  10    9.10   18.93
  -1   6 -10   23.15   30.22
   1  -6  10    2.35   44.42
   1   2 -12  102.55  107.13
   1   2 -12  176.63   69.19
  -1  -2  12  141.43   57.76
  -1  -2  12  127.42   54.71
   1  -7   9 2871.91  177.89
  -1   7  -9 2738.34  243.92
  -3   6   5 2615.99  281.55
   1  -7   9 3209.55  449.23
  -1   7  -9 3223.20  304.66
  -3   6   5 2451.22  215.02
  -4   0   1 1605.63  337.72
   4  -2   1   -8.60   24.03
  -4   0   1 1829.47  248.46
  -4   2  -1    6.44   29.27
  -4   2  -1   11.10   56.02
  -4   2  -1   -7.40   20.18
   4   0  -1 1090.07  107.16
   4   0  -1 1601.07  151.96
  -2   0 -10  528.30  187.33
  -2   0 -10  539.58  152.19
   0   7   7  114.04   55.07
   0  -7  -7  112.87   59.21
   0  -7  -7  107.07   77.20
   0   7   7  141.41  144.60
  -4   3   1  270.48  101.81
   2  -1 -11 5649.36  336.19
   2  -1 -11 5809.91  481.87
  -4   3   1  332.79   92.12
  -2   1  11 6356.51  352.04
  -4   3   1  274.99  108.03
  -4   3   1  305.79  118.30
  -2   1  11 6153.88  579.21
   2   5  -9 2136.79  255.83
   2   5  -9 1989.48  291.54
  -2  -5   9 2297.61  363.44
  -2  -5   9 2614.45  299.70
  -4   1  -1 1248.20  291.38
   4  -1   1 1013.50   84.39
  -4   1  -1 1348.40  116.20
   4  -1   1 1068.23  115.73
  -3  -2  -6  537.05  134.37
  -4   3   0   44.45   43.09
  -4   3   0   42.12   31.15
   3   2   6  434.01  173.61
   3   2   6  463.49   44.43
  -3  -2  -6  438.01   60.39
  -4   3   0   29.11   35.48
  -4   3   0   25.66   32.69
  -3  -5   4    2.16   37.58
   3   5  -4   16.25   70.59
   3   5  -4  -16.73   42.34
  -3  -5   4   -2.68   63.74
   4   0  -2 8272.58  609.46
  -4   0   210813.08  724.93
  -4   0   211820.29  904.25
   4   0  -211865.53  814.22
  -4   1   3 1995.29  265.81
  -4   1   3 2057.87  203.76
   4  -1  -3 1861.33  192.92
   4  -1  -3 2260.50  244.42
   0   1  1220179.88 1367.78
  -4   0   0 3263.05  216.23
   0   1  1218372.72 1342.74
   4   0   0 3685.77  269.87
   0  -1 -1217699.77 1257.86
   4   0   0 3376.68  270.13
   0  -1 -1214053.77  996.54
  -4   0   0 3880.57  551.26
  -3  -3  -5  502.31  145.93
   3   3   5  572.54  125.17
   3   3   5  544.24   64.38
  -3  -3  -5  436.78   73.29
   3   0  -9 8475.98  573.76
  -3   0   9 7293.25  567.16
   3   0  -9 6875.13  760.63
  -3   0   9 9724.26  699.61
  -2  -7  -2 1066.75  187.36
   2   7   2 1171.85  148.04
  -4   2   3 3669.08  350.03
   2   7   2 1192.37  276.68
  -2  -7  -2 1187.37  148.71
  -4   2   3 4385.01  311.30
   4  -2  -3 3715.76  293.77
   4  -2  -3 4270.72  321.92
  -2   9  -1 1621.22  308.42
  -2   9  -1 2012.79  188.16
   2  -9   1 1623.34  207.84
   2  -9   1 1611.71  161.44
  -2  -4  10 1172.18  287.13
  -2  -4  10 1001.25  255.30
   2   4 -10 1051.89  175.38
   2   4 -10  918.39  121.08
  -4   3   2  280.80   69.50
  -4   3   2  297.83   70.16
  -3   7   3 4041.96  231.95
  -3   7   3 3839.68  282.50
  -4   3   2  294.04   76.18
  -3   7   3 4136.36  232.07
  -4   3   2  207.53   71.88
  -3   7   3 3660.57  430.95
  -2  -2  11  471.83  107.91
   2   2 -11  514.44   86.87
  -2  -2  11  494.25  138.84
   2   2 -11  539.91  243.46
  -3   1   9 2632.86  211.69
  -3   1   9 2222.95  385.51
   3  -1  -9 1762.37  216.56
   3  -1  -9 2030.78  141.75
   3   5   1 5920.40  432.56
  -3  -5  -1 6082.42  549.38
   3   5   1 5484.71  404.45
  -3  -5  -1 5743.91  380.57
   1  -1 -12   75.97   41.97
  -1   1  12  136.59   75.18
  -1   1  12   95.93   50.59
   1  -1 -12   60.97   49.38
   0   8  -8 8231.11  632.45
  -2   9   0 1313.01  173.49
   0   8  -810600.97 1058.26
   0  -8   8 7637.49  517.08
   2  -9   0 1565.39  167.93
  -2   9   0 1717.15  144.06
   2  -9   0 1517.40  193.42
   0  -8   8 9077.34  739.29
  -2   9  -2  370.41   85.27
   2  -9   2  301.34   72.07
  -4   3  -114344.72  868.72
  -4   3  -114533.19 1080.94
  -4   3  -113029.12 1080.76
  -2   9  -2  343.14  160.76
   2  -9   2  330.04  123.48
  -4   3  -114047.35  895.90
  -1   9   3   22.13  101.28
  -1   9   3   42.08   32.14
   1  -9  -3   51.65   61.01
   1  -9  -3   37.98   39.14
  -2   8  -6   33.62   62.10
   2  -8   6   47.29   52.11
   2  -8   6   20.30   42.79
  -2   8  -6   49.06   46.89
  -2   4 -1017913.91 1377.77
  -2   4 -1018752.07 1418.66
   4   0  -3  568.57   75.37
  -4   0   3  630.55  126.43
   4   0  -3  768.79  208.90
  -4   0   3  694.16  104.35
  -2   5   9 4572.64  580.58
  -2   5   9 4376.81  472.29
   1   6 -10  462.63  159.27
  -1  -6  10  502.27  203.48
   3   1  -921717.42 1941.91
  -3  -1   916211.46 1093.79
   3   1  -924962.94 1841.81
   1   6 -10  399.64  116.35
  -1  -6  10  374.99  143.79
  -3   7  -4  201.64   68.33
  -3   7  -4  290.82  126.72
  -3   7  -4  234.28   35.90
  -3   7  -4  241.99   82.80
   4   0   116561.95 1197.01
   4   0   113395.08 1091.67
  -4   0  -114184.81  974.88
  -4   0  -114754.70 1180.45
  -3  -1  -710510.09  499.84
   3   1   7 8454.12  593.79
  -4   2  -2 4108.11  288.04
  -4   2  -2 4637.97  387.62
  -3  -1  -7 8633.36  704.43
  -4   2  -2 5148.59  337.62
  -4   2  -2 4841.56  256.42
   3   1   711183.09  537.74
  -1  -2 -11  188.77   60.73
   1   2  11  276.10   38.56
   1   2  11  318.04   44.64
  -1  -2 -11  313.49   55.69
  -2  -6   8  469.92  175.52
  -2  -6   8  333.93   99.40
   2   6  -8  464.64  106.87
   2   6  -8  382.74  117.68
  -1  -3  12 3845.99  296.41
   1   3 -12 4130.21  306.59
  -1  -3  12 3796.30  270.40
   1   3 -12 3588.50  287.92
   4  -1   2    0.03   25.87
   1  -5  11 4254.58  235.57
  -4   1  -2   -2.36   21.38
  -2   6   8   42.47   82.58
   4  -1   2  -11.20   40.10
  -2   6   8   84.79   69.87
  -1   5 -11 4042.65  293.65
  -1   5 -11 4613.71  581.23
   1  -5  11 3691.54  344.64
  -4   1  -2    9.67   35.29
  -3  -3   8  451.51  132.80
   3   3  -8  338.72  115.61
  -3  -3   8  324.67  136.11
   3   3  -8  448.06  131.60
   2  -9  -1  376.10   99.22
   2  -9  -1  423.85  164.95
  -2   9   1  401.27  124.37
  -2   9   1  391.29   99.22
  -4   3   3 2155.02  251.28
  -2   9  -3  372.54   72.46
  -1   8  -8 4197.64  351.62
   1  -8   8 3088.97  370.29
   2  -9   3  393.50   74.32
  -4   3   3 1791.65  205.74
  -2   9  -3  406.99   99.58
   1  -8   8 4780.61  381.12
  -4   3   3 1646.92  157.13
   2   7  -6   77.40   86.71
   2  -9   3  353.42   87.41
  -1   8  -8 4727.51  354.62
  -2  -7   6  118.60   77.84
   2   7  -6  109.96   88.88
  -2  -7   6   80.93   60.69
   4  -1  -4 1654.47  188.78
   4  -1  -4 1395.64  103.52
  -4   1   4 1766.18  173.93
  -4   1   4 1608.36  234.68
  -3  -5   5  504.84  106.40
   3   5  -5  508.71  190.10
  -1  -5  11  191.05  112.93
   3   5  -5  475.54  216.27
  -1  -5  11  141.60   60.26
   1   5 -11  177.93   76.75
   1   5 -11  133.96   77.08
  -3  -5   5  391.39  199.64
   2  -2 -11    1.17    4.80
  -1  -8   713885.69 1194.78
   3  -2  -9 1149.10   51.53
  -1  -8   716934.67 1631.35
   1   8  -715535.49 1172.46
   3  -2  -9 1169.17  244.65
   1   8  -713395.72 1066.49
  -3   2   9 1154.23   64.84
  -3   2   9 1516.78  172.71
  -2   2  11 3141.74  335.64
  -2   2  11 2969.27  266.54
   0  -4  12 6877.25  543.23
   0  -4  12 7632.09  475.43
   0   4 -12 6578.34  494.16
   0   4 -12 5719.19  398.28
   4   1  -1  263.39   61.53
   3   4  -712882.18 1055.99
  -3  -4   717026.04 1587.09
  -4  -1   1  369.66  118.65
   4   1  -1  266.86   69.24
  -3  -4   714002.71 1053.05
  -3   2  -8 1026.00  169.61
   3   4  -716781.95 1378.36
  -3   2  -8 1128.03  225.94
  -4  -1   1  308.80  218.22
  -2  -6  -5 6253.15  520.32
   2   6   5 5647.90  387.95
  -2  -6  -5 7183.97  615.04
   2   6   5 7080.89  518.54
   1   7   6 5449.33  555.52
  -1  -7  -6 5538.39  528.16
  -1  -7  -6 5927.37  534.46
   1   7   6 5496.62  416.84
   0   9  -6 4267.53  373.49
  -3   6  -6 1344.44  120.92
   3   4   4  164.52   47.84
  -3  -4  -4  148.51   48.42
  -3   6  -6  846.50  102.72
   3   4   4  142.83   74.43
   0   9  -6 4099.02  340.78
  -3  -4  -4  151.89  180.55
   0  -9   6 4720.24  567.73
   0  -9   6 3633.05  268.68
  -3   6  -6 1040.51  157.62
  -3   6  -6 1172.80   91.44
  -4   3  -2 8069.82  509.27
  -4   3  -2 6709.37  669.23
  -4   3  -2 8443.64  563.81
  -4   3  -2 8190.99  559.97
  -2   6  -9  674.34  139.92
   4  -2  -4 2502.98  239.02
   4   1  -2    0.38   38.81
  -4   2   4 2664.29  232.01
  -4  -1   2   19.43   60.28
  -4   2   4 3261.14  245.08
   2  -6   9  581.02  141.25
   4  -2  -4 2855.93  230.92
   4   1  -2    6.16   43.08
  -4  -1   2   23.43   62.52
  -2   6  -9  584.70   67.48
   2  -6   9  659.52   67.20
   0   9   3 2536.11  198.29
  -4   4   0 1570.33  146.33
  -4   4   0 1911.96  218.31
   0   9   3 1853.68  253.60
   0  -9  -3 2313.41  367.10
  -4   4   0 1923.22  140.62
  -4   4   0 1831.45  132.54
   0  -9  -3 2084.95  195.94
  -4   4   1 1597.43  139.59
  -3   5  -712648.59  846.27
   1   9  -2  408.07  194.73
   1   9  -2  245.34  192.08
  -1  -9   2  328.16  104.53
  -4   4   1 1667.74  223.47
  -4   4   1 1765.97  201.55
  -4   4   1 1780.69  127.71
  -3   5  -717058.82 1248.10
  -1  -9   2  260.87  168.62
  -3   5   7 1949.35  246.20
  -3   5   7 1592.50  168.24
   1  -2  12 1397.41  124.14
   1  -2  12 1229.94   85.37
  -1   2 -12  769.57  139.10
  -1   2 -12  896.59  121.54
   1  -9   6  631.60   79.13
  -2   7  -8 8847.15  875.01
  -2   4  10 1159.00  190.92
   2  -7   8 8544.22  833.61
   2  -7   8 6797.10  410.08
  -1   9  -6  691.90  195.25
   1  -9   6  555.11   99.70
  -2   7  -8 9814.67  625.45
  -1   9  -6  746.65  143.34
  -2   4  10  994.75  132.92
   1  -8  -6   39.75   27.09
  -1   8   6   21.75   12.32
  -1   8   6   16.75   52.84
   1  -8  -6   16.99   95.82
   1  -1  12 7115.39  402.80
   1   9  -1  713.82  153.50
   1   9  -1  907.18  241.86
  -1   5  10 1163.28  275.09
  -2  -1 -10 1387.08  159.39
   2   1  10 1580.70   80.79
  -1   1 -12 4306.40  279.13
   1  -1  12 6874.36  411.72
  -1  -9   1  843.07  156.06
  -1   1 -12 5948.50  445.43
  -1  -9   1  863.32  175.23
  -2  -1 -10 1680.49  222.97
  -1   5  10 1081.20  140.87
   1  -5 -10  993.62   61.65
  -1  -7   9  269.26   82.14
   1   7  -9  390.86  118.05
  -3   1  -8  300.24  159.36
   1   7  -9  306.15  190.14
  -1  -7   9  417.80  124.96
  -1   6   9    7.13   32.22
   1  -6  -9    5.58   10.25
  -1   6   9  -13.50   41.86
   1  -6  -9    6.24    8.76
  -3   1  -8  224.10   92.90
  -3   4   8   94.48   64.22
  -3   4   8  109.68  128.03
  -4  -1   0 1827.52  153.30
   4   1   0 1501.72  125.08
  -4  -1   0 1829.92  249.96
  -4   0   4  744.64  181.14
   4   1   0 1391.80  130.82
  -4   0   4  756.71  190.76
   4   0  -4  708.53  128.18
  -3   3  -8  341.93   97.67
  -3   3  -8  293.44   91.42
   1   9  -3  393.61  221.30
  -1  -9   3  296.94  167.25
   1   9  -3  419.55  133.97
  -1  -9   3  300.99  147.89
  -3  -5  -2  686.30  193.07
   3   5   2  518.51   88.48
  -3  -5  -2  556.20  140.69
   3   5   2  484.61  163.56
  -4   4  -1 2619.98  184.89
  -4   4  -1 2839.19  252.76
  -4   4  -1 2156.05  187.42
  -4   4  -1 2909.99  173.68
  -1  -8  -4 8302.32  634.53
  -1  -8  -4 7859.47  707.26
   1   8   4 8279.14  661.95
   1   8   4 7735.67  594.35
   2  -8  -5    0.07    6.70
   2  -8  -5    9.70   33.14
  -2   8   5   14.02   73.06
  -2   8   5    1.52    7.37
  -4   4   2  735.28  100.26
  -4   4   2  860.73   75.36
  -4   4   2  841.87  161.30
  -4   4   2  890.46  144.15
  -4  -1   3 2020.72  237.49
   4   1  -3 1632.17  133.37
   4   1  -3 1571.53  232.50
  -4  -1   3 2280.20  216.11
  -4   0  -2 5508.10  304.18
   4   0   2 5411.39  363.22
  -4   0  -2 5670.21  502.15
   4   0   2 5387.54  396.62
   2   3 -11   -7.86   42.73
  -2  -3  11  -11.93   22.51
  -2  -3  11   25.29   32.74
   2   3 -11   19.54   34.31
  -3   7   410307.68  516.14
  -3   7   4 8110.35  634.00
  -3   7   4 8858.43  447.35
  -3   7   410726.04  892.48
  -2  -7  -3  731.19  151.98
  -2  -7  -3  599.70  147.18
   2   7   3  704.09  124.50
   2   7   3  726.26  108.17
   1  -2 -12  462.90   45.44
  -3  -2   9 8254.10  631.51
  -3  -2   9 6550.01  556.55
  -1   2  12  659.39   91.31
  -1   2  12  648.87  116.16
   3   2  -9 6151.86  692.57
   1  -2 -12  511.28   43.04
   3   2  -9 8736.16  585.12
   0  -2 -12 2572.49  198.92
   0   2  12 3202.24  249.51
   0  -2 -12 2672.12  246.98
   0   2  12 3297.83  294.89
  -2  -4  -8  815.96   80.86
   2   4   8  586.08   63.45
   1   9   0 1543.59  274.24
   1   9   0 1734.29  329.66
   2  -9  -212479.57  911.84
  -2   9   215077.68 1028.91
   2   4   8  607.07  153.49
   2  -9  -214558.74 1008.49
  -2  -4  -8  716.11  150.99
  -1  -9   0 1185.38  158.02
  -2   9   214700.06 1211.25
  -1  -9   0 1606.42  236.70
  -1   3 -12 1911.49  117.19
   0   5  1014830.04 1106.58
   0  -5 -1019082.53 1371.31
  -1   3 -12 1790.61  291.17
   0  -5 -1018563.49 1251.37
   1  -3  12 1484.99  178.25
   1  -3  12 1926.92  140.34
   0   5  1016731.44 1410.41
   2  -9   4 1623.22  206.78
  -3   6   6  518.79  135.42
   2  -9   4 1591.77  185.36
  -2   9  -4 1528.91  227.00
  -3   6   6  425.88   99.13
  -2   9  -4 1564.40  163.53
  -4   2  -3 1379.09   79.97
  -4   2  -3 1410.60  107.07
  -4   2  -3 1250.15  170.51
  -4   2  -3 1344.12  226.97
   1   5   9  768.08   95.34
  -1  -5  -9 1173.96  236.66
  -1  -5  -9 1020.76  173.91
   1   5   9 1068.21  153.81
   0  -7  10 1835.89  151.38
   0   7 -10 2136.13  245.13
  -2   7   7 2343.21  366.77
   0   7 -10 1861.11  187.34
  -2   7   7 3069.45  369.64
   0  -7  10 1312.47  161.69
   0  -6  11   17.65   36.32
   0  -6  11   11.41   31.57
   0   6 -11   17.28   49.48
   0   6 -11   52.64   41.95
  -1   0 -12  478.18   62.89
   1   0  12  855.44   94.72
   1   0  12  858.00  112.37
  -1   0 -12  774.20  185.89
  -4   3   4 3970.09  222.69
  -4   3   4 5246.92  410.33
  -4   3   4 4706.57  398.58
  -4   3   4 4242.49  423.00
  -4  -1  -115567.78 1276.10
   4   1   111517.06  715.19
   0   6   9 1050.69   69.19
   0  -6  -9 1435.44  130.59
   4   1   110128.31  783.98
   0  -6  -9 1152.89  153.88
  -4  -1  -112793.35  805.46
   0   6   9 1021.01  137.84
  -1  -9   4  488.94  133.79
  -1  -9   4  569.26  108.42
   1   9  -4  515.27  143.88
   1   9  -4  608.31  139.35
  -4   1  -3   24.78   67.48
   0   8   6 4035.38  269.27
   2   3   9 1658.90  126.43
  -2  -3  -9 1190.56   88.75
   1  -4 -11  249.44   28.09
   4  -1   3   28.88   36.88
  -4   1  -3   59.33   19.49
   0  -8  -6 4539.49  473.38
  -2  -3  -9 1875.30  279.01
   4  -1   3   33.94   26.87
  -1   4  11  470.34  104.66
  -1   4  11  381.93  117.08
   1  -4 -11  407.09   49.23
   2   3   9  995.61  114.87
   0   8   6 3741.59  326.89
   0  -8  -6 3770.41  249.21
   1   4  10 2436.30  165.99
   1  -9  -4 1886.67  152.77
   1   4  10 2213.80  251.38
  -1   9   4 1922.45  130.73
  -1  -4 -10 2151.29  197.82
  -1  -4 -10 2249.46  160.15
  -1   9   4 1483.77  232.09
   1  -9  -4 1779.78  216.71
   2  -5  10 3711.96  162.81
  -2   5 -10 6448.48  333.67
  -2   5 -10 5426.39  477.02
   2  -5  10 4020.84  336.60
  -3   8   0 6065.64  373.60
  -3   8  -1    4.27   21.18
  -3   8   0 6656.89  478.65
  -3   8  -1   12.62   30.97
  -3   8  -1    6.69   20.34
   3  -8   1    0.97   21.71
  -3   8   0 6653.12  440.39
  -3   8  -1    5.67   35.34
  -3   8   0 6214.05  388.63
  -3   7  -5 2164.30  189.82
  -3   7  -5 2306.11  300.04
  -3   7  -5 1532.63  171.08
  -3   7  -5 1806.27  103.87
  -4   4  -2  140.74   89.61
  -4   4  -2  147.66   71.07
  -4   4  -2  163.34   58.45
  -4   4  -2  137.30  100.63
   4  -1  -5   22.15   32.85
   4  -1  -5   -0.88   49.73
  -4   1   5   47.26   91.79
  -4   1   5   50.48   67.06
  -1   7   8   37.15   42.21
   1  -7  -8   -0.24    4.08
  -3   0  -8   24.38   75.88
  -3   0  -8    7.72   42.52
  -1   7   8   74.46  119.25
   1  -7  -8   -0.78    8.38
   2   5   7 1171.49  136.37
  -4   3  -3  163.35   73.23
  -4   3  -3  185.72   33.90
  -4   3  -3  148.20   75.02
  -4   3  -3  178.92   46.69
  -2  -5  -7 1138.15  111.27
   2   5   7  892.28  157.05
  -2  -5  -7 1204.74  208.02
  -4   4   3  167.30   79.27
  -4   4   3  143.27   68.32
  -4   4   3  161.65   32.98
  -4   4   3  145.87   58.45
  -3   4  -8  425.23  133.58
  -3   4  -8  397.81  103.86
  -4  -1   4  906.61  123.10
   4   1  -4  746.39   77.39
  -4  -1   4  969.58  146.94
  -3  -5   6  538.78  117.99
   3   5  -6  580.09  152.56
   3   5  -6  874.78  148.48
   4   1  -4  770.79  113.15
  -3  -5   6  671.09  282.36
  -3   3   9  474.56  148.38
  -3   3   9  487.64  119.82
  -2   8  -7  282.00   62.46
   2  -8   7  228.69  144.25
   2  -8   7  208.95   37.96
  -2   8  -7  344.61  114.85
  -1  -4  12  852.23  106.39
  -1  -4  12  636.59   91.58
   1   4 -12  800.42  197.17
   1   4 -12  921.65  143.80
   0  -4 -11 7445.66  446.79
   0   4  11 7399.65  573.26
   0   4  11 6724.93  503.33
   0  -4 -11 7016.18  467.66
  -3   8  -211534.39  840.96
   4  -2  -5  780.31   70.78
  -3   8  -215899.65 1090.12
   4  -2  -5  702.29  128.04
   1   6   8 9271.82  680.29
   3  -8   214249.69  999.65
  -1  -6  -811085.50  888.73
  -4   2   5  779.18   88.27
  -1  -6  -810944.86  809.23
  -4   2   5  705.74  119.69
   1   6   811590.34  733.30
  -3   8   1 1259.46  101.26
  -3   8   1 1223.98   90.75
  -3   8   1 1013.36  142.61
  -3   8   1 1303.25  197.60
  -4   0   5 4885.81  359.67
  -4   0   5 5479.52  408.25
   1   9   110764.25  876.03
   4   0  -5 5044.34  314.27
  -1  -9  -110203.52  719.55
  -1  -9  -112525.48 1147.50
   4   0  -5 4706.90  385.44
   1   9   114312.81 1135.43
   3   3   6  125.50   57.15
  -3  -3  -6  130.02   29.17
   3   3   6  107.40   70.68
  -3  -3  -6  100.69  158.47
  -2  -8   2   32.07   78.60
   2   8  -2   42.50   72.54
  -2  -8   2   38.25   53.33
   2   8  -2   27.07   64.70
  -2  -7   7  497.89  130.54
  -2  -7   7  460.58  121.03
   2   7  -7  696.94  146.67
   2   7  -7  559.61  262.32
  -1  10  -1  675.06  153.26
   1 -10   1  564.04   93.57
   1 -10   1  640.95  165.71
  -1  10  -1  770.57  174.45
  -1  10  -2  764.29  153.42
   1 -10   2  706.65  187.56
  -3  -2  -7   45.86   15.79
  -1  10  -2  640.72  106.88
   1 -10   2  746.03  139.12
  -3  -2  -7   47.32  122.03
   3   2   7   25.73   89.70
   3   2   7   43.04   27.92
  -2   3  11 1287.76  277.02
  -2   3  11 1325.87  151.54
  -2  -8   1 1216.77  194.94
   2   8  -1 1740.18  220.60
   2   8  -1 1332.79  316.88
  -2  -8   1 1277.39  144.77
  -2   2 -11 2726.89  279.50
  -2   2 -11 3820.37  349.51
  -2  -8   3 2594.06  344.28
   2   8  -3 2563.01  332.54
   2   8  -3 2693.36  284.83
  -2  -8   3 2276.76  228.98
   2   5 -10  908.14  160.51
  -2  -5  10 1219.67  200.18
  -2  -5  10  985.96  155.23
   2   5 -10  944.13  129.81
  -4  -2   1 4141.78  387.12
   4   2  -1 3369.82  326.46
   4   2  -1 3461.54  256.30
  -4  -2   1 4759.33  652.99
   4   2  -2 2152.73  192.37
  -4  -2   2 2328.88  400.51
   4   2  -2 1836.09  222.37
  -4  -2   2 2250.29  269.07
   1  -7  10  307.33  118.94
  -1   7 -10  366.02   69.39
  -1   7 -10  335.42   94.45
   1  -7  10  386.31   93.41
   4   0   3 5449.17  332.28
   0  -9   7 1690.79  228.06
  -4   0  -3 5553.97  667.45
  -4   0  -3 5599.28  336.15
   0  -9   7 1342.23  136.58
   0   9  -7 1485.57  189.73
   0   9  -7 1598.92  200.74
   4   0   3 5033.95  371.59
   0   8  -9  205.30   88.00
   0  -8   9  110.58   64.29
   0  -8   9  147.78   88.03
   0   8  -9  188.47  118.12
  -4   5   0   86.54   39.71
  -4   5   0   89.21   37.19
  -4   5   0   74.09   75.62
  -4   5   0   93.68   40.71
   0   9   424544.26 1700.03
   0  -9  -422888.24 2019.67
   3   5   3 2992.20  360.49
   0  -9  -423397.27 1953.49
  -3  -5  -3 3700.11  270.18
  -3  -5  -3 3805.39  613.97
   0   9   418888.12 1783.10
   3   5   3 2912.02  297.03
   1  -4  1210084.74  784.05
   1  -4  12 9831.36  592.94
  -1   4 -1210635.25  793.45
  -1   4 -1210245.73  611.90
  -3  -6   2 2364.93  304.30
   3   6  -2 2567.56  261.67
  -4  -1  -2 6099.92  561.52
   3   6  -2 2377.34  269.21
  -4  -1  -2 5814.55  334.90
  -2   9   335070.88 2570.60
   4   1   2 5139.19  308.32
   2  -9  -332356.07 2373.98
  -2   9   332185.63 3108.25
   2  -9  -331307.70 2785.89
  -3  -6   2 2431.16  228.03
   4   1   2 6006.89  438.49
  -1  10   0 1779.50  229.35
  -1  10   0 1635.38  354.91
   1   9  -5    1.32   50.24
  -1  -9   5   14.39   40.01
   1 -10   0 1975.39  220.24
   1   9  -5   10.64   46.09
   1 -10   0 1707.12  175.34
  -1  -9   5   -4.71   40.05
  -4   5   1 1960.61  245.96
  -4   5   1 1929.70  148.71
  -4   5   1 2235.32  201.16
   0   7   8 2370.93  194.52
   0  -7  -8 1888.83  144.04
  -4   5   1 1887.34  145.46
   0  -7  -8 1793.93  187.12
  -2   1 -11 3009.38  338.37
  -2   1 -11 2284.06  219.62
   0   7   8 2044.94  251.52
   0   5 -12 9581.70  686.58
   0  -5  1210878.85  862.89
   0   5 -1210061.61  760.12
   0  -5  1211102.04  712.58
   0  -1  13  879.27   92.33
   0  -1  13  689.77  101.87
   0   1 -13  733.58   90.32
   0   1 -13  479.83   74.85
  -1  10  -3 2160.87  274.60
  -3  -6   1 1239.34  148.28
   3   6  -1 1440.21  283.45
   3   6  -1 1421.64  190.72
  -3  -6   1 1282.43  345.16
  -1  10  -3 2008.64  210.12
   1 -10   3 2757.26  280.70
   1 -10   3 2315.11  209.96
  -2   9  -5 3279.82  258.56
   2  -9   5 3632.55  249.38
   2  -9   5 3378.75  430.26
   1  -9   7 2268.15  296.40
  -1  -8   8  604.14  120.88
  -1  -8   8  680.12  188.17
  -1   9  -7 3725.31  340.30
   1  -9   7 2913.43  254.01
  -1   9  -7 3145.11  273.82
   1   8  -8  503.76  140.72
   1   8  -8  584.93  231.17
  -1  -3 -11   81.41   36.60
   1   3  11   62.33   31.72
  -1  -3 -11   78.22   45.59
   1   3  11   55.25   29.16
  -2   3 -11 6532.94  660.87
  -2   3 -11 5556.65  379.77
   0  -2  13  118.79   45.60
  -3   8  -3  125.07  111.76
   3  -8   3   98.35   50.11
   0  -2  13   85.03   63.39
   0   2 -13   66.08   63.07
   0   2 -13  151.21   62.64
   3  -8   3  128.79   49.99
  -1  -1 -12  134.68   50.85
   1   1  12  115.73   63.45
  -3   8   2  374.69   46.74
  -4  -2   0    9.51   71.33
  -3   8   2  298.01  194.73
  -3  -4   8 1271.81  251.82
  -3   8   2  351.69   77.63
  -1  -1 -12  169.19   63.31
  -4  -2   0   27.21   69.60
  -3   8   2  396.22   82.57
   1   1  12  209.54   56.00
  -3  -4   8 1628.09  310.47
   4   2   0  -25.57   46.81
   3   4  -8 1393.86  339.82
   4   2   0    1.68   33.95
   3   4  -8 1606.16  171.78
  -4   5  -1 1114.11  163.99
  -4   5  -1 1058.82  108.42
   0 -10   2  473.32  136.98
  -3  -6   3  445.53   88.51
   0  10  -2  368.60   96.05
  -4   5  -1 1183.01  141.33
   0 -10   2  348.80   90.69
  -3  -6   3  473.84  146.23
   3   6  -3  626.68  137.66
   0  10  -2  371.55  121.98
   2   6  -9   79.49   64.82
   2   6  -9   86.29   82.08
  -2  -6   9   98.02   71.80
  -2  -6   9  131.54   98.95
  -4   4  -3 8819.75  473.84
  -4  -2   3 3107.76  339.56
   4   2  -3 3081.73  253.92
  -4  -2   3 3447.63  458.46
   4   2  -3 2582.53  190.16
   3   0 -10 8259.46  513.47
   2   8   0 5000.51  443.76
   3   0 -10 7492.63  690.81
  -2  -8   0 5157.77  662.03
   2   8   0 6169.87  465.47
  -4   4  -3 8755.33  577.82
  -3   0  10 7081.03  568.04
  -3   0  10 8513.80  543.78
  -2  -8   0 5688.86  431.14
  -4   4  -3 7173.21  534.72
  -4   4  -3 7963.88  482.21
  -3  -4  -5  147.57   34.58
   3   4   5  108.46   58.03
  -2  -2 -10 3462.69  427.65
   2   2  10 3839.86  211.76
  -3  -4  -5  219.91  121.84
   3   4   5  132.59   67.06
  -2  -2 -10 3994.03  379.38
   2   2  10 4139.64  256.89
   1  -6  11 3283.62  238.26
   1  -6  11 2995.92  435.13
   0  10  -1 1971.62  194.45
   0 -10   1 1449.37  244.12
   0 -10   1 2007.61  332.70
  -1   6 -11 4055.68  392.17
  -1   6 -11 3397.86  286.26
  -3   7   5  256.54  158.13
  -4   3   5 1917.31  235.91
   2   0 -12   14.89   39.96
  -4   3   5 1661.82   96.09
  -4   3   5 1839.18  273.69
  -2   0  12  -17.05   43.51
  -3   7   5  416.66  104.06
  -4   3   5 1956.35  178.65
   2   0 -12    9.53   20.34
  -3   6  -7 2527.75  263.00
  -4   4   4   83.97   23.86
  -3   6  -7 2613.12  134.47
  -4   4   4   63.86   54.08
  -3   6  -7 2886.34  149.64
  -4   4   4   23.40  101.74
  -4   4   4  150.72   62.33
   2   8  -4 1298.68  323.89
  -4   2  -4 1328.05  280.07
  -2  -8   4 1049.04  267.21
  -2  -8   4 1166.71  348.06
  -4   2  -4 1511.35  163.08
   2   8  -4  982.70  178.23
  -2  -1  12 1830.59  190.00
   2   1 -12 1819.00  148.57
   3   3  -9  889.33  268.40
   3   3  -9 1074.30  121.48
  -2  -1  12 1285.31  128.63
  -3  -3   9  923.27  125.28
   2   1 -12 1882.44  236.47
  -3  -3   9 1360.98  324.54
  -4   5   2  209.27   56.48
  -3   1  1010006.16  773.24
   3  -1 -10 9571.12  556.77
  -4   5   2  230.46   75.19
  -4   5   2  159.11   81.90
  -3   1  1010829.44  668.78
   3  -1 -10 7629.05  789.04
  -4   5   2  225.72   65.26
  -4  -1   5  974.61  224.03
   4   1  -5  864.69  129.60
   0 -10   3 6328.30  482.67
   0  10  -3 8524.29  766.45
   0 -10   3 8437.60  879.31
  -4  -1   5 1106.42  140.87
   4   1  -5  945.53  129.07
   0  10  -3 7110.99  548.29
   0   0  13   51.57   56.41
   0   0 -13   61.89   69.50
   0   0  13   38.09   35.02
   0   0 -13   56.34   44.57
  -2  -4  11 1748.26  348.15
   2   4 -11 1413.54  228.60
   2   4 -11 1423.16  188.58
  -2  -4  11 1656.30  301.03
   2   7   4    8.97   87.81
   2   7   4    9.51   31.40
  -2  -7  -4   41.31   70.71
  -2  -7  -4   14.20   59.85
  -3  -6   0  -31.02   79.40
  -3  -6   0    1.26   26.42
   3   6   0    4.10   90.10
   3   6   0   41.52   88.47
   1  -8   9  145.92   49.84
  -2  -6  -6 1344.86  195.84
  -2  -6  -6  899.29   90.29
   2   6   6  967.13  185.83
   2   6   6 1154.62  124.69
  -1   8  -9  110.94   73.78
   1  -8   9   94.59   88.37
  -1   8  -9   99.20   81.66
   3   1 -10 7371.55  793.39
  -4   1  -4 1457.37  102.46
  -1  -1  13 1455.40  141.64
  -1  -1  13 1367.63  143.20
  -4   1  -4 1054.31  184.26
   1   1 -13 1081.07  129.97
   1   1 -13 1147.07  104.30
  -4   1  -4 1059.91  129.09
  -4   1  -4 1331.99   89.58
  -3  -1  1010451.18  872.63
   1 -10  -1   50.19   81.43
   1 -10  -1  102.58  118.70
  -1  10   1   10.38   69.82
  -1  10   1   54.85   41.49
   0  10   0  284.13  103.29
   0  10   0  416.21  163.83
   0 -10   0  305.46   78.84
   0 -10   0  344.06  186.59
  -1  -8  -5 1567.68  264.33
   1   8   5 1472.26  301.15
  -1  -8  -5 1418.69  176.24
   1   8   5 1332.30  118.54
   1  -3 -12 5446.98  349.44
  -1   3  12 4471.46  310.60
  -4   3  -4 1549.49  240.98
  -4   3  -4 1255.78  251.58
  -4   3  -4 1771.05  105.97
   1  -3 -12 3683.05  256.60
  -3  -1  -8 9344.81  637.04
  -3  -1  -8 8996.73  717.19
  -4   3  -4 1748.25  102.67
  -1   3  12 4959.42  539.34
  -1  -9  -2  102.64   75.98
   1   9   2   69.98  141.44
   1   9   2  119.42   63.69
  -1  -9  -2  105.33   82.76
  -2   8   6   72.84   56.74
  -2   8   6  102.37   88.35
  -3  -6   4 2211.44  258.19
   3   6  -4 2579.48  298.59
   3   6  -4 3024.09  302.46
  -3  -6   4 2449.16  336.06
   4  -1  -6  630.83   63.40
  -4   1   6  700.56  135.87
   4  -1  -6  784.00  223.41
  -4   1   6  589.36  176.94
  -3   5   8 1513.43  225.85
   1 -10   413174.36  868.96
  -1  10  -411182.99  917.54
  -1  10  -411422.88  872.82
  -2   0 -11 5223.30  473.59
   1 -10   4 8484.07  620.10
  -4   5  -2 7807.42  508.45
  -3   5   8 1313.27  155.99
  -4   5  -2 7304.08  518.19
  -4   5  -2 6254.34  569.53
  -4   5  -2 7594.63  500.04
  -2   0 -11 4828.22  527.26
  -3   5  -8 5821.88  483.51
  -3   5  -8 4660.59  422.10
  -2   1  12   75.61   62.61
  -2   1  12   90.64   40.42
   2  -1 -12   64.44   21.61
  -4  -2  -1  174.02  115.10
   4   2   1  153.51   48.92
   4   2   1  116.21   94.19
  -4  -2  -1  171.09   47.88
   2  -1 -12   51.82   56.44
  -1  -6  11   80.76   51.90
  -1  -6  11   84.52  136.27
   1   6 -11   94.22   70.02
  -1   0  13 1564.35  144.42
   1   0 -13 1295.61  140.95
  -1   0  13 1395.15  107.60
   1   6 -11   50.07  122.89
   1   0 -13 1427.89  157.12
   0  -3  13 2230.21  186.82
   0  -3  13 1965.57  345.32
   0   3 -13 1511.45  192.54
   0   3 -13 1988.03  205.29
  -1  -7  -7  349.01   87.36
   1   7   7  351.80   61.61
  -1  -7  -7  345.19   78.90
   1   7   7  261.84   91.79
   0  -3 -12  243.48   74.51
   0  -3 -12  216.67   33.21
   0   3  12  242.89   47.22
   0   3  12  261.24   91.72
   1  -8  -7  962.19   56.21
  -1   8   7 1062.45   70.03
   1  -8  -7 1158.60  249.42
  -1   8   7  930.91  162.21
  -4  -2   4 2458.92  258.88
   4   2  -4 2183.26  305.80
  -4  -2   4 2508.40  224.11
   4   2  -4 2032.66  161.25
  -3   7  -6  540.00  182.78
  -3   7  -6  443.34   49.71
  -3   7  -6  382.28   89.34
  -3   7  -6  409.03   55.05
  -1  -2  13 5888.70  518.95
  -2   6   9   -9.39   86.84
  -2   6   9  -17.00   59.29
   1   2 -13 5775.60  506.14
  -1  -2  13 5148.10  372.16
   1   2 -13 6092.53  623.08
   2  -7   9   41.17   20.18
   2   2 -12 1462.57  227.60
  -2   7  -9   16.84  100.24
  -2  -2  12  887.53   80.70
   2   2 -12 1253.85  130.36
   2  -7   9   33.40   72.86
  -2  -2  12 1293.81  250.57
  -2   7  -9   22.89   37.60
  -3  -5   7 7862.91  875.79
  -3  -5   7 7852.38  618.68
   3   5  -7 8008.72  734.91
   3   5  -7 6971.28  606.85
   2   8   1   24.05   36.64
  -2   5  10 2388.73  274.01
   2   8   1  -24.16   41.87
  -2  -8  -1    0.57   28.24
  -2   5  10 1924.42  386.27
  -2  -8  -1   -0.09   36.56
  -4   0   6  245.60  115.25
   4   0  -6  243.93   88.01
   4   0  -6  247.22   69.07
  -4   0   6  371.13   98.08
  -1   9   5  641.36   85.27
  -1   9   5  525.24  254.53
   1  -9  -5  521.78  198.98
   1  -9  -5  726.00  121.72
  -2   4 -11 2985.99  228.17
  -4   2   6 1055.74  145.99
  -4   2   6 1037.67  143.02
   0 -10   4 3982.81  494.54
  -2   4 -11 3049.01  271.44
   4  -2  -6  897.89  153.85
   0  10  -4 3140.98  318.35
   0  10  -4 3716.46  444.74
   4  -2  -6 1166.25  112.64
   0 -10   4 4305.95  447.72
  -1  -7  10 4404.90  426.23
   1   7 -10 4005.18  339.65
  -1  -7  10 4063.36  313.08
   1   7 -10 3655.78  310.97
  -3   6   7  144.71  100.50
  -3   6   7  188.14  101.44
  -4   5   3  610.31   54.89
   3  -2 -10   26.61   10.93
  -3   2  10   36.17   16.28
  -4   5   3  550.82  188.11
  -3   2  10   51.26   57.32
  -4   5   3  524.46   85.27
  -4   5   3  623.15  103.34
   3  -2 -10   38.05   50.61
   3  -8   4  727.93   84.27
  -3   8  -4  675.48  106.40
  -3   8  -4  556.95   78.19
   3  -8   4  488.65   95.01
  -3   2  -9  163.73   82.88
  -3   2  -9  124.86   75.52
  -3   8   3 1150.54  101.74
  -3   8   3 1080.16  211.87
  -3   8   3 1132.28  191.88
   2   8  -5 3560.13  542.89
  -1  -9   6 5536.89  551.25
   1   9  -6 5402.30  539.36
  -1  -9   6 4417.82  517.19
   1   9  -6 4841.35  608.46
  -2  -8   5 4232.70  631.99
  -2  -8   5 3991.73  351.76
   2   8  -5 4984.44  452.33
  -4  -1  -3  192.67  196.09
  -3   4   9   98.43   77.89
   4   1   3  183.84   81.60
  -3   4   9   98.59  116.08
   4   1   3  189.21   55.94
  -4  -1  -3  176.30   36.56
   2  -6  10   73.43   16.85
  -2   6 -10   77.07   30.83
  -2   6 -10   60.54   73.86
   2  -6  10   77.67   76.42
  -3  -6  -119834.19 1429.51
  -3  -6  -118829.59 1587.88
   3   6   118727.03 1433.95
   3   6   119555.27 1430.58
   0  10   1   -7.97   63.66
   0 -10  -1   19.30   42.21
   0 -10  -1   33.82   54.30
   0  10   1   25.34   57.53
  -3   3  -9  117.85   72.03
  -3   3  -9  211.76  134.88
   4   0   4  616.24  172.22
   4   0   4  874.08   83.61
  -4   0  -4  698.27  171.75
  -4   0  -4  772.62   71.15
   2  -9  -4   -0.55   15.47
  -2   9   4  -18.88   41.18
   2  -9  -4    8.85   34.45
  -2   9   4    9.03   20.21
   0  -1 -13 2374.12  182.08
   0  -1 -13 1371.90  174.64
  -3   1  -9   78.87   62.14
   0   1  13 2102.08  158.02
  -3   1  -9   68.30   67.14
   0   1  13 1914.34  236.92
  -4   4  -4 6899.60  663.81
  -4   4  -4 7975.89  540.19
  -4   4  -4 7274.96  396.13
  -3  -2  10 1144.18  193.48
  -3  -2  10 1318.81  158.67
   3   2 -10 1260.62  132.51
   3   2 -10  858.21  154.31
  -2  -7   8 7005.03  512.44
  -2  -7   8 5183.94  454.06
   2   7  -8 7301.53  745.39
   2   7  -8 6857.18  806.08
   1   5 -12  858.70  216.48
  -1  10   2 1220.44  189.96
   1   5 -12  857.96  139.88
  -1  -5  12  546.68   92.28
   1 -10  -2 1027.45  164.65
  -1  -5  12  797.52  154.12
   1 -10  -2  978.76  119.56
  -1  10   2  938.27  188.31
   3   6  -5  889.09  158.11
  -3  -6   5  978.12  150.76
   2  -9   6  167.01   81.65
   2  -9   6  176.14   68.47
   3   6  -5 1200.40  278.55
  -1   5 -12 6115.74  516.36
  -1   5 -12 4861.19  338.98
  -3  -6   5 1023.48  205.86
   1  -5  12 5304.92  345.07
   1  -5  12 5369.96  495.30
  -2   9  -6  217.82   77.28
  -2   9  -6   59.66  118.11
  -1   1  13  251.40   84.66
   1  -1 -13  186.93   38.58
   1  -1 -13  202.76   69.71
  -1   1  13  192.41  103.47
  -2   7   8 1701.98  295.92
  -2   7   8 1936.29  185.48
  -3  -5  -4 3862.38  420.56
   3   5   4 3893.79  295.99
  -3  -5  -4 3328.69  286.23
   3   5   4 3169.22  383.16
  -4   4   5  432.56   57.83
  -4   4   5  450.69   78.20
  -4   4   5  401.77   94.78
  -4   4   5  456.47  190.04
  -4   5  -3 8515.66  531.35
  -4   5  -3 8472.65  688.52
  -4   5  -3 7231.59  559.68
  -4   5  -3 9351.68  619.01
   2  -8   8 2700.51  279.33
  -2   8  -8 3826.36  359.81
   2  -8   8 3103.72  237.83
  -2   8  -8 3017.35  222.24
   0   8   7  428.94   81.60
   0  -8  -7  391.50  109.48
   0   8   7  291.51  168.04
   0  -8  -7  508.51  173.54
  -4  -2  -2  248.49  141.70
  -1  10  -5 1924.26  275.43
   1 -10   5 1008.27  193.49
   4   2   2  204.38   70.32
  -1  10  -5 1776.60  214.25
   1 -10   5 1251.55  175.44
  -4  -2  -2  250.60   84.66
   4   2   2  251.86   52.60
  -1   6  10 1232.97  175.71
   1  -6 -10  697.86   32.99
  -1   6  10 1065.65  120.91
   1  -6 -10 1004.90   51.60
   4   1  -6  822.78   78.91
  -1  -3  13 5919.64  448.07
  -4  -1   6  919.45  125.55
   4   1  -6 1228.72  299.60
   1   3 -13 7290.07  602.99
  -4  -1   6 1037.05  240.02
  -1  -3  13 5635.56  390.19
   1   3 -13 6045.82  461.97
   0  -9   8  327.11  127.15
   0   9  -8  329.34  200.77
   0  -9   8  277.27   75.90
   0   9  -8  223.15  203.12
  -2   4  11   42.20   70.19
  -2   4  11   31.59   80.34
  -1  -2 -12 5561.15  356.22
   4   2  -5   35.93   48.40
   4   2  -5   15.18   55.63
  -2   2  12  736.62  200.47
  -2   2  12  848.22  271.13
   1   2  12 4753.80  282.96
  -4  -2   5   27.89   50.11
   1   2  12 5589.88  304.12
  -4  -2   5  -18.47   93.21
  -1  -2 -12 4225.58  316.62
   2  -2 -12  554.90   50.21
   0   9   5 1719.59  239.98
  -4   3   6 8956.75  745.45
  -4   3   6 8884.43  573.38
  -4   3   6 7657.60  414.42
   0  -9  -5 1712.31  337.08
   0  -9  -5 2086.40  196.75
  -4   3   6 8382.74  753.71
   0   9   5 1933.94  193.55
   0 -10   5  208.31  112.02
   0  10  -5  186.90  102.20
   0  10  -5  172.47   90.89
   0 -10   5  195.94   89.51
  -2  -4  -9 1547.27  211.24
   0  -7  11   -4.47   51.87
   0  -7  11   25.94   37.50
   0   7 -11    4.36   52.13
   2   4   9 1200.44   92.59
   2   4   9 1291.37  172.52
   0   7 -11  -21.84   57.62
  -2  -4  -9 1579.78  119.72
  -4  -3   2  511.03   87.52
  -4  -3   2  641.63  246.61
   4   3  -2  468.65  130.54
   4   3  -2  485.18  161.25
  -1   5  11   93.40   52.96
  -1   5  11   86.63  132.09
   1  -5 -11   62.02   14.54
   1  -5 -11   -3.86    8.40
  -4   2  -5   -0.22   36.63
  -1  -9  -3  743.11  121.93
  -4   2  -5   -4.58   34.63
   1   9   3  812.51  111.62
   0   4 -13  521.79  140.45
   4   3  -1 1669.37  162.43
  -4  -3   1 1904.75  430.33
   1   9   3  544.87  127.40
   4   3  -1 1374.76  141.30
  -4  -3   1 2392.33  232.92
   0  -4  13  434.21   68.96
  -1  -9  -3  626.07  120.52
   0  -4  13  205.93  171.00
   0   4 -13  293.14   71.72
   2   1  11  773.27   50.19
  -2  -1 -11  807.11  164.47
  -2  -1 -11  669.93  110.23
  -4   6   0   29.57   30.31
  -2  -8  -2 1732.28  233.57
  -4   6   0   28.39   34.78
  -2  -8  -2 1556.49  154.63
   2   8   2 1910.54  189.15
   2   8   2 1763.62  339.17
  -4   6   0   51.56   47.09
  -4   6   0   40.66   27.27
   2   3 -12  117.44   69.47
  -2  -3  12  224.06   71.27
  -2  -3  12  105.34   42.96
   2   3 -12  129.47   51.90
   1  -9   8 1003.24  140.36
  -1   9  -8 1652.44  176.36
  -3  -3  -7 1189.84  113.00
   3   3   7 1071.85  107.92
   3   3   7 1176.69  223.41
  -3  -3  -7 1174.01  208.54
  -1   9  -8 1457.12  286.94
   1  -9   8 1766.99  143.61
  -4   5   4  571.10  131.99
  -4   5   4  527.66   93.97
  -4   5   4  706.39   66.01
  -3   4  -9 4179.96  386.66
  -3   4  -9 3064.16  321.54
  -2  10  -1 4750.47  575.68
  -2  -5  -8 3913.18  402.26
   2 -10   1 4792.64  349.56
  -2  -5  -8 3745.19  329.17
   2 -10   1 4173.48  316.09
   2   5   8 3483.74  250.36
   2   5   8 2491.40  236.84
  -2  10  -1 5336.47  467.34
  -3   7   6 1604.24  300.28
  -3   7   6 1389.54  223.59
  -4   6   1 1435.71  155.41
  -4   6   1 1242.74  150.83
  -4   6   1 1200.34   98.97
  -4   6   1 1065.72   73.39
  -4  -3   3  801.71  122.51
   4   3  -3  665.43   97.27
   4   3  -3  705.69  124.92
  -4   3  -5  294.82   75.93
  -4   3  -5  182.39   79.02
  -4  -3   3  700.13  257.90
  -3   0  -9 3574.78  323.11
  -4   6  -1 5763.57  340.66
  -3   0  -9 2466.30  392.66
  -2  10  -2  194.62  120.68
  -2  10  -2   95.07  127.92
  -4   6  -1 5751.10  371.05
   2 -10   2  114.09   90.01
  -4   6  -1 4984.60  345.85
   2 -10   2  101.05   94.86
  -1  -8   9  172.75   79.16
  -1  -8   9  194.11  115.15
  -1   7   9 6680.69  567.61
   1   8  -9  242.22  104.32
   1   8  -9  212.12  186.64
   1  -7  -9 1507.12   67.83
  -1   7   9 6097.84  436.96
  -2  -8   6  416.44  121.26
  -2  -8   6  334.34  192.31
   2   8  -6  413.27  151.75
   2   8  -6  596.69  168.23
  -4   1  -5  173.79   98.45
   0 -10  -2 2911.67  320.66
   0  10   2 4501.43  343.81
   0 -10  -2 2854.93  241.86
  -4   1  -5  232.51   19.83
  -4   1  -5  175.02  116.79
   0  10   2 3271.20  537.36
  -3  -6  -2  291.99  110.02
   3   6   2  361.16   93.70
   3   6   2  354.28  144.28
  -3  -6  -2  406.53  140.62
  -2  10   0 3093.20  455.98
   2 -10   0 3229.63  382.45
  -2  10   0 3421.63  321.09
   2 -10   0 2772.18  215.69
  -3   3  10   90.34  164.24
   1   5  10 4555.02  264.28
   1   5  10 4597.74  377.71
  -1  -5 -10 6340.46  457.77
  -1  -5 -10 4710.11  291.18
  -3   3  10  103.80   73.27
   4   3   0 1249.37  133.34
   0   6 -12  447.00   98.06
   0   6 -12  433.97   81.16
   0  -6  12  557.08  125.57
  -4  -3   0 1320.49  126.59
   0  -6  12  486.57   71.18
   4   3   0 1163.72  143.13
  -4  -3   0 1670.43  282.28
  -3   8  -5 1942.76  156.53
  -1   2 -13 1510.49  169.85
   3  -8   5 2327.63  204.48
  -1   2 -13 1177.50  164.83
  -3   8  -5 2218.83  212.91
   1  -2  13 1493.21  118.17
   1  -2  13 1377.81   88.80
   3  -8   5 1577.77  176.34
  -3  -4   9  108.35   70.27
  -3  -4   9  188.53   89.77
   3   4  -9  168.06   97.29
  -3   8   4   63.53   19.67
  -3   8   4   58.68   49.07
   3   4  -9  177.29  123.73
  -3   8   4   94.02  120.08
  -3   8   4   67.91   15.32
   0  -6 -10 6029.53  362.97
   0   6  10 4693.85  365.86
   0  -6 -10 7093.48  567.87
   0   6  10 5224.05  428.30
   3   4   6  763.87  139.09
   3   4   6  657.29  132.96
   2  -5  11   64.56   64.35
  -2   5 -11  121.33   83.14
   2  -5  11   81.03   10.36
  -2   5 -11   88.05   13.60
  -3  -4  -6  779.69  192.58
  -3  -4  -6  623.24   64.96
   1  -1  13  175.94   32.29
   2   7   5 1182.83  184.92
  -2  -7  -5 1418.66  215.57
   2   7   5 1735.91  217.28
   1  -1  13  216.47   60.11
  -2  -7  -5 1424.89  145.90
  -1   1 -13   80.97   36.97
  -1   1 -13  188.43   69.12
  -3  -2  -8   19.34   99.31
   3   2   8    0.02    5.87
  -4   1   7   42.30   49.83
   4  -1  -7   41.66   50.63
  -3  -2  -8   25.41   20.53
  -4   1   7   32.35   48.13
   3   2   8   16.19   23.43
   4  -1  -7   41.26   37.85
   0  -8  10    2.39   34.65
   0  -8  10   38.75   40.80
   0   8 -10   48.33   98.41
   0   8 -10   43.33   82.64
   0  -5 -11  245.33   60.84
   2   3  10 5873.31  339.67
   0   5  11  154.88   75.83
   0  -5 -11  175.76   61.35
  -2  -3 -10 6515.18  538.63
   0   5  11  175.88  132.75
   2   3  10 6383.93  425.83
  -2  -3 -10 5833.60  483.06
  -4   6   2   99.11   99.71
  -4   6   2   66.97   66.06
  -4   6   2   76.24   51.48
  -4   6   2   68.49   32.96
   1   6   9 1225.30  160.39
  -1  -6  -9 1319.88  231.85
   1   6   9 1155.18  222.63
  -1  -6  -9 1268.54  135.15
  -1  -9   710222.45  758.65
  -3   6  -8 1203.03  169.26
   1   9  -710112.75  844.04
  -3   6  -8  957.12  111.35
  -1  -9   713301.06 1389.96
   1   9  -711379.36  890.21
   2 -10   3 2500.08  207.87
   2 -10   3 2241.51  314.30
  -4   0   7  342.90  103.97
   4   0  -7  211.82   91.92
  -4  -1  -4 2119.73  290.29
  -2  10  -3 3060.85  386.04
   4   1   4 2177.12  304.92
  -2  10  -3 2308.10  359.25
  -4  -1  -4 2252.78  159.94
  -4   0   7  206.83   92.25
   4   0  -7  236.88   39.82
   4   1   4 1874.13  103.82
   2   6 -10  195.61  101.04
  -2  -6  10  240.28  124.02
  -2  -6  10  193.03   87.54
  -3  -6   6 2759.63  373.59
  -3  -6   6 3163.28  361.74
   2   6 -10  166.64  136.63
   3   6  -6 1934.35  378.76
   3   6  -6 2907.89  303.14
  -1  10   3   18.52   48.15
  -1  10   3    2.86  101.97
   2   5 -11  531.16  105.42
  -2  -5  11  746.91  148.43
   2   5 -11  551.10  136.91
  -2  -5  11  538.29  119.52
   1 -10  -3   -1.00   40.93
   1 -10  -3    9.24   40.22
  -4   6  -2 1022.41   80.50
  -4   6  -2 1161.67  155.54
  -4   6  -2  918.00  179.92
  -3  -5   8  605.20  123.04
  -3  -5   8  678.83  151.13
   3   5  -8  611.42  124.75
   3   5  -8  571.62  235.99
  -1  -4 -11  359.28   66.21
  -1   3 -13    7.36   43.99
   1   4  11  395.87  116.91
  -1  -4 -11  319.84   87.74
   1  -3  13   -4.26   20.65
  -1   3 -13   55.06   49.88
   1   4  11  280.72   74.52
   1  -3  13   43.10   28.34
  -3   7  -7  284.03   83.59
  -4   5  -4 7042.78  395.16
  -4   5  -4 5347.17  569.33
  -3   7  -7  301.67   44.86
  -4   5  -4 5942.08  535.59
  -4   5  -4 6244.09  373.49
  -3   7  -7  311.07   62.04
  -3   7  -7  335.28  174.25
   4  -2  -7    6.33   23.84
   4  -2  -7    3.66   40.41
  -4   2   7   -6.98   29.94
  -1   2  13 1579.75  263.67
  -1   2  13 1730.60  157.41
   4   3  -4 1433.34  144.14
   1  -2 -13 1308.14  131.30
  -4  -3   4 1594.35  273.97
  -4   2   7   17.14   34.94
  -4  -3   4 1395.03  325.53
   1  -2 -13 1285.11  110.75
   4   3  -4 1454.61  182.37
  -2  10   1    4.03   51.52
  -2  10   1   27.63   29.50
   2 -10  -1    4.01   35.96
   2 -10  -1   -5.39   20.73
   1   8   6  270.80   96.32
   1   8   6  225.13   80.65
  -1  -8  -6  334.90   91.09
  -1  -8  -6  341.66   89.04
  -3  -3  10  796.87  156.09
  -1   7 -1111706.19  875.35
  -3  -3  10 1023.51  255.61
   1  -7  1113098.17 1084.38
   0  -2 -13 2817.63  201.85
   1  -7  1115268.85  975.88
   3   3 -10  791.38  152.49
   0   2  13 3158.25  203.29
   3   3 -10 1040.95  123.19
   0   2  13 3536.19  263.93
  -1   7 -1114311.43  939.59
   0  -2 -13 2630.30  161.57
  -1   4  12 7677.75  607.29
  -1   4  12 6335.52  429.18
   1  -4 -12 8610.24  547.41
   1  -4 -12 7472.82  523.98
  -4  -2  -3  654.54   98.77
  -2   8   7 1760.55  194.30
   4   2   3  696.80  134.12
  -2   8   7 1755.86  258.78
  -4  -2  -3  745.14  205.96
   4   2   3  603.21   68.25
  -4   4  -5 5390.15  478.24
  -1  10  -6 9571.14  900.36
  -4   4  -5 4483.94  376.24
  -1  10  -613780.88 1259.38
  -4   4  -5 4416.22  213.16
   1 -10   6 8783.51  551.27
   1 -10   6 7301.35  540.60
  -4  -3  -1  454.78  172.59
   4   3   1  363.85  114.80
  -4  -3  -1  504.56  118.45
   4   3   1  478.44   99.38
  -2  -6  -7  307.36  124.79
   2   6   7  208.77   56.77
   0   7   9  301.32  114.61
   0  -7  -9  325.61   91.49
   0  -7  -9  358.14   99.60
   0   7   9  348.10   69.92
   2   6   7  243.26   64.31
  -2  -6  -7  282.76  105.82
   1   0  13  413.91   64.05
  -3   9  -1  276.36   93.87
  -1   0 -13  319.45   51.06
   4   2  -6  894.68  140.47
   3  -9   1  322.82   75.54
   4   2  -6  912.18   96.84
   1   0  13  462.02   44.40
  -4  -2   6 1022.44  244.17
  -4  -2   6 1341.45  197.89
  -3   9  -1  314.05   58.51
  -1   0 -13  371.23   73.60
   3  -9   1  232.55   51.54
   0 -10   6  561.55  151.87
  -2   9   5  678.61  142.62
   0  10  -6  536.97  127.65
  -2   9   5  735.85   51.47
   0 -10   6  518.36  111.27
   0  10  -6  570.29  131.44
   2  -9  -5  970.78  177.98
  -1   9   6 1586.10  240.45
  -1   9   6 1366.62  102.11
   1  -9  -6 1368.31  281.12
   1  -9  -6 1812.11  176.06
  -4   0  -5  940.32  296.87
   4   0   5  889.73  116.06
  -4   0  -5 1237.11   79.20
  -3   9   0 1454.16  113.84
   3  -9   0 1756.15  183.76
  -3   9   0 1752.90  214.50
   1   4 -13  381.72  101.24
  -1  -4  13  350.56   79.83
  -1  -4  13  308.92   90.68
   1   4 -13  259.93  129.14
   1  -8  10    3.65   46.49
  -1   8 -10   -6.94   31.22
   1  -8  10    4.90   32.88
  -1   8 -10   -6.21   43.43
  -4   4   6 1811.90  235.58
  -4   4   6 1829.79  195.49
  -4   4   6 1855.80  131.58
  -4   4   6 1938.07  117.99
  -3   0  11 1466.44  189.08
   3   0 -11 1477.10  378.90
   3   0 -11 1728.21  180.37
  -3   0  11 1686.00  130.95
   2  -9   7  154.97   87.95
   2  -9   7  182.69   38.88
  -2   9  -7  192.01   92.99
  -2   9  -7  135.21   63.47
  -3   9  -2   25.57   26.32
   0   4  12 5335.50  401.20
   3  -9   2   32.50   53.77
  -3   9  -2   13.55   36.76
   0  -4 -12 5642.35  402.01
   0  -4 -12 5840.90  359.12
   3  -9   2   26.39   64.91
   0   4  12 5213.14  405.16
  -2   3  12  321.03   85.61
  -4   6   3 1593.05  197.04
  -2   3  12  296.54  102.00
  -4   6   3 1703.72  157.80
  -4   6   3 1328.71  202.63
   4   1  -7 2168.22  202.16
  -4  -1   7 2596.48  322.54
  -4  -1   7 2675.60  267.32
   4   1  -7 3007.58  338.49
  -3   5  -9 7258.46  497.87
  -3   5  -9 9238.69  726.81
  -4   5   5  506.02   65.92
   2 -10   4  105.60   66.63
  -2  -8  -3  558.94  224.95
   2   8   3  561.89   96.98
  -4   5   5  487.72  130.13
  -2  10  -4  100.21   65.82
  -2  10  -4   53.71   85.93
  -3   5   9 3560.44  381.04
  -3   5   9 3304.60  406.83
   2   8   3  461.21  111.00
  -4   5   5  433.74   92.56
   2 -10   4  103.16   85.82
  -2  -8  -3  477.22   81.32
  -3   1  11  778.07  136.32
   3  -1 -11  687.13   76.11
  -3   6   8  565.61  259.03
  -3   1  11  513.06   48.96
  -3   6   8  682.35  168.70
   3  -1 -11  645.48  143.82
  -2   2 -12    5.59   24.65
  -2   2 -12   14.97   49.04
  -3   9   1    6.48   17.05
  -3   9   1   -4.31   11.40
  -3   9   1    3.79   20.08
  -3   9   1   19.99   45.01
   3   5   5 4244.91  457.32
  -3  -5  -5 3943.59  246.91
  -3  -5  -5 4964.65  658.34
   3   5   5 5263.39  377.16
  -1   8   8 1860.89  326.67
  -1   8   8 1957.87  101.37
   1  -8  -8 2585.84  280.04
  -4   6  -3 3285.18  271.30
  -3  -1  11  116.59  155.89
  -1 -10   2   10.58   50.11
  -3  -1  11   94.37   77.43
   1  10  -2  -12.07   48.23
  -4   6  -3 3740.93  208.87
  -1 -10   2   27.40   57.95
   3   1 -11   56.74   70.36
   1  10  -2   15.99   92.32
   3   1 -11   60.58   37.94
  -4   6  -3 3299.06  202.65
   0 -10  -3  511.60   87.52
   2   7  -9 1288.59  176.41
  -3  -1  -9  291.29   95.04
  -3  -1  -9  209.88  100.40
   2   7  -9 1028.99  180.09
   0 -10  -3  632.35  139.66
  -2  -7   9 1836.14  430.43
  -2  -7   9 1589.78  281.49
   0  10   3  789.84  177.47
   0  10   3  585.62  160.59
  -1   6 -12  725.61  177.56
   1  -6  12  538.37  134.08
   1  -6  12  596.42   92.70
  -1   6 -12  602.29   69.31
   1   7   8   22.45   42.65
  -1  -7  -8   -3.13   55.19
   1   7   8   13.52   53.43
  -1  -7  -8    6.47   33.35
  -1  -9  -4  265.75  128.40
   1   9   4  431.98  123.94
  -2  10   2 2636.73  178.38
   2 -10  -2 2214.63  209.60
   2 -10  -2 2217.35  215.01
  -1  -9  -4  230.25   66.78
   1   9   4  233.30  163.32
  -2  10   2 2474.42  303.93
  -3  -6  -3 1185.20  225.71
   3   6   3 1386.74  171.75
   3   6   3  906.93  125.90
  -3  -6  -3 1329.09  145.62
  -4   3   7   -0.45   31.32
  -4   3   7   16.81   16.38
  -4   3   7   -7.86   73.11
  -4   3   7    7.39   59.46
   0  -5  13 1848.18  310.25
   0   5 -13 1692.08  177.39
  -2  -4  12  269.36   95.24
   1  10  -1 1645.35  231.23
  -2  -4  12  276.69  195.67
   1  10  -1 2422.07  242.85
   2   4 -12  168.61   87.86
  -1 -10   1 1640.04  296.34
   0  -5  13 1658.10  122.57
   2   4 -12  235.00   68.51
   0   5 -13 1580.39  136.92
  -1 -10   1 1756.47  193.98
   4   3  -5 1201.82  126.63
   4   3  -5 1127.75  249.17
  -4  -3   5 1333.63  287.50
  -4  -3   5 1197.39  150.66
   2  -7  10  776.12   56.04
  -2  -8   7 7382.37  636.97
  -2  -8   7 9219.65  871.53
  -2   7 -10  709.30   58.68
   1  10  -3  946.18  319.22
   2   8  -7 9484.34  855.56
  -1 -10   3  763.26  155.31
  -2   7 -10  969.42  267.97
   1  10  -3 1225.93  219.85
   2  -7  10  852.88  184.49
   2   8  -7 9938.99 1009.18
  -1 -10   3 1032.57  265.79
  -2   1 -12  500.46  104.57
  -2   1 -12  744.31  112.12
  -1   4 -13 4929.56  347.21
   1  -4  13 4334.73  271.76
   1  -4  13 4186.92  385.70
  -1   4 -13 4722.04  417.41
  -2   3 -12   61.99   40.64
  -2   3 -12   50.12   72.24
   2   2  11    2.12   13.03
  -2  -2 -11   -7.80   62.46
   2   2  11    8.83   14.05
  -2  -2 -11   -4.45   58.78
  -1  -7  11 4212.65  425.18
   1   7 -11 3374.77  303.98
  -1  -7  11 3561.60  290.31
   1   7 -11 3598.99  338.65
   3  -9   3 1034.41  152.41
  -3   9  -3 1463.75  251.20
   3  -9   3  932.48  195.49
  -3   9  -3 1012.77  209.70
  -3   8  -6 3208.44  214.54
  -3   8  -6 4080.80  332.69
   3  -8   6 4091.22  289.53
   3  -8   6 2701.78  260.96
  -3   8   5 2658.49  288.84
  -3   8   5 2412.95  208.67
  -4   2  -6  847.15  152.68
  -3  -7   2 3086.96  269.41
  -4   2  -6 1203.74  167.92
   3   7  -2 3631.60  487.34
   3   7  -2 3132.68  330.17
  -3  -7   2 2940.27  360.56
   0   9  -9  663.47  160.08
   0   9  -9  552.99  219.88
   0  -9   9  362.13   93.74
   0  -9   9  580.21   92.20
   1   3  12  262.14   51.45
  -1  -3 -12  289.25   56.04
  -4  -3  -2   67.05   37.67
   4   3   2   43.88   58.30
  -1  -3 -12  264.80   70.23
  -4  -3  -2  103.87  164.01
   4   3   2   52.40   90.62
   1   3  12  376.23   65.24
   1   6 -12  157.30   75.21
  -1  -6  12   96.02   89.55
  -1  -6  12  141.22   56.39
   1   6 -12   94.72   79.74
  -2   6  10   21.96   44.64
  -2   6  10    6.93   60.49
   2  -8   9  754.43  146.80
   2   0 -13 1639.03  200.97
   2   1 -13 2462.82  413.13
  -2   0  13 1776.90  261.70
  -2  -1  13 2371.02  232.72
   0  -9  -6 2634.90  374.74
  -2  -1  13 2157.09  169.32
  -2   8  -9  706.02   77.85
   0  -9  -6 2719.73  287.88
   2   1 -13 2272.84  238.71
  -2   8  -9 1058.45  192.16
  -2   0  13 1647.99  120.14
   2  -8   9  769.69   69.89
   0   9   6 2541.36  293.86
   0   9   6 2613.24  211.45
   2   0 -13 1694.66  124.92
  -3   4  10    0.14   48.12
  -3   4  10   15.67   42.45
   3   7  -3   22.66   56.06
   3   7  -3    5.87   60.96
  -3  -7   3    6.07   49.25
  -3  -7   3    4.71   66.28
  -3  -7   1   81.32  162.71
   3   7  -1  139.62  146.03
  -3  -7   1   93.00   59.55
   3   7  -1   92.29   80.92
   3   6  -7  496.74  126.36
  -3  -6   7  598.15  173.68
  -3  -6   7  489.65  160.65
   3   6  -7  426.11  137.51
   1  10   0    2.12   40.57
  -1 -10   0   17.89   62.93
  -1 -10   0    0.35   55.20
   1  10   0  -13.14   60.65
  -4   3  -6  629.49  168.46
  -4   3  -6  498.71  106.80
  -3   9   2  320.77   45.00
  -3   9   2  308.34  110.97
  -3   9   2  217.35   90.88
  -3   9   2  254.40   39.64
   1  10  -4 3511.71  462.87
  -1 -10   4 3454.18  308.68
  -1 -10   4 2243.65  249.95
   1  10  -4 2640.21  305.25
  -3   2  11  346.35   31.65
   3  -2 -11  214.11   17.36
  -3   2  11  372.89  186.50
   3  -2 -11  280.11   88.92
   0   1 -14  386.58  114.58
   1   1  13 4696.47  330.72
  -1  -1 -13 3061.16  193.53
   0   1 -14  724.07  160.94
   0  -1  14  606.24  115.06
  -1  -1 -13 3839.58  370.41
   1   1  13 4956.01  320.41
   0  -1  14  631.77  152.25
  -3   2 -10  521.64  131.58
  -3   2 -10  750.82  131.43
   1 -10  -4   88.00   74.18
  -1  10   4   93.04   60.34
   1 -10  -4   59.41   76.77
  -1  10   4   -2.48   66.14
   0  -2  14  457.13  112.18
   0   2 -14  350.42  100.29
   0  -2  14  329.43   73.67
  -3   7   7  970.17  194.19
   0   2 -14  493.78  159.87
  -3   7   7  923.17  142.44
  -4   5  -5  591.74  101.07
  -4   5  -5  545.52   49.72
  -4   5  -5  507.93  114.49
  -4   5  -5  534.44   33.04
  -4   1  -6 3974.87  390.15
  -4   1  -6 5174.37  399.07
   2  -6  11  155.43   29.42
  -2   5  11  152.17  138.66
  -2   6 -11  145.75   30.38
  -2   6 -11  309.25  160.92
   2  -6  11  174.18  157.75
  -2   5  11   49.78   92.08
  -1   9  -9  925.31  124.76
   1  -9   9 1153.06  115.18
  -1   9  -9  914.01  144.22
   1  -9   9  920.21  178.91
  -4   6   4  105.75   77.22
  -4   6   4  104.98   36.69
  -3  -2  11 1395.57  209.29
   3   2 -11 1446.76  196.38
  -3  -2  11 1473.64  250.41
  -4   6   4  104.65   49.26
   3   2 -11 1460.78  274.37
  -4   6   4   38.61   85.82
   1   9  -8 3136.79  488.98
  -2   7   9  518.39  122.33
  -1  -9   8 3746.18  636.63
  -1  -9   8 3022.70  407.66
   1   9  -8 3050.00  343.91
  -2   7   9  284.17   97.07
  -3   3 -10  997.36  143.33
   0   8   8  122.99   99.55
   0  -8  -8  180.17   48.23
   0  -8  -8   94.46  111.06
  -3   3 -10  646.54  127.72
   0   8   8  232.11   70.84
  -2  10  -5 4595.84  341.81
   2 -10   5 4892.23  439.00
  -2  10  -5 4915.37  383.53
   2 -10   5 5561.78  380.03
  -2  -9   2 1753.33  190.88
  -2  -9   2 2206.94  321.65
  -4  -1  -5 3161.46  544.20
   4   1   5 2939.38  278.97
   4   1   5 4076.12  253.27
   2   9  -2 2624.89  304.88
  -4  -1  -5 3428.63  179.53
   2   9  -2 1855.64  277.85
   4   2   4 1661.56  113.15
  -4  -2  -4 1594.12   97.51
   4   2   4 1877.40  210.23
  -4  -2  -4 1997.04  296.45
   4  -1  -8 2526.00  176.59
  -2   0 -12  142.73   65.63
  -4   1   8 2433.66  243.84
   4  -1  -8 1903.87  214.32
  -4   1   8 3070.01  271.04
  -2   0 -12   99.32  118.11
  -4  -4   2  516.95  157.93
  -4  -4   2  596.08  253.00
   4   4  -2  463.99  108.98
   4   4  -2  468.26   94.84
   3   7  -4 1603.12  246.88
  -2  -2  13  476.36  176.67
   2   2 -13  400.36  104.10
  -3  -7   4 1118.66  226.64
   2  -1 -13    9.25   42.91
  -2   1  13   22.21   39.65
  -3  -7   4 1144.74  166.17
  -2  -2  13  267.81   43.20
  -2   1  13    8.67   13.48
   2   2 -13  436.65  105.27
   2  -1 -13   19.57   26.37
   0  10  -7  613.84  145.67
   3   7   0 2650.16  251.88
  -3   1 -10 1495.09  177.69
   0  10  -7  634.78  146.89
  -2   4 -12  832.93  169.39
   0 -10   7  653.03  167.18
  -3   1 -10 1132.20  176.52
   0 -10   7  660.31  115.82
  -3  -7   0 2468.35  475.97
   3   7   0 2293.33  248.21
  -3  -7   0 2699.16  237.75
  -2   4 -12 1040.91  163.72
  -1  10  -7 1123.89  154.09
   1 -10   7 1184.99  164.09
  -1  10  -7 1736.68  233.17
   1 -10   7  886.05  190.90
   2   9  -3  557.58  191.31
  -1   3  13 6465.50  529.26
  -2  -9   3  564.55  133.54
   2   9  -3  661.56  262.97
   1  -3 -13 5567.85  331.68
  -1   3  13 6257.66  524.61
   1  -3 -13 4250.73  281.74
  -2  -9   3  568.37  320.18
   4   4  -1 1297.83  150.73
  -4  -4   1 1372.12  344.46
  -4  -4   1 1159.69  182.16
   4   4  -1 1060.67  128.20
   4   0  -8   11.36   30.93
  -4  -2   7 1314.33  326.47
   4   0  -8    4.25   92.91
  -4   0   8  -14.09   49.53
  -4   0   8   18.37   82.19
   4   2  -7  907.31   94.20
  -4  -2   7 1021.53  156.31
   4   2  -7  799.49  136.88
  -4   7   0   89.30   41.65
  -2  -9   1  573.22  170.67
  -4   7   0   51.28   36.17
   1   1 -14   31.77   26.19
  -1  -1  14   66.59   68.69
  -4   7   0   88.46   91.99
   1   1 -14   51.42   45.04
   2   9  -1  485.20  224.07
  -1  -1  14   69.63   48.41
   2   9  -1  717.83  163.23
  -4   7   0  112.74   51.95
  -2  -9   1  557.83  130.94
  -4   6  -4 3427.76  251.29
  -4   6  -4 3397.24  225.07
   0   0 -14 1369.62  156.05
   0   0  14 1336.91  119.83
   0   0  14 1335.37  143.28
   0   0 -14 1598.95  145.10
  -2  -7  -6 3746.98  254.39
  -2  -7  -6 4637.17  410.78
   2   7   6 4269.81  449.28
   2   7   6 4373.69  402.78
   1   8 -10  122.94   83.12
   1   8 -10   61.75   82.73
  -1  -8  10   88.13   90.04
  -1  -8  10   59.30   84.32
  -4  -4   3 4777.29  487.82
   4   4  -3 4524.74  456.34
  -4  -4   3 6765.53  532.20
   4   4  -3 4503.90  499.20
  -2  10   3 2151.74  213.86
   2 -10  -3 1495.38  145.47
   2 -10  -3 1497.72  273.82
  -2  10   3 1585.16  258.34
   3  -9   4 1383.47  116.68
   3  -9   4 1377.62  242.41
  -3   9  -4 1223.69  135.09
  -3   9  -4 1892.47  202.64
  -4   7  -1  271.74   61.30
  -4   7  -1  194.31   58.90
  -4   7  -1  209.88   81.90
  -4   7  -1  448.74  108.23
  -4   7   1 1214.63  146.77
  -4   7   1 1309.74  147.45
  -3  -3  -8 2893.29  346.39
  -4   7   1  905.11  136.11
  -3  -3  -8 3084.47  203.48
   3   3   8 2804.22  331.61
   3   3   8 2442.37  140.25
  -3  -4  10  282.01   73.98
   3   4 -10  467.30   95.84
  -4   4  -6   -9.33   34.05
  -3  -4  10  413.17  120.06
  -4   4  -6    3.74   37.06
   3   4 -10  321.09  118.37
   0   3 -14 6458.53  603.58
   0   3 -14 4030.10  324.85
   0  -3  14 6343.44  510.13
   0  -3  14 5765.97  658.08
   3   5  -9  489.27  178.80
  -3  -5   9  277.34   95.98
  -3  -5   9  466.39  200.89
   3   5  -9  348.08  127.86
  -4   2   8  184.35   69.67
   0   3  13   67.99   40.54
   0  -3 -13   62.79   56.32
  -4   2   8   48.69   38.46
   0  -3 -13   92.70   23.88
   4  -2  -8  141.99   40.49
   4  -2  -8   89.59  132.73
   0   3  13   81.97   34.65
   3   4   7   88.08   67.06
  -4  -3   6    6.84   80.31
  -1 -10  -1 3655.90  551.04
   1   0 -14  739.87  104.58
   1  10   1 3984.81  702.53
  -3  -4  -7   65.83   29.94
   1   0 -14  534.01   63.08
  -3  -4  -7   26.47  164.93
  -4  -3   6   12.97   42.02
   4   3  -6  -11.10   30.18
   4   3  -6   -1.49   41.55
  -1   0  14  858.48  171.38
  -1   0  14  983.17  153.97
  -1 -10  -1 3516.15  485.19
   3   4   7   95.85   42.46
   1  10   1 4001.58  358.96
   1   2 -14  633.97  201.85
  -1  -2  14  528.23   87.83
  -1  -2  14  624.30  154.44
   1   2 -14  678.65  155.97
  -1 -10   5  414.88  103.48
   1  10  -5  484.45  158.33
  -1 -10   5  395.58  174.18
   1  10  -5  544.34  148.57
  -1  11  -2 1863.87  215.69
  -1  11  -2 2451.97  300.21
   1 -11   2 1697.41  164.11
   1 -11   2 2550.15  254.91
   4   4   013079.48 1064.06
  -3   7  -8   94.72  114.24
  -3   7  -8   46.05   15.29
  -1  11  -1    6.37   40.68
  -4  -4   016891.49 1318.41
   1 -11   1   27.01   63.77
   1 -11   1   21.36   84.19
  -3   7  -8   26.64   51.19
  -4  -4   016441.25 1440.18
  -1  11  -1   -6.41   37.46
   4   4   015148.35 1219.21
  -3   7  -8   48.47   20.24
   1   5 -13  443.66  178.67
  -2  -9   4   -4.49   53.30
   2   9  -4   43.47   74.82
  -1  -5  13  368.35  111.24
  -4   5   6    9.20   28.79
   1   5 -13  281.30   88.62
   2   9  -4    4.05  149.89
  -1  -5  13  225.03   62.07
  -4   5   6   -3.71   40.85
  -4   5   6   -0.91    9.50
  -2  -9   4   12.32   66.83
  -4   5   6    3.25    8.20
  -4   4   7  625.51  150.14
  -4   4   7  592.41   39.08
  -4   4   7  496.70   38.19
  -4   4   7  629.08  117.07
  -2   9   6   19.17   38.35
  -2   9   6    0.85   44.68
   2  -9  -6   15.14   59.56
  -2  -8  -4  139.72  104.53
   2   8   4  183.98   61.64
  -2  -8  -4  245.08   75.27
   2   8   4  132.21  124.37
  -3   4 -10   61.03   43.10
  -3   4 -10   44.36   78.03
  -2  -9   0  -14.13   65.51
   2   9   0   22.62   60.06
   2   9   0   35.91   58.58
  -2  -9   0    2.45   37.90
   0   7 -12 3807.91  383.79
  -3   9   3  939.26  153.97
   0   7 -12 3425.92  283.98
  -3   9   3 1271.95  103.89
  -3   9   3 1329.05  109.98
  -3   9   3 1259.42  146.73
   0  -7  12 2663.74  179.52
   0  -7  12 3341.19  437.57
  -4   0  -6  286.88   82.17
  -4   0  -6  277.27  114.68
   2   5   9 1899.12  159.26
   0  10   4   11.51   30.07
   0 -10  -4    7.15   44.67
   0 -10  -4    2.73   41.93
  -2  -5  -9 2397.82  404.72
   0  10   4    8.98   90.23
  -2  -5  -9 1814.96  134.66
   2   5   9 1507.37  123.16
  -3   6  -9 1788.62  213.15
  -3   6  -9 1428.76  144.18
  -1   6  11 1705.78  220.10
  -4   7  -2   58.40   29.37
  -4   7  -2    9.57   40.38
  -1   6  11 2147.19  211.10
   1  -6 -11 1187.00   72.35
   1  -6 -11 1442.13   70.97
  -4   7  -2   35.43   24.38
   1  -5  13 3673.64  525.27
  -1   5 -13 4279.76  447.86
  -1   5 -13 4648.21  308.45
   1  -5  13 3477.40  237.67
   4   3   3 1082.20  137.94
   4   3   3 1334.17  110.27
  -4  -3  -3 1519.00  273.33
  -4  -3  -3 1567.91  122.50
   4   4  -4  812.34  117.30
   4   4  -4  759.21  137.60
  -4  -4   4  872.03  173.77
  -4  -4   4  818.08  119.89
   2   4  10 1386.25   88.32
   1 -11   3  631.20  113.36
  -2  -4 -10 1645.34  210.23
  -2   9  -8  329.62   94.24
   1 -11   3  723.87  229.45
  -2  -4 -10 1264.25  118.79
  -2   9  -8  275.52   81.50
   2   4  10 1456.30  165.22
  -1  11  -3  582.10  245.38
   2  -9   8  299.39   67.16
   2  -9   8  293.94  175.68
  -1  11  -3  799.02  194.93
  -4  -1   8  687.23  138.64
  -4   7   2  144.89  112.13
  -3  -6  -4 1117.05  230.36
  -4   7   2  118.48   52.61
   3   6   4  654.58  116.99
  -3  -6  -4  670.03   83.55
  -4  -1   8  596.43  115.78
   4   1  -8  480.40   59.52
   3   6   4  927.71  215.66
   4   1  -8  609.15  172.80
  -4   7   2   77.12   47.46
  -4   7   2   68.96   48.94
   3   7  -5 1217.46  216.79
   0  -8  11  461.63  163.61
   0  -8  11  743.13   93.15
   3   7  -5 1700.12  375.98
  -3  -7   5 1492.55  407.21
   0   8 -11  687.18  179.89
  -3  -7   5 1130.30  145.63
   0   8 -11  992.09  205.13
   1 -11   0 3451.27  333.68
  -1  11   0 2767.68  322.82
   1 -11   0 3219.22  295.00
  -1  11   0 3506.95  362.96
   3   7   1   -5.24   77.59
  -1  -8  -7   24.22   38.04
   1   8   7   21.70   29.76
  -3  -7  -1    9.64   66.22
  -1  -8  -7    7.27   42.17
   1   8   7   35.81   52.55
  -3  -7  -1   17.39   33.18
   3   7   1  -22.12   47.24
  -2   4  12  106.08  172.77
  -2   4  12  202.02   68.85
  -2  -8   8  611.98  116.14
   2   8  -8  697.73  181.47
   2   8  -8  845.54  170.62
  -2  -8   8  528.49  123.89
  -3   0 -10  235.71   82.42
   2   6 -11   45.46   60.79
   2   6 -11   74.52   68.93
  -3   0 -10  117.24  127.97
  -2  -6  11    0.33   69.32
  -2  -6  11   18.90   57.04
   3   2   9 1207.14   69.03
  -3  -2  -9 1055.42  177.26
   3   2   9 1197.88   62.76
  -3  -2  -9 1057.08  126.28
  -3   3  11   31.24   74.29
  -3   3  11   59.18  104.78
   1  -9  -7 8451.61  703.62
  -1   9   7 8045.95  712.93
  -1   7  10  -16.70   52.26
  -1   7  10   -1.82   50.65
   1  -7 -10   -1.49    4.24
   1  -9  -7 9430.51  593.23
   1  -7 -10   -0.30    7.07
  -1   9   7 7219.67  400.98
  -2   8   8  324.44  137.70
  -2   8   8  327.38  131.51
  -1  -9  -5  911.54  141.63
   1   9   5  831.11   95.48
   1   9   5  860.77  157.90
  -1  -9  -5 1042.83  149.31
   2   3 -13  128.37   48.89
  -2  -3  13  191.00   68.37
  -2  -3  13   83.07   38.66
   2   3 -13   96.05  107.50
  -2   2  13  222.23  106.92
   2  -2 -13  159.12   14.77
  -2   2  13  247.69   80.45
   2  -2 -13    1.74   11.92
   0 -11   2 1371.79  369.51
   0  11  -2 1397.50  285.45
   0 -11   2 1418.89  312.71
   0  11  -2 1225.16  174.83
   0  -1 -14  590.29   74.50
   0   1  14  899.11   88.82
   0  -1 -14  913.44   92.81
   0   1  14  983.79  115.93
   1  -1 -14  296.84   84.76
  -1   1  14  456.77  108.25
   1  -5 -12   -5.00   10.86
  -1   5  12 2319.46  330.70
   1  -1 -14  324.42   47.58
  -1   5  12 4391.90  351.59
  -1   1  14  386.27   78.64
  -1  -3  14 2268.57  214.73
  -1  -3  14 2154.06  185.41
   1   3 -14 2367.17  220.15
   1   3 -14 1945.10  194.67
  -3  -5  -6 5580.52  363.67
   3   5   6 5286.88  423.25
  -4  -4  -1 1368.96  131.14
  -4  -4  -1 1769.09  320.10
  -3  -5  -6 5831.91  571.90
   4   4   1 1278.90  163.93
   3   5   6 4383.84  411.89
   4   4   1 1349.65  141.34
   0 -11   1 2947.33  308.61
  -3  -3  11  865.80  273.71
   0  11  -1 2374.86  312.36
   0  11  -1 3809.81  346.09
   3   3 -11  932.05  120.60
   0 -11   1 3122.72  366.52
  -3  -3  11 1068.62  171.97
   3   3 -11  721.41  226.15
  -4   6   5    9.56   14.48
  -4   6   5    6.94   30.05
  -4   6   5    1.60   12.72
  -4   6   5    8.90   71.08
   3  -8   7   46.70   40.41
   3  -8   7   38.42   52.00
  -3   8  -7   82.42   62.95
  -3   8  -7   25.69   37.02
  -3   8   6 2022.72  231.31
  -3   8   6 1546.14  238.78
  -4   3   8  351.50   41.56
  -2  -9   5  236.97  107.37
  -4   3   8  461.39  146.12
  -2  -1 -12  228.79   63.13
   2   9  -5  466.28  148.21
  -2  -1 -12   72.34   62.22
  -4   3   8  388.01  175.97
   2   1  12   -2.76   10.02
  -4   3   8  382.25   28.27
   2   9  -5  294.30  128.26
  -2  -9   5  319.65  101.58
   2   1  12  154.48   17.50
  -2  10  -6  502.95  118.83
  -2  10  -6  264.45   85.53
   2 -10   6  258.38  172.75
   2 -10   6  381.85  109.53
   0 -11   3 5166.20  490.83
   0  11  -3 5386.79  793.91
   0 -11   3 3551.41  301.33
   0  11  -3 4409.92  380.10
   2   5 -12 4830.86  484.30
   2   5 -12 4349.53  524.67
  -2  -5  12 4694.19  373.80
  -2  -5  12 5655.24  618.49
   2   6   8   11.93   84.90
  -2  -6  -8  135.98  145.49
   2   6   8  112.82   56.05
  -2  -6  -8   94.07   43.09
   3   6  -8  777.73  174.63
   3   6  -8  921.54  159.02
  -3  -6   8  659.09  133.18
  -3  -6   8  803.92  141.05
  -1  -2 -13  380.01   66.27
   1 -11   4 1407.50  143.07
  -1  -2 -13  277.18  103.56
   1 -11   4 2173.19  266.28
   1   2  13  328.98   47.64
  -1  11  -4 3051.01  537.03
   1   2  13  401.57   47.31
  -1  11  -4 2357.45  238.82
   0  -6  13  106.77   67.90
   0   6 -13  126.12   92.42
   0   6 -13  126.95   64.31
  -2   5 -12 1789.28  319.34
   0  -6  13   73.23   77.21
  -2   5 -12 1056.78  151.59
  -2  -9  -1 2895.51  339.64
  -1  -5 -11 5857.92  388.55
   2   9   1 3721.70  330.51
   1   5  11 5958.67  527.75
   1   5  11 5201.35  316.81
   2   9   1 3050.29  340.40
  -1  -5 -11 7236.86  567.28
  -2  -9  -1 2664.40  288.33
  -3   9  -5   -6.83   38.49
   3  -9   5    7.75   24.19
  -1  -6 -10 3158.02  289.17
   3  -9   5   12.13   65.96
   1   6  10 2241.34  266.14
  -1  -6 -10 3297.11  274.90
  -3   9  -5    6.63   69.39
   1   6  10 2288.55  147.33
   0   4 -14 3414.14  263.74
   0  -4  14 4138.16  353.18
   0  -6 -11 1959.08  162.88
   0   6  11 1620.84  179.75
   0   4 -14 4050.04  334.59
   1  10   2  765.10  123.95
  -1 -10  -2  585.70  230.16
   0  -6 -11 2324.76  246.00
  -1 -10  -2  781.96  173.17
   0   6  11 1641.33  254.40
   1  10   2  551.42  158.15
   0  -4  14 3926.96  238.92
  -4   7  -3   41.19   26.33
  -4   7  -3   33.72   21.57
  -4   7  -3   29.69   34.89
  -4   7  -3   43.94   53.35
  -1  11   1  133.21   69.03
   2   7 -10    7.71   47.65
   2   7 -10  -15.51   41.95
   1 -11  -1   81.57   58.11
  -2  -7  10   38.84   79.33
  -2  -7  10   21.95   84.72
  -1  11   1   56.21  156.05
   1 -11  -1  105.06   78.75
   1 -10  -5 1173.68  118.13
  -1   8 -11 3230.18  318.61
  -4   5  -6   39.49   60.25
  -4   5  -6   64.71   53.38
   1  -8  11 2783.85  309.75
   1  10  -6 4125.08  401.41
  -1  10   5  792.39  161.04
  -1  10   5  955.07  108.84
  -1   8 -11 2903.32  292.79
  -1 -10   6 3742.45  452.27
   1  10  -6 4696.26  523.33
  -1 -10   6 4672.78  528.19
   1 -10  -5 1070.50  296.66
   1  -8  11 2458.66  152.56
  -2  -3 -11  319.46   99.32
   2   3  11  307.07   45.07
  -4   6  -5   25.48   21.47
  -4   6  -5   32.63   22.78
  -4   7   3  -19.68   43.97
  -4   7   3    7.12   25.78
  -4   7   3   -2.80   24.70
  -2  -3 -11  409.98  143.89
  -4   7   3  -21.59   61.44
  -4   6  -5   19.86   39.21
   2   3  11  281.46   52.36
  -4   6  -5    2.99   46.66
   4   4  -5  165.67   66.51
   4   4  -5  170.64  138.90
  -4  -4   5  135.77   97.21
  -4  -4   5  225.72  142.03
  -3   6   9 1199.27  243.94
  -3   6   9 1407.21  353.40
   0 -11   0   63.10   79.91
   0  11   0  108.67   70.40
   0 -11   0   76.66   70.28
   0  11   0   69.59   75.33
  -2  10   4   38.63   23.37
  -1   7 -12  527.00  112.19
  -2  10   4    4.04   81.85
   2 -10  -4   32.75   34.20
   2 -10  -4  100.07   67.91
  -1   7 -12  647.08  113.71
   1  -7  12  681.21  112.07
   1  -7  12  594.18  154.75
  -4   2  -7 1999.34  202.16
  -4   2  -7 1504.28  318.63
   0  -5 -12 6215.39  524.78
   0   5  12 6018.08  512.06
   0  -5 -12 5514.90  348.39
   0   5  12 5302.71  558.38
  -4   3  -7  171.75  130.25
  -4   3  -7  252.77   87.60
  -4  -2  -5 2530.87  352.71
   4   2   5 2156.69  160.97
   4   2   5 2402.06  369.75
  -4  -2  -5 2027.54  140.06
   0  -7 -10  565.47   71.80
   0  -7 -10  538.60   49.42
   0 -11   4   30.95  110.23
   0  11  -4   30.54   57.86
   0  11  -4    9.79   95.03
  -3   5  10 1003.92  203.00
  -3   5  10 1060.32  149.26
   0 -11   4   19.71   43.43
   0   7  10  691.22  144.42
  -3   5 -10 4084.99  386.64
  -3   5 -10 3157.63  244.13
   0   7  10  503.69   76.89
   0  10  -8  369.77  114.16
   0 -10   8  375.39  141.72
   0 -10   8  301.47   74.64
   0  10  -8  486.76  152.44
  -3  -7   6   34.64   89.59
   3   7  -6   94.59   84.46
   3   7  -6   47.48   73.20
  -3  -7   6   37.93  152.22
  -4  -3   7  797.13  153.73
   4   3  -7  867.79  178.51
  -4  -3   7  938.61  161.44
   4   3  -7  628.00  210.79
   0  -9  10 3759.32  335.59
   0   9 -10 4636.20  429.99
   0  -9  10 2405.34  328.00
   0   9 -10 4619.62  460.14
  -3   9   4  114.42   31.97
  -3   9   4  136.08   63.96
   3   7   2  598.77  137.98
  -3   9   4   -2.62  114.29
  -3   9   4  101.25   20.70
  -3  -7  -2  428.37  152.69
  -3  -7  -2  453.54  242.32
   3   7   2  436.53  101.30
   1 -10   8 2678.97  182.81
   1 -10   8 1859.97  190.24
  -1  10  -8 4021.63  577.43
  -1  10  -8 3198.93  305.99
  -1  -9   9   25.36   50.19
  -1   8   9  252.29   70.53
   1  -8  -9  257.45   33.56
   1   9  -9   17.04   70.68
   1   9  -9   22.04   61.60
  -1   8   9  199.37  142.99
  -1  -9   9   30.69   77.81
   0  -9  -7 4708.96  540.17
   0   9   7 4513.78  310.66
   0  -9  -7 4486.07  323.15
   0   9   7 3545.40  469.05
   4   2  -8  482.78  114.79
  -4  -2   8  820.05  147.22
  -4  -2   8  671.33  137.56
   4   2  -8  572.68   73.09
  -1   2 -14 1935.67  220.99
   1  -2  14 2677.49  166.49
   1  -2  14 2779.27  155.65
  -1   2 -14 2746.07  343.74
   3   0 -12   10.09   20.90
  -3   0  12   -0.51   71.68
   3   0 -12   13.00   40.66
  -3   0  12   -7.34   11.77
  -4  -1  -6  283.87   23.79
   4   1   6  322.21   81.62
  -4  -1  -6  451.69  141.49
   4   1   6  327.12   28.29
  -4   1  -7 5907.28  475.25
  -4   1  -7 3948.86  402.67
   1   4  12  635.23   93.31
  -1  -4 -12  719.46  118.13
   1   4  12  738.50  153.95
  -1  -4 -12  609.79   72.79
   1  -1  14  360.18   49.63
  -1   1 -14  322.23  143.04
  -1   1 -14  199.99   73.23
   1  -1  14  417.47   69.68
  -3   7   8 4233.04  437.77
  -3   7   8 3997.80  474.01
   1   7   9 1802.40  145.99
  -1  -7  -9 2251.73  354.13
  -1  -7  -9 1521.04  213.67
   1   7   9 1571.89  279.77
  -4  -4  -2  153.41  199.59
   4   4   2   82.44   46.65
   2  -8  10 2092.31  130.29
  -4  -4  -2  107.00   69.35
   4   4   2   81.35   63.90
  -2   8 -10 2864.97  363.32
  -2   8 -10 2532.46  249.32
   2  -8  10 2245.22  296.62
  -2   7 -11  282.81   57.07
   2  -7  11  297.61  115.95
  -2   7 -11  474.09  242.04
   2  -7  11  277.95   48.42
  -1  11  -5  342.47   92.26
  -1  11  -5  320.86  160.46
   1 -11   5  127.44  105.01
   1 -11   5  343.64   82.70
  -3  -1  12 1225.86  180.96
   3   1 -12 1186.34  342.90
  -3  -1  12 1552.09  359.46
   3   1 -12 1199.68  167.68
   3  -1 -12  664.17  145.21
  -3   1  12  987.00  157.30
  -3   1  12  786.79   60.15
   3  -1 -12  703.86   56.84
  -4  -3  -4  933.86  240.04
  -4   1   9  402.21  109.69
   4  -1  -9  324.69   97.05
  -4  -3  -4  905.04   85.31
   4  -1  -9  359.66   40.11
   4   3   4  776.60   76.77
   4   3   4  931.96  152.36
  -4   1   9  405.27   50.26
  -3  -1 -10 4320.99  363.38
  -3  -1 -10 2924.22  324.61
   2   9  -6  261.61  227.07
  -2  -9   6   87.78  137.72
  -2  -9   6  114.54   85.44
   2   9  -6  123.22  109.63
  -1   3 -14  843.27  123.27
   0 -11  -1 2280.33  200.82
  -1   3 -14 1347.79  240.18
   0  11   1 4158.04  319.68
   1  -9  10  207.57   86.61
   0 -11  -1 2518.48  217.17
  -1   9 -10  260.27   77.69
   1  -3  14 1496.92  152.41
   1  -3  14 1338.32  119.85
  -1   9 -10  188.89   90.66
   0  11   1 2482.64  289.13
   1  -9  10  218.12  104.87
   1  -4 -13 5188.17  423.07
  -1   4  13 5462.57  603.45
  -1   4  13 4508.27  406.67
   1  -4 -13 5890.13  390.96
  -1  11   2 1750.76  253.56
   4   0  -9  681.87  163.98
   1 -11  -2 2027.70  267.62
  -4   0   9  484.83   59.88
   4   0  -9  568.99   55.86
  -1  11   2 2643.23  280.30
   1 -11  -2 2235.42  385.15
  -4   5   7 7454.64  655.22
  -4   5   7 6940.11  522.98
  -1  -7  12  958.76  126.68
  -4   4  -7  194.97  146.68
   1   7 -12 1490.81  191.69
   1   7 -12 1373.22  176.94
  -1  -7  12 2207.05  316.03
  -4   4  -7  210.63   84.65
  -1   2  14 2173.07  240.24
   1  -2 -14 1426.08  140.24
  -1   2  14 2062.05  249.64
   1  -2 -14 1518.27  135.62
   1   4 -14  106.89  127.39
  -1  -4  14   62.21   49.36
  -1  -4  14   42.32   54.27
   1   4 -14   59.94   64.32
  -2  -9  -2 1281.32  211.54
   2   9   2 1650.19  175.98
   2   9   2 1512.83  218.00
  -2  -9  -2 1463.14  221.25
  -4   7  -4   85.80   37.93
  -4   7  -4  100.39   43.68
  -4   7  -4   78.01   35.37
  -4   7  -4   51.84   75.38
  -2  -8  -5   50.58   80.50
   2   8   5   56.32   79.45
  -2  -8  -5   54.35  115.49
   2   8   5   42.14   36.67
   0 -10  -5 8257.85  807.12
   0  10   5 6781.38  593.57
   0 -10  -5 8585.12  631.92
   0  10   5 7968.06  553.62
   0  11  -5  886.37  183.48
   0  11  -5  935.61  163.48
   0 -11   5  975.29  196.49
   0 -11   5  743.45  197.84
  -2  -4  13   63.05   36.72
   0  -2 -14  278.32   91.41
   0   2  14  416.15   60.09
   2   4 -13   73.48   48.57
   0  -2 -14  396.45   64.06
  -2  -4  13  166.74  140.94
   2   4 -13   74.84  101.19
   0   2  14  394.86  140.06
   2 -11   1 1099.64  140.51
  -2   3  13  224.67   80.55
   2 -11   1  986.60  126.02
  -2  11  -1 1018.87  171.03
  -4   7   4  129.67   16.32
  -2   3  13  245.13   91.55
  -4   7   4  204.80   45.70
  -4   7   4  155.33   89.67
  -4   7   4  150.09   92.26
  -2  11  -1 1151.67  126.92
   2   7   7 6261.17  459.67
  -4   4   8    0.10   38.25
  -4   4   8    1.23   50.06
  -2  -7  -7 7535.65  658.95
  -2  -7  -7 8962.70  824.50
   2   7   7 5322.43  345.88
   2 -11   2   36.04   43.06
  -4  -4   6  950.43  164.60
   1  -6  13  556.50  254.84
  -2  11  -2   34.60   35.72
   2 -11   2   31.31   74.85
   4   4  -6  970.23  166.94
  -1   6 -13  383.29   49.30
  -1   6 -13  636.77  153.62
   1  -6  13  507.94   54.77
  -2  11  -2   11.89   57.92
  -4  -4   6 1213.76  170.64
   4   4  -6 1240.81  232.01
  -3  -6  -5  116.26   48.84
   3   6   5  106.54   60.75
   3   6   5   87.25   58.50
  -3  -6  -5  151.46  138.35
   4  -2  -9   15.72   20.47
  -4   2   9   36.08   39.33
  -3   4  11  286.54  106.46
  -4   2   9   17.37   57.34
   4  -2  -9  -13.85   75.77
  -3   4  11  285.49  156.24
   3   5 -10  549.03  149.92
   3   5 -10  694.17  130.80
  -3  -5  10  520.89  125.63
  -3  -5  10  491.11   95.57
  -1   0 -14  967.63  120.85
  -1   0 -14  983.13  114.79
   1   0  14 1163.65   79.30
   1   0  14 1840.08  107.66
  -1 -10  -3 2422.23  241.19
   1  10   3 2245.86  431.72
  -1 -10  -3 2343.56  263.91
   1  10   3 2957.83  255.33
  -2   9   7   -2.93   36.34
  -2   9   7   -1.29   51.70
  -2   6  11  430.19  143.47
  -2   6  11  526.32  148.23
   0   4  13 5504.54  478.55
   0  -4 -13 2660.07  184.95
   3 -10   1    5.27   34.98
   0  -4 -13 3840.51  273.06
  -3  10  -1    6.60   31.92
   3 -10   1   -5.89   46.72
  -3  10  -1    0.25   47.14
   0   4  13 3705.71  311.95
  -2   2 -13  332.04  110.61
  -4   6   6    0.12   42.19
  -4   6   6   -5.15   29.30
  -2   2 -13  248.23   58.78
   2 -11   0  117.93   56.69
  -2  11   0  151.53  149.13
   2 -11   0  201.89   78.78
  -2  11   0  169.90   52.43
   3  -9   6 1526.05  123.45
   3  -9   6 1302.96  284.25
  -3   9  -6 1927.10  336.53
  -3   9  -6 1259.73  117.35
  -1  -8  11 1386.62  140.75
   0  -8  -9  492.23  181.85
   0   8   9  571.44  143.19
  -1  -6  13  180.93   58.32
   1   6 -13  282.79   94.59
   1   8 -11 1334.87  280.59
   1   8 -11 1633.98  215.39
   0   8   9  634.44   86.83
   0  -8  -9  471.25  104.14
   1   6 -13  197.06   84.60
  -1  -6  13  123.07   92.70
  -1  -8  11 1758.69  257.76
   1  10  -7 1066.70  296.10
  -1 -10   7  974.46  168.09
   2 -10   7 2758.56  172.62
  -1 -10   7 1204.33  260.15
   1  10  -7  879.61  179.65
   2 -10   7 3626.33  328.05
  -2  10  -7 3441.67  401.73
  -2  10  -7 4180.07  424.50
   2   8  -9 1134.04  192.37
  -2  -8   9 1248.26  168.71
   2   8  -9 1509.57  340.54
  -2  -8   9 1800.98  296.44
  -3  10   0  952.70  169.85
   3 -10   0  648.09  110.19
   3 -10   0 1066.81  136.65
  -3  10   0 1061.52  125.87
  -4   0  -7  281.59  123.06
  -2   7  10  393.06  104.01
  -2   7  10  786.46  226.34
  -4   0  -7  368.75  107.92
   4   1  -9   25.74   42.16
  -4  -1   9   56.81   60.71
  -3   7  -9  172.32  139.51
   4   1  -9   62.77   58.96
  -3   7  -9   88.31   63.04
  -4  -1   9   17.91   29.09
  -3  -2  12 1018.32  126.66
   3   2 -12 1003.58  111.79
  -3  -2  12 1202.19  192.13
   3   2 -12 1213.15  382.62
   4   5  -2 5676.65  454.86
  -4  -5   2 5983.13  564.92
   4   5  -2 5261.77  525.42
  -4  -5   2 5199.08  365.70
   0   5 -14 3879.38  272.09
   3 -10   2 1540.10  149.42
   0  -5  14 4458.02  519.34
   0  -5  14 3912.37  242.20
   0   5 -14 3943.91  322.80
  -3  10  -2 1461.48  177.80
  -3   2  12  101.99   87.05
  -3  10  -2 1254.78  116.63
  -3   2  12   11.74   66.20
   3 -10   2 1325.50  152.91
   2   2  12 3865.58  193.15
  -3  -4  11    5.76   62.23
  -2  11  -3  754.62  124.17
   2   2  12 3907.79  231.04
   2  -9   9 3270.79  253.54
  -2  -2 -12 4040.07  376.54
   3   4 -11   38.73   87.87
  -3  -4  11   45.02   96.12
   2 -11   3  718.48  112.72
  -2  11  -3  712.52  139.97
   2 -11   3  569.31  175.10
  -2  -2 -12 3720.26  446.47
  -2   9  -9 2372.37  227.76
   3   4 -11   10.38   75.44
  -2   9  -9 3647.96  349.34
   2  -9   9 2647.36  288.17
  -3   2 -11   -4.36   83.06
  -3   2 -11   21.57   49.67
  -2   3 -13  512.51  128.28
  -2   3 -13  368.25   66.71
   3   4   8 1919.46  196.29
  -3  -4  -8 2033.17  169.17
  -3  -4  -8 2354.08  338.85
   3   4   8 2271.76  221.67
  -2   1 -13 1388.16  119.19
   2  -6  12  295.27  101.70
   4   5  -1  403.97  102.44
  -2   6 -12  515.82  136.90
   2  -6  12  340.61   33.78
   4   5  -1  418.54   96.96
  -2   6 -12  328.73   37.18
  -4  -5   1  444.84  266.00
  -4  -5   1  510.79   96.48
  -3   3 -11 2983.45  367.40
  -4  -5   3  801.85  183.63
  -4  -5   3  915.17  133.94
   4   5  -3  770.85  129.68
  -3   3 -11 1769.91  206.06
   4   5  -3  875.86  143.27
  -4   8   0  102.82   40.85
  -4   8   0   63.07   43.30
  -4   8   0   69.68   33.46
  -4   8   0   60.08   36.87
   3   7  -7  557.75  229.51
   3   7  -7  427.46  207.76
  -3  -7   7  484.83  270.64
  -3  -7   7  435.20  128.84
  -1   4 -14  453.23  178.85
  -1   4 -14  282.56   39.93
   1  -4  14  305.08   92.53
   1  -4  14  381.81   63.83
  -4   6  -6   23.65   39.47
  -4   6  -6   14.59   48.50
   3   7   3  115.18   55.38
   3   7   3  131.35   87.47
   1   9   6   71.57   74.26
   1   9   6   86.24   35.06
  -3  -7  -3  109.84   81.38
  -1  -9  -6   90.52  104.44
  -3  -7  -3  129.69  100.65
  -1  -9  -6   85.56   66.28
  -4   8  -1  335.01  106.15
  -4   8  -1  245.68   49.04
  -4   8  -1  210.80   78.22
  -4   8  -1  275.83   63.63
  -3  -3  -9 2667.59  149.82
   3   3   9 1830.05  161.63
   3   3   9 1984.97  113.72
  -3  -3  -9 2479.49  471.85
   3 -10  -1   47.10   57.64
   0  11   2 4340.07  440.60
  -3  10   1   38.66   44.03
   3  -8   8   97.99   27.00
  -3   8  -8  121.48   46.63
  -3  -6   9   41.89   53.61
   3   6  -9    7.68   72.18
  -3  10   1   12.47   17.31
   2 -10  -5   28.88   39.93
   0 -11  -2 2318.33  301.17
  -3   8  -8   -7.85   55.00
  -3  10   1   48.45   93.71
  -3  -6   9   13.73   53.80
  -3   8  -8  118.81   78.55
   2 -10  -5   -0.77    9.23
   3   6  -9  -10.98   65.91
  -2  10   5   -5.62   70.16
   0  11   2 2744.14  343.26
  -2  10   5   17.80   17.84
   0 -11  -2 2403.44  285.99
  -3   8   7    8.41   36.38
  -3   8   7  -12.15   45.85
  -2  11   1 9254.66  678.91
  -2  -1  14 1779.11  150.26
  -2   5  12  768.51  114.74
  -2  11   1 7392.78  678.94
   2   1 -14 1512.00  170.85
  -2   5  12  893.49  174.80
  -2  -1  14 2192.95  324.15
   2   1 -14 1870.80  201.18
   2 -11  -1 8117.99  611.29
   2 -11  -1 6317.65  457.51
  -4   8   1 2843.66  190.13
  -4   8   1 3214.13  229.54
  -4   8   1 3457.59  301.85
  -1  11  -6  231.57  138.55
  -1  11  -6   16.27  120.24
   1 -11   6  147.58   59.79
   1 -11   6  229.90  114.11
  -3   1 -11  364.86  115.21
  -3   1 -11  510.66  186.21
  -2   0  14 2912.24  254.42
   2   0 -14 2664.95  377.07
  -3   9   5 1613.12  242.87
  -2   0  14 3294.24  294.65
   2   0 -14 2639.52  181.53
  -3   9   5 1314.61  149.59
   4   4   3  436.23  153.05
  -4  -4  -3  668.90  194.58
  -4  -4  -3  514.68   62.56
   4   4   3  534.89  114.43
  -1  -3 -13 1496.17  158.63
   1   3  13 1621.44  144.65
   1   3  13 1538.85  161.63
  -1  -3 -13 1660.85  139.87
  -3   6 -10 3606.64  364.66
  -3   6 -10 5669.30  644.17
   3 -10   3 1441.53  168.56
  -3  10  -3 1389.90  156.37
  -3  10  -3 1385.21  134.62
   3 -10   3 1454.10  142.38
  -4   5  -7  294.06   99.72
  -4   5  -7  360.96  156.19
   4   5   0 1953.69  182.35
   1 -11  -3  371.27   74.63
   1  -9  -8  623.53   62.54
  -4  -5   0 2578.67  210.27
   4   5   0 2028.83  261.44
   1   8   8   18.47   56.19
   1  -9  -8  756.03  159.28
  -1   9   8  567.48  172.33
  -1  -8  -8   10.48   39.10
  -1   9   8  583.91   57.84
  -1  -8  -8   12.56   63.39
   1   8   8   -4.65   16.64
  -1  11   3  453.01   85.25
  -1  11   3  252.01  244.50
   1 -11  -3  280.90  110.11
  -4  -5   0 2240.17  323.38
  -1  10   6   48.36   30.96
   1 -10  -6   46.00   34.00
   1 -10  -6   48.72   58.59
  -1  10   6   43.97   82.96
  -4  -3   8 2994.27  327.14
  -2  -9   7  144.94   87.27
  -4  -3   8 2926.57  319.70
  -2  -9   7   98.00  129.89
   2   9  -7  199.39  145.17
   2   9  -7  135.40  131.85
   4   3  -8 2022.18  240.97
   4   3  -8 2827.68  228.74
  -4   3   9  552.18  173.63
  -4   3   9  522.31  122.23
  -4  -5   4  927.86  297.63
  -4   8  -2  380.75   54.27
  -4  -5   4  705.13  175.47
  -4   8  -2  468.69   89.98
  -3  -5  -7 3878.45  436.50
  -3  -5  -7 3873.87  264.01
  -4   8  -2  466.32   81.65
   3   5   7 3703.53  314.72
   3   5   7 3381.25  244.52
   4   5  -4  746.96  122.93
   4   5  -4  637.63  138.18
  -4   8  -2  260.19   96.75
   0 -11   6 2083.13  244.92
   0 -11   6 1917.31  279.97
   0  11  -6 1853.96  220.93
   0  11  -6 1556.64  208.02
  -2  11  -4  335.29  110.28
   2 -11   4  284.46  143.70
   2 -11   4  302.21  127.28
  -2  11  -4  255.56   76.96
   3   8  -2   21.93   53.45
  -2   4 -13  284.57  112.51
  -2   4 -13  501.40  130.87
  -2   8   9 1440.55  344.68
   3   8  -2  -35.58   94.65
  -3  -8   2    2.07   68.51
  -2   8   9 1166.83  140.14
  -3  -8   2   63.62   83.30
  -3   4 -11  737.09  166.46
  -3   4 -11  578.29  150.11
  -4   7  -5  358.71   41.30
  -4   7  -5  316.85   48.32
  -4   7  -5  250.52   52.76
  -4   7  -5  290.36  165.99
  -2  -9  -3  167.84  166.46
   2   9   3  168.83   65.81
  -2  -9  -3  177.53  132.21
   2   9   3  102.97   74.51
   0   8 -12  516.97  281.06
   0   8 -12  454.06   96.95
   0  -8  12  253.46   76.69
   2   2 -14  265.59   87.57
   2   2 -14  291.92  190.25
   0  -8  12  381.83  107.70
  -2  -2  14  283.75   94.63
  -2  -2  14  262.57  104.51
   4   2   6    2.99    9.96
   0 -10   9 1454.56  136.13
   0  10  -9 1681.43  215.09
  -4  -2  -6   51.20  108.77
  -4  -2  -6  -10.15   18.19
   0 -10   9  967.08  138.92
   0  10  -9 1616.13  206.30
   4   2   6    9.08   37.08
   3   8  -3 8326.26  686.40
   3   8  -3 6604.90  817.20
  -3  -8   3 6553.62  657.56
  -3  -8   3 6352.34  643.43
  -2  -6  12  434.93  187.12
   1   1  14  806.36   97.98
  -4   8   2   -2.07   17.90
  -4   8   2   29.42   34.91
  -4   8   2  -17.01   25.65
   2   6 -12  304.94  172.53
   2   6 -12  282.19   93.92
   1   1  14  785.58   79.64
  -1  -1 -14  446.08   85.75
  -2  -6  12  341.22  127.88
  -4   8   2   13.81   49.31
  -1  -1 -14  554.62   93.24
  -2   0 -13  119.85   74.09
  -2   0 -13  176.15   65.99
  -2  -5 -10 2682.79  211.80
  -2  -5 -10 2656.37  494.56
   2   5  10 1662.83  127.61
   2   5  10 1753.98  137.70
  -4   7   5 1344.37  201.86
  -4   7   5 1100.57  129.33
   3   8  -1  656.12  231.59
  -3  -8   1  474.40  177.57
   3   8  -1  754.76  167.95
  -3  -8   1  668.24  129.20
  -2   1  14 1042.84  199.00
   2  -1 -14  522.88   62.83
  -2   1  14  905.13  137.11
   2  -1 -14  703.61   78.77
   0   7 -13  205.70   70.07
   0   1 -15   36.89   38.01
   0   7 -13  226.16  115.71
   0  -7  13  222.37  100.79
   0   1 -15   -8.52   31.72
   0  -7  13  200.69   45.05
   0  -1  15   12.52   33.83
   0  -1  15   12.79   29.28
  -3  10   2  842.54   74.47
  -3  10   2  948.35  180.30
   0   2 -15 1413.44  186.85
   0  -2  15   18.85   95.85
   0  -2  15 1117.17   83.12
  -3  10   2  705.14  105.13
   1 -10   9  577.21  114.84
  -1  10  -9  970.66  272.35
   1 -10   9  693.32  234.00
  -1  10  -9  977.99  331.29
  -4  -2   9   69.11   70.52
  -4  -2   9   53.13   71.09
   4   2  -9   74.22  166.21
   4   2  -9   50.37   65.29
  -2  -7  11 2015.05  282.82
   2   7 -11 1350.23  292.66
   4   4  -7   39.71   50.01
   4   4  -7   20.73   96.02
  -2  -7  11 1529.06  262.54
  -4  -4   7   43.91  118.87
   2   7 -11 1260.53  201.02
  -4  -4   7   51.59   97.44
  -4  -3  -5 3701.65  217.07
   4   3   5 3785.73  232.83
  -4  -3  -5 4788.89  523.69
   4   3   5 4303.72  356.14
  -4   2  -8  307.90   87.93
  -4   2  -8  222.41  141.79
  -3  -2 -10  900.38  137.46
  -3  -2 -10  719.26  155.75
   2 -11  -2  789.35   83.40
  -4   3  -8  842.78  252.67
  -1   3  14   36.68   63.42
  -2  11   2  737.57  160.75
   1  -3 -14   20.94   22.69
   2 -11  -2  799.27  126.59
   1  -3 -14   48.47   31.23
  -1   3  14   24.39   89.75
  -2  11   2 1063.58  105.67
  -4   3  -8 1081.08  246.98
  -1  -5  14 2325.38  247.07
   1   5 -14 2866.45  393.71
   1   5 -14 1917.02  187.08
   1   9 -10  607.81  153.14
  -1  -5  14 2243.16  251.00
  -1  -9  10  601.25  179.37
   1   9 -10  651.94  154.06
  -1  -9  10  619.61  191.06
  -3  -3  12   81.90  116.46
   3   3 -12   36.76   55.15
   3   3 -12   24.57   72.28
  -3  -3  12   25.22   92.36
  -2  -4 -11  942.98  118.04
   2   4  11  704.81   53.50
   2   4  11  813.58  116.04
   3   8  -4 4165.50  496.41
  -3  -8   4 3649.22  632.25
  -3  -8   4 3676.85  340.34
   3   8  -4 5061.64  504.16
  -2  -4 -11  963.01  175.01
  -3   3  12 1538.22  256.27
  -3   3  12 1633.67  197.37
   3 -10   4 2061.57  228.58
  -4   8  -3 2745.24  226.72
  -3  10  -4 1879.26  257.37
   3 -10   4 1771.99  201.35
  -4   8  -3 2154.87  186.11
  -4   8  -3 2241.45  217.77
  -3  10  -4 1742.92  234.62
  -4   8  -3 1837.09  191.33
  -4  -5  -1  236.47  142.34
  -4  -5  -1  239.21   60.66
   4   5   1  226.94   81.15
  -3   0 -11  751.61  187.01
  -3   0 -11  510.07  205.65
   4   5   1  236.61   66.41
  -2  -6  -9  864.45  169.80
  -2  -6  -9  694.19  116.15
   2   6   9  902.48  174.12
   2   6   9  608.60   85.05
  -4  -1  -7 4132.60  325.21
  -4  -1  -7 5007.10  509.58
  -1  -1  15  132.06  100.07
   1   1 -15   89.21   53.75
   1   1 -15   71.43   48.79
  -1  -1  15  132.38   71.80
  -1   7  11 1964.91  239.06
  -1   6  12   -5.09   40.96
  -1   7  11 2435.60  277.68
  -1   6  12    9.11   28.65
   4   5  -5 1270.49  293.69
  -4  -5   5 1198.44  206.09
  -4  -5   5 2158.81  272.46
   4   5  -5 1433.76  245.78
   1  10   4   64.20   75.62
  -1 -10  -4   70.98   66.16
  -1 -10  -4   55.55   43.67
   1  10   4   55.70   63.16
  -3  -8   0 1416.49  383.30
  -3  -8   0 1393.71  152.16
   3   8   0 1442.85  200.99
   3   8   0 1563.74  186.27
  -3   6  10 4076.52  334.60
  -3   6  10 4644.38  464.28
   0   0 -15  435.88  128.54
   0   0 -15  354.21  133.34
   0   0  15  424.58   82.47
   0   0  15  347.60   52.14
  -1 -11   2  222.41   82.19
   1  11  -2  240.12  128.96
  -1 -11   2  203.86   93.62
   1  11  -2  273.10  192.17
   0  -3  15 3142.63  277.78
  -4   5   8  117.66   92.98
  -1 -10   8  477.53  293.35
   0   3 -15 2636.48  255.46
   1  10  -8  505.22  142.97
  -1 -10   8  527.69  208.26
   0  -3  15 2687.20  275.98
   0   3 -15 2038.29  171.80
   1  10  -8  502.97  251.14
  -4   5   8    0.48   77.68
   0  -9  11  954.16  138.50
   0   9 -11 1791.62  379.59
  -4   1  -8  857.04  280.88
  -4   1  -8 1196.10  190.52
  -1  -2  15 6682.82  534.78
   0   9 -11 1612.54  204.24
   1   2 -15 6231.62  439.34
   0  -9  11 1476.51  133.22
  -1  -2  15 6216.05  453.71
   1   2 -15 3951.58  309.50
   0  -3 -14  282.82   80.80
   0   3  14  266.05   57.44
   0  -3 -14  237.38   31.75
   0   3  14  385.91   84.92
   1  -5  14 2064.48  157.86
   1  -5  14 2007.82  254.64
  -1   5 -14 2783.85  335.68
  -1   5 -14 2340.64  219.54
   3  -9   7   96.87  113.28
  -3   9  -7  114.06   35.02
  -3   9  -7  254.66   99.75
   3  -9   7  172.58   62.94
   0 -11  -3  159.40   82.86
   0  11   3   98.64   57.08
   0  11   3  130.84  154.74
   0 -11  -3   89.30   52.39
  -2  -5  13 1347.19  160.99
   2   5 -13 1278.76  156.66
  -1 -11   3  424.59  132.45
   2   5 -13 1251.62  266.37
   1  11  -3  573.21  141.37
  -1 -11   3  315.06  161.68
   0  -9  -8  970.49  154.54
   0   9   8  837.17   62.39
   1  11  -3   31.68  199.88
   0   9   8  802.67  141.19
   0  -9  -8  824.29  198.33
  -2  -5  13 1652.95  320.96
  -2  11  -5  341.60   94.93
  -2   4  13   93.01   58.55
   2 -11   5  301.46   73.26
  -1   8 -12  932.55   98.36
   2 -11   5  269.27   96.48
   1  -8  12  836.24   69.71
  -1   8 -12  848.26  149.82
   1  -8  12  891.59  178.94
  -2   4  13   77.06  129.92
  -2  11  -5  331.69  197.02
  -1   0  15  168.66   53.51
   1   0 -15  132.06   64.12
  -1   0  15  216.60  144.72
   1   0 -15  122.07   34.38
   0 -10  -6  902.93  184.42
   0  10   6  677.00  244.93
   0 -10  -6  880.29  258.64
   0  10   6  765.61  109.23
   1  11  -1  649.21  218.13
  -1 -11   1  364.09  163.89
  -1 -11   1  367.87  145.84
  -2  -8  -6  999.92  210.66
  -2  -8  -6 1015.78  170.32
   2   8   6  885.63  114.48
   2   8   6 1236.95  204.91
   1  11  -1  373.59  123.96
  -5   2   1 5494.36  449.60
  -4   8   3 3712.31  207.78
  -4   8   3 4287.38  373.88
  -5   2   1 5652.01  497.65
   5  -2  -1 1830.53  128.43
  -4   8   3 3877.53  268.03
  -5   2   1 4067.58  355.12
  -4   6   7  169.48   61.98
  -4   6   7    0.20   87.84
  -3   7   9   12.51   51.86
  -3   7   9   -6.83   55.40
  -4   4  -8 1504.73  259.23
  -4   4  -8 1213.18  285.31
  -2  -3  14 1425.79  152.88
   2   3 -14 1197.18  121.05
   2   3 -14 1750.44  394.74
  -2  10  -8  168.27   55.30
   2 -10   8  111.41   27.85
   2 -10   8  186.76   86.23
  -2  10  -8  158.66   76.73
  -2  -3  14  785.83   82.24
  -4   1  1013164.32 1069.71
   3   7  -8  199.00  110.85
  -3  -7   8  226.66  163.56
   3   7  -8  237.29  110.69
   4  -1 -1011355.95 1131.30
   4  -1 -1010857.85  729.69
  -4   1  1018990.74 1411.01
  -3  -7   8  166.57  144.91
  -5   2   2  -21.27   30.77
  -5   2   2   22.72   44.51
   5  -2  -2   -6.32   25.76
   5  -2  -2   -8.77   17.78
   1 -11   7 1864.34  262.79
  -4   0  10    9.49   28.74
  -1  11  -7 3663.98  351.44
   4   0 -10   28.05   70.11
   4   0 -10   18.50   30.72
  -1  11  -7 2535.03  246.89
   1 -11   7 2473.01  179.49
  -3  -6  -6  585.33  119.81
   3   6   6  524.93   89.49
  -5   2   0 3642.94  277.81
  -5   2   0 3636.00  310.05
  -3  -6  -6  738.92  193.21
   3   6   6  687.88  104.15
  -3  -7  -4 3723.04  256.76
  -5   2   0 4185.89  595.27
  -3  -7  -4 4611.81  649.57
   3   7   4 4316.15  339.95
   3   7   4 4649.48  501.04
   5  -1  -1  787.40   94.11
  -5   1   1 1326.37  150.36
  -5   1   1  998.94  194.28
   5  -1  -1  705.32  138.53
  -1  -6 -11 2108.91  219.25
  -3   5  11  288.46  144.33
  -3   5 -11  590.96  143.80
  -1  -6 -11 1535.31  151.80
  -3   5 -11  363.20  122.73
   1   6  11 1528.19  216.08
  -3   5  11  311.02  219.46
   1   6  11 1558.59  154.17
  -3  -8   5  243.15  156.59
   3   8  -5  396.23  260.64
   3   8  -5  343.60  229.15
  -3  -8   5  280.87  165.18
  -5   1   2  161.80   92.58
   5  -1  -2   84.63   64.44
  -5   1   2  150.28   95.78
   5  -1  -2   62.72   60.64
  -3  10   3  489.10  142.19
  -3  10   3  484.60   65.19
  -3  10   3  454.33   67.13
  -2   5 -13 1081.96  169.11
  -2   5 -13  626.65  120.67
  -3  10   3    0.45  185.04
  -4  -4  -4   30.95  137.58
   4   4   4   19.80   46.00
  -4  -4  -4   16.68   50.35
   4   4   4   41.47   67.18
  -5   3   1 1647.60  350.32
   1  11  -4 1427.55  255.38
  -5   3   1 1413.87  138.90
  -5   3   1 1429.91  231.07
  -1 -11   4 1176.76  272.94
   1  11  -4  740.20  167.09
  -5   3   1 1835.08  168.58
  -1 -11   4  581.27  129.45
   2  -8  11   16.93   30.28
  -2   2  14  369.86  148.54
  -4   4   9    0.91  127.05
  -4   4   9   42.59   54.40
   2  -8  11   51.45   73.26
  -2   8 -11   34.63   34.32
  -2   8 -11   -7.46   83.71
  -2   2  14  304.42  121.40
   0 -11   7   18.27  116.72
  -1   5  13 2371.49  222.14
   0  11  -7   20.51  103.04
   0  11  -7   30.15   69.99
   0 -11   7   23.27   54.44
  -1   5  13 5412.97  517.89
  -1   8  10 1061.47  248.15
  -1   8  10 1406.36  152.04
  -2 -10   2 5293.96  458.70
   0  -6  14  552.62  201.53
   0  -6  14  397.48  107.77
  -1  11   4 2658.73  355.58
  -1  11   4 3455.08  242.48
   1 -11  -4 2807.48  223.64
  -1   9 -11 1212.80  207.66
   1 -11  -4 2947.35  306.28
   1  -9  11 1136.50  107.87
  -1   9 -11  929.42  147.78
   2  10  -2 6839.83  791.45
   0   6 -14  243.84   81.72
  -2 -10   2 5464.13  817.77
   1  -9  11 1002.94  192.09
   0   6 -14  296.31   98.43
   2  10  -2 5237.33  549.66
   1  -7  13 3680.83  261.28
  -5   1   0 1262.16  234.92
   5  -1   0  784.01  134.63
   1  -7  13 3070.20  331.33
  -5   1   0 1443.55  132.61
  -1   7 -13 3324.58  218.62
   5  -1   0  973.48   98.07
  -1   7 -13 2791.99  252.80
   2   8 -10 5695.51  692.45
  -2  -8  10 6412.50  687.39
   2   8 -10 7160.36  597.41
  -2  -8  10 8615.11  850.12
  -5   3   0 1302.72  329.11
   0  -6 -12  108.54   47.85
   0   6  12  124.59   99.11
   1   5  12  345.98  130.56
  -1  -5 -12  390.32  110.52
  -5   3   0 1248.65  169.88
   1   5  12  293.31   96.52
  -5   3   0 1099.36  187.09
   0  -6 -12  105.43   49.97
   0   6  12  134.69  100.10
  -1  -5 -12  388.45  116.25
  -2 -10   3 2876.60  387.63
  -2 -10   3 2311.26  235.61
   2  10  -3 3386.67  391.01
   2  10  -3 3182.20  667.22
  -1 -11   0  564.12  100.32
   1  11   0  925.02  167.09
   1  11   0  487.32  242.32
  -4   6  -7   64.20   53.52
  -1 -11   0  512.73  114.46
  -4   6  -7   62.30   39.42
  -5   3   2 6486.96  509.28
  -2  -1 -13  728.48  106.22
  -2  -9   8 1066.97  260.70
  -5   3   2 7358.87  719.20
  -2  -9   8 1531.97  294.63
  -5   3   2 6938.81  481.93
  -5   3   2 6653.73  448.01
   2   9  -8 1796.91  401.84
  -2  -1 -13  514.07   95.34
   2   9  -8 2025.92  501.72
   1   3 -15  354.67  104.44
   5  -2  -3 1412.44  135.38
   0   7  11 1500.91  207.24
  -3   9   616785.44 1386.59
  -1  -3  15  318.89  127.14
   0   7  11 1188.20  122.66
  -1  -3  15  369.70  125.36
   1   3 -15  290.94  145.91
  -5   2   3 2427.14  373.84
   0  -7 -11 1605.89  122.14
   0  -7 -11 1164.73  164.59
   5  -2  -3 1288.81   91.69
  -3   9   612820.33  920.42
  -5   2   3 2598.51  253.06
  -4   8  -4  227.81   84.19
  -4   8  -4  359.59   97.16
   2   3  12  350.62   50.17
  -4   8  -4  226.14   85.23
   3   8   1 2945.74  276.83
   2   3  12  591.97   88.11
  -2  -3 -12  349.33  103.50
  -4   2  10   63.08   69.70
  -3  -8  -1 3478.44  306.81
  -4   8  -4  252.95  139.49
  -3  -8  -1 2740.00  344.66
   4  -2 -10   74.19   67.81
   3   8   1 3958.21  563.47
  -2  -3 -12  407.51  118.20
   2 -10  -6  483.01  147.97
  -2  10   6    3.10   71.33
  -2 -10   1  201.55  150.54
   2  10  -1   97.95  153.60
  -2   9   8   86.88   59.01
  -2 -10   1  228.81  109.68
   2  10  -1  267.49  127.10
  -2   9   8   40.33   64.52
  -4  -5  -2   58.05  143.55
  -5   2  -1 9887.67 1120.97
  -5   2  -1 8344.58  652.19
  -2  11   3 1348.63  158.57
   4   5   2    3.33   27.80
  -2  11   3  838.39  174.85
  -4  -5  -2  -13.43   47.55
  -5   2  -110124.62  726.37
   4   5   2   25.99   64.33
   2 -11  -3  907.49  117.80
   2 -11  -3  907.15  217.55
   3   5 -11 2163.39  392.87
   5  -1  -3  374.73  113.28
  -3  -5  11 2275.19  240.49
   3   5 -11 3009.14  397.31
  -3  -5  11 3123.19  356.34
  -5   1   3  937.47  186.94
  -5   1   3  565.26  166.25
   5  -1  -3  630.95  118.75
   3 -10   5  219.10   68.09
  -4  -1  10  364.96  112.67
   3 -10   5  235.59   85.82
   4   1 -10  220.58   97.52
  -4  -1  10  213.22   72.87
  -3  10  -5  194.59   55.25
   4   1 -10  225.11   43.51
  -3  10  -5  220.10   58.26
  -2  -7  -8  335.63  158.41
  -1  -7 -10 1986.58  255.12
   1   7  10 1495.37  262.31
   2   7   8  322.16   81.98
  -2  -7  -8  291.23   64.66
  -1  -7 -10 1655.05  286.43
   1   7  10 1432.07  168.50
   2   7   8  275.76   83.41
  -4   7  -6 1091.54  103.00
  -4   7  -6 1616.31  193.73
   4   5  -6  316.28  110.42
  -4  -5   6  327.04   90.95
  -4  -5   6  320.24  133.50
   4   5  -6  307.32  101.86
  -2   7 -12 2077.22  314.83
   2  -7  12 1548.11  234.62
   2  -7  12 1543.64  107.03
  -3   0  13   82.30  112.78
  -1   1  15  554.65   99.67
   3   0 -13   67.67   85.13
  -3   0  13   37.88   24.28
  -1   1  15  626.29  143.69
   1  -1 -15  503.33   69.67
   1  -1 -15  496.61   83.18
   3   0 -13   36.49   45.74
  -2  -9  -4 1245.49  222.33
  -2  -9  -4 1125.43  185.06
   2   9   4  872.15  143.17
   2   9   4 1021.71  121.18
  -4   0  -8   17.55   57.11
  -4   0  -8   60.32  106.98
   0  -1 -15 1708.88  205.95
   0   1  15 1629.46  171.85
   0  -1 -15 1087.54  178.25
   2  10  -4 3340.00  380.52
  -2 -10   4 2460.31  339.52
   2  10  -4 3378.31  463.01
  -2 -10   4 2045.29  252.52
  -1  -2 -14  827.79  150.55
  -1  -2 -14  606.82   57.89
   1   2  14 1118.37  113.47
   0   4 -15 5000.42  382.16
   0  -4  15 3653.08  287.32
   0  -4  15 4901.25  453.75
   1   2  14  790.37   71.38
   0   4 -15 3546.80  405.93
  -5   3  -1  327.81  100.01
  -2   9 -10 1040.85  138.01
  -5   0   1  282.47   54.15
   2  -9  10 1127.27  188.94
  -5   3  -1  343.05   88.03
  -5   0   1  261.88  126.62
   5   0  -1  312.95   75.42
  -5   3  -1  363.72  121.83
   5   0  -1  309.93   81.54
  -2   9 -10 1292.46  120.84
   2  -9  10 1358.97  103.93
  -5   3  -1  421.84   94.33
  -5   0   2  373.09   84.76
  -5   0   2  429.39  162.63
  -3  -6  10   -3.20   39.60
   3   6 -10   71.58   85.13
   3   6 -10   89.89   77.89
   5   0  -2  221.05   82.58
  -3  -6  10   35.69   45.43
   5   0  -2  304.37  108.38
   5  -1   1 3838.23  272.27
  -4   7   6   65.99  136.03
   5  -1   1 3604.48  245.79
  -4   7   6   71.15   52.16
  -5   1  -1 5097.62  361.99
  -5   1  -1 6532.35  848.85
  -4  -3   9  406.14  224.93
  -3  -1  13  167.01   93.20
  -4  -3   9  166.13  108.47
   4   3  -9  252.81  105.96
  -3  -1  13   63.58   21.29
   4   3  -9   31.99  139.39
   3   1 -13  123.89  103.30
   3   1 -13  108.96   70.04
  -3   7 -10 3051.65  298.99
  -3   7 -10 1621.42  300.30
  -5   3   3   11.30   41.20
  -5   3   3   -6.27   76.73
  -5   3   3   37.46   47.82
  -5   3   3   25.91   27.52
   1   7 -13  914.90  142.59
  -1  -7  13  603.70  100.00
  -1  -9  -7 4382.51  351.02
  -3  -1 -11  -13.67   44.45
  -1  -7  13 1519.79  265.50
   1   9   7 3938.66  500.65
   1   9   7 4142.18  337.92
  -3   8  -9  307.96  103.53
  -3   8  -9  132.67   73.31
  -1  -9  -7 3957.73  329.68
   1   7 -13  903.87  149.05
  -3  -1 -11    7.08   59.27
  -3   8   8   -8.47   43.51
  -3   8   8    2.98   27.44
  -1 -11   5 1731.72  326.04
  -1 -11   5 1575.12  222.91
   1  11  -5 1577.90  224.09
   1  11  -5 1406.76  263.97
   0  -5 -13  551.73  133.95
   0   5  13  459.60  107.50
   0  -5 -13  506.38   85.89
   0   5  13  406.60  123.53
   4   4  -8  472.53  153.84
   4   4  -8  288.49  109.22
   3  -1 -13   42.34   95.23
  -4  -4   8  279.20  191.24
  -4  -4   8  252.03   86.14
  -3   1  13   34.47   98.91
  -1  -8  12  -19.91   32.16
   1   8 -12  -40.93   95.75
  -1  -8  12   -1.27   30.21
   1   8 -12    0.70   81.59
  -4   8   4   -0.81  106.77
  -4   8   4   71.07   74.59
  -2 -10   0 1752.94  265.88
   2  10   0 2232.62  248.70
   2  10   0 1464.67  213.15
  -2 -10   0 1547.42  253.44
  -5   0   0   -0.04   47.84
   5   0   0    4.49   58.90
   5   0   0   10.82   32.63
  -5   0   0    2.09   21.27
  -5   4   1  446.28   89.84
  -5   4   1  425.60   64.50
  -5   4   1  442.38   66.50
  -5   4   1  608.71  206.90
  -4   5  -8  321.80  159.71
  -4   5  -8  256.60   54.72
  -2  11  -6  172.04  161.62
   2 -11   6   88.94   76.68
  -2  11  -6  112.51   93.72
   2 -11   6  116.26   50.51
  -5   0   3 1159.12  196.43
  -5   0   3 1667.14  196.91
   5   0  -3 1151.01  162.75
   5   0  -3 1126.38  119.07
  -3  -8   6 3025.64  402.46
   3   8  -6 3505.77  381.50
  -1  10   7  850.33  193.55
  -1  10   7  775.78   52.87
  -5   4   0 3311.91  228.50
  -5   4   0 3153.76  413.29
  -5   4   0 2699.99  203.94
   3   8  -6 2582.05  344.07
  -3  -8   6 2638.48  276.10
   1 -10  -7 1034.56  100.58
  -5   4   0 2774.15  279.02
   1  11   1  505.15  220.62
  -1 -11  -1  379.39  114.00
  -1 -11  -1  345.36  140.47
   1  11   1  556.19  144.96
  -3  -4  12  106.58   78.94
   3   4 -12   72.82   68.19
  -5   2   4  668.91  122.56
   5  -2  -4  397.70   67.17
   5  -2  -4  451.54   81.09
   3   4 -12   66.64  119.23
  -5   2   4  832.61  146.85
  -3  -4  12   98.09   93.61
  -1  12  -2  819.92  198.25
   1 -12   2  470.34   77.59
   5  -1  -4  194.08   49.97
   1 -12   2  758.63  142.41
   5  -1  -4  159.12   88.54
  -5   1   4  253.43   81.68
  -1  12  -2  541.25  212.96
  -5   1   4  176.11  146.84
  -3   4  12 1878.86  372.74
  -3   4  12 2399.56  243.40
  -3  -4  -9  131.42  116.90
   3   4   9   49.75   62.64
  -3  -4  -9   76.91   47.07
   3   4   9  102.05   45.77
  -1  -4 -13 2456.57  251.86
   1 -12   1   97.48   72.17
   1   4  13 2690.94  338.44
  -5   4   2 3902.56  325.66
   1 -12   1  106.49   77.04
  -5   4   2 3063.70  204.86
   1   4  13 3328.15  250.41
   0  -8 -10 1229.42  114.21
  -5   4   2 2605.24  293.90
  -5   4   2 2895.69  288.37
   0   8  10 1455.81  201.24
   0  -8 -10 1601.05  194.34
   0   8  10 1111.57   69.17
  -1  12  -1   97.09  123.74
  -1  12  -1   98.22   98.61
  -1  -4 -13 2296.12  179.16
  -5   2  -2  667.38   83.68
  -5   2  -2  543.27   86.58
  -5   2  -2  748.04  116.70
  -5   2  -2  744.72  170.81
   0 -10  10   67.31   85.80
   0 -10  10  150.77   94.32
   0  10 -10  254.81  159.91
   0  10 -10  207.99   97.41
   0  11   4  151.56   57.40
   0 -11  -4   89.23   78.73
   0  11   4   90.76   99.95
   0 -11  -4  104.99   80.64
   4   3   6 1172.95  116.43
   4   2   7  687.04  101.47
   2  10  -5  659.31  174.05
  -4  -2  -7  948.90  230.38
   4   3   6 1341.75  274.89
   2  10  -5  859.41  307.72
  -2 -10   5  776.24  156.91
  -4  -3  -6 1332.65  115.16
  -4  -3  -6 1512.70  453.54
  -2 -10   5  556.94  252.38
  -1  12  -3  449.64  140.36
  -1  12  -3  498.96  186.10
   1 -12   3  299.54   66.99
   1 -12   3  286.47   94.02
  -2   7  11   14.64   43.40
  -2   7  11   24.72   40.50
   2   4 -14 1623.69  155.73
  -1   2 -15  890.33  158.74
  -2  -4  14 1022.34  149.50
  -4   3  10    0.68   67.76
  -1   2 -15 1167.85  154.44
  -2  -4  14 2070.98  310.15
   2   4 -14 1226.78  171.37
  -4   3  10   13.55   45.41
   1  -2  15 1323.26  124.04
   1  -2  15 1088.99   83.26
  -5   3  -2  659.26  168.79
  -5   3  -2  962.40   94.97
  -5   3  -2  806.79  143.53
  -5   4  -1 2849.66  275.73
  -5   4  -1 2840.00  217.89
  -3  10   4 2488.43  216.48
  -5   4  -1 4102.42  336.49
  -3  10   4 2313.98  261.51
  -5   4  -1 3146.14  319.72
  -1 -10  -5  332.76   99.95
   1  10   5  234.83   57.21
  -1 -10  -5  188.19  130.01
   1  10   5  203.27   88.64
  -3  -2  13   64.45   71.70
   3   2 -13   21.03   57.97
  -2   6  12  747.95  182.50
  -2   6  12  906.49  289.99
  -3  -2  13   39.58   39.47
   3   2 -13   39.14   57.99
   3   5   8   -2.95   20.04
  -3  -5  -8   56.20  115.93
  -3  -5  -8    8.55   19.97
   3   5   8    2.96   32.10
  -3  -8  -2 1971.32  469.53
   3   8   2 1602.84  174.84
  -3  -8  -2 2327.36  249.41
   3   8   2 2372.77  288.97
  -5   0  -1  154.04  175.48
  -5   0  -1   83.94   31.43
   5   0   1   63.89   39.50
   5   0   1   47.60   47.21
  -4  -2  10   11.14   48.21
  -4  -2  10    7.93   28.60
  -1  10 -10 2500.78  323.62
  -5   1  -2  116.87   29.27
   4   2 -10   17.51   31.91
  -5   1  -2  198.45  127.69
   5  -1   2   85.89   41.41
  -1  10 -10 2158.66  327.00
   1 -10  10 1606.68  255.35
   1 -10  10 2234.36  186.63
   4   2 -10   77.83   89.15
  -1  12   0 1021.34  249.18
  -1   1 -15   52.94   59.11
  -1   1 -15   63.35   58.14
   1  -1  15   66.82   24.76
   1 -12   0  626.76  206.20
   1 -12   0  734.34  230.37
  -1  12   0  580.44  162.11
   1  -1  15   78.03   30.66
  -5   3   4   70.18   81.30
  -5   3   4   81.66  117.57
  -1   6 -14    3.48   27.17
  -1   6 -14   29.06   56.81
   1  -6  14   38.54   23.53
   1  -6  14   33.80   79.13
  -5   3   4   83.66  118.13
  -5   3   4   65.33   57.16
  -4  -6   2 6348.34  626.51
  -1   4  14 4283.44  304.68
   1   4 -15 1580.42  201.50
   1  10  -9 1546.20  426.03
   4   6  -2 7015.84  531.94
  -4  -6   2 7386.16  535.12
   1  10  -9 1329.63  220.34
  -1  -4  15 1205.57  257.74
  -1   4  14 4938.95  439.90
   4   6  -2 6521.95  669.95
  -1 -10   9 1093.94  142.32
  -1 -10   9 1448.01  263.80
  -1  -4  15 1592.87  169.28
  -1   9   9    1.30   27.12
  -1   9   9   39.96   92.35
  -3  -3 -10  524.56  241.24
  -3  -3 -10  351.95  119.03
   1   6 -14   71.90   59.13
  -1  -6  14   44.01   37.48
  -1  -6  14   28.86   36.33
   1   6 -14   15.61   47.20
  -5   0   4  348.67  185.87
  -5   0   4  262.04   92.97
  -4   8  -5   90.29  137.85
  -4   8  -5   68.38   60.42
  -4   8  -5   64.79   45.55
   5   0  -4  265.88   98.31
   5   0  -4  235.47   96.82
  -4   8  -5   41.87   55.89
  -3   6 -11  157.12  101.95
  -3   6 -11   97.22  143.26
  -1   3 -15   31.64   54.65
   1  -3  15   25.28   26.74
  -1   3 -15    0.37   79.47
   1  -3  15   28.73   31.21
  -1  -8  -9 1303.34  154.15
   1   8   9 1610.91  184.89
  -3   2  13  613.05  191.99
   1   8   9 1103.19  157.53
  -4  -6   3   21.60   63.51
  -1  -8  -9 1191.78  134.07
   4   6  -3    1.00   31.53
  -4  -6   3   -0.63   57.63
  -3   2  13  577.97  130.64
   4   6  -3   -0.16   45.02
  -5   4   3  350.02   81.10
  -3   2 -12   30.23   61.08
  -5   4   3  256.42   46.22
  -5   4   3  351.87  116.20
  -3   2 -12   52.86   60.25
  -5   4   3  186.31   70.57
  -2   3  14   14.89   62.31
  -2   3  14   -3.02   85.60
   1 -11   8  241.67   70.16
  -1  11  -8  533.86  133.85
   3  -9   8 1066.96  171.43
  -1  11  -8  419.02  127.10
  -3   9  -8 2128.30  248.80
  -3   9  -8 1181.78  127.01
   3  -9   8 1634.75  114.04
   1 -11   8  300.72   56.38
   2  10   1   14.86   56.81
  -2 -10  -1   16.67   72.13
   2  10   1   27.25  103.05
  -2 -10  -1   38.85   73.35
  -4  -6   1  297.54   83.36
   4   6  -1  251.12   81.15
   4   6  -1  181.14   78.09
  -4  -6   1  236.58  146.48
  -4   9   0   -1.36   25.71
  -4  -5  -3 3167.12  496.13
  -4  -5  -3 2535.38  206.90
   4   5   3 1968.88  197.44
  -4   9   0    2.86   50.11
   4   5   3 1892.09  222.30
  -4   9   0   -9.76   47.97
  -4   9   0   19.32   29.55
  -3   3 -12  564.78   83.25
  -3   3 -12  640.42  115.49
  -4   9  -1 1463.92  196.26
  -4   9  -1 1979.11  271.28
  -4   9  -1 1568.04  151.31
  -1 -11   6 1374.21  330.14
   1  11  -6 1520.04  306.45
  -1 -11   6 1598.88  490.46
   3   7  -9 1268.84  224.82
  -5  -1   2   17.08   48.83
  -3  -7   9 1066.33  309.00
   3   7  -9 1808.29  368.51
   0  11  -8 2721.94  306.44
   1  11  -6 1361.76  220.58
   5   1  -2   90.84  102.33
  -2   6 -13   30.94   73.22
  -3  -7   9 2220.27  316.86
   0  11  -8 3277.56  405.19
   0 -11   8 2825.61  270.30
  -5  -1   2   -0.49   95.53
   5   1  -2   20.61   50.82
   0 -11   8 2777.73  385.98
   2  -6  13   64.20   68.92
  -5  -1   1    1.18  105.03
  -5  -1   1   -2.33   40.09
   2 -11  -4   -1.08   14.19
  -2  11   4    5.40   58.81
   2 -11  -4  -29.81   43.38
   5   1  -1    9.70   30.23
   5   1  -1  -20.55   63.15
  -2  11   4    6.92   33.66
  -1   2  15   24.85   35.12
   1 -12   4 3185.92  251.55
   1 -12   4 1720.78  165.42
   3 -10   6   36.98   23.90
   3 -10   6    2.92   55.87
  -1  12  -4 4360.16  504.53
  -1   2  15   13.51   50.24
  -1  12  -4 3378.59  305.98
  -3  10  -6    0.43   28.31
  -3  10  -6   27.10   47.71
   1  -2 -15    2.64   15.00
   1  -2 -15    7.24   22.17
   4   5  -7  689.58  205.59
   4   5  -7  507.09  219.57
  -4  -5   7  496.13  104.85
  -4  -5   7  705.33  181.59
  -3  -7  -5 1029.80  122.22
  -3  -7  -5 1025.12  222.28
   3   7   5  785.52  114.68
  -1  -9  11  576.19  182.12
   1   9 -11  519.45  222.81
  -1  -9  11  494.03  172.30
   3   7   5 1010.20  144.21
   1   9 -11  396.36  112.17
   0 -12   2  652.17  147.00
   0  12  -2  812.97  268.80
   0 -12   2  704.65  195.91
   0  12  -2 1000.18  212.66
  -2   8  10  208.85  207.25
  -2   8  10  295.28  114.09
  -4  -4  -5  300.74  165.19
  -4   2  -9 1652.06  198.01
   1 -11  -5 3996.55  291.55
   4   4   5  285.62   96.52
  -4  -4  -5  234.14   64.04
  -4   2  -9 1022.84  261.21
  -1  11   5 4051.56  654.53
   4   4   5  199.49   68.11
   1 -11  -5 3499.10  442.41
  -1  11   5 3954.52  249.26
  -2   2 -14  104.21   96.59
  -4   3  -9  209.90   88.89
  -4   3  -9  190.20  166.76
  -2   2 -14  113.33   70.09
  -4   6   8  379.77  146.30
  -4   6   8  327.30  124.53
  -4   9   1   48.70   83.26
  -4  -1  -8  601.41  200.51
  -4   9   1   38.97   33.33
  -4   9   1    6.46   68.40
  -4   9   1   42.91   39.52
  -4  -1  -8  552.85  168.44
  -5   4  -2 1038.73  162.24
  -5   4  -2 1479.40  104.38
  -5   4  -2 1254.17  107.86
  -5   4  -2 1203.15  192.89
   0 -12   1    8.21  105.68
   0  12  -1   15.66  124.70
   0  12  -3 1666.18  211.28
   0  12  -1   22.69   57.10
   2 -10   9  126.86  138.35
   2 -10   9   83.51   40.85
  -2  10  -9  144.03   76.15
  -2  -7  12  713.82  182.58
   0 -12   1   14.32   48.36
   0 -12   3 1443.11  369.75
  -4   5   9  399.55  101.25
   0 -12   3 1410.46  307.30
  -2  -7  12  954.51  191.77
   0  12  -3 1079.64  189.01
   2   7 -12  593.16  140.39
  -2  10  -9  214.46   81.51
   2   7 -12  670.90  147.97
  -4   5   9  420.97  147.08
  -5   1   5   26.13   61.98
  -5   1   5    0.93   43.53
   4   6  -4 1667.98  179.97
  -4  -6   4 1607.16  166.77
   5  -1  -5    6.42   50.10
   5  -1  -5   15.02   39.16
  -4  -6   4 1410.29  353.57
   4   6  -4 1733.94  323.15
  -5   2   5 1423.86  218.51
   5  -2  -5 1023.95  135.80
  -5   2   5 1708.06  289.16
   5  -2  -5 1323.07  132.65
  -2  -2 -13 1060.04  127.73
  -2  -2 -13  817.21  144.16
   5   1  -3  199.93   45.63
   0   2  15 1178.37  104.59
   0  -2 -15  658.30  121.22
   0  -2 -15 1154.78  112.20
  -5  -1   3  252.26   98.07
   0   2  15 1244.32  146.58
  -5  -1   3   -1.16  171.81
   5   1  -3  225.64  169.30
   0   4  14  473.98   97.23
  -4   9  -2   14.15   25.62
  -4   9  -2   23.66   30.65
  -4   9  -2  -19.40   21.85
   0  -4 -14  495.38   78.52
   0   4  14  564.52  151.57
   0  -4 -14  329.10   54.52
  -4   9  -2    6.36   47.79
   1  11   2 1049.81  255.83
  -1 -11  -2  780.95  139.25
  -3   1 -12 1688.44  185.36
  -1 -11  -2  947.93  184.09
  -3   1 -12 1387.31  310.88
   1  11   2 1026.99  453.60
  -5  -1   0 1496.07  172.09
  -5  -1   0 1811.57  287.07
  -2   3 -14  110.09  111.57
   0   5 -15 1312.27  240.81
   0   5 -15  758.66  123.75
   0  -5  15  819.27  140.69
   5   1   0 1598.18  260.82
  -2   3 -14   35.18   30.09
   0  -5  15  795.59   74.74
   0  10   7 1341.49  343.02
   0 -10  -7 1471.00  230.64
   0  10   7 1244.06   98.74
   1 -12  -1   67.48   68.17
  -1  12   1   54.77  147.95
   1 -12  -1   40.31   51.98
  -1  12   1   64.15   53.66
  -2  -9   9   27.58   61.58
  -2  -9   9   54.75  109.14
   2   9  -9   83.44   95.33
   2   9  -9   80.67   99.80
  -1   0 -15  241.09   40.66
   1   0  15  317.74   78.25
   0   8 -13  -16.37  123.05
   0   8 -13   37.22   45.10
  -2  -6  13   68.16   62.35
   2   6 -13   58.37   87.63
  -4  -6   0 4405.05  706.13
   0  -8  13   32.29   65.78
  -4  -6   0 4132.79  315.73
  -1   0 -15  177.84  113.17
   0  -8  13   33.17   57.71
   1   0  15  519.89   94.29
   4   6   0 3371.24  282.92
   4   6   0 3045.65  339.53
  -2  -6  13   57.98   84.42
   2   6 -13   -9.05   93.11
  -5   2  -3  278.25  133.59
  -5   2  -3  298.45   90.41
  -2   5  13  739.63  107.53
  -2   5  13  993.50  188.59
   2  10  -6  461.79  161.43
  -2 -10   6  439.09  181.43
  -2 -10   6  326.44  131.19
   2  10  -6  408.47  168.26
  -2  -8  -7  958.80  179.67
   2   8   7 1022.40  237.15
  -5   5   1  660.88  114.48
  -5   5   1  626.65   79.32
  -5   5   1  603.70  162.49
  -2  -8  -7 1399.79  150.39
   2   8   7 1080.70  181.09
  -5   5   1  588.02  125.21
  -5   5   010106.57  681.38
  -3  -8   7  154.27   88.99
   3   8  -7  155.04  101.52
  -4   8   5  799.16  150.16
   3   8  -7  173.82  179.54
  -5   5   010057.89  834.80
  -3  -8   7  154.85   75.64
  -5   5   0 9756.71  651.88
  -4   8   5  368.46   92.37
  -5   5   010525.89  834.14
  -2   1 -14  378.28   98.65
  -2   1 -14  314.24   91.33
  -3   4 -12  129.52   94.63
  -3   4 -12   78.95   45.47
  -5   0  -2  290.78  148.40
   5   0   2  114.99   26.74
   5   0   2  138.41   91.00
  -5   0  -2  239.69   46.34
  -5   3  -3  310.75  181.52
  -5   3  -3  505.25  182.46
  -4   7  -7   94.38   76.04
  -4   7  -7   66.52   39.18
  -3  -6  -7  271.48  141.24
   3   6   7  178.47   76.47
   3   6   7  223.07  114.71
  -3  -6  -7  226.78   55.74
  -4   1  -9 1702.76  187.68
  -4   1  -9 1403.72  332.00
   1  -4  15 1382.86  123.06
  -3   9   7    6.65   68.24
  -3   9   7   18.69   61.00
  -1   4 -15 1646.78  258.88
   0 -12   4   47.27   75.91
   0  12  -4   29.78   55.72
   0 -12   4   23.43   38.75
   0  12  -4   45.72  125.65
   0 -12   0    8.39   56.11
  -2  -9  -5  121.79   78.82
   2   9   5   -1.58  203.63
  -4   4  -9  273.28   94.60
   2   9   5  155.07   48.70
   0  12   0    3.50   69.32
  -4   4  -9  178.67  166.09
   0 -12   0   -6.07   42.37
   0  12   0  -25.21   49.72
  -2  -9  -5   87.21   42.72
  -2  11  -7 1162.57  204.40
  -5   4   4  843.06  117.53
  -2  11  -7  911.28  221.87
  -4   6  -8  231.45   74.94
  -5   4   4  534.00   99.47
  -5   4   4  547.83   60.36
   2 -11   7  914.59  162.72
  -5   4   4  423.94   98.52
  -4   6  -8  190.80   52.79
  -5   0   5 4468.68  364.56
   5   0  -5 4362.29  374.29
   5   0  -5 2870.39  184.29
  -2  -1  15   51.29   93.79
   2   1 -15   32.22   48.54
  -2  -1  15    3.78   36.10
   2   1 -15  109.09   94.27
  -5   0   5 4238.53  379.07
  -2  -5 -11   51.45   33.55
  -5   5   2   28.71   39.49
  -3  11  -1 1030.46  196.11
   3 -11   1  731.07  108.89
  -5   5   2   41.02   55.85
  -3  11  -1  691.28  154.59
  -2  -5 -11    4.47  140.62
  -5   5   2   56.65   30.24
  -5   5   2   34.20   45.13
   2   5  11   24.64   36.62
   3 -11   1  855.20  192.09
   2   5  11    8.16   28.75
  -4   9   2  732.81  114.21
  -4   9   2  799.61   61.06
  -4   9   2  991.06  174.17
   0   9 -12 1727.01  184.22
   0  -9  12 1201.39  154.07
   0   9 -12 2519.91  488.25
   0  -9  12 1879.41  152.39
  -5   3   5  364.76  116.39
  -5   1  -3 1030.92  208.96
  -5   3   5  329.13   76.80
  -5   1  -3  845.50  107.15
  -5   3   5  214.79   74.94
  -5   3   5  240.19   58.84
  -5   5  -1  209.37   41.36
  -5   5  -1  220.99   89.09
  -5   5  -1  167.78   73.50
  -5   5  -1  245.31   60.35
  -3  -3  13 5527.95  659.06
  -2  10   7   -3.02   72.86
   3   3 -13 7730.92  769.27
  -2  10   7   69.15   50.70
  -3  -3  13 6003.71  633.71
   3   3 -13 6356.30  760.98
  -2   0  15 3467.72  363.42
  -4   7   7 1249.04  220.27
   2   0 -15 2671.08  265.01
   2   0 -15 2887.15  196.24
  -2   0  15 2472.29  210.14
  -4   7   7 1700.53  363.60
   5   1  -4   44.33   57.20
  -5  -1   4   82.16   68.03
  -1  12  -5  308.15  103.84
  -1  12  -5  248.07   94.71
   5   1  -4   58.29   78.61
   1 -12   5  274.71   75.06
   1 -12   5   64.50   93.17
   0  -9  -9  100.20   69.03
   0  -9  -9   45.20   52.90
  -3  -2 -11  112.84   72.32
  -3  -2 -11   83.04   80.87
   0   9   9   70.75   73.57
   0   9   9  121.57   34.98
  -3  11  -2  139.04   73.04
   3 -11   2  218.40   69.81
   3 -11   2  106.12  108.50
   2   6  10   85.89   40.05
  -3  11  -2  230.21  120.63
   2   6  10   22.53   61.00
  -2  -6 -10  124.52   94.41
  -2  -6 -10  126.85   50.94
   3 -11   0   21.12   31.54
  -3  11   0   19.47   39.93
  -3  11   0    4.99   44.18
   3 -11   0    8.39   48.53
  -4   1  11  830.92  248.60
  -4   0  11  950.45  365.40
   4  -1 -11  429.51  135.80
   4   0 -11  548.55   81.17
  -4   0  11  850.28  167.93
   4   0 -11  403.75  115.01
  -4   9  -3  606.58  194.67
  -4   9  -3  382.58  137.18
  -3   6  11  -19.73   70.81
  -4   9  -3  489.56   74.85
  -4   9  -3  399.67  146.80
  -3   6  11   -7.03   69.03
  -3   7  10  772.50  211.48
   0   7 -14 2954.72  331.80
   0  -7  14 2317.71  272.95
   0   7 -14 2465.61  294.47
   0  -7  14 2119.36  149.05
  -3   7  10 1227.73  362.11
   5   1   1  548.19   99.72
  -5  -1  -1  663.03   79.54
   5   1   1  448.86  105.54
  -5  -1  -1  641.19  202.55
  -2  -8  11  202.62   90.90
  -2  -8  11  236.64  135.57
   2   8 -11  207.66  159.93
   4   6  -5 1366.15  210.47
  -4  -6   5 1504.26  191.14
   2   8 -11  138.69   84.47
  -4  -6   5 1227.86  332.92
   4   6  -5 1786.80  316.87
   1   3  14   79.87   47.34
  -1  -3 -14   76.60   38.07
  -1  -3 -14   35.91   79.52
   1   3  14   14.67   38.48
  -4   4  10    0.71   88.75
  -4   4  10   16.30   47.60
  -2 -10  -2 1528.71  210.41
  -2 -10  -2 1407.70  144.70
  -3  -8  -3 1057.35  123.86
  -3  -8  -3 1175.31  228.61
  -2   4 -14 1550.62  326.20
   3   8   3 1124.01  259.60
   4   4  -9    2.47   30.03
  -4  -4   9   19.13   35.17
   2  10   2 1765.30  177.29
  -2   4 -14 2133.84  246.81
   4   4  -9   -2.31   59.37
   2  10   2 1789.66  252.08
   3   8   3  811.27  100.44
  -4  -4   9   -4.66   42.06
  -2  -2  15   83.79   65.62
   2   2 -15  144.50  149.70
   2   2 -15   94.33   69.27
  -2  -2  15    0.48   59.04
  -3  10   5   14.08   60.04
  -3  10   5   -2.98   68.57
  -3   3  13   52.01   83.99
  -3   3  13   21.47   57.27
  -5   4  -3  159.33  141.22
  -5   4  -3  264.95   80.20
   4   6   1  714.30  111.12
   4   6   1  941.57  210.96
  -4  -6  -1  903.34  239.16
  -4  -6  -1 1098.95  143.78
   2 -12   1 1107.16  137.62
  -2  12  -1 1265.39  131.94
  -2  12  -1 1239.80  201.31
   2 -12   1 1131.25  140.77
  -3   0 -12 1962.66  346.67
   2 -12   2  225.86   76.79
   2 -12   2  225.29   75.34
  -2  12  -2  310.17  112.01
  -2  12  -2  346.38   84.74
  -3   0 -12 2554.57  237.49
  -4  -3  10   85.47   57.14
   4   3 -10  125.93   58.25
   4   3 -10  108.70   81.76
  -4  -3  10  237.11  120.24
  -2  -4 -12   -5.01   41.93
  -1   8 -13  475.88  114.71
  -2  -4 -12   -1.25   30.06
  -1   8 -13  397.79  112.78
   2   4  12   45.11   44.27
   1  -8  13  416.75   77.13
  -1 -11   7 2653.04  402.82
  -1 -11   7 1633.48  179.64
   1  11  -7 2131.92  263.61
   1  -8  13  560.09  242.96
   2   4  12   39.04   45.09
   1  11  -7 1787.77  417.08
  -5   5   3  371.78   80.93
  -5   5   3  348.84  141.93
  -1   7  12  239.39   82.73
  -1   7  12  197.36  108.81
  -5   5   3  420.01  120.19
  -5   5   3  348.96   83.81
   3 -11   3   29.72   81.31
  -3  11  -3   77.09   57.82
  -3  11  -3   19.56   53.98
   3 -11   3   61.89   76.12
  -1  12   2   19.36   39.25
   0 -11  -5  -30.15   44.49
   3 -11  -1  114.14   69.92
  -2   0 -14 1302.82  159.18
   3 -11  -1   57.28   26.80
  -1  12   2   27.88   71.57
   0  11   5   -3.72   47.14
  -3  11   1   68.73  108.11
   1 -12  -2  -26.35   68.60
   1 -12  -2   11.28   31.86
   0 -11  -5   -6.47   28.44
   0  11   5    4.38   20.24
  -2   0 -14 1735.56  195.83
  -3  11   1   67.07   36.09
  -4   8  -6  343.80  186.62
  -4   8  -6  453.74  185.41
  -2   9   9   50.21   45.67
   4   1 -11  494.06   86.45
  -4  -1  11  740.26  164.49
   4   1 -11  859.32  304.57
  -2   9   9   45.92   62.95
  -4  -1  11  649.64  181.26
  -5   5  -2  720.77  114.15
   1  -9  12 1092.97  104.86
  -1   9 -12  903.73  106.19
  -1   9 -12  889.07  147.21
   1  -9  12  946.97  325.40
  -5   5  -2  912.88   82.81
  -5   5  -2  695.87  193.17
  -5   5  -2  837.79  111.37
   0 -12   5 1334.71  350.86
   0 -12   5 1123.76  214.02
   0  12  -5 1359.66  291.38
   0  12  -5 1384.63  359.95
   3   6 -11   56.32   73.67
   3   6 -11    4.08  112.51
  -3  -6  11   81.19  109.25
  -4   2  11 3763.05  360.92
   4  -2 -11 2770.54  309.33
  -3  -6  11  127.15  149.81
   0 -12  -1  176.06   63.84
   0  12   1  227.74  117.16
   0  12   1  319.56  102.93
  -2   1  15  677.84  266.77
  -2   1  15  486.14   96.66
   2  -1 -15  459.93   75.13
   0 -12  -1  274.76  184.16
  -1  -5  15  635.54  129.73
  -1  -5  15  787.63  174.33
   1   5 -15  712.13  196.39
   1   5 -15  558.60   94.82
   2   5 -14  245.30   70.49
  -2  -5  14  238.02   65.51
   2   5 -14  180.18   81.44
  -2  -5  14  135.91   80.40
  -2   8 -12 2420.61  370.64
   2  -8  12 1615.28  129.95
   2  -8  12 1787.02  396.77
  -5   1   6 1218.66  138.18
  -5   1   6 1992.45  363.91
   5  -1  -6  885.41  187.97
   5  -1  -6 1331.53  150.52
  -3  -5  12  -14.79  107.99
   3   5 -12   30.88   62.73
  -2  12   0  -34.09   59.42
   2 -12   0  -24.85   39.65
   2 -12   0    1.39   30.74
   3   5 -12   20.79  116.56
  -3  -5  12  -14.69   46.38
  -2  12   0   22.25   95.08
   4   5   4 2209.03  195.70
  -4  -5  -4 3774.75  375.23
  -4  -5  -4 3718.77  753.23
   4   5   4 2929.16  298.16
  -2  12  -3   -1.16   37.08
   2 -12   3   52.81   93.29
   2 -12   3   58.01   89.17
  -2  12  -3   10.20   31.01
  -1   6  13 2000.59  234.76
  -1   6  13 1108.90  192.11
   5  -2  -6  492.55   76.75
  -5   2   6  610.99  121.40
   5  -2  -6  400.50   98.44
  -5   2   6  444.82   72.28
  -3   5 -12   22.83   33.14
  -3   5  12  443.52  150.66
   1   1  15  349.38   68.98
   1   1  15  292.72   86.45
  -3   5 -12    9.03  116.67
  -1  -1 -15  262.24   69.53
  -1  -1 -15  178.06   60.65
  -3   5  12  503.47  113.10
  -4   0  -9 1083.20  190.64
  -4   0  -9  640.45  290.60
  -3   8 -10  378.13  105.52
  -3   8 -10  808.46  156.33
  -4   9   3 3782.99  373.06
  -4   9   3 3539.60  285.59
   5   2  -2  228.85   62.73
   5   2  -2  274.83   91.78
  -5  -2   2  250.01   59.58
  -5  -2   2   -1.15  124.49
   2  -9  11 4740.58  731.44
  -2   9 -11 3231.80  296.08
  -2   9 -11 4182.53  285.50
   2  -9  11 4194.55  259.05
  -3   8   9   12.25   43.81
  -3   8   9   16.69   44.62
  -4  -5   8  281.78  194.97
   5   0   3 1099.32  114.94
   4   5  -8  329.45   98.36
  -4  -5   8  396.18  147.20
   4   5  -8  201.62  107.13
  -1 -11  -3  972.23  110.93
  -1 -11  -3 1514.42  321.74
   1  11   3 2036.89  299.48
  -5   0  -3 2321.06  401.55
   5   0   3 1467.37   92.06
   1  11   3 1303.38  244.75
  -5  -2   1   -1.36  409.00
  -2  -7  -9  138.30  133.25
   2   7   9  100.69  106.53
   3 -10   7  799.82  154.98
  -5  -2   1  674.30  130.24
  -2  -7  -9  153.46   92.01
   2   7   9  149.05   64.20
   5   2  -1  329.18   62.20
  -2 -10   7 1347.05  211.37
   2  10  -7 2108.18  527.68
  -3  10  -7  530.80  145.93
   5   2  -1  251.28   56.18
   3 -10   7  726.91   65.27
   2  10  -7 3461.29  699.91
  -2 -10   7 1903.98  215.94
  -3  10  -7  681.81   78.35
   5   1  -5   21.04   28.05
  -5  -1   5   13.65   80.65
  -1  -9  -8  253.63   88.69
  -5  -1   5   56.25  118.72
   1   9   8  196.41   41.79
   5   1  -5   27.46   44.42
  -1  -9  -8  224.27   73.85
   1   9   8  208.86   92.11
  -2  11   5    1.55   54.60
  -4   5  -9   66.28   36.66
   2 -11  -5  361.86  232.17
  -4   5  -9   70.68  115.49
  -1   8  11  154.39   47.57
  -1   8  11  152.81  122.51
   0  -2  16 1635.50  261.40
   0   2 -16  724.79   98.80
  -5   2  -4  311.81  141.35
  -5   2  -4  307.39  170.40
   0  -2  16 1430.17  119.80
   0   2 -16 1808.47  265.13
   1  10   6    0.81   14.16
   1  10   6   -7.11   53.49
  -1 -10  -6   -6.00   37.10
  -1 -10  -6   -0.10   28.79
  -3  -9   2  922.46  238.61
   0  -1  16  390.14   72.19
   3   9  -2  815.61  303.58
   0   1 -16  357.47  149.25
  -5   4   5    0.41   40.94
  -5   4   5   15.95   30.46
  -3  -9   2  866.77  249.27
  -5   4   5   17.44   69.79
   3   9  -2  992.33  315.30
   0  -1  16  647.28  144.81
   0   1 -16  582.30  180.38
  -5   4   5   24.71   24.97
  -1   3  15  677.25   94.96
  -4   9  -4  472.17   77.08
  -4   9  -4  638.27  120.80
  -1   3  15  592.88  217.52
   1 -10  -8  955.42  189.21
  -4   9  -4  552.81  169.62
  -4   9  -4  731.17  129.12
  -1  10   8  877.87  205.09
  -5   3  -4  -21.01   52.38
  -5   3  -4  -14.62   36.60
  -3  -9   3  810.88  154.40
   3   9  -3  759.54  193.30
  -5  -2   3 1433.87  162.61
  -5  -1  -2 1938.47  162.96
  -5  -1  -2 2365.85  504.00
   5   1   2 1851.42  277.16
   5   2  -3  872.11  114.38
   5   1   2 1594.99  114.78
  -5  -2   3 1146.37  209.53
  -3  -9   3  776.24  375.39
   5   2  -3 1052.46  113.22
   3   9  -3  977.20  193.27
  -4  -3  -7 1095.11  321.26
   4   3   7  778.24  130.30
   1 -11   9  388.92  101.55
   1 -11   9  246.49  117.81
  -1  11  -9  565.80  295.46
  -1  11  -9  603.19  167.46
   5   0  -6  647.30  138.41
  -2   4  14   -2.56   47.76
  -3   7 -11 1051.75  323.58
  -5   0   6  582.63  175.93
  -2   4  14    7.99   41.61
  -5   0   6  525.91  119.72
  -3   7 -11 1703.64  241.45
   5   0  -6  378.03   46.79
  -4  -6   6  995.18  263.61
   4   6  -6 1117.31  169.55
   1 -12   6  323.28   76.97
   1 -12   6  645.38  103.89
  -1  12  -6  634.03  149.34
  -4  -6   6 1132.63  224.78
  -1  12  -6  632.79  222.29
   4   6  -6  857.09  273.76
   1  10 -10  384.86  209.61
   0 -11   9  594.90  115.99
  -1 -10  10  331.72   86.50
   0  11  -9  987.00  179.04
  -1   5 -15 1282.25  291.95
   0  11  -9 1111.70  201.28
   1  -5  15  775.61  217.68
   1  -5  15  989.26   99.90
   1  10 -10  432.92  287.32
  -1 -10  10  434.61  168.50
  -1   5 -15  665.29   52.37
   0 -11   9 1146.40  149.23
  -1  -6 -12    7.86   47.71
   1   6  12    4.49   24.08
  -1  -6 -12   18.94   46.45
   1   6  12    1.45   43.86
  -2  -3  15  639.24  112.47
   2   3 -15  561.91  128.29
   2   3 -15  582.27  123.20
  -2  -3  15  600.99  161.23
  -3  -8   8 1235.46  164.68
   3   8  -8 1428.55  381.65
   3   8  -8 1791.70  249.36
  -3  -8   8 1173.78  199.34
  -3  11  -4  445.60   95.77
   0 -10  11  660.96  123.77
  -3  11  -4  434.18   78.71
   0  10 -11 1326.55  370.71
   3 -11   4  408.68   99.08
   0 -10  11 1305.50  140.98
   3 -11   4  483.35  161.44
  -3  11   2   22.74   17.66
  -5  -2   0  823.20  105.24
   5   2   0  579.15   76.91
   5   2   0  731.40  172.54
  -3  11   2   -6.29   57.74
   1   1 -16  170.09   45.07
  -1  -1  16  383.72  101.90
   1   1 -16  311.09   72.42
   3   9  -1  310.20  191.37
  -1  -1  16  248.55  114.16
   3 -11  -2   20.38   51.95
  -3  -9   1  204.60   72.97
  -3  11   2   -0.79   12.80
   3   9  -1  156.75  100.53
  -3  11   2   33.13   30.49
  -3  -9   1  205.06  120.53
  -5  -2   0 1115.43  298.59
  -2  12   1  343.81  118.33
  -1   7 -14  273.74   67.23
  -2  12   1  248.83  114.52
   1  -7  14  322.94   63.98
   2 -12  -1  262.72   91.45
  -1   7 -14  294.55   74.37
   1  -7  14  230.54  180.11
   2 -12  -1  235.06   62.46
  -4  -2  -8   74.40   62.15
   4   2   8   20.95   37.38
  -4  -2  -8  220.07  125.76
  -5   3   6  248.86   76.36
  -2  12  -4 4230.01  450.72
  -5   3   6  280.37  125.56
   2 -12   4 3517.74  469.02
  -2  12  -4 4069.23  530.74
  -5   3   6  179.74   46.63
   2 -12   4 4826.80  378.02
  -5   3   6  246.11   42.42
  -4   8   6   52.34   53.14
  -4   8   6  132.83  145.13
  -5   5   4 2520.65  281.04
  -2   5 -14  467.10  122.73
  -5   5   4 1640.44  174.72
  -5   5   4 1519.64  313.42
  -5   5   4 1670.01  158.38
  -2   5 -14  193.83  183.95
  -3  -9   4  153.25   82.01
   3   9  -4  258.76  248.01
  -3  -9   4  273.79  165.19
  -3   9  -9   20.17   72.29
  -5   1  -4  257.43  141.30
   3  -9   9   10.33   42.00
  -5   1  -4  211.52  141.37
   3   9  -4  165.76  153.48
  -1  -7 -11  -21.61   20.86
   1   7  11    0.49   14.62
  -3  -7  10 2757.42  373.14
  -3  -7  10 1208.72  283.39
   3   7 -10 2086.43  267.52
   3   7 -10 1664.94  436.73
  -1  -7 -11  -13.09   66.90
   1   7  11    0.01   27.83
   1   2 -16   80.17   53.98
   2  -7  13  310.01  178.73
  -1  -2  16   97.82   53.68
  -2   7 -13  613.52  203.61
  -1  -2  16   -0.81   87.36
   1   2 -16   89.81   57.05
  -1  11   6  818.08  182.89
   0   3 -16  104.52   67.16
  -1  11   6  885.20   94.24
   0   3 -16  114.65   43.73
   0  -3  16   86.12   61.01
   1 -11  -6  916.20  148.38
   0  -3  16  202.82   54.87
   1 -11  -6 1043.75  107.41
  -5   6   0  516.21   97.84
  -5   6   0  448.57   74.68
  -5   6   0  313.89   50.15
  -5   6   0  314.56   39.83
   4   6   2 2433.70  250.27
   4   6   2 2688.90  252.29
  -4  -6  -2 2560.37  277.32
  -4  -6  -2 3180.90  633.69
   0  -3 -15    1.09   30.78
  -1  -8  13   70.74   45.51
   0   7  12 1663.74  131.32
   0  -7 -12 2403.57  203.21
   0  -3 -15   50.42   30.65
   0   3  15   31.01   44.68
   0   3  15   19.41   46.61
   0  -7 -12 2050.40  223.07
   1   8 -13   -1.69   84.02
  -1  -8  13   25.54   77.63
   1   8 -13   38.29   79.62
   0   7  12 2522.50  268.08
  -5   6   1   10.29   40.61
  -5   6   1   47.55   39.64
  -5   6   1   18.53   15.48
  -3  -7  -6  244.65  223.57
  -3  -7  -6  213.33   64.53
   3   7   6  268.93   99.18
  -5   6   1  -14.82   50.07
   3   7   6  194.28  143.58
  -4  -4  -6   33.77  125.29
  -5   5  -3   43.70   43.94
  -4  -4  -6    4.14   27.04
  -5   5  -3   16.14   51.30
   4   4   6   11.39   35.02
   4   4   6   -3.57   23.30
   0  -6  15   64.79  111.24
   0   6 -15   46.22   35.95
   0   6 -15   46.19   44.41
   0  -6  15   32.21   57.41
   0   0  16 1255.58  204.46
   0   0  16 1620.96  135.97
   0   0 -16 1619.37  185.36
   0   0 -16 1033.13  218.79
   1 -10  11    5.33  100.24
  -4  -2  11  760.41  165.94
   5   2  -4  563.76  154.23
  -1  10 -11   -9.68   69.84
  -5  -2   4  754.67  162.59
  -1  10 -11  -12.85   51.55
   1 -10  11  -12.80   30.97
   4   2 -11  805.16  155.78
  -4  -2  11 1031.44  245.27
   5   2  -4  675.68  134.03
  -5  -2   4  695.47  168.69
   2  10   3 2255.21  201.88
  -2 -10  -3 1899.92  245.52
  -2 -10  -3 2259.63  233.66
   2  10   3 1823.77  330.59
   0   6  13    3.18   52.77
   0  -6 -13  131.05   55.35
  -5   4  -4  777.83  150.28
   0  -6 -13  168.36   56.16
  -5   4  -4  938.55  126.88
  -1   0  16 1216.74  186.36
   0   6  13  146.14   63.70
   1   0 -16 1017.57  168.46
  -1   0  16 1434.72  187.74
   1   0 -16  830.48  115.27
   0  12  -6   94.74   76.54
   0 -12   6   36.96   42.48
  -4   3  11  422.95  118.28
  -4   3  11    2.30  304.20
   0 -12   6   22.31   80.35
   0  12  -6   43.42   70.22
   1   5  13   26.20   61.94
  -1  -5 -13   46.10   68.02
  -1  -5 -13   39.02   52.57
   1   5  13    9.99   21.33
   3   0 -14    9.82   46.49
  -3   0  14   -8.23   45.65
   3   0 -14  -16.10   30.65
   0 -12  -2   13.62   57.60
   0  12   2   31.92   61.85
   0  12   2   32.62   66.23
   0 -12  -2   15.69   30.18
  -1   5  14  131.74   51.36
  -1   5  14   87.14   53.55
   3   4 -13  134.77   88.29
  -3  -4  13  170.01  102.76
  -3  -4  13   76.53   74.43
   3   4 -13   84.90   76.73
  -5   6  -1  326.86   77.00
  -1  -7  14   26.99   80.85
   1   7 -14    1.20   37.11
  -5   6  -1  285.91   59.54
  -1  -7  14    3.00   25.58
   1   7 -14  -15.31   36.17
  -5   6  -1  176.26   56.40
  -5   6  -1  164.75  112.65
  -2  11  -8   20.18   68.35
  -2   2  15  454.77   93.33
   2 -11   8   16.26   17.79
   2 -11   8    0.18   57.04
  -2  11  -8   -2.59   20.99
  -2   2  15  403.09  109.54
  -2  -3 -13   -9.54   40.89
  -2  -3 -13    1.00   33.41
  -2  -9  10 7235.68  587.21
   2   9 -10 9155.47  953.56
  -2  -9  1010749.02 1078.17
   2   9 -10 6690.86  641.17
   1 -12  -3   45.88   59.50
  -1  12   3   29.78   48.98
  -3  -4 -10   41.84   41.23
   3   4  10   -7.21   26.13
   1 -12  -3   29.75   43.15
  -1  12   3   38.83   75.10
  -3  -4 -10  141.21  116.19
   3   9   0 2224.25  235.24
   3   1 -14  113.25   67.81
  -3  -9   0 1953.19  448.21
  -3  -1  14  307.28  114.54
  -3  -1  14  101.06   67.77
  -3  -9   0 2361.56  252.62
   3   1 -14  153.26   71.37
   3   9   0 2169.59  392.47
  -5   6   2 2067.64  294.44
  -5   6   2 1417.30  266.02
  -5   6   2 1549.52  149.65
  -3  -5  -9 3122.34  395.26
   3   5   9 2391.06  209.37
   3   5   9 2655.43  264.92
  -3  -5  -9 2335.71  191.03
  -4   6   9  197.05   71.03
  -3  -1 -12   62.34   76.63
  -4   6   9    0.01   98.70
  -3  -1 -12  113.21   90.43
  -2  -1 -14   25.77   39.89
  -2  -1 -14    3.45   58.90
   3   8   4  688.92  187.72
   2 -10  10 1376.85  147.11
  -2  10 -10 1096.40  164.75
  -2  10 -10 1337.26  193.70
   3   8   4  835.37  157.14
  -3  -8  -4  619.88  129.09
   2 -10  10 1127.38  198.90
   5   2   1  447.43   95.60
   5   2   1  355.87   60.59
  -5  -2  -1  484.83  200.08
  -5  -2  -1  479.30   60.18
  -4   9   4 1342.60  147.00
  -4   9   4 1541.88  226.54
  -4   7  -8 3666.74  351.33
  -4   7  -8 2398.28  177.13
  -3   1  14 1204.64  157.70
   3  -1 -14 1057.18  166.88
  -3  -9   5   41.90  162.29
   3   9  -5  765.59  226.91
   3   9  -5  543.35  396.85
  -3  -9   5  615.68  192.84
   0   8  11 1240.92  192.86
   0  -8 -11 1366.65  133.94
   0  -8 -11  972.47   99.98
   0   8  11 1259.99  210.03
   1   3 -16  368.31  114.35
   1  11  -8  617.46  162.28
   1  11  -8  490.93  268.86
  -1  -3  16  905.42  153.22
  -1  -3  16  726.86  230.78
   1   3 -16  649.10  177.85
   5   1  -6  157.17   72.86
  -5  -1   6  354.41  129.60
   5   1  -6  230.59   78.83
  -1 -11   8  482.95  170.24
  -1 -11   8  522.12  213.56
  -5  -1   6  285.92   98.90
  -1   9  10 1021.06  124.37
  -1   9  10 1357.83  372.98
  -1  -9  12  424.65   85.29
  -2  -9  -6 2796.12  273.00
   2   9   6 2463.79  215.77
   2   9   6 3264.25  396.40
  -1  -9  12  249.40  130.04
   1   9 -12  474.83  123.81
   1   9 -12  532.34  146.06
  -2  -9  -6 2410.98  433.96
   2 -12  -2    1.75   20.69
  -4   5  10    7.63   41.32
   2 -12  -2   12.65   32.65
  -4   5  10    2.18   60.67
  -2  12   2    4.30   58.12
  -2  12   2    6.87   59.69
  -3   4  13  202.65  211.40
  -3   4  13  197.12   88.04
  -3  10   6   99.75   47.15
  -3  10   6   -1.18   67.56
  -4   9  -5  914.83  154.02
  -4   9  -5  989.76  110.87
  -4   9  -5 1466.30  185.78
  -4   9  -5  933.60   91.24
   2 -12   5 2543.03  285.41
  -2  12  -5 4184.56  664.67
   2 -12   5 3342.71  369.45
  -2  12  -5 3599.96  361.97
   5  -1  -7  901.64  229.63
   5   1   3   33.12   47.21
   5  -1  -7 1059.28   93.04
  -3   9   8  109.13  191.79
  -4   7   8  175.94  173.91
  -5  -1  -3  125.44  139.11
   5   1   3   47.62   50.34
  -5   1   7 1626.39  225.48
  -4   7   8   97.92   59.04
  -5   1   7 1056.43  119.55
  -3   9   8  149.87  101.86
  -5   6  -2  271.28   82.81
  -5   6  -2  173.39   62.55
   0 -10  -8   64.15   51.16
   0  10   8   52.90   21.94
   0  10   8   97.56   84.78
  -5   6  -2  286.01   43.70
  -5   6  -2  170.35  122.40
   0 -10  -8   74.36   53.34
  -3  11  -5   13.14   51.30
   3 -11   5   -7.40   20.88
   3 -11   5   -2.75   65.29
  -4  -1  -9  731.46  151.97
  -4  -1  -9  752.95  360.82
  -3  11  -5   12.93   56.42
  -2   7  12  204.03  140.12
  -2   7  12  510.21  144.83
  -3  11   3   27.14   39.30
  -3  11   3    1.33  133.23
   5   0   4 1035.27  104.77
  -5   0  -4 2324.29  425.50
  -1  -8 -10  354.59   92.43
  -1  -8 -10  426.70  102.19
   1   8  10  362.17   62.41
   1   8  10  347.05   91.78
  -3   6 -12  111.94  184.03
  -4   3 -10  860.07  156.22
  -3   6 -12  149.42  114.08
  -4   3 -10  708.61  270.96
  -5   2   7   -1.43   19.37
  -4   2 -10  542.39  209.87
   5   2  -5  158.46   52.28
   0   4 -16 1579.50  125.14
   5  -2  -7   25.31   44.30
  -5  -2   5  116.86   77.11
   0  -4  16 2755.03  260.48
   5   2  -5  179.45  197.67
   0   4 -16 1887.95  180.42
  -4   2 -10  339.02  174.07
   0  -4  16 2295.25  267.52
  -5   2   7   25.55   38.14
   5  -2  -7   19.26   28.59
  -5  -2   5  142.29   63.06
  -4   8  -7 3383.22  508.84
  -4   8  -7 4437.75  516.05
   4   6  -7  825.09  177.91
  -5   4   6  291.03  160.67
  -2  -8  -8   24.43   36.59
   2   8   8   44.52   53.20
   2   8   8    9.04   76.10
  -4  -6   7 1369.90  265.99
   4   6  -7 1058.47  253.30
  -4  -6   7 1086.63  267.31
  -5   4   6  375.11   87.28
  -2  -8  -8   52.88  110.10
  -5   6   3  667.78  144.69
  -3  -2  14 1457.61  173.60
  -3  -2  14  716.83   71.14
  -3  -3 -11 3236.16  279.84
  -5   6   3  633.16  131.79
   3   2 -14 1541.86  215.51
  -5   6   3  691.12  104.32
   0  -5 -14  242.25   43.54
   2  10  -8 1738.85  368.02
   2  10  -8 1243.88  346.59
   0   5  14  736.57  170.38
  -4   6  -9   52.14   55.66
   0   5  14  326.62   75.35
  -3  -3 -11 3572.33  587.39
   3   2 -14 1609.57  425.76
   0  -5 -14  375.49  114.48
  -2 -10   8 1001.48  285.83
  -4   6  -9   51.54   36.61
  -2 -10   8 1418.04  349.11
   1  -1 -16  101.67   28.24
   1  -1 -16  104.54   27.69
  -1   1  16  233.23   59.31
  -1   1  16   -2.28  108.57
   4   4 -10  763.82  168.25
  -1  -2 -15 2313.37  186.62
  -4  -4  10  803.48  129.50
  -1  -2 -15 2839.38  240.00
  -4  -4  10 1009.30  239.54
   1   2  15 3352.72  268.90
   1   2  15 4007.45  278.85
   4   4 -10 1173.95  151.41
  -1 -11  -4  372.09  131.92
   1  11   4  366.34  230.50
  -1 -11  -4  274.07  180.62
   1  11   4  369.05   78.24
  -5   5   5  580.27  143.87
  -5   5   5  666.30  115.27
  -2  10   8   25.63   49.24
  -1  12  -7   57.57   58.63
   1 -12   7   95.30   57.63
  -1  12  -7   91.96   65.26
   1 -12   7   38.70   76.83
  -2  10   8   25.71   65.26
  -3  -6  -8  471.48  102.38
  -3  -6  -8  525.34  184.33
   3   6   8  479.05  104.40
   3   6   8  384.93  103.31
  -2  -7  13 1907.90  422.00
   0  -1 -16  585.91  139.92
   2   7 -13  992.34  175.51
  -5   2  -5  132.93  174.74
   2   7 -13 1047.67  162.76
   0   1  16  621.77  109.61
   0   1  16  601.57   74.61
  -5   2  -5  259.20  103.65
   0  -1 -16  345.30   73.70
  -2  -7  13 1473.96  272.01
  -2   8  11 1104.67  332.37
  -2   8  11  980.24  209.74
  -2  -4  15   73.04   51.75
  -5   3  -5 2816.84  241.12
  -5   3  -5 2672.80  428.86
  -2  -4  15   -0.56  115.43
   2   4 -15    3.82  122.13
   2   4 -15  124.62   52.32
   4   5   5   69.03   71.53
  -5   0   7  119.40   55.96
  -5   0   7  206.33  139.08
   5   0  -7  154.91  150.30
   3   9   1 2794.78  380.11
  -3  -9  -1 2233.39  346.18
  -2   6  13 2755.72  230.55
   4   5   5   67.18   72.70
  -4  -5  -5   41.91   24.25
  -2   6  13 3352.56  379.22
   3   9   1 2098.83  228.15
  -3  -9  -1 2731.37  283.31
   5   0  -7   80.67   43.11
  -4  -5  -5  103.53  111.94
   0  11   6    0.94   26.96
   0  11   6  -20.39   69.73
   0 -11  -6  -34.14   64.54
   0 -11  -6    6.19   20.80
  -5   5  -4  304.06  140.27
  -5   5  -4  219.05  135.29
  -4  -5   9    0.34   23.40
  -4  -5   9   -0.77   31.82
   4   5  -9    3.91   44.58
   4   5  -9   20.46   52.59
   1   4  14  640.85  153.34
   4   6   3   21.71   40.72
   1   4  14  503.47   55.71
   4   6   3   10.32   43.86
  -1  -4 -14  547.60   77.37
  -4  -6  -3    3.44   59.69
  -1  -4 -14  634.94  126.55
  -4  -6  -3  -33.33   81.66
  -4   4 -10 1965.35  339.01
  -4   4 -10 1489.87  341.47
  -1  -6  15   70.09   77.59
   1  12  -2 3456.25  353.87
  -1 -12   2 1716.71  202.67
  -3  10  -8  131.07   36.04
   1   6 -15  114.61   57.15
  -1  -6  15  105.34   46.87
   1   6 -15   -1.05   43.80
  -3  10  -8  198.75  190.26
   3 -10   8  106.39   27.99
  -1 -12   2 2004.70  198.36
   3 -10   8  123.95  141.55
   1  12  -2 2572.29  388.43
  -3   2  14 1828.16  478.95
  -3   2  14 1485.51  291.15
   5   2   2  590.76  104.18
  -4  -7   2   55.24   86.18
  -4  -7   2   -1.70   73.57
  -5  -2  -2  847.51  126.79
   4   7  -2   10.41   47.34
  -5  -2  -2  832.81  400.02
   4   7  -2   18.35   46.21
   5   2   2  745.09  127.69
  -3   2 -13  665.77  126.31
  -3   2 -13  904.94  227.98
  -4   1 -10  142.24  126.99
  -4   1 -10  109.30  151.00
  -1 -12   3  501.81  117.26
  -1 -12   3  606.69  127.30
   1  12  -3  922.60  183.54
   1  12  -3  618.86  165.18
  -2  11   6   -4.56  108.07
  -3   3 -13  767.31  204.81
   2 -11  -6  458.49  162.11
  -3   3 -13  657.85  136.23
   0 -12   7 2896.41  343.78
   0 -12   7 3864.53  465.06
  -4  -7   3   43.59  125.88
   4   7  -3  112.61  128.54
   4   7  -3  115.77  124.18
  -4  -7   3    2.09   71.69
   0  12  -7 3216.68  476.69
   0  12  -7 4206.73  474.02
   3   9  -6  431.81  184.37
  -3  -9   6  341.17  220.99
  -5  -3   2    0.54  129.63
   5   3  -2  266.42   65.09
   5   3  -2  209.57   64.62
  -5  -3   2  451.27  117.96
  -3  -9   6  449.91  126.13
   3   9  -6  688.93  188.91
   2   8 -12   13.19   66.05
  -2  -8  12   -3.53   41.44
   2   8 -12   60.02   96.04
  -1   6 -15   53.78   25.36
  -2  -8  12   25.25   60.56
  -1   6 -15   11.65   74.28
   1  -6  15  120.47   94.91
   1  -6  15  107.06   30.23
   0 -12  -3  161.52   50.00
   0  12   3  195.86  123.81
   0  12   3  249.07   80.59
  -5   3   7  173.77  110.99
   0 -12  -3  110.64  169.46
  -5   3   7   92.70   61.85
  -2   6 -14  354.98  104.44
  -2   6 -14  632.52  169.73
  -4  -3  11  784.77  203.24
   4   3 -11  535.06   96.88
   4   3 -11  574.15  398.82
  -4  -3  11  396.94  117.24
  -5  -3   1 1001.82  128.21
  -5  -3   1 1033.42  241.80
  -5   1  -5   99.69  197.25
   5   3  -1  620.67  137.34
  -5   1  -5  105.16   73.46
   5   3  -1  725.58  155.91
  -1 -12   1  567.66  137.26
  -1 -12   1  741.11  116.60
   1  12  -1 1142.00  189.73
   1  12  -1  569.25  287.03
   3   8  -9  390.79  150.24
  -3  -8   9  104.98  155.33
   3   8  -9  452.78  246.03
  -4  10  -1 3166.37  326.51
  -3  -8   9  314.75  148.54
  -4  10  -1 2545.91  375.78
  -4  10  -1 2182.05  224.60
  -4  10  -1 2217.63  199.97
  -4  10   0   11.70   31.21
  -2  -6  14   24.44   36.90
  -2 -11   2   80.49   93.44
  -2 -11   2  120.04  125.78
   4   7  -1 1384.13  175.53
   2   6 -14   11.17   69.73
  -4  -7   1 1337.89  260.39
  -4  -7   1 1474.89  168.92
   4   7  -1 1374.69  306.77
   2   6 -14    3.42   63.45
  -4  10   0    4.29   29.55
   2  11  -2   55.68  108.14
   2  11  -2   81.38  117.45
  -2  -6  14   -2.89   21.90
  -4  10   0    0.31   83.44
  -4  10   0   19.40   62.90
  -5   6  -3  240.88   74.39
  -5   6  -3  219.42   67.18
   2  11  -3  816.88  200.82
   5   3  -3  774.17  103.70
   5   3  -3  649.05  104.08
  -5  -3   3  856.19  198.06
  -5  -3   3  738.30  170.35
   2  11  -3  882.38  290.43
  -2 -11   3  750.55  163.07
  -2 -11   3  433.52  140.38
  -4   4  11 1023.28  168.99
   4   0 -12 1585.42  207.21
  -5   4  -5   -3.69   53.04
   4   0 -12 1960.34  136.24
  -4   0  12 3909.50  739.13
  -4   4  11  834.49  177.52
  -5   4  -5  -38.95   73.88
   0   8 -14  114.15  233.66
   0  -8  14  320.54  102.43
   0   8 -14  405.82  137.79
   0  -8  14  333.27  208.44
   0   9 -13  555.39  211.19
  -4   1  12   73.42  157.94
   4  -1 -12  133.89   98.73
   0   9 -13    7.01  110.57
   0  -9  13  440.72  244.29
   0  -9  13  429.10   74.41
  -1  -4  16  971.86  137.36
   1   4 -16  562.76  168.51
  -1  -4  16  624.55  185.72
   1   4 -16  814.07  145.33
   1  12  -4  434.09  237.62
  -1 -12   4  447.57  217.32
   1  12  -4  219.95  197.94
  -1 -12   4  439.92  261.93
  -4  -7   4  841.86  130.68
   4   7  -4  706.18  126.25
   4   7  -4  769.68  151.19
  -1   2 -16 1518.26  268.43
  -4  -7   4  691.38  187.23
  -1   2 -16 1105.12  177.18
  -2 -10  -4  204.69  168.88
   2  10   4  183.82   54.71
   2  10   4   -2.37   74.39
  -2 -10  -4  139.05   68.69
   0   9  10  372.30   36.64
   0   9  10  350.02  108.60
   0  -9 -10  313.25   55.62
   0  -9 -10  471.52  120.40
   2 -12  -3  113.61  107.65
  -3   7  11  319.75  155.89
  -2  12   3  141.08  123.31
  -1  12   4   32.00   67.21
  -3   7  11  297.63   92.37
   2 -12  -3   76.23   54.26
  -1   4  15  925.82  165.35
  -1  12   4    6.09   51.12
   1 -12  -4   14.35   64.39
   1 -12  -4   48.06   68.32
  -1   4  15  861.57  110.45
  -2   3  15   22.57   60.41
  -2   3  15   13.41   40.42
  -4   8   7   76.84   59.77
  -4   8   7   90.82   55.41
  -5   6   4  265.17   76.05
  -5   6   4   -3.03  158.25
  -4  10  -2  424.18   80.25
  -4  10  -2  540.37  140.45
  -4  10  -2  454.64   63.42
  -4  10  -2  511.67  140.83
  -2 -11   1   74.49   98.89
   2  11  -1   94.13  188.94
  -2 -11   1   54.79  113.50
   2  11  -1   72.49  145.84
  -3   1 -13  -13.48   66.56
  -3   1 -13   30.00   45.06
  -4   9   5 1598.00  250.03
  -4   9   5 1596.08  355.06
   0  11 -10   15.08  211.62
   0 -11  10  189.18  122.37
   0 -11  10  160.74  109.07
   0  11 -10  286.82  110.57
  -4  10   1  329.88   75.12
  -4  10   1  566.05  224.00
  -4  10   1  543.38  122.46
  -4  10   1  602.41  115.60
  -2  12  -6  881.39  132.01
  -2  12  -6 1676.34  316.70
   2 -12   6  962.86  181.97
  -3   4 -13  553.44  133.70
  -3   4 -13  568.70  189.96
   2 -12   6 1306.51  145.33
  -3  -6  12   95.44  160.94
   3   6 -12   57.85  142.83
   3   6 -12  145.01  166.33
  -3  -6  12  113.40  116.79
   1 -11  10 1343.53  237.42
  -2 -11   4  397.14  221.49
  -2 -11   4  234.21  207.16
   1  10   7 3438.24  303.11
  -1  11 -10 1913.07  295.28
  -1  11 -10 1441.42  279.94
  -1 -10  -7 2787.85  336.83
   2  11  -4  356.97  223.59
   2  11  -4  371.82  266.72
   1  10   7 2865.30  317.72
   1 -11  10 1259.62  117.84
  -5  -3   0   20.65   88.59
  -5  -3   0   -0.08   18.41
  -5  -2   6  -20.97   83.82
   5   2  -6   43.12   82.12
  -5  -2   6   -4.16   46.69
   5   3   0  -11.32   44.15
   5   3   0   20.30   28.38
   5   2  -6   15.05   52.02
  -1   1 -16  216.32   72.15
  -1   1 -16    1.19   83.16
  -5  -1   7  -11.98   58.08
   5   1  -7  -27.48   48.15
   5   1  -7  -16.16   43.22
  -5  -1   7   -3.52   32.11
  -1   3 -16 1476.64  278.96
  -1   3 -16 1002.26  161.31
  -3   6  12   53.03   84.51
  -3   6  12   18.62   47.49
  -3  -3  14  127.25  126.66
   4   1 -12 1436.33  283.22
   3   3 -14  208.20   95.79
  -4  -1  12 1528.74  246.35
   3   3 -14   65.09  153.54
   4   1 -12 1257.10  170.76
  -4  -1  12 1467.87  170.04
  -3  -3  14   74.66   29.84
   3 -11   6  437.28  117.65
   5   3  -4 1420.33  162.77
  -3  11  -6  706.55  225.81
  -5  -3   4 1940.18  185.08
   3 -11   6  403.71   60.29
  -3  11  -6  490.11  103.34
   5   3  -4 1646.71  151.51
  -5  -3   4 1824.09  246.89
   1  12   0   55.05   80.84
  -1 -12   0   26.03   91.46
   1  12   0   82.30   91.38
  -1 -12   0   37.57   66.35
  -3  11   4 1803.48  301.75
  -3  11   4 1334.28  243.71
   2   6  11  628.74   60.72
  -2  -6 -11  843.26  177.68
  -2  -6 -11  654.41   81.50
   2   6  11  513.98   79.22
   4   7   0  740.97  149.91
   4   7   0  738.05  215.92
  -4  -7   0  984.51  155.55
  -4  -7   0  725.26  347.86
  -2   9  10 1179.98  184.70
  -2   9  10 1196.34  197.63
   1  10 -11   12.79   88.05
   1  10 -11  102.45   77.79
  -1 -10  11   56.11  131.48
  -1 -10  11  113.59   97.15
  -2   5  14 1499.64  232.52
  -2   5  14 1087.67  200.49
  -2   2 -15   57.68   30.18
  -2  -2 -14  473.67   79.41
  -2  -2 -14  337.33  104.04
  -2   2 -15   43.61   51.09
  -2  -5 -12 1519.44  269.19
  -2  -5 -12 1224.24  141.58
   2   5  12  817.01  121.70
  -5   7   0  160.50   47.48
  -5   7   0  265.51   78.46
  -5   7   0  208.38   97.95
   2   5  12  720.70   53.78
  -5   7   0  123.96   90.66
  -4   9  -6  221.10  104.78
  -4   9  -6  149.95   88.66
  -5  -1  -4 2608.98  634.11
   5   1   4 1325.95  188.51
  -3   8 -11   39.01   55.79
  -3   8 -11   69.64   90.76
   4   3   8 1944.00  173.02
  -4  -3  -8 4085.05  643.89
  -3  -9  -2 2188.78  457.07
  -4   2  12    1.58  157.31
   3   9   2 3297.67  398.34
   3   9   2 2274.59  225.23
  -4   2  12  344.58  162.43
  -3  -9  -2 2489.80  232.51
  -4   5 -10  270.65  100.77
  -1   2  16  607.97  120.63
  -3  -2 -12  131.77   82.97
  -3   8  10  188.81   92.50
  -3   8  10  671.85  169.87
  -1   2  16  738.89  100.24
  -3  -2 -12   95.63   57.16
  -4   5 -10  311.04  112.69
  -5   7   1  156.46   46.78
  -5   7   1  109.36   23.71
  -1  11   7  824.32  182.47
  -5   7   1  150.25   97.56
   1 -11  -7 1092.94  210.67
  -5   7   1  200.45  100.51
  -2   3 -15  192.84   97.85
  -2   3 -15  151.02   99.72
   0   5 -16  150.01   86.33
   0  -5  16  191.76   44.03
   0   5 -16   69.28   74.22
   0  -5  16  293.07  119.71
   3   8   5  664.58  182.00
  -2  11  -9 1859.88  291.81
   3   8   5  739.05  152.12
  -2  11  -9 1333.18  167.34
  -3  -8  -5  632.06  160.22
   2 -11   9 1009.66   78.64
   2 -11   9 1603.03  218.15
  -3  -8  -5  723.39  178.73
  -1   9 -13  299.32  108.22
  -1 -12   5 1415.36  258.63
  -1   9 -13  278.82  101.46
   1  -9  13  383.47  153.04
   3   7 -11 8760.84  752.51
   1  12  -5 2100.07  373.85
   1  -9  13  331.68  101.38
  -3  -5  13 2417.38  390.96
   3   7 -11 6766.38  718.41
   3   5 -13 1627.28  231.13
  -3  -5  13 1923.92  222.52
   1  12  -5 1517.75  336.30
  -1 -12   5 1551.93  354.91
   3   5 -13 3504.98  373.43
  -3  -7  1111899.94 1176.81
  -3  -7  1110350.04 1170.03
  -4  -7   5  240.14  142.70
  -4  -7   5  195.04  126.50
  -4   0 -10   26.53   95.86
   4   7  -5  154.06  104.30
   4   7  -5  322.10  111.44
  -4   0 -10    0.11   72.78
  -4  10  -3    2.97   39.77
  -4  10  -3  -62.44   92.89
  -4  10  -3   34.14   31.61
  -4  10  -3   26.23   68.16
  -1 -11   9 2960.56  615.91
  -5   7  -1   34.17   28.72
   1  11  -9 2915.45  548.25
  -5   7  -1   38.28   62.86
   1  11  -9 2666.10  362.85
   2  11   0 1322.28  292.37
   2  11   0  752.00  159.72
  -5   7  -1   17.15   33.88
  -2 -11   0  783.27  132.92
  -1  10   9   87.71  105.47
  -1  -9  -9 1273.91  215.26
   1 -10  -9   42.57   77.69
   4   4   7  179.22   82.43
  -1  -9  -9 1201.48  144.14
  -1  10   9   86.22   52.81
  -4  -4  -7  299.15  318.98
  -2 -11   0 1133.50  246.25
   1   9   9 1224.13  186.33
   1   9   9 1645.08  201.42
  -1 -11   9 2707.80  292.43
  -5   7  -1   57.86   61.30
   2  -9  12  620.86   61.28
   0  -4 -15 1039.18  194.11
   0   4  15 1056.51  138.47
   0   4  15 1187.69  153.86
   2  -9  12  750.77  215.12
  -2   9 -12  491.26  106.86
   0  -4 -15 1189.90  168.94
   3  -9  10  116.66   76.16
  -5   5   6 2246.25  286.64
  -5   5   6 2146.91  210.09
  -3   9 -10  244.21  146.80
  -3  -7  -7  822.01  109.93
  -3  -7  -7 1068.99  320.21
   3   7   7  520.53  130.86
   3   7   7  719.15  186.09
   4   6  -8  372.97  109.82
   4   6  -8  284.50  208.11
  -4  -6   8  487.06  197.94
  -4  -6   8  600.18  199.48
  -4  10   2  232.39   88.60
  -4  10   2  369.46  109.28
   0  -7  15   42.23   28.83
   0   7 -15   33.73   55.08
  -5   0  -5  486.23  175.16
  -5   0  -5  296.79   82.93
   0  -7  15   36.18   76.14
   0   7 -15   17.35   79.33
   2  11  -5   34.89   93.92
   2  11  -5   79.50  100.07
  -2 -11   5   33.37   73.19
  -2 -11   5   31.80   57.99
  -2   1 -15  231.44   82.24
  -2   1 -15  188.60   42.62
  -5   1   8   31.40   80.14
   5  -1  -8   14.21   47.30
   5  -1  -8   14.58   20.31
  -5   1   8   22.64   73.29
   5   2   3  303.26  111.80
   5   2   3  206.64   95.06
  -5   4   7   37.14   48.36
  -5   4   7    0.20   90.21
  -5  -2  -3  328.71   88.20
  -5  -2  -3  279.52  187.70
   2  -8  13 1082.46  233.25
  -2   8 -13 1503.18  320.43
   0  10 -12   -4.18  109.17
   0   2  16  917.90  199.00
   0 -10  12  239.47   72.54
   0  -2 -16  437.36   66.08
   0   2  16  869.86   94.19
   0  -2 -16  924.52  147.59
   0 -10  12  121.21   67.03
   0  10 -12  232.51  107.61
  -1   8 -14  141.83   84.27
   1  -8  14  112.07   51.11
   1  -8  14  133.15   93.83
  -1   8 -14  154.49   46.59
  -3  -9   7  119.41  130.62
  -3  -9   7    8.28  129.36
   3   9  -7  154.25  127.86
   3   9  -7  139.36  208.18
  -5   5  -5    5.29   71.17
  -5   5  -5   26.17   48.33
  -5   7   2  282.04   64.53
  -5   7   2  220.95   65.73
  -5   7   2  301.09   59.65
  -2  -7 -10  150.90  274.39
  -5  -3  -1  377.96  111.23
  -5  -3  -1  408.07  270.75
   5   3   1  193.56   78.86
   5   3   1  178.50   96.29
   2   7  10  165.75   96.18
  -2  -7 -10  266.78   75.61
   2   7  10  215.51   62.80
  -3   3  14   18.11   73.71
  -3   3  14    7.13   49.21
  -1  12  -8 1136.88  201.60
   1 -12   8  481.15   87.83
  -1   0 -16  298.26   85.77
  -2  -9  11 2690.22  400.26
   2   9 -11 2143.78  399.26
  -2  -9  11 1828.89  306.40
  -1  12  -8  872.58  159.41
  -1   0 -16  144.28   65.79
   1 -12   8  616.39  108.89
   2   9 -11 1956.62  277.77
  -4  -2  -9   68.64   97.35
  -5   6  -4  440.77   59.09
  -4  -2  -9   70.99  120.65
  -5   6  -4  415.92  155.11
   2   1 -16 1087.49  100.49
   5  -2  -8   29.89   51.61
  -2  -1  16 1361.59  209.97
   2   1 -16 1180.15  163.54
  -2  -1  16 2301.07  261.41
  -5   2   8   18.03   53.94
  -2 -10   9 5890.40 1038.29
   2  10  -9 5685.16  799.22
   2  10  -9 4580.79  557.14
  -2 -10   9 4362.27  430.80
  -1   4 -16    0.02   33.98
  -1   4 -16   47.49   58.39
  -3   0 -13   12.43   43.55
  -3   0 -13    4.24   38.00
  -3  10   7    4.80   84.33
   5   3  -5   79.48   56.28
   5   3  -5   93.34   96.92
  -3  10   7  234.33   94.02
  -5  -3   5  142.41  175.46
  -5  -3   5  206.58   94.05
  -2   0  16   27.18   47.32
   2   0 -16   10.88   15.23
  -3   7 -12 4454.64  432.72
   2   0 -16   16.59   19.86
  -2   0  16   -0.27   74.52
  -3   7 -12 2808.21  356.45
  -1 -12  -1  447.29  114.22
   1  12   1  558.23  447.83
  -1 -12  -1  292.74   93.43
   5   0  -8  353.87   73.98
   1  12   1  576.77  145.20
  -2   4 -15  669.78  170.19
   5   0  -8  326.66  133.00
  -5   0   8  598.90  140.03
  -5   0   8  620.09  198.75
  -2   4 -15  773.00  156.58
  -1   7  13  259.11  181.09
   1 -13   2   42.98   58.13
  -5   7  -2  306.41   76.21
  -5   7  -2  274.69   68.85
  -1   7  13  229.82   65.72
  -1  13  -2   86.93  102.96
  -1  13  -2   82.28  111.45
  -5   7  -2  210.96   63.58
   1 -13   2  109.44   70.92
  -5   7  -2  254.54   79.00
   4   7   1 3996.05  317.23
  -4  -7  -1 6034.45  672.99
  -4  -6  -4  387.90  328.19
  -4  -6  -4  387.64   62.50
  -3   5 -13   14.44   49.80
   4   6   4  182.69  119.15
   4   6   4  324.24  124.19
  -3   5  13  360.17  149.64
  -3   5  13  509.96  179.05
  -4   7  -9 4995.19  530.24
   4   7   1 5361.33  448.49
  -3   5 -13    8.98   65.54
  -4   7  -9 7533.55  817.53
  -4  -7  -1 5465.92  422.66
   1  11   5  652.91  145.06
   1  11   5  804.45   96.07
  -1 -11  -5 1061.12  291.92
  -1 -11  -5  842.50  260.14
  -5   3  -6  857.63  179.53
  -5   3  -6 1116.52  245.12
   4   2 -12   -7.69   39.20
  -4  -2  12   -2.80   52.53
   2   5 -15  107.73   49.78
   4   2 -12    3.40   43.74
  -2  -5  15   98.62   47.90
  -2  -5  15   43.83   34.01
  -4  -2  12   -9.27   44.51
   2   5 -15   -0.10   60.14
  -2  -4 -13   -1.41   73.43
  -5   2  -6 1876.75  348.30
  -5   2  -6 1291.44  221.00
  -2  -4 -13   53.36   37.65
  -4   8  -8 4669.11  571.19
   1 -10  12   93.47   52.15
   0  12  -8   -4.68   89.72
  -5   6   5  497.63  209.73
   0 -12   8   -4.63   86.44
  -4   8  -8 3493.40  545.45
   0 -12   8  -23.80   52.81
  -1  10 -12   56.50   95.54
  -5   6   5  770.26  126.53
  -1  10 -12  107.05  116.00
   0  12  -8  -18.41   53.07
   1 -10  12   69.16   98.64
  -1  13  -1  953.39  193.42
  -1  13  -1 1583.19  280.15
   1 -13   1 1363.79  212.97
   1 -13   1 1357.04  193.66
  -4   6  10  129.41   68.43
  -4   6  10   -0.02   93.51
   0 -12  -4   72.81   61.92
   1 -13   3  377.49   65.85
   0  12   4   72.60   99.66
  -2  -2  16  265.01   87.30
   0 -12  -4   47.48   80.05
  -1  13  -3  877.07  244.33
   0  12   4  110.73   73.97
  -2  -2  16  200.74   57.15
   2   2 -16  167.39   75.30
   2   2 -16  119.05   59.92
  -1  13  -3 1062.75  473.24
   1 -13   3  456.33   68.70
  -2  -9  -7  705.71  126.18
  -2  -9  -7  587.68  156.90
   2   9   7  619.58   96.84
   2   9   7  867.31  203.77
  -1   8  12  -11.58   43.88
  -1   8  12   -5.51   66.17
  -1  -3 -15   51.85   20.85
   1   3  15   49.92   43.73
   2 -10  11  642.73  101.69
  -2  10 -11  573.87  138.94
   2 -10  11  641.23  159.74
  -2  10 -11  948.93  144.17
   1   3  15   94.97   82.43
  -1  -3 -15   83.45   76.26
  -4   7   9  722.98  207.81
  -4   7   9  739.05  117.88
  -2  12   4   -0.19   36.91
   2 -12  -4   89.61   94.24
  -4  10  -4  465.36  103.97
  -4  10  -4  930.53  155.19
   2  11   1  820.77  273.29
  -2 -11  -1  781.23  117.20
  -4  10  -4  496.37   84.31
  -4  10  -4  386.47   70.55
  -2 -11  -1 1277.33  250.80
   2  11   1 1399.61  207.23
  -4  -5  -6 1346.88  112.35
  -4  -5  -6 1811.00  340.38
   4   5   6 1353.81  190.60
   4   5   6 1554.92  307.55
   1  12  -6 1800.57  387.13
  -4   3  12   -0.80  139.11
  -4   3  12  287.10  154.21
  -1 -12   6 1725.81  374.76
   1  12  -6 1569.51  417.87
  -1 -12   6 1639.61  386.19
  -5   7   3    1.23  102.38
  -5   7   3   53.06   43.32
   4   7  -6   21.23   71.23
  -4  -7   6   37.65  116.67
   4   7  -6   50.07   69.03
  -4  -7   6   54.82   54.84
  -1  -5  16   45.30   47.80
   1   5 -16    3.12   71.41
  -1  -5  16   30.97  100.57
   1   5 -16   48.73   77.81
   5   2  -7   53.40   48.33
  -5  -2   7  109.10   92.16
  -5  -2   7   84.37  106.93
   5   2  -7  169.81  115.55
   2 -12   7 1041.67  302.13
   2 -12   7 1434.89  150.63
  -2  12  -7 1668.65  245.05
  -2  12  -7 1263.35  186.24
  -4  10   3   85.02  140.33
  -1   6  14 1499.42  200.73
  -4  10   3  567.90  170.55
  -1   6  14 1782.70  221.42
  -5   3   8   -0.13  145.41
  -5   3   8  269.09   80.46
  -3   9   9  265.27   92.67
  -3   9   9  231.45  220.23
  -1  13   0   17.41  102.02
   1   8 -14   -5.79   87.46
   1 -13   0   10.97   55.08
  -1  -8  14  109.54   45.74
   1 -13   0    8.97   48.31
  -1  13   0   28.60  121.60
  -2   0 -15  881.81  116.64
  -1  -8  14   65.03   86.18
  -2   0 -15 1308.02  242.78
   1   8 -14   50.85   84.45
   2  11  -6  581.45  341.42
  -2 -11   6  369.49  120.37
  -5   4  -6 2890.87  359.27
   2  11  -6  677.68  207.43
  -2 -11   6  493.87  195.48
  -5   4  -6 2107.18  378.81
   4   5 -10 7997.71  823.52
  -4  -5  10 4256.63  403.63
  -4  -5  10 6595.38  571.61
   4   5 -10 4559.60  495.31
   4   4 -11 3109.48  434.27
  -3  12  -1 1015.12  169.53
  -4  -4  11 3038.36  495.23
   3 -12   1 1267.66  157.99
   3 -12   1 1051.90  205.81
  -3  12  -1 1197.89  123.36
  -4  -4  11 1370.26  148.16
   4   4 -11 1417.72  377.90
  -5   1  -6  824.72  245.02
  -5   1  -6  984.32  289.45
  -2   1  16    1.10   94.22
  -2   1  16  140.72   87.32
   1 -13   4   40.69   31.50
  -1  13  -4   41.67   71.49
   1 -13   4   17.38   53.48
  -1  13  -4   95.38  205.71
   3 -10   9   89.67  111.37
  -3  10  -9  215.01  237.83
   3   5  10  680.90   86.13
  -3  -5 -10 1189.44  272.35
  -4   9   6 1608.80  266.84
  -4   9   6 2825.99  337.66
  -3  12  -2    0.47   67.27
   3 -12   2  139.53  124.97
  -3  12  -2  103.19   56.18
   3 -12   2  122.19   64.53
  -4   5  11   -0.43   74.57
   1 -12  -5 1543.01  200.01
  -1  12   5 1938.33  174.22
   0 -11  -7  589.84  204.34
   1 -12  -5 1776.71  210.59
  -1  12   5 1751.99  424.01
   0 -11  -7  396.89  103.50
   0  11   7  479.61  146.39
   0  11   7  581.04   64.56
  -4   5  11   22.54   50.31
   5   3   2  584.90  112.51
   5   3   2  871.75  135.37
  -5  -3  -2  935.14  434.72
  -5  -3  -2  857.64   88.49
  -3  -9  -3 3532.78  278.64
  -2  11   7 1145.85  271.93
  -2   7 -14 3550.77  491.55
   2  -7  14 1716.07  233.70
  -2  11   7  827.74  137.51
  -3  -9  -3 3528.95  393.86
  -1  -7 -12  333.81   64.09
  -1  -7 -12  428.33  158.00
   1   7  12  272.61   53.02
   1   7  12  327.75   99.22
   3   9   3 4749.84  597.03
   3   9   3 2960.66  315.70
   3   4 -14  840.31  187.48
   3 -11   7  -13.79   20.90
   3 -11   7   -0.82   51.97
  -3  11  -7   16.84   29.39
  -3  11  -7  -13.21   21.16
  -3  -4  14  604.93  171.76
  -3  -4  14  695.89  226.33
   3   4 -14  645.89  428.03
  -1  -6 -13   65.08   64.98
  -1  -6 -13   41.00   30.03
   1   6  13   87.29   46.29
   1   6  13   26.26   77.43
   3 -12   0  540.04   91.80
   3   8 -10 5130.85  579.96
   0  10   9   -4.38   35.58
  -5   7  -3   39.08   25.24
  -3  -8  10 6606.72  623.16
  -3  11   5   -2.63  166.96
  -3  11   5   46.51   51.31
  -3  12   0  749.13   97.59
   0 -10  -9  -16.29   53.59
   3   8 -10 7121.84  649.69
   0 -10  -9  -13.50   35.26
  -3  12   0  707.89  186.49
  -5   7  -3   43.18   57.45
   3 -12   0  679.09  212.71
   0  10   9  -39.84   64.93
  -4   6 -10  129.34   69.96
  -5  -1   8  667.66  230.44
  -5  -1   8  770.20  235.54
   5   1  -8  483.00  190.19
  -4   6 -10  115.79   76.41
   5   1  -8  488.77   68.02
  -2 -10  -5  105.79   46.17
   2  10   5  123.65   43.58
  -1  -9  13  415.13  148.99
   1   9 -13  771.91  168.07
   1   9 -13  749.45  152.42
   2  10   5   -4.70   67.89
  -1  -9  13  727.68  105.54
  -2 -10  -5  145.30   94.41
  -1   7 -15  182.94   56.88
   1  -7  15  269.36  157.01
   1  -7  15  267.36   59.65
  -1   7 -15  151.86  109.81
  -3  -4 -11 2290.76  590.89
  -3  -4 -11 1587.02  268.90
  -2  10   9   45.30   98.39
  -2  10   9   58.54   79.32
  -2   4  15   85.67   81.97
   5   3  -6  671.73   71.89
  -5  -3   6  948.78  255.26
  -5  -3   6 1148.67  173.41
  -2   4  15   98.69   57.29
   5   3  -6  774.59  127.33
   0  13  -2  251.00  238.16
   0  13  -2  862.10  265.82
   0 -13   2  583.69  278.48
   0 -13   2  565.16  139.34
  -4  -1 -10 1182.11  371.85
  -4  -1 -10 1830.93  262.86
   2   3 -16  292.89  134.12
  -2  -3  16    2.35   81.14
   2   3 -16  264.40   66.12
  -1  -1 -16    9.43   45.92
  -1  -1 -16   15.75   17.49
   2   8   9  456.82  152.12
   2   8   9  333.61  104.24
  -2  -8  -9  445.86  147.80
  -2  -8  -9  465.25  145.78
   0   7  13  291.11   80.64
   0   7  13  313.41  123.42
  -5  -1  -5  801.08  310.40
   5   1   5  318.69   75.52
  -3  12  -3    2.79  141.59
   0 -13   3   58.19   76.76
   0  13  -3  155.27  116.86
  -3  12  -3  389.03  102.18
   0  13  -3   25.09   76.41
   3 -12   3  205.12  113.37
   3 -12   3   -0.88  133.01
   0 -13   3   59.44   97.62
   1  12   2  126.47  165.63
  -1 -12  -2   53.85   47.98
  -1 -12  -2   -5.52   62.67
  -1   9  11  154.25   81.76
   1  12   2   99.45   84.96
  -4   9  -7   27.44   67.87
  -1   9  11  206.96  150.57
  -4   9  -7   45.59   68.47
  -2   5 -15  404.34  131.66
  -2   5 -15  869.42  261.47
   1  -5  16    1.08   31.75
   1   7 -15  907.54  140.81
   1   7 -15  952.73  134.21
  -1   5 -16   35.66   81.27
  -1  -7  15 1094.65  324.92
  -1  -7  15 1766.28  337.60
   4   7   2 1604.61  198.09
  -4  -7  -2 2003.90  217.70
  -4  -7  -2 1642.19  503.40
   5   4  -2 1800.87  182.36
  -5  -4   2 2495.11  370.21
  -5  -4   2 2235.04  274.97
   5   4  -2 1969.83  195.06
   3   6   9 1421.87  177.27
  -3  -6  -9 2204.63  522.53
  -3  -6  -9 2023.21  220.51
   3   6   9 1712.59  166.70
  -4   8   8  249.64  143.92
  -4   3 -11   99.88   81.19
  -4   8   8  370.60   89.63
  -4   3 -11   51.53  150.50
   0 -13   1 1255.29  320.26
   0 -13   1 1581.13  290.95
  -1   3  16   83.04   46.71
   0  13  -1 1929.92  447.10
   0  13  -1 1636.49  392.85
  -1   3  16   73.67   74.11
  -5  -2  -4   25.04  172.08
   5   2   4   16.09   45.99
   3   9  -8  818.78  192.07
  -3   0  15   77.99   77.69
   3   9  -8 1090.06  219.34
  -3  -9   8  674.83  171.30
  -3  -9   8  880.08  163.51
   3   0 -15    7.17   74.46
  -4   2 -11  462.74  200.84
  -1  13   1  -39.76   79.83
   1 -13  -1   13.23   45.63
   1 -13  -1   -4.70   95.32
  -1  13   1    2.84   68.59
  -4   2 -11  811.31  153.02
  -5  -4   3 5501.61  848.73
   5   4  -3 4381.22  330.12
   5   4  -3 3869.69  335.30
  -5   6  -5  264.88   71.25
  -5   6  -5  309.58   53.78
  -5  -4   3 6288.73  502.34
   0   2 -17   96.97   35.67
   0  -2  17  154.11   73.73
   0   2 -17   -0.94   51.18
   0  -2  17  248.53  118.21
  -5   5   7  694.21  168.29
  -5   5   7  573.11  118.32
   3 -12  -1  527.36  127.19
   5   4  -1  314.71  125.14
  -3  12   1  657.83  298.38
  -5  -4   1  460.72  165.64
  -5  -4   1  299.04  117.21
   5   4  -1  339.45   81.87
   3 -12  -1  671.02  143.01
  -3  -1  15  285.24  155.62
   3   1 -15  106.35   71.20
   3   1 -15  206.89   48.88
   0   6 -16  673.73  138.01
   0   6 -16  402.02   90.72
   0  -6  16  491.73  125.67
   0  -6  16  525.61   83.31
   0   1 -17   -1.88  126.52
  -5   7   4  449.80  122.19
   0   8  12 1075.32  136.60
   0  -1  17  267.24  130.11
   0   8  12 1789.81  225.84
   0  -1  17  345.88   65.95
   0   1 -17  369.67  101.87
  -5   7   4  394.42   91.55
  -3  -1 -13 1004.08  145.03
  -3  -1 -13  744.35  166.35
   1 -13   5  931.70  119.94
   1 -13   5  519.58   88.61
  -1  13  -5  890.66  138.38
  -1  13  -5  769.54  150.98
  -4  -6   9   -3.11   58.09
  -4  -6   9  136.29   98.15
   0   6  14 1917.09  289.52
   4   6  -9  192.34  108.33
   0   6  14  891.12  133.67
   4   6  -9  151.06  150.44
  -1  -8 -11  275.96   99.21
   1   8  11  182.79   37.01
   1   8  11  175.45   75.45
  -1  -8 -11  167.16  130.67
   0 -13   4  368.13  110.08
   0 -13   4  236.90  272.12
   0  13  -4  403.05  169.06
   0  13  -4  470.56  140.65
  -1  -5 -14    7.59   70.56
   1   5  14    7.80   49.63
  -1  -5 -14   34.28   49.43
   1   5  14   13.02   38.37
  -2 -11  -2 4173.43  393.29
  -2 -11  -2 3971.06  471.69
   0  11 -11  976.37  217.20
  -5   5  -6  330.88   95.09
  -4  -3  12 1337.82  300.53
  -5   5  -6  272.19  166.16
   2  11   2 3939.77  325.95
  -4  -3  12  963.35  313.74
   2  11   2 4205.38  457.96
   4   3 -12  757.51  184.80
  -4  10  -5 1000.51  153.87
   4   3 -12  995.52  307.15
  -4  10  -5  785.97  217.29
   0 -11  11  345.31   90.78
  -4  10  -5  710.56  141.49
   0 -11  11  497.01  121.91
  -4  10  -5 1316.10  331.11
   0  11 -11  607.20  163.13
  -1  -1  17    0.45  171.76
  -3   6 -13 1615.83  283.62
   1   1 -17  242.88   68.51
  -1  -1  17  304.33  108.69
  -3   6 -13 2211.68  485.27
   1   1 -17   55.61   61.33
  -4   4 -11 3022.54  460.79
  -2  -3 -14 1262.41  261.92
  -2  -3 -14 1607.18  224.26
  -4   4 -11 2151.10  175.77
  -5   6   6   26.35   42.50
  -5   6   6  -23.49   34.15
   2   7 -14  241.27   91.73
  -2  -7  14  230.84  195.03
   2   7 -14  108.13  152.45
  -2  -7  14  115.76   49.85
  -5   0  -6   72.56   73.25
  -5   0  -6   63.05  122.61
   1   2 -17  309.80   78.24
  -1  11 -11  105.72  156.19
  -3   4  14   27.23   51.63
   1  12  -7  400.13  277.09
  -1  -2  17  503.23   85.34
  -1  -2  17  318.54   69.99
  -1  11 -11   77.00  120.33
  -3   4  14    4.01   73.01
  -3   1  15    4.43   94.40
   1   2 -17  605.47  169.43
   1  12  -7  565.84  178.07
  -1 -12   7  525.14  144.24
  -3   1  15   33.91   49.63
   1 -11  11   70.80  139.34
   1 -11  11   42.47   33.05
  -1 -12   7  468.63  374.86
   1  11 -10   -0.91   39.96
  -5   4   8    0.33   76.63
   2   8 -13  -32.19   64.69
  -1 -11  10   14.45   89.26
   1  11 -10    1.81   53.88
  -5   4   8   11.20   40.28
  -1 -11  10   18.34   54.48
  -2  -8  13  -20.73   50.42
   2   8 -13    3.60   98.19
  -2  -8  13    7.62   32.02
  -4  10   4  255.58  121.04
  -3  -8  -6   46.05   76.78
   3   8   6   68.31  109.89
   4   7  -7  780.77  183.35
  -3  -8  -6   25.70   24.40
  -1   5  15 1010.11  116.77
  -4  -7   7  948.68  180.47
  -4  10   4  217.61   85.32
   4   7  -7 1039.23  181.73
  -4  -7   7  926.60  438.83
  -1   5  15 1375.31  119.57
   3   8   6   27.93   74.31
   0 -13   0  246.75   75.68
  -5  -4   4 1763.11  281.68
   0  13   0  477.23  336.78
   0   3 -17    2.21   23.44
   0   3 -17    7.73   33.49
  -2   7  13 2072.22  395.06
   0  -3  17   50.80   55.22
   0 -13   0  528.68  155.09
  -2   7  13  766.85  199.47
   0  13   0  706.03  251.67
   0  -3  17   24.13   70.07
   5   4  -4  718.17  114.95
  -5  -4   4  822.01  333.29
   5   4  -4  570.93   79.60
   0  -3 -16  337.42   66.37
   0   3  16  345.37   88.66
   0   3  16  435.10   96.51
   0  -3 -16  295.00  103.55
   2  11  -7   61.72   91.35
  -2 -11   7   -2.70   51.41
   2  11  -7   -4.92   91.97
  -2  13  -2  303.32  111.87
   2 -13   2  235.32   73.62
   2 -13   2  220.78  129.02
  -2  13  -2    1.02  150.67
  -2   2  16   -1.77   32.13
  -2   2  16    0.34   43.82
  -5  -4   0 4002.85  806.35
  -3  -3 -12  343.50  107.52
  -3  12  -4 1652.74  303.89
   5   4   0 2828.16  310.79
  -3  12  -4  891.24  200.59
  -5  -4   0 4080.70  409.71
   3 -12   4  971.64  152.40
   5   4   0 2806.66  334.31
  -3  -3 -12  277.44  260.69
   3 -12   4 1155.01  278.12
   3  10  -3 3786.13  426.96
  -3 -10   3 3332.74  509.20
  -1  12  -9  698.10  193.09
  -2  13  -1  109.08   96.16
  -2  13  -1   37.59   81.12
   2 -13   1   54.25   92.65
   3  10  -3 2782.05  392.29
   1 -12   9  270.95   49.46
  -2   8  12  371.65   96.55
   1 -12   9  171.96  108.22
  -2   8  12  602.22  246.45
  -1  12  -9  354.50  272.19
  -5   1   9  576.82  200.67
  -3 -10   3 2312.18  253.07
   5  -1  -9  335.38  105.75
   2 -13   1   78.58   54.96
  -1 -10  -8  641.39  137.85
  -1 -10  -8  552.86  195.22
   3  10  -2  852.87  203.72
   1  10   8  497.21  127.91
   1  10   8  485.68   60.82
  -3 -10   2  777.42  416.68
   3  10  -2  555.27  286.95
  -3 -10   2  487.41  189.56
  -4   1 -11   -6.78   49.79
  -2  11 -10   47.61   46.05
   2 -11  10   37.89   19.40
   2 -11  10   51.04  108.27
  -2  11 -10   40.67   56.38
  -4   1 -11   -4.89   82.60
  -5   7  -4  193.96   59.92
  -5   7  -4  224.34   44.94
  -2  -1 -15  149.35   63.20
  -2  -1 -15   88.86   49.84
  -3  -2  15  502.55  227.68
   3   2 -15  750.30  214.58
  -3  -2  15  476.38  125.75
   3   2 -15  655.11  205.33
   1   0 -17  628.81   94.62
   1   0 -17  360.76  132.98
  -1   0  17  442.66  152.86
  -1   0  17  617.40  106.60
  -4   4  12   -1.01   58.34
  -4   4  12   -0.12   37.70
   4   6   5    3.55   28.73
   0   0 -17  872.30  104.42
  -4  -6  -5  -22.53   52.96
   2  10 -10 1552.06  396.06
   0   0 -17 2290.15  298.01
  -2 -10  10 2531.70  460.98
  -4  -6  -5  -11.99  152.49
   0   0  17 1527.41  153.33
   2  10 -10 2271.80  345.51
  -2 -10  10 1707.36  224.02
  -2  13  -3 4224.29  435.85
   2 -13   3 3289.32  436.11
   0 -12   9   26.37   45.98
   0  12  -9    9.01   50.44
  -2  13  -3 3123.00  452.76
   5  -2  -9  -23.85   51.86
   2 -13   3 3495.31  373.77
   0 -12   9   63.36   61.47
   0  12  -9   10.20   57.13
  -5   2   9  -25.48   94.36
   1 -11  -8 1682.73  274.36
  -1 -10  12  222.80  119.15
  -1  11   8 1112.40  202.28
   1  10 -12  254.91   93.07
   1  10 -12    2.92   84.21
  -1 -10  12  115.64  105.94
   5   3   3  594.91  205.51
  -5   8   0 1108.43  100.39
  -4   0  13 2606.46  448.20
   4   0 -13 1492.79  351.89
  -5   8   0  993.49  113.19
  -5  -3  -3  530.36   93.73
  -5  -3  -3  549.74  234.80
   5   3   3  360.49   53.41
  -5   8   0  792.35  100.02
  -5   0   9  -11.27   49.89
   5   0  -9    8.36   14.88
   5   0  -9   -8.89   31.65
  -5   0   9   15.90   38.61
  -3  12   2  959.67  179.82
   0 -12  -5   30.17   52.93
   3  10  -4  385.90  277.41
   2 -12  -5   38.10  148.97
   3  10  -4  241.36  361.13
   3 -12  -2 1304.72  208.18
  -3 -10   4  491.51  249.02
  -3 -10   4  449.48  151.76
  -2  12   5   10.61   61.32
   0  12   5    0.32   16.91
   0  12   5    0.36   62.51
   0 -12  -5   21.26   57.23
   3  10  -1  991.73  310.29
   3  10  -1  557.87  170.17
  -3 -10   1  715.45  159.23
  -3 -10   1  759.75  237.64
  -2  13   0  423.48  162.66
   2 -13   0  404.14   87.08
  -2  13   0  722.69  174.83
   2 -13   0  448.46  115.54
  -3  -6  13   91.10   92.42
  -3  -6  13   88.44  158.41
   5   2  -8   11.50   18.62
  -5  -2   8   35.16   69.49
  -5  -2   8  -18.24   46.76
   3   6 -13   28.94   79.76
   3   6 -13  158.14  103.87
   5   2  -8   14.86  140.70
   0  13  -5    3.01   93.42
   0  13  -5   33.27   94.61
  -4   1  13 3042.22  371.58
   0 -13   5  -19.61   33.61
   0 -13   5   21.82   68.56
   4  -1 -13 1818.04  249.92
  -5   8   1   44.19   42.54
  -5   8   1    0.75   28.47
  -5   8   1   37.07   46.73
  -5   8   1    9.20   27.01
  -5   8  -1  655.13   94.71
  -5   8  -1  738.70   94.60
  -5   8  -1 1258.88  199.28
  -5   8  -1  785.99  117.62
  -5   3  -7  982.55  163.09
  -5   3  -7  698.55  180.52
  -4  -4  -8 1625.66  368.43
   4   4   8 1183.35  247.73
   3   7 -12  356.96  141.51
  -1  -3  17 1284.04  282.25
  -1  13   2 2360.60  538.93
  -1  -3  17 2269.31  253.38
   3   7 -12  520.95  223.37
  -3  -7  12  923.38  425.17
   1   3 -17 1047.87  211.87
   1   3 -17 1510.89  191.27
  -3  -7  12  545.15  240.39
   2 -12   8   24.33   67.79
  -1  13   2 3664.59  321.31
   1 -13  -2 2363.25  274.01
  -2  12  -8   19.65   71.35
  -2  12  -8   16.65   35.86
   2 -12   8   26.75   61.37
   1 -13  -2 2665.00  370.93
  -1 -11  -6  169.63   90.65
  -4  -3  -9   15.07  135.01
   1  11   6  117.39   87.35
   1  11   6  173.35   41.26
  -4  -3  -9   38.58   48.69
  -1 -11  -6  237.40  156.43
   0   9 -14 1511.01  445.13
  -2   6  14 3499.07  552.84
   0  -9  14 1050.44  216.41
   0   9 -14 1097.16  228.29
   0  -9  14 1017.79  166.99
  -2   6  14 2676.05  226.73
  -5   2  -7   20.30   46.42
  -5   2  -7   15.05   62.79
   5   3  -7   13.92   45.21
  -5  -3   7   41.21   46.36
  -5  -3   7   13.68   67.37
   5   3  -7   15.43   34.39
  -3   7  12   13.69   85.63
  -3   7  12   39.52   84.63
  -3  -7  -8   78.03   69.22
   3   7   8  112.75  107.22
  -3  -7  -8  218.70  178.93
   3   7   8   95.67   44.96
  -2  -4  16  831.59  159.68
   2   4 -16  543.52   89.60
  -2  -4  16  618.84  187.11
  -3  10   8   -2.36   75.23
   2   4 -16  523.28  122.65
  -3  10   8  198.32   97.63
   0   9  11  113.82   44.47
   0   9  11   -0.96   73.82
  -5  -4   5  264.41  139.97
   5   4  -5  183.86   47.29
   5   4  -5  168.21  120.41
  -5  -4   5  286.73  142.06
  -3   9 -11 1935.72  236.29
  -3   9 -11  282.78  106.27
   4   1 -13  397.81  102.79
  -4  -1  13  505.90  169.93
   1 -13   6  283.07   71.08
  -1  13  -6  524.36  157.26
  -1  13  -6  464.88  189.81
   1 -13   6  449.00   88.23
  -2  -6  15    0.03   49.21
  -2  -6  15   26.56   28.28
   2   6 -15   25.54   53.30
   2   6 -15   -2.80   38.69
   3   9   4  613.29  147.51
  -3  -9  -4  688.12  298.29
   0 -13  -1   77.83  137.77
   0  13   1  107.63  133.24
  -3  -9  -4 1002.57  147.59
   0 -13  -1   40.13  155.11
   0  13   1   69.34  118.53
   3   9   4 1069.02  191.17
   0   5  15    1.54   25.68
   0   5  15  -16.34   34.58
  -1 -12  -3  261.74   64.40
  -1 -12  -3  436.03  223.10
   1  12   3  375.89   88.12
   1  12   3  548.40  385.75
  -5  -4  -1 1083.93  287.64
   5   4   1  751.49  146.95
  -5  -4  -1  963.45  167.44
   5   4   1  606.34   94.99
  -4   5 -11  711.64   97.69
  -4   5 -11  847.72  165.49
  -4  -7  -3  153.79  157.98
  -3   3 -14    5.30   16.46
  -4   8  -9   11.06  107.51
  -3   2  15 1049.05  237.01
  -3   2  15  814.89  149.35
  -3   8 -12  227.58   96.77
  -4  -7  -3  302.18  144.03
  -4   8  -9   25.39   65.19
   4   7   3  401.50  194.62
  -3   3 -14  -18.39   30.03
  -3   8 -12  678.12  172.89
   4   7   3  120.86  136.92
  -2  13  -4  583.02  129.02
   2 -13   4  489.72  102.73
   2 -13   4  372.82  177.73
  -2  13  -4  415.19  141.59
   2   9 -12   16.02   49.49
  -2   9  11  357.83  126.58
  -2  -9  12   -3.83   80.38
  -2   9  11  158.35   93.13
  -3   2 -14 1180.62  109.64
  -2  -9  12  -22.56   43.25
  -3   2 -14 1715.17  219.08
   2   9 -12  -21.47   87.89
  -1  -6  16  104.81   80.28
  -3   8  11   50.58   61.08
  -3   8  11  167.00  124.76
   1   6 -16   -1.17   45.03
   1   6 -16  107.12   58.79
  -1  -6  16  125.84   44.40
   0   4 -17  393.34   67.78
  -5   8   2   -1.93   84.38
   0  -4  17  433.33  157.56
   0  -8  15   35.60   55.23
   0   8 -15   26.55  164.78
   0   8 -15   81.87   76.12
   0  -8  15   17.91  119.01
   0   4 -17  354.33   74.67
   0  -4  17  650.39   83.21
  -5   8   2   47.19   37.32
  -5   7   5   -2.22   56.92
  -5   7   5   30.45   42.75
  -3 -10   5 4207.41  929.68
   3  10  -5 6210.33  758.23
   3  10  -5 5098.31  778.77
  -5   4  -7  167.55   81.35
  -3 -10   5 3874.70  610.13
  -5   4  -7  127.57   89.72
   3 -11   8    1.60   83.76
  -3  11  -8   15.89   55.56
   3 -11   8   86.70   30.09
  -5   8  -2  309.58   51.38
  -5   8  -2  405.64   87.98
  -3  11  -8   70.59   34.15
  -5   8  -2  404.24  101.48
   3  10   0  357.31  220.49
  -3 -10   0  323.83  248.60
  -3 -10   0  455.28  142.65
   3  10   0  347.79  104.21
  -4   9   7  779.95  201.22
  -1  10  10  450.26  148.62
  -1  10  10  483.94  282.10
  -4   9   7  425.23  161.19
  -3  11   6   10.61   43.51
  -2   6 -15  785.40  290.54
  -5   3   9  941.41  151.41
  -2   6 -15  286.83   87.53
  -3  11   6   -4.12   46.41
  -5   3   9 1188.43  419.93
   3 -12   5    4.41  119.03
  -2  13   1   -8.88   77.60
   2 -13  -1   27.50   70.92
   2 -13  -1    2.08   27.34
  -3  12  -5  116.94   80.00
   3 -12   5   49.54   32.76
  -3  12  -5    9.53   58.91
  -2  13   1    0.47   41.38
  -1  -2 -16  154.07   49.78
  -1  -2 -16  174.90   61.83
  -4   2  13    1.75   38.72
  -4   2  13   -0.78   66.04
  -4   7 -10   51.02   90.69
  -4   7 -10   52.84   80.54
  -1  -9 -10  228.31  100.07
  -1  -9 -10  223.24  143.78
   1   9  10  181.36   93.61
   1   9  10  265.17   85.04
   1  -1 -17  215.81   77.47
  -1   1  17  445.93  114.98
  -3   6  13  -21.21   66.88
   1  -1 -17  427.15  109.44
  -1   1  17  400.90   69.46
  -3   6  13   36.28   69.69
  -1  12   6  597.72  220.15
   1 -12  -6  431.38  187.52
  -5  -1   9 1002.33  176.68
   5   1  -9  769.52   82.30
  -4  -8   2  852.26  351.21
   4   8  -2  971.49  171.33
  -4  -8   2  903.20  211.48
  -5  -1   9 1093.55  180.33
   5   1  -9  960.20  213.80
   4   8  -2 1073.14  309.32
   4   5   7 1424.80  202.25
  -4  -8   3 1376.37  265.23
  -4  -8   3 1407.48  174.93
   0  10 -13  620.75  183.45
   4   8  -3 1409.07  200.79
   0  10 -13  483.95  175.34
   4   8  -3 1251.09  196.45
   0 -10  13  605.15   97.12
  -4  -5  -7 1609.79  591.43
   0 -10  13  297.90  146.42
  -5   1  -7 1166.63  209.69
   1  -6  16  209.21  194.71
  -5   1  -7  955.73  280.63
  -1   6 -16  201.18   64.94
  -2   9 -13  258.59   87.32
   2  -9  13  286.57  242.41
  -1  -4 -15   76.12  128.34
  -1  -4 -15  120.72   74.55
  -4   0 -11  189.43  196.41
   1   4  15   69.90   44.88
   1   4  15  119.34   56.99
  -4   0 -11  215.35   91.80
  -3  -5  14    3.87   28.48
   3   5 -14  -17.48   53.65
  -3  -5  14   -4.79   39.59
   3   5 -14  -20.76   68.46
   2  11   3 2576.47  345.91
  -2 -11  -3 2513.79  268.94
  -2 -11  -3 2749.72  360.19
   2  11   3 2702.59  241.98
  -4  10  -6   64.55  118.47
  -4  10  -6  173.91  180.68
  -5   6  -6   17.82   23.32
  -5   6  -6   16.29   38.48
   3   3 -15    3.75   44.85
   3   3 -15    9.11   67.20
  -3  -3  15    9.45   30.33
  -2  -9  -8  185.83  107.29
  -2  -9  -8  213.42   69.54
  -3  -3  15   38.51  128.16
   2   9   8   -1.94  203.53
   2   9   8  150.25   75.66
  -3   4 -14 1017.85  159.48
   2   6  12 1078.44  117.34
  -2  -6 -12 1486.21  149.93
   2   6  12 1366.72  132.16
  -3   4 -14  996.62  109.17
  -2  -6 -12 1863.53  272.85
  -3  -9   9   33.74   54.13
   3   9  -9   26.22   87.43
  -4  -2 -10   16.87   62.67
   3   9  -9   75.00   93.71
  -3  -9   9   12.55   63.12
  -4  -2 -10   91.78  169.84
   0   1  17   17.67   79.57
   0   1  17   44.83   31.40
  -5  -2  -5   17.48  103.40
   5   2   5  -26.88   89.75
   0  -1 -17   24.24   44.55
   0  -1 -17   -7.60   38.54
   1  -9  14  554.58  117.87
  -1   9 -14  473.69   83.27
  -4  11  -1  281.92  100.65
  -4  11  -1  210.34   44.51
  -1   9 -14  394.14  118.59
  -4  11  -1  282.48   78.76
  -4  11  -1  221.44  129.99
   1  -9  14  410.55  240.62
   4   5 -11  821.17  187.19
  -4  -5  11  692.42  116.77
  -4  -5  11 1365.44  216.02
   4   5 -11 1667.12  233.23
  -3   1 -14   88.96   61.83
  -3   1 -14  172.66  123.54
  -2 -10  -6  425.77  112.53
   2  10   6  327.23   81.73
  -2 -10  -6  230.47  206.67
   2  10   6    4.57  277.90
   0 -13   6   -5.00  138.99
  -4  11   0  136.37   41.66
   0  13  -6   17.48  102.58
   0 -13   6   28.98   38.45
  -4  11   0   96.40  155.56
   0  13  -6   40.45   67.70
  -4  -8   1    0.40   62.70
   4   8  -1  110.29   88.05
   4   8  -1  110.53  125.57
  -4   7  10   -5.43   64.69
  -4   7  10   11.86   59.39
  -4  -8   1   73.19   94.43
  -5  -1  -6  280.22   93.10
  -5  -1  -6  482.55  264.29
   1  12  -8 4451.04  671.50
   4   8  -4 1256.12  187.86
  -3  12   3  215.93   71.80
   4   8  -4 1135.81  190.93
  -4  10   5  118.54   56.80
  -1 -12   8 4580.42  626.44
  -3  12   3    0.69  229.60
  -4  -8   4 1377.41  191.64
   1  12  -8 3815.59  661.78
  -4  10   5    2.94   64.34
  -4  -8   4 1400.83  318.07
  -1 -12   8 4768.61  672.59
  -4   9  -8   75.43   84.12
  -4   9  -8   33.62   79.37
  -4  -7   8  633.82  246.07
  -4  -7   8  990.86  187.72
   4   7  -8  959.74  178.45
   4   7  -8  780.55  189.53
  -3  10 -10  200.52  263.63
   3 -10  10   59.58   64.99
  -4   6  11   -1.10   74.48
  -4   6  11   67.58   94.82
  -2 -11   8  663.30  312.54
   3   8 -11   41.54   75.07
  -2 -11   8  627.47  182.40
  -3  -8  11   42.89   85.55
   3   8 -11   -5.35  133.76
   2  11  -8  771.23  325.87
  -3  -8  11   73.56  214.97
   2  11  -8  960.41  575.29
  -2  10 -12   22.54   57.15
   2 -10  12   14.56   85.76
  -4  11  -2   81.96   76.79
  -5   7  -5    5.80   19.86
  -4  11  -2   97.36   31.29
  -4  11  -2  120.66   55.72
  -4  11  -2   97.12   69.47
  -5   7  -5   -3.58   42.31
  -4  -2  13  134.03   74.52
   4   2 -13  246.19   63.14
  -5   5   8   -2.62   33.35
  -5   5   8   -0.32   49.12
  -5   8   3   11.20   31.10
  -4  -2  13  314.94  116.86
  -5   8   3    2.25   41.25
   1   4 -17 2725.44  432.68
   1   4 -17 2497.19  396.84
  -2  11   8  553.48  200.48
  -2  11   8  749.82  245.29
  -1  -4  17 1759.12  278.92
  -1  -4  17 1772.80  196.37
   1 -10  13    4.38   50.05
  -3  -2 -13  132.10  100.71
  -2  -7 -11   35.36   99.86
  -2  -7 -11    6.24   38.62
   2   7  11   12.00   23.20
   2   7  11    1.05   47.80
   1 -10  13   35.08  113.29
  -1  10 -13   24.77   66.35
  -3  -2 -13  133.74   89.23
  -1  10 -13   66.70  106.42
  -2  -5 -13 1278.32  159.79
  -2  -5 -13 1637.48  305.34
  -5   6   7   45.04   53.31
   5   4  -6 1322.85  174.10
   5   4  -6 1470.84  200.95
  -5   6   7   12.52   63.53
   2 -13   5  130.05   61.40
  -5  -4   6 1552.68  219.20
  -5  -4   6 1658.70  171.43
  -2  13  -5   73.98   71.85
  -2  13  -5  191.79  125.68
   2 -13   5   78.69   72.94
  -2   8 -14   18.95  102.54
  -2   3  16    1.27   68.68
  -2   3  16    0.60   44.14
  -5   8  -3  103.21   71.60
   2  -8  14   28.33  135.81
  -5   8  -3   83.33   40.95
   4   4 -12   21.64   73.99
   4   4 -12   97.38   76.55
  -4  -4  12   98.57  204.51
  -4  -4  12   66.78  166.71
   0  11   8  462.83   45.19
   0 -11  -8  356.13   99.00
   0  11   8  448.81  140.66
   0 -11  -8  549.65  156.43
  -4  11   1  489.48  137.43
  -4  11   1  376.71  104.97
  -3   9  10   86.50  173.15
  -3   9  10   98.15   72.88
  -3 -10   6 1362.54  246.08
   1 -13  -3 1134.82  223.60
   1 -13  -3 1453.45  350.76
  -1   4  16  312.39  163.71
  -1  13   3 2362.65  336.12
  -1   4  16  237.03   62.06
  -1  13   3 1083.16  267.85
  -3 -10   6 1794.68  229.60
   3  10  -6 2665.60  582.06
   3  10  -6 1756.66  540.19
  -3   7 -13    4.90  131.36
  -3   7 -13   13.17   59.34
  -5  -4  -2  192.31   64.00
   5   4   2   12.16  128.66
   0  13   2  271.59  154.99
   0  13   2  161.96  194.58
   0 -13  -2  231.96  116.22
   0 -13  -2  173.58  129.73
   5   4   2   96.94   68.65
  -5  -4  -2  143.78  254.64
  -2   5  15   91.91  185.98
  -3 -10  -1  238.37  130.72
  -5   5  -7  -13.11   27.98
   3  10   1  551.35  212.19
  -2   5  15  152.04   64.74
   3  10   1  423.94  111.78
  -5   5  -7   24.95   39.03
  -3 -10  -1  254.62   77.97
  -4  -6  10  497.09  119.66
  -4  -6  10  339.34  107.92
   4   6 -10  817.34  183.46
   4   6 -10   18.18  253.12
   5   3   4  991.01  180.38
  -5  -3  -4 1292.30  546.29
  -1   8 -15 2100.46  239.48
  -1   8 -15 1697.43  135.91
   2 -13  -2 1156.74  175.18
  -1   2 -17   -4.47   39.95
   2 -13  -2 1105.99  146.80
   1  -8  15 2816.43  580.92
   1  -8  15 2180.19  180.52
  -2  13   2 1284.34  228.11
  -1   2 -17  -10.74   43.97
  -4  -8   0  212.96  257.78
  -4  -8   0  361.73   90.93
   4   8   0  270.31  169.43
   4   8   0  216.44   92.32
  -4   8   9 1478.75  254.13
  -4   8   9 1055.81  232.53
  -4  -8   5  763.41  255.28
   4   8  -5  897.82  197.52
  -4  -8   5 1018.40  466.53
   4   8  -5  615.41  162.24
  -2  -2 -15    3.72   52.78
  -2  -2 -15   54.80   40.49
  -4  11  -3  170.50  100.04
   0  -7  16 1008.30  321.55
  -1  13  -7  521.31  135.25
   0   7 -16 1372.69  217.12
   1 -13   7   73.80   97.73
  -4  11  -3  120.84   50.79
   1 -13   7  458.57  119.91
   0  -7  16  944.68   92.39
   0   7 -16  748.12  100.41
  -4  11  -3  122.28   30.87
  -1  13  -7  282.49   95.14
  -4  11  -3   42.12   94.80
  -1   3 -17  194.68   99.50
  -1   3 -17   -0.76  130.34
  -2   2 -16  809.64  129.99
  -4   3  13   33.70   59.86
  -2   2 -16 1889.95  305.74
  -4   3  13    0.76   98.39
  -3   3  15   -4.37   38.03
  -3   3  15   -3.28   43.27
  -5   4   9  355.04   97.77
  -1   1 -17   -3.81   29.53
  -1   1 -17   99.40   68.26
  -2   3 -16  783.12  256.53
  -2   3 -16  484.46  147.76
  -4   6 -11  337.17   67.07
  -4   6 -11  327.21   99.99
  -5   4   9   -0.39  174.25
  -5   0  -7   46.23  123.83
  -5   0  -7   57.19   74.94
   5   3  -8  652.96  198.26
   5   3  -8  621.88   76.89
  -5  -3   8  994.45  203.54
  -5  -3   8  755.47  125.64
  -3   5  14   89.97   94.92
  -3   5  14  122.91   70.23
  -3   5 -14  376.06  162.99
  -3   5 -14  613.61  186.27
   0  -5  17  260.42  160.69
   0  -5  17  201.96   69.51
   0   5 -17  199.58   58.99
   0   5 -17   99.25   59.37
  -4   5  12  459.08  136.32
  -4   5  12  472.70  187.43
  -3  12  -6  247.86  125.65
   3 -12   6  177.50   45.57
   3 -12   6   -3.01  169.59
  -3  12  -6  227.94  218.69
  -2  10  10   -0.92   48.56
  -2  10  10   -4.30   26.99
  -1  12 -10  998.43  204.37
   1 -12  10  590.95   67.47
   1 -12  10  700.92  178.76
  -1  12 -10  803.16  155.04
   0  10  10 1382.76  258.36
   0 -10 -10 1776.37  259.87
  -3   0 -14   28.39   60.82
   1  11 -11 1540.33  273.24
   5   2  -9   59.07   42.52
   1  11 -11 1746.91  305.54
  -1 -11  11 1746.25  228.54
   5   2  -9   51.78   68.68
  -5  -2   9  155.76   97.20
   2 -12  -6  152.70  132.50
  -5  -2   9   94.68  241.82
  -1 -11  11 1863.32  379.29
  -2  12   6    2.65   84.47
  -3   0 -14   65.05   91.60
  -4  11   2   31.29   61.53
  -4  11   2  -36.43   88.20
  -5   7   6    3.17  114.30
  -5   7   6   23.79   40.76
  -1   8  13   -7.50   62.64
  -1   8  13   18.09   50.48
   1  12   4   -4.48   31.50
   2   5 -16   -3.46   79.17
  -4  -6  -6    9.18   23.54
   0 -12  10  131.67   96.08
   0  12 -10  346.88  254.45
  -1 -12  -4   66.96   69.83
   4   6   6   -4.05   82.80
   1  12   4   45.87   61.70
   4   6   6   22.87   49.54
  -2  -5  16   51.14   43.08
   0 -12  10   65.40  135.93
  -1 -12  -4   11.63   85.24
  -2  -5  16   36.60   57.70
   2   5 -16    8.79   28.28
  -5   1  10   29.71   99.32
  -4  -6  -6  -32.79  134.99
   5  -1 -10    7.39   44.24
   0  12 -10  312.28  128.19
  -3  -8  -7  211.28  237.44
  -1   2  17  716.18  143.00
  -1   7  14    5.29   95.52
  -3  -8  -7  192.18   71.72
  -1   2  17  669.38  193.12
   3   8   7  192.06   89.75
   3   8   7  173.90   97.13
  -1   7  14  -24.52   62.42
   4   7   4  551.54  116.51
  -3  -5 -11 3771.98  284.98
  -4  -7  -4  488.55  312.12
  -4  -7  -4  450.51   65.57
  -3  -5 -11 5616.41  593.17
   4   7   4  811.79  175.01
   5   5  -2  609.08  111.49
  -5  -5   2  318.60  364.32
   5   5  -2  491.82  104.14
  -5  -5   2  718.91  115.32
   0   4  16 1296.08  160.54
   0   4  16 1263.33  164.19
  -1  -9  14   42.39   49.15
   1   9 -14    4.09   69.15
  -1  -9  14   98.41   50.12
   1   9 -14  164.34   84.73
   0 -12  -6    3.71   20.74
   0  12   6   12.99   54.47
   0  12   6    2.99   24.91
   0 -12  -6   -7.50   38.46
   1   8 -15  518.48  199.50
   1   8 -15  587.10  174.00
  -1  -8  15  323.91   77.10
  -1  -8  15  587.73  121.03
  -2   1 -16   -1.11   14.37
  -2  12  -9   49.23  158.36
   2 -12   9   51.72   38.00
  -2   1 -16    1.26   47.54
  -2  12  -9   35.75  107.37
   2 -12   9   18.43   81.65
  -5  -5   3  991.69  132.02
  -5  -5   3  819.81  198.37
  -5   8   4  343.81  119.18
   0 -11  12   56.01   53.10
   0 -11  12   94.08   45.26
   5   5  -3  758.21  120.11
   0  11 -12   92.46   78.13
   5   5  -3  663.79   88.01
  -5   8   4  649.21  100.85
   0  11 -12    8.98   69.58
   2   8  10 1963.35  174.77
   2   8  10 1835.50  216.40
  -2  -8 -10 2480.32  342.92
  -2  -8 -10 2096.80  299.42
   0 -13   7  382.64  154.23
  -2 -10  11   37.36  120.45
  -2 -10  11   58.03  110.02
   0  13  -7  494.10  275.55
   2  10 -11    6.78   78.68
   0 -13   7  557.21  202.56
   2  10 -11   50.99  107.36
   0  13  -7  589.99  220.17
  -2  -4 -14 1011.28  125.12
  -2  -4 -14 1049.09  208.16
   2   1 -17   18.84   44.04
  -2  -1  17    0.90   75.97
   2   1 -17   24.59   24.43
  -5   0  10   30.26   70.37
   5   0 -10    2.53   28.54
  -4  -1 -11 1185.46  261.66
  -5   8  -4 1077.87  162.99
  -5   8  -4  528.78  111.85
  -4  -1 -11 1050.59  335.39
  -5  -5   1  290.96  182.67
   5  -2 -10    3.73   39.29
  -5  -5   1  373.77  144.50
  -3  -9  -5   58.43   94.92
  -3  -9  -5   37.80   48.04
  -5   2  10   -3.70   48.18
   3   9   5   36.01   80.81
   5   5  -1  246.12  136.47
   3   9   5   59.23   87.08
   5   5  -1  198.87  114.74
  -3  -6 -10  958.63  417.02
   3   6  10  535.93   75.48
  -2   4 -16  389.83  149.38
  -2   4 -16  570.80  145.46
  -3  12   4   73.77   82.43
   2 -11  11  130.02   41.75
  -2  11 -11  151.01   82.34
   2 -11  11  192.35   95.28
  -3  12   4   -0.46   97.02
  -2  11 -11  229.84  160.15
   2 -13   6  626.16  144.25
   2 -13   6  940.54  180.40
  -2  13  -6  959.32  232.09
  -2  13  -6  607.80  113.59
  -1  11 -12 1705.85  212.66
   1 -11  12 1491.99  270.29
  -1  11 -12 2465.42  374.36
   1 -11  12 1508.96  178.72
  -1   4 -17   87.28  131.76
  -4  -8  -1  961.31  243.59
   4   8   1  801.33  114.84
   4   8   1 1507.38  370.41
  -4  -8  -1 1380.89  190.48
  -1   4 -17    3.51   87.44
  -3  -4  15  158.08   63.03
   3   4 -15  326.21  151.46
   3   4 -15  264.81  207.94
  -3  -4  15  275.24  127.78
  -4  11  -4  -11.82   50.53
  -4  11  -4   13.40   47.44
  -4  11  -4    7.23   48.85
  -4  11  -4    8.16   15.19
   0  -2 -17  657.27  168.58
   0  -2 -17  299.97  107.83
   0   2  17  311.19   53.80
   0   2  17  612.16  105.61
  -2   0  17  643.08  123.88
  -4  -8   6 5798.49  973.30
  -4  -8   6 4457.65  408.38
   4   8  -6 5958.04  550.55
  -2   0  17  564.02  194.22
   4   8  -6 3856.46  437.91
  -2 -11  -4  695.89   85.01
  -2 -12   3  253.12  222.61
   2  11   4 1144.04  142.23
   2  12  -3  517.85  276.94
   2  11   4  783.29  250.70
  -2 -12   3  566.95  181.83
   2  12  -3  362.67  390.75
  -2 -11  -4  859.22  238.42
  -3 -10   7  387.70  152.10
  -3 -10   7  559.06  221.05
   3  10  -7  489.02  229.11
   5   4  -7  226.34   91.48
  -2 -12   2 1585.48  239.04
   5   4  -7  336.11   66.05
   3  10  -7  956.61  234.33
  -5   3  -8    4.09   92.44
  -3  -4 -12  929.66  223.90
   2  12  -2 3071.54  534.27
  -5  -4   7  364.67  156.41
   2  12  -2 4437.65  565.07
  -2 -12   2 2263.67  238.57
  -5   3  -8   17.23   60.41
  -5  -4   7  447.21  141.07
  -3  -4 -12 1442.44  526.59
  -5  -5   4   42.34   91.19
   5   5  -4   31.70   33.68
  -4  10  -7  -10.21   51.38
  -4  10  -7   17.10   57.56
  -4  -3  13    7.97   92.77
   4   3 -13  -19.80   81.72
  -4  -3  13   11.72   47.93
   4   3 -13   24.42   69.99
  -5  -5   4   31.37   65.90
   5   5  -4   45.44   83.62
  -4   3 -12  296.76  165.33
  -1   0 -17 1145.36  223.30
  -4   3 -12  556.52  221.66
  -1   0 -17 1914.90  266.69
  -1 -13   3  294.67   92.57
  -1 -13   3  404.05  217.55
   1  13  -3  439.09  148.37
  -1 -13   2  380.66  156.87
  -1 -13   2  274.96  151.20
   1  13  -2  467.57  334.25
   1  13  -2  664.02  285.42
   1  13  -3  166.98  123.30
  -2  -2  17    0.01   87.75
   3  10   2  415.95  100.73
  -3 -10  -2  436.58   87.74
   2   2 -17   21.98   49.12
  -3 -10  -2  469.64  291.87
   2   2 -17   38.63   30.76
   3  10   2  539.42  200.95
  -2  -2  17   54.44   51.71
   1  11   7   40.41   65.32
  -1 -11  -7   57.84   69.52
   1  11   7   71.23   66.48
  -1 -11  -7   83.98   94.54
  -5   2  -8   14.02   77.94
  -5   2  -8   18.28   63.79
  -2   7 -15  191.73   90.57
  -2   7 -15 1555.88  348.95
  -1   9  12  244.73  160.95
  -1   9  12  201.44   81.68
  -1  -7 -13   23.55   96.20
   1   7  13   10.20   17.10
   1   7  13   17.35   46.91
  -4   2 -12   14.12   90.35
  -4   2 -12   74.80  113.75
  -1  -7 -13   55.27   66.81
  -2  13   3   22.36  114.92
   1  10   9   59.93   76.71
   3 -11   9 1741.52  269.55
   2 -13  -3  -21.44  127.04
  -1 -10  -9  109.75   60.96
  -1 -10  -9  109.67   73.16
   1  10   9  152.38   50.44
  -3  11  -9 1649.51  284.44
  -3  11   7  -17.95   33.44
   5   4   3   16.71   48.47
  -5  -4  -3   14.54   52.27
   5   4   3    3.87   40.19
  -3  11   7    0.09   57.54
  -5  -4  -3   20.53  158.62
  -4  10   6  288.63  217.94
   0 -13  -3  810.45  202.50
   0  13   3  457.48  175.12
   0  13   3  979.34  144.79
   0 -13  -3  817.40  190.25
  -4  10   6  266.06   86.06
  -1   6  15  862.35   97.99
  -1  -5  17  819.23  111.97
  -1  -5  17  570.49  190.21
   1   5 -17  697.73  124.24
   2  12  -4 2315.70  348.58
   2  12  -4 2385.97  799.29
  -1   6  15  934.52  256.19
   1   5 -17  566.24  106.20
  -2 -12   4 1157.99  216.68
  -2 -12   4 2170.80  464.67
  -5   7  -6  790.96  139.20
  -5   7  -6  703.72  127.15
  -1 -12   9  521.58  222.60
  -5  -5   0 2280.39  275.75
  -1 -12   9  493.89  113.54
  -1  11   9   -0.33   36.97
   1  12  -9  610.12  189.82
   1 -11  -9   40.33   84.77
   1  12  -9  621.31  199.53
   5   5   0 1615.21  175.51
  -5  -5   0 2085.07  361.36
  -1  -3 -16  259.05   74.72
  -1  -3 -16  218.42   34.73
   1   3  16  418.61   57.30
  -4  -7   9    3.05  124.74
  -4  -7   9  235.04  166.85
   4   7  -9  325.92  239.60
   2  12  -1   57.96   92.19
  -5   6  -7   50.01   45.11
   4   7  -9  119.18  208.02
  -2 -12   1   34.80  115.31
   2  12  -1   86.64  130.00
  -2 -12   1   73.86  104.07
  -5   6  -7   26.47   27.09
   2  11  -9 1614.65  442.99
   1  13  -1   55.33  113.17
  -1 -13   1   21.08   48.48
   2  11  -9  812.31  419.18
  -1 -13   1   64.01   70.70
  -2 -11   9  795.55  165.99
  -4   9   8  796.25  347.04
  -2 -11   9 1128.86  348.66
   1  13  -1   87.18  147.51
  -4   9   8  410.80  161.94
   2   8 -14  -12.06   77.06
  -1 -13   4 1305.20  200.17
   1  13  -4 1846.31  641.54
  -1 -13   4 1985.10  403.06
   1  13  -4 2005.56  312.70
   2   8 -14   -2.42   43.43
  -2  -8  14    8.59   43.13
  -2  -8  14    1.87   43.70
  -5   4  -8 4622.84  514.84
  -5   4  -8 3358.70  373.16
  -4  11   3   56.49   79.80
  -4  11   3    7.82  155.91
  -4   4 -12  738.25   94.80
  -4   4 -12 1071.85  192.13
  -1 -10  13   46.42   87.43
   1 -13  -4   59.61   80.07
   1 -13  -4   61.41   87.49
  -3  10   9 1070.10  302.38
  -3  10   9 2219.40  433.51
  -1 -10  13  146.94   63.79
   1  10 -13  103.78   73.77
   1  10 -13    4.79   63.11
  -1  13   4   88.94  108.96
   1  -7  16  721.60  189.69
   1   6  14  161.53   42.23
  -1  -6 -14  164.62   53.25
   3   9 -10   89.59  155.50
  -3  -9  10   25.86   75.43
  -3  -9  10  -57.53   96.18
   1   6  14  118.96   98.93
  -1   7 -16  557.18  114.62
  -1  -6 -14  168.72   95.96
   3   9 -10   10.97  140.80
  -5  -2  -6   85.07  150.84
   5   2   6   24.55   39.84
  -5  -1  10   85.35   74.75
   5   1 -10   37.58   48.83
  -5  -1  10  132.78   89.28
   5   1 -10  157.78  105.11
  -2   0 -16  492.71   56.85
  -1  -7  16  130.46  181.39
  -2   0 -16  453.80  129.68
   1   7 -16  114.86   55.39
   1   7 -16   -1.32   43.85
  -1  -7  16  322.54  184.50
  -5   3  10  340.56  106.63
   4   4   9  811.03  102.93
  -4  -4  -9 1291.57  324.22
  -1  12   7 2185.10  382.20
   1 -12  -7 2655.43  370.21
  -4   8 -10  748.52  172.85
  -4   8 -10  517.26  163.39
   1   8  12  391.73   97.10
   1   8  12  414.86   90.52
  -1  -8 -12  498.62   75.71
  -1  -8 -12  432.66  164.55
  -5   9   0  -20.64   27.63
  -5   9   0    6.22   19.85
  -5   9   0   -5.33   34.89
  -5   9   0  -14.12   34.66
  -3  -7  13   33.97   72.63
   3   7 -13  -14.20  143.77
  -3  -7  13  -14.50   63.91
   3   7 -13  -16.65   94.79
   2   7 -15    3.32  115.60
   5   5  -5  654.21  130.83
  -2  -7  15   55.18   38.03
   5   5  -5  674.65  162.56
   0   7  14  398.16  125.59
  -2   1  17    3.34  184.49
  -5  -5   5  756.89  189.03
   0   7  14  290.06   57.13
  -2   1  17  134.02   59.61
  -2  -7  15  205.42  172.22
   2   7 -15  111.19   72.22
  -5  -5   5 1138.81  298.21
  -5   1  -8   94.34  121.46
   0   8  13    4.51   22.77
  -5   1  -8   72.03  232.57
  -5   9  -1  936.16  165.92
  -5   9  -1 1255.92  224.08
  -3  -7  -9  602.21   92.65
  -3  -7  -9 1124.30  337.61
   3   7   9  726.98  175.17
   3   7   9  356.04   68.38
   0   8  13  -16.27   38.70
  -3   6 -14   -5.94   64.97
  -1  13  -8 1231.64  222.92
  -1  13  -8 1273.54  251.94
   1 -13   8 1065.64  121.15
  -3   6 -14  -10.82   66.14
   1 -13   8  493.13   94.62
  -4   1 -12 1349.03  195.76
  -4   1 -12 1018.28  313.76
  -5   9   1    4.35   21.56
  -5   6   8    0.97   79.55
  -4   4  13  354.90  140.39
  -5   6   8  113.55   68.05
  -4   4  13  489.78  131.08
  -5   9   1    8.40   26.61
  -2 -12   5 1224.51  217.75
  -5  -1  -7 1556.47  678.86
   2  12  -5 1954.63  349.56
   5   3   5  417.32  114.14
   2  12  -5 2976.09  593.08
  -5  -1  -7  991.52  231.51
  -5  -3  -5  614.78  276.35
  -2 -12   5 2522.42  314.29
   3   0 -16  109.93   81.03
  -4  -3 -10  936.55  263.37
  -4  -3 -10 1231.70  383.51
  -4   9  -9 1134.81  232.64
  -4   9  -9 1827.45  268.73
  -2  -3  17   -1.16   52.52
   2   3 -17   16.57   28.80
   2   3 -17    6.56   29.70
  -3  -6  14    2.02   58.69
   3   6 -14   -5.86   47.08
   3   6 -14   59.61   74.92
  -2  -3  17    6.62   42.32
  -3  -6  14   56.92   98.40
  -3  12  -7  120.59   66.34
  -2   4  16   10.76  101.82
   3   1 -16  171.71   91.48
  -3  12  -7   97.37   76.89
  -2   4  16  233.39  156.86
  -2   5 -16   79.48  120.68
  -2   5 -16   62.28   95.49
   3 -12   7   71.67   33.86
   3 -12   7    5.63  121.57
  -1 -13   0  346.84  117.42
   1  13   0  200.31  231.92
  -1 -13   0  171.13  148.13
  -3   9 -12    5.80   45.11
   1  13   0  685.37  214.84
  -3   9 -12  145.73  157.23
  -2 -12   0  157.08   67.85
  -2  -9  13  139.35   70.26
  -2 -12   0  244.09  160.63
   2  12   0  340.78  123.47
  -5   8   5   -3.73   27.60
   2   9 -13  230.03  107.97
   2  12   0  136.68  100.14
  -5   8   5   28.88   35.34
   2   9 -13  187.07  185.37
  -2  -9  13  220.66  240.95
  -1 -13   5 1554.58  353.65
  -3  -1 -14  458.09   98.12
   1  13  -5 1414.53  368.66
   1  13  -5 1472.79  445.90
  -4  -5  -8 3393.82  527.87
   4   5   8 2374.57  234.69
  -1 -13   5  975.31  174.55
  -3  -1 -14  321.19  127.56
  -5   5   9   33.62   52.38
  -2 -10  -7  110.00  146.71
   2  10   7    8.51  156.04
  -5   5   9    0.12   76.99
  -2 -10  -7  300.22   98.87
   2  10   7  251.84   64.24
   4   0 -14  435.60  139.24
  -2   8  13  136.39  122.15
  -2   8  13  263.55  137.87
  -4   0  14 1130.18  344.41
  -4  11  -5  658.02   88.62
  -4  11  -5  519.63   50.57
  -4  11  -5  670.54   82.15
  -4  11  -5  632.23  104.50
  -4  -8  -2 2169.26  264.78
   4   8   2 1484.47  314.21
   4   8   2 1947.98  314.36
  -4  -8  -2 1597.82  586.19
  -5  -5  -1 1648.76  339.50
   5   5   1 1428.74  237.37
   5   5   1 1513.47  262.81
  -5  -5  -1 2320.44  223.03
  -1   5 -17    1.07   45.65
  -1   5 -17  517.05  159.74
  -5   8  -5  256.92   93.08
  -5   8  -5  504.93  134.65
  -5   9  -2    9.63   33.46
  -2   7  14   83.90   53.16
  -2   7  14   91.82  150.47
  -5   9  -2  -15.22   21.79
  -3  -3 -13 1581.79  430.27
  -5   9  -2   -1.51   36.75
  -5   9  -2  -37.47   43.27
  -3  -3 -13 1194.12  137.05
  -4  -8   7  779.08  266.55
   4  -1 -14    2.14   41.51
  -3   4  15   20.31   79.18
  -4   1  14  -20.22   73.73
  -4  -8   7 1248.60  323.34
   4   8  -7  811.00  195.14
  -3   4  15   27.44   55.27
   4   8  -7 1276.61  222.09
  -4   7 -11   59.73  182.40
  -4   7 -11  218.67  128.42
  -4  -5  12 1352.16  413.11
  -4  -5  12 1581.08  305.78
   4   5 -12 1499.62  238.72
   4   5 -12  799.78  278.15
  -5  -3   9   77.23   82.09
   0   6 -17  967.03  278.97
  -5  -3   9   24.38   52.71
   5   3  -9   18.17   25.14
   5   3  -9   43.36  102.76
   0  -6  17  890.82  106.31
   0  -6  17  863.43  225.47
   0   6 -17  507.75   82.81
   0 -13   8 1163.21  135.56
   0  13  -8 2086.08  422.91
  -5   5  -8  152.06   72.40
   0 -13   8  571.86  171.02
   0  13  -8 1721.25  286.23
  -5   5  -8  287.39  151.51
  -2  13  -7   27.51   57.04
  -2  13  -7    4.95   50.40
  -5   9   2 1365.75  125.84
   2 -13   7   -0.05   27.56
   2 -13   7   32.91   71.79
  -5   9   2 1080.05  190.76
  -3   1  16  106.88  135.66
   3   8 -12   92.44  108.54
   0   6  15   -1.55   29.92
  -4   5 -12  649.92  148.06
   3   8 -12  116.18   99.47
  -3  -8  12  137.19  113.35
  -4   5 -12  565.17   84.86
  -3  -8  12  145.18  169.00
   0   6  15    8.00   29.64
  -1  -1 -17  -48.31   42.09
  -1  -1 -17   -5.14   27.93
  -5   7   7    2.68  123.94
  -5   7   7   26.28   44.21
  -4  -1  14   37.31   85.77
   4   1 -14   10.54   40.26
   3 -10  11   29.93   58.30
  -3  10 -11  105.14  239.92
   4   6 -11  601.45  174.36
  -4  -6  11  243.42   78.69
  -4  -6  11  372.62  106.32
   4   6 -11  355.37  143.36
  -3   8 -13   20.90   89.68
  -3   8 -13  -26.82  152.36
   1   5  15   24.51   22.52
  -1  -5 -15   30.21   29.94
   1   5  15   29.76   35.70
  -1  -5 -15  -40.84   74.76
   0  -9  15  473.16  109.04
   2   9   9    5.56  119.90
   0   9 -15  621.12  317.70
   0   9 -15  466.49  142.65
   2   9   9  127.61   94.54
  -2  -9  -9  126.15  108.31
  -1   3  17   81.58   95.76
  -1   3  17   12.51   60.62
   0  -9  15  495.75  158.75
  -3   8  12  141.47   74.31
  -2  -9  -9   82.80  147.22
  -3   8  12   85.73  110.41
  -3   7  13  220.81   82.74
   3   2 -16    1.54   26.61
   3   2 -16    1.01   38.56
  -3   7  13  232.88  149.40
   3  10  -8  514.28  169.12
  -3 -10   8  378.40  218.30
  -2  -3 -15   -0.63  204.55
   3  10  -8  912.92  356.75
  -3 -10   8  716.43  162.90
  -2  -3 -15  295.47   67.29
  -1  10  11  117.63   60.54
  -3  12   5    3.38   80.74
  -3  12   5   15.34   40.33
  -1  10  11  174.15  201.03
  -1 -12  -5 1033.73  333.37
   1  12   5  911.76  108.30
   3 -13   1   14.75   68.59
  -3  13  -1   -0.42   56.78
   1  12   5  914.88  223.86
  -3  13  -1   41.00   53.29
   0   9  12    7.27   82.69
   3 -13   1   33.38   53.46
  -1 -12  -5 1007.71  186.37
   0   9  12  236.10   54.66
  -2  11   9   45.88  127.92
  -2  11   9   57.84   60.99
  -4   7  11  863.25  150.23
  -2   9  12   -4.64   28.18
  -3 -10  -3  677.28  136.37
  -4   7  11  905.83  392.50
  -3 -10  -3  665.94  207.63
   3  10   3  703.35  277.73
   3  10   3  419.36  122.08
  -2   9  12    4.02   24.91
   4   7   5   24.05   41.08
  -4  -7  -5    8.22  116.71
   4   7   5   37.40   72.02
  -4  -7  -5   44.21   40.46
   3 -13   2  279.47  145.34
  -3  13  -2    0.88  132.73
   3 -13   2  168.85   83.28
  -3  13  -2  290.51  118.31
   5   4  -8   23.68   49.97
  -5  -4   8   -5.90   83.62
  -5  -4   8   60.97   68.13
   5   4  -8   10.34   82.75
   0   2 -18   -1.04   25.42
  -5  -5   6 3353.55  441.83
   0  -2  18   12.41   27.82
   5   5  -6 1441.11  199.81
   0  -2  18   17.77   42.44
   0   2 -18   -0.83   48.21
   5   5  -6 1483.81  155.39
  -5  -5   6 1906.65  546.40
   0  10 -14   -1.20   51.11
  -4  11   4   11.67   61.06
   0  10 -14  134.49   88.53
   0 -10  14  150.27   62.91
   0 -10  14  138.46  120.75
  -4  11   4   25.33   55.32
  -2 -12   6  172.46  171.10
   2  12  -6  558.98  222.20
  -2 -12   6  373.34  243.07
   2  12  -6  395.95  342.17
  -1   5  16  763.38  224.87
  -2  13   4   53.91  116.40
  -1   5  16  813.58   95.46
   2 -13  -4   52.84   95.78
  -5  -2  10   12.88   82.48
   5   2 -10    0.04   58.32
  -5  -2  10  -14.09   45.67
   5   2 -10   38.39   43.03
   1   9  11  458.03  111.60
  -1  -9 -11  559.45  208.16
   1   9  11  418.40   48.92
  -1  -9 -11  900.30  170.63
  -1  14  -2  180.27  225.97
   1 -14   2  212.10   79.52
  -1  14  -2  182.31  171.33
   1 -14   2   66.52   34.94
  -2  12   7  153.46   76.88
   0  -1  18   42.22   69.94
   0   1 -18   29.20   45.21
  -3  13   0 2090.21  273.39
   0  -1  18   22.79   52.67
   3 -13   0 3059.71  433.35
   3 -13   0 2051.51  206.00
  -2  12   7   10.98  247.80
   0   1 -18   33.35   28.29
  -1 -13  -1  193.08  157.62
  -1 -13  -1  125.66   72.17
   1  13   1  464.04  130.44
   1  13   1  140.07  122.46
   0 -11  -9  500.41  153.59
   0  11   9  397.90  132.94
  -4   2  14  -13.48   88.51
  -4   2  14   -6.13   49.31
  -5   4  10 1589.94  202.82
  -5   4  10 1208.48  208.82
  -5   9  -3  376.54  161.92
  -4  -2 -11   12.70  104.82
   1  13  -6  -51.16  125.51
   2  12   1  100.79   84.83
  -5   9  -3  146.57   63.08
  -4  -2 -11   -4.05   46.01
  -2 -12  -1  163.40  287.32
  -1 -13   6    2.11   89.62
   2  12   1  150.25  116.85
  -1 -13   6   -1.05  123.73
  -2 -12  -1  239.78  103.28
   1  13  -6   14.29  115.73
   1   1 -18  377.66  126.95
  -1  -1  18  353.08  128.47
  -1  -1  18  415.13   85.07
  -2   2  17 1212.25  329.79
   1   1 -18  116.82   92.34
  -2   2  17 1155.11  145.82
  -5  -4  -4 1340.24  574.85
   5   4   4 1177.41  201.53
   2   6 -16  423.45  105.92
   1 -14   3   -0.81   51.17
  -5   0  -8   12.65  174.72
  -2  -6  16  224.94   51.49
  -1  14  -3   -1.26  140.96
   2   6 -16  401.68  137.78
  -4   6  12  222.29   92.59
  -1  14  -3  -72.28  127.38
  -5   0  -8   20.65   77.74
  -2  -6  16  655.44  163.75
   1 -14   3   21.98   38.69
  -4   6  12    0.71  200.14
   2  -9  14  277.28  150.52
  -4   8  10  125.35  125.23
  -2   9 -14  265.56   90.13
  -4   8  10  219.00   79.26
   1   2 -18  204.51   52.11
  -4  -4  13   94.89  154.59
  -4   0 -12  181.20  208.79
  -3  13  -3   32.60   70.42
  -4  -4  13  188.07  240.78
   4   4 -13  207.73  131.31
  -3  13  -3    1.85   78.21
   1   2 -18  562.26  103.15
   4   4 -13  162.27  210.17
   3 -13   3   -2.55   32.78
  -1  -2  18  559.35   90.91
  -1  -2  18  653.22  159.09
  -4   0 -12  254.91  119.88
   3 -13   3    3.57   43.13
  -1  14  -1 1127.31  394.19
   1 -14   1  652.94  118.74
   0 -13  -4  176.90  188.73
  -2  10 -13   59.86   71.52
   2 -10  13   42.11  112.69
   1 -14   1  200.19   46.10
  -1  14  -1  538.17  214.27
   0 -13  -4  155.85   90.11
   0  13   4  201.07   55.76
   0  13   4   98.80  183.17
  -1  12 -11   16.74  111.87
   1 -12  11   22.53  135.37
  -1  12 -11   88.44   94.87
   1 -12  11   33.01   40.59
   2 -12  10  106.75   26.55
  -2   6  15   95.46   60.17
   0   3 -18   -1.83   78.93
   0   3 -18  247.66   54.64
  -2  -1 -16    3.58   40.10
   0  -3  18  412.26  152.20
  -2  12 -10  267.61  156.60
   0  -3  18  307.58   47.18
  -2  12 -10  199.13   76.67
  -2  -1 -16   19.99   29.48
   2 -12  10  155.49  174.78
  -2   6  15  197.51   94.42
  -3  -5  15  154.87   42.68
  -3  -5  15  328.89   77.34
   3   5 -15  262.04  191.78
   3   5 -15  640.00  175.33
   2  11   5    1.43   77.29
   0  12 -11  967.02  268.37
   2  11   5  177.01   48.25
   0 -12  11  297.98   93.91
  -2 -11  -5  174.88   94.53
   0 -12  11  744.68  117.53
   0  12 -11  842.55  223.54
  -2 -11  -5  324.26  171.50
   0   3  17  196.77   92.47
   0   3  17  197.20  113.35
  -5   9   3   -0.75   44.47
  -5   9   3   10.71   27.63
   4   6   7    4.29   43.99
  -4  -6  -7   38.87  304.21
  -4  10  -8   83.45  167.06
  -4  10  -8  201.13  131.59
   0   8 -16  540.00   82.66
   0  -8  16  810.80  207.29
   0   8 -16 1036.85  202.09
   0  -8  16  751.66  143.88
  -3   9  11   52.23  111.63
  -3   9  11    4.68  139.34
  -3  -9  -6  770.87  198.08
  -3  -9  -6  501.62   97.84
   0 -12  -7  303.37   87.35
   0 -12  -7  223.76   60.30
   0  12   7  380.54   86.59
   0  12   7  289.68  145.12
   3   9   6  849.60  278.19
   3   9   6  674.52  104.46
  -3   6  14  -37.62   61.70
  -3   6  14   19.39   36.07
  -2  -4  17   11.92   62.84
   2   4 -17   37.94   49.43
  -2  -4  17    1.42   49.33
  -4  -2  14   61.15   89.06
   4   2 -14   30.82   33.43
   2   4 -17   71.40  131.80
   4   2 -14   24.68  102.40
  -1 -11  12  134.67   66.37
   1  11 -12  361.41  124.78
  -1 -11  12  334.19  122.62
   1  11 -12  496.70  291.06
   5   5   2   38.67   48.74
   5   5   2   95.89   75.21
  -5  -5  -2  101.74  151.21
  -5  -5  -2   88.37   42.82
  -3   3 -15  494.62  120.70
  -3   3 -15  371.77  102.40
  -1  10 -14   13.25  105.12
   1 -10  14  -13.50   98.15
   1 -10  14   75.69   69.40
  -1  10 -14   27.65   36.73
  -5   1  11   98.53  146.72
  -5   7  -7   27.51   54.70
  -5   7  -7   14.16   40.42
  -3   2  16  706.12  218.76
  -3   2  16  657.71  213.03
   1  -9  15  271.21  136.64
  -1   9 -15  264.96  102.72
   1  -9  15  435.83  103.79
  -1   9 -15  290.22   82.20
  -3   2 -15  432.25  123.37
  -1  14  -4  200.99   96.46
   1 -14   4  100.60   40.88
   1 -14   4   91.71   66.02
  -3   2 -15  322.21   58.51
  -1  14  -4  120.98   89.16
  -3  13   1   -4.13  103.47
  -1   0  18    1.09   39.90
   1   0 -18  -19.20   28.35
  -1  13   5   43.57  142.46
   1   0 -18   27.12   56.73
   1 -13  -5   53.22   63.21
   3 -13  -1  -13.10   58.33
  -1   0  18    1.15   62.43
  -4  10   7 3058.65  551.44
  -4  10   7 1394.31  282.73
   1   6 -17  713.58  201.56
   1   6 -17  589.55  213.26
  -1  -6  17  398.31   66.33
  -1  -6  17  576.64  134.32
  -3  -8  -8  102.45  117.88
  -1  14   0  736.51  219.42
   3   8   8   50.27   40.87
  -1  14   0  241.98  136.73
   1 -14   0  501.27  122.02
   1 -14   0  170.77   67.27
  -3  -8  -8   74.22   71.78
   3   8   8   45.93   54.05
   0   0 -18  -19.74   39.30
   0   0  18   26.01   40.68
  -2 -11  10  282.25  315.96
   2  11 -10  315.49  279.33
  -1 -12  10 2408.53  249.10
   2  11 -10  545.66  507.75
  -2 -11  10  194.88   92.49
  -1 -12  10 3181.19  670.83
   0   0 -18   33.07   42.74
   0   0  18   -8.25   33.98
   1  12 -10 4458.46  667.01
   1  12 -10 3419.65  433.74
  -5   0  11  241.06  129.09
  -2 -10  12  329.32  178.21
  -2 -10  12  293.06  162.60
   2  10 -12  392.00  261.62
   2  10 -12  306.83  130.16
   4   7 -10  407.26  164.62
   4   7 -10  189.75  119.75
  -4  -7  10   -0.68  160.10
  -4  11  -6  105.93   59.32
  -4  11  -6   77.26   48.33
  -4  -7  10  592.53  205.49
   1   3 -18  117.68   64.67
  -2   6 -16  257.87  188.60
  -2  -6 -13  944.12  136.94
   1   3 -18   31.01   86.41
  -1  -3  18    0.33  106.58
  -2   6 -16  440.59  194.91
  -1  -3  18   54.84   85.37
  -2  -6 -13  897.59  213.41
   2   6  13  951.15  136.93
   2   6  13  519.12   81.67
  -3  -3  16   12.45   80.73
   3   3 -16   20.21   69.59
  -3  -3  16   12.12   55.02
   3   3 -16   38.96   89.35
  -4  -8  -3   23.37   38.78
  -4  -8  -3   98.84  108.60
   4   8   3  102.97  113.03
   4   8   3  102.55  125.88
   3 -13   4   57.71   62.85
   3 -13   4  138.44   84.20
  -3  13  -4   82.56   64.02
  -3  13  -4   -0.26   83.30
  -5   8   6   -1.06   36.08
   2   7  12  505.38   89.80
  -2  -7 -12  758.51  260.89
  -5   8   6   39.77   38.75
   2   7  12  438.55  122.37
  -2  -7 -12  484.42   99.57
  -5   2  11    0.25  159.91
  -5   2  11  217.74  110.25
   0   5  16   87.36   50.04
   0   5  16   75.77   44.69
  -4  -8   8   10.46   38.15
   4   8  -8    7.62   45.44
   4   8  -8  -12.05   47.91
  -3   4 -15  729.71  131.64
  -4  -8   8   -6.14   42.74
  -3   4 -15  778.70  134.06
  -5   6  -8   55.09   86.46
  -5   6  -8   60.92   57.26
  -4   6 -12  471.55   76.20
  -4   6 -12  452.93  113.31
   3 -11  10 1712.21  406.00
  -3  11 -10 1536.32  288.84
  -1  13  -9  184.03  174.42
  -1  13  -9  268.71  160.83
   1 -13   9  200.73   63.92
   1 -13   9   94.59   87.58
  -6   2   1  120.56   64.45
  -6   2   1    0.17   97.80
  -5   8  -6  892.74  253.24
  -3  11   8    0.02   63.29
  -3   7 -14  997.12  401.59
  -3   7 -14 1485.51  302.59
  -3  11   8   67.69  120.78
  -5   8  -6 1856.27  261.47
  -3  12  -8 2571.70  204.65
  -3  12  -8 2918.50  260.44
   3 -12   8 2944.87  252.55
   3 -12   8 3211.03  378.33
  -5   3  -9  721.97  140.33
   2  -8  15  376.34  126.23
  -2  10  11  746.16  183.01
  -2  10  11 1144.97  222.00
  -6   2   2  750.43  254.08
  -5   3  -9  508.86  171.25
  -6   2   2  489.79  199.53
  -6   2   2  889.80  267.90
  -2   8 -15  901.32  518.01
   0  11 -13  205.59  124.85
   0 -11  13  217.41   57.34
  -3 -11   3 1033.57  212.59
  -3 -11   3 1152.07  364.84
   0  11 -13  270.70   84.95
   3  11  -3 1222.91  397.28
   3  11  -3  805.51  234.60
   0 -11  13  142.98   65.57
  -1   6 -17  473.63   86.91
   1  -6  17  476.02  123.55
   2  12  -7  515.80  209.02
  -3 -11   2  464.91  246.91
   3  11  -2  341.78  263.34
   2  12  -7  324.43  196.04
  -2 -12   7  359.20  125.63
   3  11  -2  530.08  193.87
  -2  11 -12  701.98  137.04
  -2 -12   7  592.49  303.60
   2 -11  12  633.57  263.39
  -3 -11   2  430.16  250.15
   0  -4  18  990.02  142.60
   0  -4  18  516.44  111.73
   0   4 -18  527.04   77.91
   0   4 -18  532.73  129.97
  -6   3   1  157.21  209.55
  -3  -9  11  201.74  314.01
  -3  -9  11  148.79   86.85
   3   9 -11  120.63  115.21
  -5   9  -4  -12.83   64.56
  -6   3   1  278.98  101.46
   3   9 -11  163.66  121.47
  -5   9  -4   -0.96   29.98
  -3   1 -15    0.62   31.97
  -3   1 -15    6.96   19.40
  -5  -5   7    1.91  320.99
  -5  -5   7  827.05  227.48
   5   5  -7  159.35   95.38
   5   5  -7  132.08  140.19
  -5  -2  -7   26.69   49.18
  -4   5  13   -0.85   37.15
  -5  -2  -7    3.52  196.23
  -4   5  13    2.69   80.48
  -1 -11  -8  222.80  111.25
  -5   2  -9  105.83  196.39
   1  11   8  102.18  139.67
   0 -14   2  247.11  144.95
  -5   2  -9  243.92  115.71
   1  13   2 1109.83  626.86
   0  14  -2  159.81  114.12
  -6   3   2   28.40   41.03
   1  11   8  178.19   39.84
  -1 -13  -2  508.68  103.56
  -1 -11  -8  265.98   96.01
  -6   3   2    2.88  100.22
   0  14  -2  396.37  219.60
  -1 -13  -2  413.67   77.98
   0 -14   2  289.05  190.22
   1  13   2 1147.28  210.16
  -4   9   9 3028.12  284.27
  -4   9   9 3257.21  411.10
  -6   2   0   -0.04   40.57
   0  10  11  232.94   63.65
  -3  -2 -14  406.87  134.76
  -3  -2 -14  623.66  119.62
  -4   3  14  155.16  263.30
  -4   3  14  151.21   96.51
   0 -14   3   24.99   75.54
   0  14  -3   26.38  118.81
   0  14  -3   -6.33  129.96
   0  10  11  378.88  139.75
   0 -14   3   -8.40   39.16
  -5  -3  -6  121.52  183.31
   5   3   6   11.96   57.69
  -3 -11   4  513.90  127.30
   1 -14   5  216.78   47.56
  -2  13  -8   16.45   42.80
   2 -13   8   63.64   42.10
  -3 -11   4  593.81  459.78
   3  11  -4  723.39  218.05
  -1  14  -5  403.99  287.10
   2 -13   8    0.13   82.83
  -1  14  -5  651.88  169.53
   3  11  -4  391.80  328.53
  -2  13  -8  107.17   75.02
   1 -14   5  156.63   51.19
   1  13  -7  169.28  223.65
  -1 -13   7  128.32  115.29
  -1 -13   7  124.94  157.70
   1  13  -7  282.74  405.90
  -4  -9   3 1059.00  308.58
  -1  -4 -16  108.04   38.23
  -2 -12  -2  565.62  212.58
   1   4  16  243.87   76.48
   4   9  -3  726.37  259.73
   1   4  16  208.31   61.86
  -6   3   0  981.12  347.64
   2  12   2  472.46  163.91
  -2 -12  -2  482.50  204.21
  -1  -4 -16  229.87  138.09
   2  12   2  380.66  277.26
  -4  -9   3 1315.05  212.18
   4   9  -3  978.97  167.98
  -2  -5 -14 5464.81  809.37
  -2  -5 -14 3055.78  299.65
  -1  11 -13   32.60   96.63
  -6   1   2  182.84   50.05
   6  -1  -2  151.04   51.43
   6  -1  -2  130.57   31.70
  -1  11 -13   18.44   36.75
   1 -11  13   34.39   48.31
  -6   1   2   -1.60  314.60
  -4  -9   2    6.87   70.91
  -5   4  -9  303.57  105.79
  -4  -9   2   35.22  126.40
  -6   1   1 2649.86  713.64
   6  -1  -1  220.56   41.11
   4   9  -2    0.08   55.52
   4   9  -2   37.61   67.34
  -5   4  -9  175.29  110.42
  -6   1   1 1767.37  244.72
  -6   2   3   42.02  112.28
  -6   2   3   79.87   72.26
  -1  -2 -17  880.91  187.67
  -1  -2 -17  694.41  100.07
  -5   9   4   -3.24   86.60
  -5   9   4   17.94   33.43
  -5  -1  11   94.57   93.08
   5   1 -11   26.83   26.38
  -6   2   3  -66.75  144.06
   0 -13   9   55.30   48.54
   0  13  -9   21.15  202.17
   0 -13   9  111.24   53.57
   0  13  -9  150.93  106.24
   1 -14  -1   23.37   63.36
  -3  13   2  881.12  241.06
  -1  14   1   70.39  102.04
   1 -14  -1   75.13  105.44
   3 -13  -2  903.53  194.22
  -1  14   1   25.34   78.59
  -5  -6   2   16.58   56.89
   5   6  -2    7.56   43.25
  -5   6   9   -8.13   41.80
  -5  -6   2   -0.25   36.54
  -3 -11   1  769.28  189.37
  -4  11   5   10.57   54.18
   3  11  -1  581.19  126.04
   3  11  -1  465.58  174.01
   5   6  -2    3.71   38.27
  -4  11   5   17.98   66.46
  -5   6   9    0.53   48.65
  -3 -11   1  629.87  270.48
   0 -14   1 1515.62  158.39
   0 -14   1 2612.70  325.31
  -1   8 -16  -15.45   76.12
   0  14  -1 4008.55  463.64
   1  -8  16   77.44  123.70
   0  14  -1 4106.20 1097.64
  -5  -6   3  766.93  130.53
   5   6  -3  599.59  188.29
   5   6  -3  424.03   73.87
  -5  -6   3  792.19  238.93
   3  10  -9   77.80  112.97
  -3 -10   9   23.00   97.50
   3  10  -9   -2.45  138.91
  -3 -10   9   50.75   75.34
  -1   1  18    0.17  123.30
  -1   1  18  328.44   91.56
   1 -12  -8  597.04  193.28
  -4  12  -1   -0.25   35.57
  -1  12   8  323.83  192.38
  -3 -10  -4   25.13   48.00
   3  10   4    3.92   54.23
   2 -14   2  292.02  142.97
  -1  -9  15  336.13   80.05
   1   9 -15  621.27  193.65
   4   9  -4   46.78   72.90
  -3 -10  -4   -8.57   27.14
   2 -14   2  366.30  137.05
   3  10   4   -9.48   54.66
  -1  -9  15  635.96   90.03
  -2  14  -2  589.27  184.67
   1   9 -15  893.52  181.41
  -2  14  -2  349.96  125.32
   4   9  -4   67.35   71.43
  -4  -9   4   21.96  253.74
  -4  -9   4   70.33   66.23
   0 -14   4  839.85  220.22
   0  14  -4 2010.86  377.85
   0 -14   4  930.89  262.09
   0  14  -4  792.14  248.23
  -6   3   3   12.38   49.26
  -6   3   3  -11.53   73.26
  -6   3   3   66.90  136.96
  -2  -8 -11  184.09  120.22
   2   8  11  153.79   42.78
  -2  -8 -11  260.89   93.49
   2   8  11  186.44   81.47
  -6   1   3  576.93  152.21
  -6   1   3  478.28  246.48
   6  -1  -3  220.97   63.69
   6  -1  -3  201.26   34.88
  -5   3  11  788.77  161.99
  -6   1   0    0.34   48.33
  -5   3  11 1108.05  275.31
  -2  14  -1   30.66  112.20
  -4  12   0    2.46   55.67
  -2  14  -1   45.66   98.73
   2 -14   1   78.00   85.76
   2 -14   1   47.96   65.18
   4   9  -1   41.38  107.46
  -4  -9   1   93.05   66.91
   4   9  -1   63.22   79.87
  -4  -9   1   51.96  110.95
  -3  -6 -11   22.97   36.31
  -3  -5 -12    1.38   58.01
  -3  -6 -11  119.55  102.23
  -3  -5 -12   -1.86   28.41
   5   3 -10  534.54  251.31
  -4  12  -2   71.83  118.53
  -4  12  -2   79.06   58.59
   5   3 -10  424.36  124.06
  -5  -3  10  269.39  125.34
  -5  -3  10  443.41  162.13
  -6   4   1 2154.07  283.75
  -5   7   8  490.79  105.34
   3 -13   5    4.75   72.81
  -3  10  10    2.19   75.87
  -6   4   1 2206.06  310.00
   3 -13   5   44.53   29.79
  -3  10  10    7.79   60.18
  -3  13  -5   96.65  143.13
  -5   7   8  474.65  180.23
  -3  13  -5   37.85  111.60
  -5  -6   1  202.52  211.73
  -5  -6   1  225.03   74.86
   5   6  -1  167.76   79.94
   5   6  -1  177.81   77.60
  -3  12   6   13.18  169.28
  -3  12   6   23.17   75.45
  -5  -4   9    0.76   96.96
  -5  -4   9   91.75   79.84
   2 -13  -5 2488.90  598.88
  -5  -1  -8 1865.29  656.15
  -5  -1  -8 2068.60  276.41
  -2  13   5 2046.77  393.18
   5   4  -9   68.25   41.51
   5   4  -9   65.18   67.07
   4   3 -14  661.10  211.89
  -6   2  -1  188.73  220.90
  -4  -3  14 1112.55  289.13
  -4  -3  14  448.42  198.95
   4   3 -14  443.32  147.69
  -1  -4  18 2093.41  159.65
  -1  -4  18 3223.03  455.21
   1   4 -18 1443.55  131.64
   1   4 -18 2511.66  305.98
  -2  14  -3  102.48   72.06
  -2   5  16 2496.26  335.24
   2 -14   3   36.83   78.56
   2 -14   3   27.88   42.55
  -2   5  16 2195.24  207.62
  -2  14  -3   16.26   99.21
  -3 -11   5  365.71  181.47
  -4   9 -10   15.18   75.91
   5   6  -4  198.03   83.64
   0  -1 -18   58.93   64.96
  -1  11  10  137.89  163.78
  -4  -1 -12 1368.94  348.59
  -4   9 -10   12.25   65.06
  -3 -11   5  254.81  131.91
   3  11  -5  778.94  369.02
  -4  -1 -12 1384.26  176.61
  -6   3  -1   -9.03   64.54
   3  11  -5  903.32  345.68
  -5  -6   4  278.72  252.84
   0   1  18   32.41   37.16
  -1  11  10  139.39  105.83
  -5  -6   4  428.87  160.34
   0   1  18   36.17   47.80
   0  -1 -18   62.05   69.07
   5   6  -4  238.73  123.16
  -3   5 -15  733.59  205.25
  -3   5  15   44.75  129.89
  -1 -10 -10  775.99  145.96
   1  10  10  658.67  212.78
  -3   5  15   59.68   94.81
  -1 -10 -10 1077.71  195.94
  -3   5 -15 1332.60  401.94
   1  10  10  897.44  136.31
  -2   3  17  314.19  116.79
  -2   3  17  390.26   90.55
  -5   5  10 1072.63  173.77
  -4   8 -11   59.16   90.39
  -5  -5  -3  511.97  250.01
   5   5   3  431.43  121.25
  -4   8 -11  116.26  100.06
  -5  -5  -3  440.87  140.68
  -5   5  10 1018.58  242.64
   5   5   3  312.92  118.75
  -5   1  -9 1006.06  161.96
   0   7 -17  763.27  177.84
   0  -7  17  481.20   99.30
   0   7 -17  737.40  205.42
   0  -7  17  388.02  126.38
  -5   1  -9  837.17  327.28
  -6   4   0 1853.02  268.28
  -6   4   2 2656.75  248.96
  -6   4   2 2418.25  307.37
  -1  -8  16   95.47  108.39
  -1  -8  16  177.81   52.89
   1   8 -16   -1.07   82.98
   1   8 -16  126.67  103.15
  -3   3  16  216.71  160.74
  -3   3  16  180.02  145.41
  -6   2   4  706.73  120.37
  -6   2   4  622.54  134.28
  -6   2   4  487.18  122.04
   0 -14   0   31.65  115.13
   0 -14   0   -2.90  130.96
   0  14   0   62.55  196.31
   0  14   0   81.01   87.98
  -1   8  14   -2.60  122.03
   2 -14   0  -24.07   55.56
  -2  14   0  -24.04  106.17
  -2  14   0   13.09   52.08
  -1   8  14  141.55   83.28
   2 -14   0  -22.03   65.48
  -5  -4  -5   42.37  136.32
   5   4   5   37.10  123.34
  -1 -12  -6  569.90  252.62
  -4  12   1   -5.58   40.26
   1  12   6  369.56   91.56
   1  12   6  405.42  263.39
  -1 -12  -6  463.55  110.41
  -1   4  17   14.41   27.97
  -1   4  17   37.42   50.48
   3  11   0  268.22  164.56
  -1 -10  14   14.97   41.60
   3  11   0  314.10  223.18
  -1 -10  14   55.26   46.08
   1  10 -14   -1.05   36.63
   1  10 -14   13.86   66.23
  -3 -11   0  251.66  276.93
  -3 -11   0  290.94   87.72
   2  10   8 1236.82  242.50
  -4  -7  -6 2890.81  394.69
  -2 -10  -8  862.34  184.22
  -2 -10  -8  640.04  130.68
   4   7   6 3372.36  385.47
   4   7   6 2471.09  270.93
   2  10   8  667.19   82.33
  -4  -7  -6 1405.00  131.02
   4   9  -5 1242.14  344.98
  -4  -9   5 1761.64  408.61
  -4  -9   5 1416.16  308.37
   4   9  -5 2122.99  327.22
  -4  -4 -10   30.79   89.49
  -4  -4 -10    5.40   34.03
   0 -13  -5  205.74   78.72
   0  13   5  274.20   85.53
   0  13   5  202.94  125.25
   0 -13  -5  230.60  154.66
  -4   3 -13   32.58   80.80
   6   0  -2  288.95   68.29
  -6   0   2  434.84  172.32
  -4   3 -13   23.53   31.93
  -6   0   2  546.27  109.41
   6   0  -2  357.95   63.24
  -2  -2 -16    8.15   52.64
  -2  -2 -16   -2.47   12.06
  -4  12  -3   52.90   84.69
  -5   5  -9  318.92   89.51
  -5   5  -9  309.14   55.96
  -4  12  -3   -1.86   35.78
  -3   0 -15   74.08   60.44
  -3   0 -15   27.32   67.21
  -6   1   4  -59.76  134.32
  -2  -5  17  394.59  123.70
  -2  -5  17  380.78  102.09
  -6   1   4   62.33   83.43
   6   0  -1  158.45   47.73
   6   0  -1   83.80   59.40
   0 -14   5  813.59  152.60
   0  14  -5  943.10  198.81
   2   5 -17  367.60   74.48
   2   5 -17  348.51   98.15
   0 -14   5  810.76  357.31
   6  -1  -4   -0.16   28.79
   6  -1  -4    9.21   18.91
   0  14  -5  557.56  150.57
  -6   0   1    2.68  218.49
  -6   0   1  183.71   46.45
  -6   1  -1   -0.55   53.60
  -3  -7  14  287.53  127.44
  -6   3   4   91.29  111.14
  -3  -7  14  184.02  138.89
   3   7 -14  111.64   98.53
  -6   3   4  170.15  151.18
  -6   3   4  160.26   81.14
   3   7 -14  352.42  168.32
  -3  -4  16   31.41   23.35
  -3  -4  16  122.31   91.07
   3   4 -16   77.20   78.73
   3   4 -16  128.38  131.62
   5   6   0   12.56   42.94
   1 -14   6  220.07  116.60
  -1  14  -6  176.19  223.24
  -2  14  -4  124.73   67.66
   1 -14   6  111.45   81.83
  -5  -6   0   -7.90   88.63
  -5  -6   0   14.17   45.19
  -1  14  -6  344.78  207.05
   5   6   0   44.13   77.18
  -2  14  -4   83.26  151.05
   2 -14   4   59.27   73.14
   2 -14   4   38.15   59.94
  -4  -5  -9  107.46  160.25
   4   5   9   61.44   42.00
  -6   4   3 1401.86  271.37
  -4  -9   0 1170.57  203.62
  -4  -9   0  964.41  295.88
   4   9   0 1118.31  428.55
   4   9   0  811.07  146.20
  -1   7  15   -1.45   66.01
  -6   4   3 1242.80  298.08
  -1   7  15   37.96   53.09
   2   8 -15  417.25  125.14
  -4   2 -13  100.88   87.27
  -4   2 -13   37.21  142.25
   2   8 -15  579.24  143.72
  -2  -8  15  641.57  117.92
  -6   4  -1 1636.53  358.08
  -2  -8  15    9.00  106.49
  -2   2 -17  431.69  197.26
  -2   2 -17 1097.84  187.51
  -1   2 -18    0.65   80.90
  -1   2 -18   74.31  115.40
  -3  -4 -13 2716.53  781.71
  -3  -4 -13 2229.98  387.11
  -2   3 -17  154.37   73.72
  -2   3 -17    2.21   49.45
  -3  -7 -10  112.08  332.03
  -4  11  -7  111.62   92.10
  -4  -6  12  125.02   81.23
  -4  -6  12  138.29  146.82
   4   6 -12   71.48  136.22
   4   6 -12  216.63  193.70
  -4  11  -7  128.08   68.87
  -5   9  -5  780.56  198.54
  -5   9  -5 1807.03  219.48
  -6   0   3   -1.53   91.85
  -5  -6   5 3069.55  580.94
   5   6  -5 2728.42  297.80
   6   0  -3  178.82   48.74
   5   6  -5 3019.53  260.57
  -6   0   3  254.62   90.51
  -5  -6   5 3603.64  324.47
   6   0  -3  186.68   99.23
   1 -14  -2  445.05  119.23
  -1   9  13   15.84  293.93
  -1  14   2  374.09  178.24
  -1   9  13  447.55  124.43
  -1  14   2  839.07  176.43
   1 -14  -2  367.83  123.03
   0  -5  18    3.34   41.32
   0   5 -18   -4.79   46.73
   0   5 -18  -33.15   35.06
   0  -5  18   18.39   77.67
  -4   4 -13 1249.53  217.65
  -4   4 -13  902.26  109.55
  -1   3 -18    3.78   60.38
  -1   3 -18  145.21  128.50
  -3  13   3  651.90  273.72
   4   8   4   15.04   26.10
  -4  -8  -4   52.46   61.82
   4   8   4  -62.26   51.66
  -4  -8  -4   81.47  193.18
  -3  13   3  720.91  116.92
  -5  -2  11  245.52  146.23
  -2 -12   8  892.83  175.00
   5   2 -11  112.02   36.63
   4   5 -13  351.67  201.50
   4   5 -13  165.33  105.90
  -2 -12   8 1206.96  618.41
   5   2 -11   70.69  142.31
  -5  -2  11   71.87   38.60
  -4  -5  13  361.85  224.17
  -4  -5  13   -6.67  208.12
   2  12  -8 1293.86  454.32
   2  12  -8 1272.20  302.35
   6   0   0  278.80   48.22
  -2  -9  14  135.66  105.00
   2   9 -14  357.65  147.50
  -6   0   0   -0.57  139.65
   2   9 -14  444.96  131.38
  -2  -9  14  372.55   85.79
  -3  -8  13 2012.71  313.68
  -3  -8  13 2129.66  393.65
  -6   3  -2  301.68  215.14
   3   8 -13 1289.03  226.71
   3   8 -13 1911.45  404.47
  -2 -11  -6   89.90   74.85
   2  11   6  102.01   51.96
  -6   2  -2   29.14   90.59
  -2 -11  -6  108.71  138.12
   2  11   6   -2.32   55.47
  -2  -4 -15  308.79   69.34
  -2  -4 -15  371.50  137.30
   3  11  -6  427.79  278.00
  -3 -11   6  359.42  145.28
  -3 -11   6  146.51  128.01
  -4  10  -9  199.49  192.26
  -4  10  -9  223.78  160.89
  -1 -13  -3 3151.84  411.02
  -3   9 -13  489.10  322.19
  -3   9 -13  159.37   76.41
  -1 -13  -3 5897.74  506.37
  -5  10   0  -15.91   44.69
  -5  10   0    1.03   39.38
   1  13   3 5442.65  434.56
   1  13   3 7839.83  974.62
  -4  -8   9  615.65  133.94
   4   8  -9  582.92  197.61
  -2  12   8  133.66  164.65
  -2  12   8  182.39  134.27
   4   8  -9 1196.77  426.71
  -4  -8   9  453.03  144.75
  -4  -3 -11    7.76  223.17
  -4  -3 -11   12.54   85.69
  -1   1 -18   14.98   34.49
   5   5  -8  527.29   91.32
  -5  -5   8  494.60  181.40
  -1   1 -18  -16.52   39.78
  -5  -5   8  673.17  309.65
   5   5  -8  362.07  108.57
  -5   8   7    2.84   98.76
  -5   8   7  238.44   69.97
  -5  10  -1    2.61   18.45
  -2  14   1   42.57  141.86
  -5  10  -1    3.08   38.47
   2 -14  -1   48.97   47.32
   2 -14  -1    4.00   62.10
  -5  10  -1   55.10   44.38
  -5   9   5   -2.78   54.49
  -5   9   5   29.04   37.33
  -3  10 -12  203.15  132.26
   1 -13  -6   -1.27   91.03
  -3  10 -12   -8.48   31.11
  -1  13   6   22.93   76.66
  -4  12   2  870.06  204.33
  -1 -13   8  280.73  225.22
  -1 -13   8  195.97  291.52
  -5   7  -8   24.78   27.26
   1  13  -8  222.85  150.33
  -2   7 -16  380.70  100.05
  -2   7 -16 1177.34  250.94
  -5   7  -8   62.52   62.35
   1  13  -8  159.85  225.58
  -2 -12  -3 1186.90  269.06
   2  12   3 1082.26  240.57
  -2 -12  -3 1069.92  267.14
  -4   7 -12  -21.40   75.42
  -4   7 -12    1.43   68.08
   2  12   3 1209.75  253.20
   1   7  14   11.96   98.46
  -1  -7 -14   85.09  104.03
  -1  -7 -14   31.12   35.13
   1   7  14  120.42  111.83
   0 -14  -1  356.45  148.69
   3   6 -15  101.61  145.95
   0  14   1  362.29  388.68
   0  14   1  817.08  220.02
  -2   1 -17    0.02   37.12
   3   6 -15  258.36  155.58
  -2   1 -17   -6.19   26.60
  -3  -6  15   41.34   58.03
   0 -14  -1  415.68  174.18
  -3  -6  15  228.03   89.71
  -6   5   1   54.09   43.35
  -6   5   1   99.02   80.95
  -6   5   1   57.07   91.89
  -6   5   1  153.21  127.44
   0   4  17  164.18  118.96
   0   4  17  160.74   54.74
  -2   4 -17  322.17  137.75
  -2   4 -17  672.94  167.92
  -4   4  14   15.51   89.42
  -5  10   1    6.42   57.53
  -4   4  14    4.38   50.55
  -5  10   1  117.57   77.87
  -2  12 -11 3163.77  434.44
  -2  12 -11 2095.65  237.39
   2 -12  11 1588.84  218.15
   2 -12  11 1094.04   76.73
  -5   8  -7   57.55  125.61
  -6   2   5   26.88   45.29
  -5   8  -7  428.67  138.21
  -6   2   5    5.99   61.06
  -6   2   5  -20.55   71.89
  -3  13  -6  125.36  155.22
   6   0  -4  406.99  124.62
  -3  13  -6   50.86   94.66
   6   0  -4  393.55   97.89
  -6   0   4  627.06  153.92
  -6   0   4  562.83  140.66
   3 -13   6    0.12   14.81
   3 -13   6    0.09   59.40
   4   9  -6   26.41   85.63
  -5   4  11   -0.50  105.26
  -4  10   8  -20.05   69.36
  -6   5   0 1740.42  178.11
  -2  -1  18    0.16   44.58
  -4  10   8    1.46   90.44
  -4  -9   6   28.41   66.76
  -4  -9   6   67.28  136.46
  -5   4  11  363.28   96.55
   4   9  -6   36.79   69.98
  -4  12  -4  338.04   82.20
  -6   5   0 2201.98  506.88
  -1   2  18  793.52   96.52
  -2  -1  18    0.36   28.78
  -1   2  18  890.01  159.19
  -4  12  -4  403.74   81.43
  -2  -7  16   13.84   24.98
   2   7 -16    1.06   37.24
  -3  -9  -7  917.25  398.20
   3   9   7  601.75  155.83
  -2  11  10   23.41   51.49
  -3  -9  -7 1252.93  260.16
  -2  11  10   28.79  108.70
  -2  -7  16   73.42  131.94
   3   9   7  628.76   83.99
   2   7 -16   15.68   44.75
  -4   1 -13   -5.65  125.17
  -4   1 -13   62.63   70.40
   1   8  13  778.95  111.78
  -3 -11  -1   97.62   82.84
  -1  -8 -13  853.09  223.49
   1   8  13  515.73   49.98
  -3 -11  -1   69.74  122.77
   3  11   1  106.36   76.53
   3  11   1  187.15  166.23
  -1  -8 -13 1279.40  141.22
  -6   5   2   65.20   70.38
  -6   5   2  205.11  135.53
  -6   5   2   94.44   66.51
  -2 -11  11   34.45   59.21
   2  11 -11   83.74  194.20
  -6   4   4   -8.32   53.50
  -5   0  -9  390.11  270.57
  -6   4   4  -75.48   85.52
  -2 -11  11   65.91  132.00
   2  11 -11   54.19   83.28
  -5   0  -9  282.00  217.83
   0 -12  12   20.03   39.89
  -6   4  -2   33.06  194.37
   0 -12  12   39.10   50.04
   0  12 -12   54.00   80.86
   0  12 -12   -1.10   61.71
  -1  12 -12    9.41   70.72
  -1 -12  11   26.52   91.53
  -5  10  -2  229.61   66.78
   1  12 -11    4.57   71.26
   2   9  10    5.12   49.35
   1  12 -11   37.34  132.13
  -5  10  -2  267.36   68.79
  -5  10  -2  684.69  195.79
   1 -12  12    3.30   31.77
  -5  10  -2  272.29   68.38
  -2  14  -5  495.78  181.13
   1 -12  12   -2.79   50.01
  -2  14  -5 1032.43  260.56
   2 -14   5  825.83  127.18
   2   9  10  -35.00   71.65
  -1 -12  11    3.23   36.75
  -2  -9 -10   18.52   57.70
  -2  -9 -10   18.93   89.89
   2 -14   5  600.89  141.24
  -6   1   5   55.76   87.86
  -6   1   5  113.45  110.39
   6  -1  -5  111.88   48.59
   6  -1  -5   52.49   52.10
   4   7 -11   18.14   75.07
   4   7 -11   -5.10   92.41
  -4  -7  11   -2.43   44.80
  -4  -7  11    1.07   80.61
   5   6   1  331.37   92.10
  -5  -6  -1  326.36  348.04
   5   6   1  217.93  134.20
  -5  -6  -1  379.48   85.26
  -6   1  -2    0.22   86.91
   4   6   8  204.47  135.27
  -4  -6  -8  251.09  319.26
   0 -14   6   70.40  130.15
   0  14  -6  102.03  235.42
   0 -14   6   88.53  121.92
   0  14  -6   67.91  103.85
   0 -12  -8   23.24   78.09
  -3  12  -9  437.39  105.53
   3 -12   9  605.73  172.07
   0  12   8   17.83   67.31
  -4   0  15  153.60  196.60
  -4   7  12   85.73   72.82
   1 -13  10  155.44   92.74
  -4   7  12   59.80  207.17
   1 -13  10  128.96  114.08
  -1   4 -18    1.75   57.76
  -1   4 -18  222.85   99.67
  -1  13 -10  149.94   88.39
  -1  13 -10  146.17   98.16
   6   0   1  247.42   49.56
  -2  -2  18 1781.69  197.02
  -2  -2  18 1363.45  174.75
  -2   0  18   -1.04   78.38
  -6   0  -1  525.74  206.85
   2   2 -18 1224.01  115.43
  -2   0  18   -0.29   42.18
   1   7 -17  198.78   69.06
  -1  -7  17  217.97  177.44
  -1  -7  17  368.70  138.96
   1   7 -17  272.31   85.24
   4   9   1  455.99   90.83
  -3   6 -15 1401.36  267.09
  -4  -9  -1  778.20  271.47
   4   9   1  941.50  236.82
  -3   6 -15  835.82  360.40
  -4  -9  -1 1012.79  201.17
  -6   3   5 2535.65  333.63
  -6   3   5 3130.68  438.21
  -4  11   6   -1.30  142.73
  -4  11   6  116.33   64.74
  -1   7 -17  559.73  116.13
   2 -13   9  317.57  156.25
  -2  13  -9  444.93  227.35
   2 -13   9  477.53  100.94
  -2  13  -9  475.70  250.72
   1  -7  17  790.67  207.89
  -1   6  16  190.64   49.42
  -4   5 -13  225.40  104.84
  -4   5 -13  166.61   90.91
  -1   6  16  163.46   96.98
  -5  -6   6  220.40  157.87
   5   6  -6  175.41  144.29
   5   6  -6  161.85  111.93
  -4   8  11   -6.41   25.49
  -4   8  11   14.51   38.89
  -5  -6   6  284.94  197.13
  -1  -6 -15  578.98  120.44
   1   6  15  635.65  240.22
   1   5 -18   41.64   67.56
  -1  -5  18   20.59   87.28
   1   5 -18   33.52   53.81
   1   6  15 1212.24  170.33
  -1  -5  18   62.61   46.97
  -1  -6 -15  721.02  165.39
  -6   5  -1    1.23  184.30
  -6   5  -1   35.45   45.66
   0   8  14   -4.54   64.26
   0   8  14  -12.66   55.16
  -4   1  15   27.89   80.23
   0  11  10    1.39   40.29
  -5  10   2  390.27  109.11
   0 -11 -10    0.74   44.95
  -5  10   2  263.69   87.72
   0   2  18 1608.73  187.43
   0   2  18 1479.87  235.63
   0  -2 -18 1910.17  327.37
  -3   8 -14   38.58   78.50
  -3   8 -14   68.80  136.18
  -2   8  14    3.74   43.15
  -2   8  14   -1.37   46.02
  -4  -1  15  693.86  201.48
  -6  -1   2   -0.14  125.41
  -1 -11  13    5.48   46.56
  -6  -1   2  -55.79   63.88
  -1 -11  13   -6.83   41.39
   1  11 -13  -15.42   83.47
   1  11 -13   -2.69   41.97
   6   1  -2   22.76   43.06
   6   1  -2   35.28   41.72
  -3   8  13  369.46  163.92
  -3   8  13  775.93  194.49
  -1   0 -18   90.58   90.49
  -5   6  -9  363.13  131.43
  -1   0 -18   54.24   53.17
  -5   6  -9  261.94   56.27
   0  13 -10  191.91  100.63
   0 -13  10  309.21  160.45
   0 -13  10  106.31  106.06
  -6   5   3 4839.09  434.75
  -3 -10  10  438.26  283.76
  -5   1  12  281.00  218.49
   0  13 -10  161.89  117.20
  -3 -10  10  356.28  233.01
   5  -1 -12  101.26   85.26
   3  10 -10  399.28  156.80
   3  10 -10  559.69  193.96
  -5  -5  -4   91.31  470.39
   5   5   4   82.85  134.73
   0   7  15   10.43   48.55
  -1  10  12  504.00   69.47
  -1  10  12  793.92  314.93
   0   7  15   -1.96   41.98
  -1  14  -7  405.16  105.27
   1 -14   7  583.39   91.51
   1 -14   7  233.74   65.39
  -1  14  -7  587.73  124.80
   4   4 -14  -35.15  139.30
   6   1  -1    6.01   47.83
  -4  -4  14   22.01   52.90
  -4  -4  14  -22.96  167.67
  -6  -1   1   77.34  114.64
   6   1  -1    8.43   29.94
  -6  -1   1   -0.28  100.12
   4   4 -14  -24.51   83.12
  -3 -10  -5  302.19  204.97
   3  10   5  398.09  167.27
  -3 -10  -5  310.68   53.02
   3  10   5  548.05  176.86
  -5   0  12    5.20   58.88
  -1  -3 -17  -26.48   28.00
  -1  -3 -17    1.15   11.41
   5   0 -12   26.23   62.04
  -6   3  -3    7.62  163.62
  -6  -1   3  934.36  178.22
   6   1  -3  969.85  124.40
  -2  14   2  159.78  122.58
   6   1  -3 1059.17  282.43
   2 -14  -2  156.16   72.47
   0 -10  15  -10.66   83.67
  -6  -1   3  931.13  286.03
   0 -10  15   69.97   48.19
   0  10 -15   20.60   44.10
   0  10 -15   43.99   77.05
  -3   0  17  152.34  176.25
  -3   0  17  352.83  180.83
   2  10 -13   45.24   81.57
  -2 -10  13   75.12   65.62
  -3  -1  17    1.14   41.06
  -2 -10  13  108.18  140.17
   2  10 -13   89.50  137.20
   3 -11  11  286.54  105.14
  -5  10  -3   11.72   66.53
  -3  11 -11  243.38  156.68
  -5  10  -3  120.38   85.73
   5   3   7   44.63   43.97
  -6   2  -3 2694.12  815.76
  -2   9  13  262.34   94.55
  -3   7  14  106.77  109.11
  -3   7  14   79.84  196.47
   3  11  -7   10.01   75.68
   3  11  -7    3.87   70.73
  -3 -11   7  -12.56   97.74
  -3 -11   7   -7.48   70.70
  -2   9  13  245.19  132.36
   6   0  -5   22.85   66.63
   6   0  -5   14.02   60.44
  -3  -1 -15  560.33  174.76
  -6   0   5   18.38   39.29
  -3  -1 -15  358.06  133.91
  -3  -3 -14   -1.54  297.65
  -4  12   3  922.62  220.18
  -3  -3 -14  390.56  102.68
  -6   0   5   27.76   72.58
  -3  11   9   -1.61   48.73
   3   9 -12   89.84  111.86
   3   8   9   77.84   66.36
  -3  -8  -9   13.58   39.49
  -3  -8  -9  105.79   94.82
   0  -9  16  241.36  260.52
   3   8   9   34.92   38.06
   0  -9  16  365.07  124.62
  -4   6  13 1416.45  205.98
   0   9 -16  213.49   59.10
   3   9 -12   98.70  109.58
  -3  -9  12   67.03   72.88
  -3  11   9   -8.50   61.95
  -3  -9  12   66.65  262.34
   0   9 -16  325.56  250.57
   1 -14  -3  555.58  126.23
   1 -14  -3  642.83  171.47
  -1  14   3  418.94  164.44
  -2  10 -14   95.47  118.85
   2 -10  14   36.20  153.21
  -2   0 -17  258.57   64.75
  -2   0 -17  246.58   40.15
  -2   7  15  462.48  146.96
  -2   7  15  404.14   80.13
  -2  13   6 1056.56  477.28
   2 -13  -6 1237.97  293.10
  -5  -2  -8   -5.99   66.62
  -5  -2  -8  -15.29  224.14
   0   9  13   86.83   29.39
   0   9  13   -4.92   66.63
   1   9  12  124.66   65.47
  -1  -9 -12   68.47  131.20
   1   9  12   98.24   73.33
  -1  -9 -12  182.89   80.47
  -5   2  12   -0.39  176.00
  -5   2  12  230.45  115.77
  -2   5 -17  106.29  217.01
  -4  -2 -12 2347.44  344.22
  -2   5 -17   92.71  100.05
  -4  -2 -12 3161.51  698.32
  -3   4  16   39.17   95.11
  -3   4  16    7.68   47.16
  -3   9  12   18.85  114.05
  -3   9  12   -4.49  164.41
  -5  -4  10   -9.66   64.19
   5   4 -10    3.64   81.24
  -5  -4  10  108.27  112.71
   5   4 -10  -16.67   28.10
  -3  13   4   -0.31   72.80
   2   3 -18    6.18   57.65
  -2  -3  18    0.48   93.48
  -2   1  18    1.94   42.82
  -2  -3  18  119.68  104.31
   2   3 -18   41.81   33.55
  -3  13   4   58.40   76.98
  -2   1  18   58.44   77.96
   0 -14  -2  134.47  126.63
   0 -14  -2  266.24  141.54
  -5   9  -6   28.50   53.31
   0  14   2  129.58  140.92
   0  14   2   94.65   92.88
  -5   9  -6   -0.73   33.47
   6   1   0  242.83   42.11
  -3  12   7   -1.61  139.79
   6   1   0  389.17   73.64
  -3  12   7   70.05   44.31
  -6  -1   0  988.26  429.97
  -4  12  -5 2454.50  295.28
  -2   4  17  718.79  188.65
  -2   4  17  619.68  123.31
  -6   5  -2   -1.88   67.11
  -6   5  -2   28.42   62.20
  -6   4   5  715.63  173.88
   4   9  -7   93.02  174.15
  -4  -9   7   56.06  133.98
  -5   3 -10   99.42   98.32
  -5   3 -10   69.03   78.22
   4   9  -7   61.69  138.57
  -4  -9   7   77.96   81.36
  -6   4  -3  430.66  171.65
  -4   2  15   -9.05   50.97
  -4   9  10   91.14   69.72
  -4   9  10   85.81  110.66
  -5   6  10    0.17   54.12
  -5   6  10   14.18   48.68
   2  -9  15   28.81  148.00
  -2   9 -15   61.98   99.81
  -6   0  -2    0.29   63.40
  -6   2   6  572.69  183.55
  -6  -1   4   23.12  130.33
   6   1  -4   19.34   54.25
  -5   7   9   22.65   78.28
  -2  14  -6    5.78   68.43
  -2  14  -6   33.58   65.16
  -6  -1   4   54.16   60.31
   2 -14   6    2.64   30.36
   6   1  -4   -0.21   89.35
   2 -14   6    2.83   38.56
  -5   7   9   11.70   76.32
  -4   0 -13  324.17  274.60
  -4   0 -13  821.15  226.48
  -3  -2  17  160.52   93.47
  -3   1  17  888.68  261.65
  -3   1  17  959.05  184.09
  -5  10   3    4.11   27.55
  -5  10   3    0.88   43.78
   5   3 -11 1360.36  328.13
  -5  -3  11  913.97  155.60
  -5  -3  11 3074.54  510.54
   5   3 -11 1653.98  237.90
  -4  -2  15  197.94  124.74
  -3 -11  -2  113.77   94.51
  -3 -11  -2   94.14  172.23
   3  11   2   96.83   65.54
   3  11   2  176.29  163.00
   6  -1  -6   92.77   53.27
  -2 -12   9  150.74  236.33
  -5  -4  -6   58.34  156.04
  -6   1   6   94.77   68.70
  -6   1   6  117.02  212.82
   5   4   6   74.42   70.69
   2  12  -9  134.91  262.46
   6  -1  -6   57.40   53.90
  -2 -12   9  259.54  245.74
   5   6   2  215.09  112.95
  -5  -1  12   -5.62   55.14
  -5  -6  -2  573.77  118.38
  -5  -6  -2  317.93  216.63
   5   1 -12   -1.78   28.76
   5   6   2  305.03   75.55
  -5   2 -10  229.14  195.68
  -6   1  -3  -45.75  118.10
  -5   2 -10  130.59  201.85
   3   5 -16   31.05  129.96
   1  11   9   41.40  122.71
   0  -6  18  749.03  290.43
   3   5 -16   51.27  137.92
   1  11   9  121.48   49.64
   0   6 -18  901.91  236.62
   0  -6  18 1071.81  120.96
  -1 -11  -9   94.44  101.85
   0   6 -18 1151.06  228.49
  -6   5   4  358.05  108.14
  -1 -11  -9   40.85   53.85
  -3  -5  16    6.28   18.11
  -3  -5  16   15.82   35.68
  -1  10 -15  276.87  202.22
   1 -10  15  159.73   95.74
   1 -10  15  131.45  106.12
   0 -14   7 1542.71  161.01
   0 -14   7 2546.49  593.74
  -1   5 -18   30.56   34.80
  -1   5 -18   -0.46   60.53
   0  14  -7 2664.85  338.73
   0  14  -7 3212.58  757.26
  -5   9   6    6.71   56.30
  -5   4 -10  193.21  117.45
  -5   4 -10  368.28  113.27
  -5   9   6   14.67   57.95
  -4  11  -8  155.50  214.06
  -4  11  -8   48.53   59.31
  -2  11 -13  505.76  129.97
   2 -11  13  609.72  256.58
   0 -13  -6 1366.30  188.86
   0  13   6 1024.92  205.83
   0 -13  -6  642.18   80.81
   0   6  16   80.13   50.92
   1  13   4 2042.55  463.55
   0   6  16  111.48   88.54
   1  13   4 1374.88  242.56
  -1 -13  -4  820.84  127.32
  -1 -13  -4 1511.60  331.70
  -4  -9  -2   22.70  119.55
   4   9   2   -9.55   87.55
   4   9   2   46.70   91.81
  -4  -9  -2  -18.54   38.10
  -3  13  -7   46.13  205.05
   0 -11  14   64.00   41.17
   0  11 -14  100.21   83.37
   3 -13   7    4.96  145.56
   0 -11  14   75.97  104.40
   0  11 -14   -3.41   88.33
  -3  13  -7  175.04  119.90
   3 -13   7   60.98   38.86
  -6   6   1  259.07  104.50
  -6   6   1  252.58   75.02
  -2  -6  17   -7.99   35.26
  -2  -6  17    6.30   39.90
   2   6 -17    6.89   68.80
  -6   3   6   -0.41   41.72
   2   6 -17    7.30   80.23
  -5  -6   7 1914.14  384.23
   5   6  -7 1037.70  182.01
  -5  -5   9   -0.82  192.98
   5   6  -7 1256.83  155.37
   5   5  -9   88.42   49.94
  -6   6   0   15.13   16.23
  -5  -6   7 1844.59  269.80
  -5  -5   9   90.54   64.44
  -6   6   0   71.32   83.13
   5   5  -9   69.98   66.23
   1  13  -9   28.66  109.01
   1   5  16  234.75   60.25
  -1  -5 -16  506.97  211.18
   1   5  16  253.79   66.43
  -1  -5 -16  118.30   23.68
   1  13  -9   45.47   99.53
  -1  12   9   18.29  149.11
  -1 -13   9   47.18  102.21
   1 -12  -9   12.86   77.82
  -1 -13   9    6.58   65.74
  -2 -12  -4  235.37   53.20
   4   8   5   -3.95   31.09
   4   8   5 -100.21  117.10
   2  12   4  475.72  133.21
  -4  -8  -5    5.51   42.12
  -4  -8  -5   -6.21   56.23
   2  12   4    1.76  142.47
  -2 -12  -4  424.69  249.29
  -2  -3 -16  453.07  163.27
  -2  -3 -16  446.84   86.10
  -4   6 -13  132.08  134.40
  -4   6 -13  380.33  262.61
   1  12   7  416.69  105.43
   1  12   7  172.62  185.21
  -1 -12  -7  251.64  201.16
  -1 -12  -7  465.01  146.23
  -5  10  -4  235.27  112.69
  -6  -1  -1   -2.62  205.66
  -5  10  -4   62.74   43.22
  -4  -7  -7 1028.25  307.83
   4   7   7  828.50  262.20
  -3   6  15  -27.93  130.45
  -1   9 -16  317.55  184.46
   1  -9  16  736.03  253.35
  -5  -1  -9 1117.41  353.33
  -5  -1  -9 1234.51  268.52
  -3   6  15  -19.37   75.28
  -2 -13   3  697.61  276.57
  -4  -8  10   24.06   96.33
  -6   6   2  163.51   70.71
   4   8 -10  -82.72  116.09
   2  13  -3 2275.54  467.10
   4   8 -10   29.67  144.01
  -2 -13   3 1007.92  168.41
   2  13  -3 1638.78  528.24
  -4  -8  10   -4.31   57.70
  -6   6   2  201.99   99.20
  -2  10  12  139.20  170.99
  -2  10  12  106.85   94.08
  -5   3  12  660.77  243.11
  -5   3  12  523.81  137.58
  -5   5  11    0.56  131.00
   0   8 -17  121.26   47.91
  -5   5  11  205.65   89.92
   0   8 -17  149.97  121.08
   0  -8  17  103.96  101.98
  -4   9 -11 1532.57  276.61
  -4   9 -11  861.23  230.84
   0  -8  17  268.08  105.80
  -2 -13   2  344.01  125.03
  -2 -13   2  338.29  155.56
   2  13  -2  755.96  514.11
   2  13  -2  813.28  215.21
  -1  11 -14   21.77   50.19
  -1  11 -14  -30.18   86.09
   1 -11  14  -37.79   50.39
   1 -11  14   13.25   95.06
  -1  -1 -18  -28.85   55.28
  -1  -1 -18  -16.23   45.64
  -6   6  -1  -53.35   53.08
  -6   6  -1   -8.43   16.75
  -1   3  18   42.45   37.80
  -5   8   8   -3.66  122.99
  -5   8   8  -21.18   70.81
  -6   0   6  118.21  113.61
   6   0  -6  159.24   58.92
  -1   3  18   38.39   62.25
   6   0  -6   31.69   99.48
  -6   0   6   94.23   70.66
  -2  14   3  235.21  211.60
  -6  -1   5    0.99   59.89
  -2   6  16  100.41   58.12
  -6  -1   5   38.03   72.39
  -2   6  16  227.59   65.97
   2 -14  -3  472.57  171.39
   6   1  -5   65.56   98.91
   6   1  -5    5.34   48.04
   2  13  -4  356.29  479.88
  -2 -13   4  344.13  241.88
   2  13  -4  363.10  291.90
  -2 -13   4  122.36   81.73
  -1   5  17   24.97   57.48
  -1   5  17   41.13   55.90
   2   7  13  -14.31   49.58
  -2  -7 -13   52.35  131.30
  -2  -7 -13   37.37   64.84
   2   7  13   19.07   14.21
  -6   5  -3   34.38   80.02
  -6   5  -3   27.94  139.29
  -5   1 -10  195.21  115.43
  -5   1 -10  115.81  116.54
  -6   3  -4   85.13  119.04
  -3  10  11  205.10  175.09
  -4   5  14  179.02  210.38
  -3  10  11  338.55  166.85
  -4   5  14  268.58  198.86
  -4  12   4   97.67  131.86
   0  10  12   59.17   41.19
   1  14  -3   25.36   65.66
  -1 -14   3   38.11   75.73
  -1 -14   3   28.77  227.41
   1  14  -3   13.36  135.48
   0  10  12   72.78   92.85
  -3   3 -16   21.32   41.55
  -3   3 -16    1.14   20.12
  -3   7 -15   37.82  108.57
  -2  -6 -14  478.52   74.85
   1  14  -2 1046.79  197.54
  -3   7 -15   31.57   91.04
  -1 -14   2  773.38  185.49
  -1 -14   2 1016.15  324.08
  -5   5 -10   36.00   32.09
  -2  -6 -14  779.14  186.59
  -5   5 -10   68.86   51.73
  -5   8  -8   10.09   69.93
   1  14  -2  400.14  158.67
   3  11  -8   66.37  163.14
  -3 -11   8   50.15   71.27
   3  11  -8   88.49  130.32
  -4   8 -12   30.25   74.94
  -3 -11   8   80.25   79.91
  -6   2  -4  -26.27  151.97
   1 -14   8    3.26   21.44
  -2 -13   1  268.20   78.07
  -2 -13   1  155.97  168.13
   2  13  -1  354.85  240.23
  -1  14  -8  -31.92   58.90
   1 -14   8  -10.45   27.30
   2  13  -1  456.69  275.57
  -3  -3  17  355.99  146.15
  -3  -3  17   90.79   55.58
   3   3 -17  373.93  153.66
  -2   2  18   -1.20   49.04
  -3   2  17   17.10   40.06
  -2  -4  18  373.51  140.83
   2   4 -18  756.18  283.04
  -2   2  18   -6.79   47.10
  -3   2  17   -7.13   46.30
   2   4 -18  577.99  108.37
  -2  -4  18  939.74  171.51
  -1  13   7  113.69  112.10
   0   2 -19   -6.26   92.57
  -2 -11  -7   87.45  111.79
   2  11   7  299.73   65.59
   2  11   7   -6.19  125.29
   1 -13  -7  237.38  151.81
  -2 -11  -7  125.46  126.03
   0   2 -19   52.51   44.55
  -6   6   3  454.54  165.97
  -3   2 -16  405.26  123.95
  -3   2 -16  256.70   86.84
  -2 -10  -9  120.04   75.92
   2  10   9  484.23  193.13
  -2 -10  -9  240.32  130.83
   2  10   9  358.56  140.57
  -4  10 -10  190.91  122.13
  -6  -2   2 1223.04  252.98
   6   2  -2  937.70  185.92
  -2  -1 -17   50.54   48.16
  -6  -2   2 2118.49  316.89
   6   2  -2 1261.76  207.92
  -2  -1 -17   26.92   20.95
  -4   3  15  100.28   99.62
  -4   3  15  162.49  153.26
  -5  10   4  104.10   57.39
  -5   7  -9  114.29   91.77
  -2   8 -16    7.66   75.31
  -1  11  11   89.30  146.48
  -2   8 -16  391.95   81.57
  -1  11  11   83.90   55.33
   1  14  -4 3978.01  510.01
  -6   0  -3   -1.52   76.11
  -1 -14   4 1901.96  216.57
  -1 -14   4 3680.29  551.31
   1  14  -4 3595.11  655.18
   1   6 -18   40.52   42.93
   1   6 -18   26.68   80.46
  -1  -6  18    2.31   35.49
  -1  -6  18   -0.71   27.20
  -4  11   7  577.38  130.86
   0 -14  -3  180.88  190.66
   0  14   3  119.74  236.05
  -6   4   6   28.46   75.62
   0 -14  -3   44.18  179.62
   0  14   3  108.47  143.68
  -6   4  -4  230.29  248.29
   0   1 -19   68.28   58.01
   0   1 -19   42.87   55.61
   4   6 -13   51.73  102.13
   4   6 -13   31.97   62.37
  -1  -1  19   -9.10   31.91
   1   2 -19  321.19  129.90
  -1  -1  19    8.51   72.34
  -5  -2  12  662.86  280.68
   1   1 -19   63.28   54.00
  -2   6 -17   24.43   63.26
  -1  14   4  152.35  194.59
   5   2 -12  341.48  172.87
  -2   6 -17   56.28  109.27
   1   2 -19  816.09  146.00
  -4  -6  13   -9.29   46.03
   5   2 -12  180.71   42.16
   1   1 -19   45.07   78.41
  -4  -6  13   -9.87   82.52
  -1  -2  19 1498.53  434.97
  -6  -2   3  544.17  179.56
   6   2  -3  415.94  135.73
  -2 -13   5  251.48  187.32
   6   2  -1  919.66  160.47
   2  13  -5  530.77  226.97
  -2 -13   5  783.58  214.58
  -6  -2   1 1321.14  413.76
   2  13  -5  844.50  227.87
  -6  -2   1 1337.10  194.19
  -1 -14   1  134.64   98.41
  -1 -14   1  149.58  276.94
   1  14  -1  219.40  191.39
   1  10  11  811.78   66.46
   1  10  11  818.12  210.94
   1  14  -1  112.26  149.27
  -1 -10 -11 1658.60  247.69
  -1 -10 -11  964.14  169.62
  -3   4 -16  484.45  164.97
  -6   6  -2  480.25  235.27
  -5  -5  -5 6319.74 1282.92
  -4  -9   8    0.09   80.13
  -4  -9   8    7.81   44.60
   4   9  -8  -22.14   62.63
   4   9  -8    5.52   54.97
  -2  -8 -12  536.20   66.66
  -2  -8 -12  745.40  173.06
   2   8  12  684.82  126.77
   2   8  12  734.71  136.86
  -2  14  -7   38.95  108.33
   0   3 -19    0.63   33.58
   0   3 -19    1.57   25.62
   4   3 -15   21.60  230.15
  -4  -3  15   11.69   16.05
   5   7  -3   67.59   63.99
   4   3 -15  125.69  132.75
  -5  -7   3   75.87  117.05
  -4  -3  15   90.56  112.22
  -5  -7   3    1.27   48.34
   5   7  -3   42.19   38.95
   5   7  -2  101.20   48.14
   5   7  -2  127.79  121.38
  -5  -7   2  158.16  157.00
   0   3  18   20.31   43.78
  -2  12   9  102.43  147.68
   0   3  18   24.12   34.67
   1   9 -16   -2.62  102.22
   2 -13  10   27.88  133.40
   1   9 -16  231.07  102.43
  -1  -9  16  225.09   63.66
  -2  13 -10   -6.84   59.42
  -1  -9  16  184.39  123.61
   3 -12  10   41.04   85.01
  -4  10   9  104.78  114.31
  -3  -6 -12  246.92  134.11
  -3  -6 -12  263.81  166.62
  -6  -1  -2   -1.67   74.46
  -6   2   7  147.00  128.33
  -4  -5 -10  227.42  202.16
  -3  13   5  475.83  159.89
   5   6   3   77.16   73.55
  -5  -6  -3   -6.64  244.40
   1 -13  11  -31.77  131.97
  -5  -6  -3  138.44   73.81
  -1  13 -11    0.09   26.85
  -2 -11  12  758.69  268.75
   2  11 -12  569.96  161.51
  -4  -4 -11  110.42  154.33
  -1 -10  15  507.00   91.73
   1  10 -15  485.73  129.01
  -1 -10  15  263.19   71.26
   1  12 -12   -2.96   73.25
  -3 -11  -3  535.32  165.73
  -1 -12  12   33.93   41.41
   3  11   3  875.03  455.01
  -6   1  -4  512.75  386.02
   4   7 -12  211.14  235.41
  -4  -7  12  148.32  170.42
   4   7 -12  126.23   98.94
   2  13   0 3173.88  837.62
  -2 -13   0 1592.53  220.19
   5   7  -4   85.18   77.01
  -5  -7   4   95.21  110.05
  -3  -2 -15 1114.17  292.98
  -4  -1 -13  230.32  200.59
   2 -12  12   98.71   88.59
   3   9   8 1112.41  193.32
  -3  -9  -8 1655.59  402.59
  -3  -5 -13  733.98  225.89
   0 -14   8  356.82   74.61
  -3   1 -16  375.13   88.19
  -5  -7   1   72.13  168.14
   6   2  -4  118.51   93.04
  -6  -2   4  160.50   86.16
   5   7  -1  112.23  106.45
   3  10 -11    0.92   46.78
  -3 -10  11    1.69   89.48
;
_shelx_hkl_checksum              15314
_shelx_res_file
;
TITL 13041115
    shelxl.res
    created by SHELXL-2016/6 at 17:46:29 on 20-Oct-2017
CELL  0.71075 4.47454 10.54484 13.61114 96.652 94.109 99.009
ZERR  1 0.00021 0.00076 0.00061 0.004 0.003 0.004
LATT 1
SFAC C H O N CL
UNIT 26 20 10 2 2
SHEL 99999.000000 0.000000
L.S. 15
FMAP 2
PLAN -20
WPDB -2
HTAB
BOND $H
CONF
LIST 4
TEMP -73.0
ACTA
SIZE 0.030 0.210 0.410
LIST 4
DFIX 0.8400 0.0200 O5 H3
DFIX 0.8400 0.0200 O5 H4
WGHT    0.087900
FVAR       5.82481
CL1   5    0.493904    0.236637   -0.028417    11.00000    0.04021    0.03800 =
         0.04653    0.00725   -0.00095   -0.00570
O1    3    0.031943    0.080807   -0.176534    11.00000    0.04508    0.04516 =
         0.03541    0.00926   -0.00261    0.00078
O2    3    0.415036    0.117098    0.155105    11.00000    0.03877    0.03802 =
         0.03591    0.00121   -0.00791   -0.00047
O3    3   -0.176890    0.362162    0.471214    11.00000    0.03756    0.03190 =
         0.04275    0.00888   -0.00174    0.00682
O4    3   -0.071212    0.161599    0.436044    11.00000    0.04034    0.03678 =
         0.04715   -0.00516   -0.00714    0.00908
O5    3    0.393782    0.074711    0.332305    11.00000    0.03996    0.04191 =
         0.03574   -0.00294   -0.00664    0.00470
N1    4    0.323299    0.419703    0.603901    11.00000    0.03023    0.02694 =
         0.03256    0.00554    0.00204    0.00529
C1    1    0.020739    0.046349   -0.094694    11.00000    0.02918    0.03041 =
         0.03530    0.00388   -0.00043    0.00615
C2    1    0.227644    0.107615   -0.009852    11.00000    0.02865    0.02739 =
         0.03837    0.00320   -0.00101    0.00224
C3    1    0.219720    0.065135    0.079712    11.00000    0.02978    0.02778 =
         0.03541    0.00069   -0.00160    0.00636
C4    1    0.215138    0.297033    0.569091    11.00000    0.02973    0.02908 =
         0.03298    0.00450    0.00436    0.00456
C5    1    0.327424    0.197024    0.611402    11.00000    0.03470    0.02728 =
         0.03839    0.00512    0.00046    0.00431
AFIX  43
H5    2    0.250293    0.109195    0.586437    11.00000   -1.20000
AFIX   0
C6    1    0.549322    0.226800    0.689060    11.00000    0.03567    0.03013 =
         0.03785    0.00889    0.00199    0.00593
AFIX  43
H6    2    0.622423    0.159293    0.719133    11.00000   -1.20000
AFIX   0
C7    1    0.669420    0.356586    0.724490    11.00000    0.02994    0.03153 =
         0.03252    0.00538    0.00388    0.00475
C8    1    0.904965    0.393316    0.802172    11.00000    0.03473    0.03881 =
         0.03530    0.00601    0.00115    0.00633
AFIX  43
H8    2    0.985438    0.328869    0.834065    11.00000   -1.20000
AFIX   0
C9    1    1.017033    0.520944    0.831474    11.00000    0.03577    0.04527 =
         0.03819   -0.00304   -0.00358    0.00331
AFIX  43
H9    2    1.175836    0.545100    0.883608    11.00000   -1.20000
AFIX   0
C10   1    0.898022    0.617639    0.784630    11.00000    0.04024    0.03289 =
         0.04838   -0.00459    0.00056    0.00260
AFIX  43
H10   2    0.980263    0.706066    0.805678    11.00000   -1.20000
AFIX   0
C11   1    0.667656    0.587224    0.709826    11.00000    0.03765    0.02892 =
         0.04432    0.00138    0.00270    0.00606
AFIX  43
H11   2    0.587483    0.653070    0.679646    11.00000   -1.20000
AFIX   0
C12   1    0.553169    0.455578    0.678971    11.00000    0.02808    0.02866 =
         0.03111    0.00210    0.00416    0.00441
C13   1   -0.033298    0.272426    0.483965    11.00000    0.02929    0.03111 =
         0.03395    0.00578    0.00238    0.00373
H1    2    0.251532    0.481499    0.576021    11.00000    0.05543
H2    2    0.358719    0.082735    0.216411    11.00000    0.09234
H3    2    0.254595    0.086057    0.366749    11.00000    0.05359
H4    2    0.559873    0.110521    0.365109    11.00000    0.06335
HKLF 4
REM  13041115
REM R1 =  0.0524 for    2755 Fo > 4sig(Fo)  and  0.0722 for all    3666 data
REM    197 parameters refined using      2 restraints
END
WGHT      0.0873      0.0000
REM Instructions for potential hydrogen bonds
EQIV $2 -x, -y+1, -z+1
HTAB C11 O3_$2
HTAB N1 O3_$2
HTAB O2 O5
HTAB O5 O4
EQIV $3 x+1, y, z
HTAB O5 O4_$3
REM Highest difference peak  0.518,  deepest hole -0.450,  1-sigma level  0.154
Q1    1   0.4811  0.1970 -0.3662  11.00000  0.05    0.52
Q2    1  -0.0922  0.4391  0.4818  11.00000  0.05    0.49
Q3    1   0.6310  0.2932 -0.2943  11.00000  0.05    0.45
Q4    1   0.0461  0.5055  0.5594  11.00000  0.05    0.43
Q5    1   0.9578  0.3709 -0.2076  11.00000  0.05    0.43
Q6    1   1.1009  0.2975 -0.1390  11.00000  0.05    0.43
Q7    1  -0.3296  0.3621  0.4172  11.00000  0.05    0.42
Q8    1   0.5916  0.1469 -0.2438  11.00000  0.05    0.42
Q9    1   0.0000  0.0000  0.5000  10.50000  0.05    0.42
Q10   1   0.5942  0.5273  0.6949  11.00000  0.05    0.39
Q11   1   0.8354  0.3562 -0.2398  11.00000  0.05    0.39
Q12   1   0.7725  0.2199 -0.0426  11.00000  0.05    0.39
Q13   1   0.6236  0.7452  0.6398  11.00000  0.05    0.38
Q14   1   0.4228  0.0586 -0.1980  11.00000  0.05    0.38
Q15   1   0.2225  0.1410  0.4250  11.00000  0.05    0.37
Q16   1   0.7607  0.2217 -0.1806  11.00000  0.05    0.37
Q17   1   0.5640  0.6772  0.6475  11.00000  0.05    0.36
Q18   1   0.6173  0.6568  0.6585  11.00000  0.05    0.36
Q19   1  -0.0479  0.0510  0.3559  11.00000  0.05    0.35
Q20   1   0.8292  0.3085 -0.2323  11.00000  0.05    0.34
;
_shelx_res_checksum              63829
loop_
_space_group_symop_operation_xyz
'x, y, z'
'-x, -y, -z'
loop_
_atom_site_type_symbol
_atom_site_label
_atom_site_fract_x
_atom_site_fract_y
_atom_site_fract_z
_atom_site_U_iso_or_equiv
_atom_site_adp_type
_atom_site_calc_flag
_atom_site_occupancy
Cl Cl1 0.49390(9) 0.23664(4) -0.02842(3) 0.04300(16) Uani d 1
O O1 0.0319(3) 0.08081(12) -0.17653(8) 0.0426(3) Uani d 1
O O2 0.4150(3) 0.11710(11) 0.15510(9) 0.0391(3) Uani d 1
O O3 -0.1769(3) 0.36216(11) 0.47121(9) 0.0372(3) Uani d 1
O O4 -0.0712(3) 0.16160(11) 0.43604(9) 0.0425(3) Uani d 1
O O5 0.3938(3) 0.07471(12) 0.33231(9) 0.0406(3) Uani d 1
N N1 0.3233(3) 0.41970(12) 0.60390(9) 0.0298(3) Uani d 1
C C1 0.0207(3) 0.04635(14) -0.09469(11) 0.0317(3) Uani d 1
C C2 0.2276(3) 0.10762(14) -0.00985(11) 0.0320(3) Uani d 1
C C3 0.2197(3) 0.06514(14) 0.07971(11) 0.0313(3) Uani d 1
C C4 0.2151(3) 0.29703(14) 0.56909(11) 0.0305(3) Uani d 1
C C5 0.3274(3) 0.19702(15) 0.61140(11) 0.0336(3) Uani d 1
H H5 0.250293 0.109195 0.586437 0.040 Uiso calc 1
C C6 0.5493(4) 0.22680(15) 0.68906(12) 0.0342(3) Uani d 1
H H6 0.622423 0.159293 0.719133 0.041 Uiso calc 1
C C7 0.6694(3) 0.35659(14) 0.72449(11) 0.0312(3) Uani d 1
C C8 0.9050(4) 0.39332(16) 0.80217(12) 0.0363(3) Uani d 1
H H8 0.985438 0.328869 0.834065 0.044 Uiso calc 1
C C9 1.0170(4) 0.52094(18) 0.83147(13) 0.0411(4) Uani d 1
H H9 1.175836 0.545100 0.883608 0.049 Uiso calc 1
C C10 0.8980(4) 0.61764(17) 0.78463(13) 0.0418(4) Uani d 1
H H10 0.980263 0.706066 0.805678 0.050 Uiso calc 1
C C11 0.6677(4) 0.58722(15) 0.70983(13) 0.0372(3) Uani d 1
H H11 0.587483 0.653070 0.679646 0.045 Uiso calc 1
C C12 0.5532(3) 0.45558(14) 0.67897(10) 0.0294(3) Uani d 1
C C13 -0.0333(3) 0.27243(14) 0.48397(11) 0.0315(3) Uani d 1
H H1 0.252(5) 0.481(2) 0.5760(17) 0.055(6) Uiso d 1
H H2 0.359(7) 0.083(3) 0.216(2) 0.092(10) Uiso d 1
H H3 0.255(4) 0.086(2) 0.3667(15) 0.054(6) Uiso d 1
H H4 0.560(4) 0.111(2) 0.3651(17) 0.063(7) Uiso d 1
loop_
_atom_site_aniso_label
_atom_site_aniso_U_11
_atom_site_aniso_U_22
_atom_site_aniso_U_33
_atom_site_aniso_U_12
_atom_site_aniso_U_13
_atom_site_aniso_U_23
Cl1 0.0402(2) 0.0380(2) 0.0465(2) -0.00570(16) -0.00095(18) 0.00725(17)
O1 0.0451(7) 0.0452(7) 0.0354(6) 0.0008(5) -0.0026(5) 0.0093(5)
O2 0.0388(6) 0.0380(6) 0.0359(6) -0.0005(5) -0.0079(5) 0.0012(4)
O3 0.0376(6) 0.0319(6) 0.0427(6) 0.0068(4) -0.0017(5) 0.0089(4)
O4 0.0403(6) 0.0368(6) 0.0471(6) 0.0091(5) -0.0071(5) -0.0052(5)
O5 0.0400(7) 0.0419(7) 0.0357(6) 0.0047(5) -0.0066(5) -0.0029(5)
N1 0.0302(6) 0.0269(6) 0.0326(6) 0.0053(5) 0.0020(5) 0.0055(5)
C1 0.0292(7) 0.0304(7) 0.0353(7) 0.0061(5) -0.0004(6) 0.0039(6)
C2 0.0287(7) 0.0274(7) 0.0384(7) 0.0022(5) -0.0010(6) 0.0032(5)
C3 0.0298(7) 0.0278(7) 0.0354(7) 0.0064(5) -0.0016(6) 0.0007(5)
C4 0.0297(7) 0.0291(7) 0.0330(7) 0.0046(5) 0.0044(6) 0.0045(5)
C5 0.0347(7) 0.0273(7) 0.0384(7) 0.0043(5) 0.0005(6) 0.0051(5)
C6 0.0357(7) 0.0301(7) 0.0378(7) 0.0059(6) 0.0020(6) 0.0089(6)
C7 0.0299(7) 0.0315(7) 0.0325(7) 0.0047(5) 0.0039(6) 0.0054(5)
C8 0.0347(7) 0.0388(8) 0.0353(7) 0.0063(6) 0.0011(6) 0.0060(6)
C9 0.0358(8) 0.0453(9) 0.0382(8) 0.0033(7) -0.0036(7) -0.0030(7)
C10 0.0402(8) 0.0329(8) 0.0484(9) 0.0026(6) 0.0006(7) -0.0046(7)
C11 0.0376(8) 0.0289(7) 0.0443(8) 0.0061(6) 0.0027(7) 0.0014(6)
C12 0.0281(6) 0.0287(7) 0.0311(6) 0.0044(5) 0.0042(6) 0.0021(5)
C13 0.0293(7) 0.0311(7) 0.0339(7) 0.0037(5) 0.0024(6) 0.0058(5)
loop_
_atom_type_symbol
_atom_type_description
_atom_type_scat_dispersion_real
_atom_type_scat_dispersion_imag
_atom_type_scat_source
C C 0.0033 0.0016 'International Tables Vol C Tables 4.2.6.8 and 6.1.1.4'
H H 0.0000 0.0000 'International Tables Vol C Tables 4.2.6.8 and 6.1.1.4'
O O 0.0106 0.0060 'International Tables Vol C Tables 4.2.6.8 and 6.1.1.4'
N N 0.0061 0.0033 'International Tables Vol C Tables 4.2.6.8 and 6.1.1.4'
Cl Cl 0.1484 0.1585 'International Tables Vol C Tables 4.2.6.8 and 6.1.1.4'
loop_
_geom_angle_atom_site_label_1
_geom_angle_atom_site_label_2
_geom_angle_atom_site_label_3
_geom_angle_site_symmetry_3
_geom_angle
C3 O2 H2 . 111.3(18)
H3 O5 H4 . 108(2)
C4 N1 C12 . 122.93(13)
C4 N1 H1 . 119.1(16)
C12 N1 H1 . 117.9(16)
O1 C1 C2 . 123.09(14)
O1 C1 C3 2 118.94(13)
C2 C1 C3 2 117.97(13)
C3 C2 C1 . 122.39(13)
C3 C2 Cl1 . 120.62(11)
C1 C2 Cl1 . 116.98(11)
O2 C3 C2 . 122.30(14)
O2 C3 C1 2 118.13(13)
C2 C3 C1 2 119.57(12)
N1 C4 C5 . 120.22(13)
N1 C4 C13 . 116.94(13)
C5 C4 C13 . 122.84(13)
C6 C5 C4 . 119.50(14)
C6 C5 H5 . 120.2
C4 C5 H5 . 120.2
C5 C6 C7 . 120.39(14)
C5 C6 H6 . 119.8
C7 C6 H6 . 119.8
C6 C7 C8 . 123.01(14)
C6 C7 C12 . 118.61(13)
C8 C7 C12 . 118.37(14)
C9 C8 C7 . 120.18(15)
C9 C8 H8 . 119.9
C7 C8 H8 . 119.9
C8 C9 C10 . 120.32(15)
C8 C9 H9 . 119.8
C10 C9 H9 . 119.8
C11 C10 C9 . 121.78(15)
C11 C10 H10 . 119.1
C9 C10 H10 . 119.1
C10 C11 C12 . 118.00(15)
C10 C11 H11 . 121.0
C12 C11 H11 . 121.0
N1 C12 C11 . 120.39(13)
N1 C12 C7 . 118.27(13)
C11 C12 C7 . 121.34(14)
O3 C13 O4 . 128.04(14)
O3 C13 C4 . 117.19(13)
O4 C13 C4 . 114.76(13)
loop_
_geom_bond_atom_site_label_1
_geom_bond_atom_site_label_2
_geom_bond_site_symmetry_2
_geom_bond_distance
Cl1 C2 . 1.7174(15)
O1 C1 . 1.2130(18)
O2 C3 . 1.3070(17)
O2 H2 . 0.98(3)
O3 C13 . 1.2453(18)
O4 C13 . 1.2512(18)
O5 H3 . 0.821(16)
O5 H4 . 0.848(16)
N1 C4 . 1.3270(19)
N1 C12 . 1.3722(19)
N1 H1 . 0.88(2)
C1 C2 . 1.447(2)
C1 C3 2 1.507(2)
C2 C3 . 1.348(2)
C4 C5 . 1.401(2)
C4 C13 . 1.517(2)
C5 C6 . 1.370(2)
C5 H5 . 0.9500
C6 C7 . 1.405(2)
C6 H6 . 0.9500
C7 C8 . 1.413(2)
C7 C12 . 1.420(2)
C8 C9 . 1.363(2)
C8 H8 . 0.9500
C9 C10 . 1.415(3)
C9 H9 . 0.9500
C10 C11 . 1.368(2)
C10 H10 . 0.9500
C11 C12 . 1.406(2)
C11 H11 . 0.9500
loop_
_geom_hbond_atom_site_label_D
_geom_hbond_atom_site_label_H
_geom_hbond_atom_site_label_A
_geom_hbond_site_symmetry_A
_geom_hbond_distance_DH
_geom_hbond_distance_HA
_geom_hbond_distance_DA
_geom_hbond_angle_DHA
_geom_hbond_publ_flag
N1 H1 O3 2_566 0.88(2) 1.91(2) 2.7724(17) 167(2) y
O2 H2 O5 . 0.98(3) 1.59(3) 2.5092(17) 155(3) y
O5 H3 O4 . 0.819(19) 2.011(19) 2.8072(19) 164(2) y
O5 H4 O4 1_655 0.85(2) 1.82(2) 2.6632(19) 171(2) y
C6 H6 O1 1_656 0.95 2.54 3.392(2) 150 y
C6 H6 O5 2_656 0.95 2.47 3.211(2) 134 y
loop_
_geom_torsion_atom_site_label_1
_geom_torsion_atom_site_label_2
_geom_torsion_atom_site_label_3
_geom_torsion_atom_site_label_4
_geom_torsion_site_symmetry_1
_geom_torsion_site_symmetry_4
_geom_torsion
O1 C1 C2 C3 . . -177.43(15)
C3 C1 C2 C3 2 . 2.8(2)
O1 C1 C2 Cl1 . . 1.2(2)
C3 C1 C2 Cl1 2 . -178.60(10)
C1 C2 C3 O2 . . 177.00(13)
Cl1 C2 C3 O2 . . -1.6(2)
C1 C2 C3 C1 . 2 -2.8(2)
Cl1 C2 C3 C1 . 2 178.61(10)
C12 N1 C4 C5 . . 2.4(2)
C12 N1 C4 C13 . . -178.34(12)
N1 C4 C5 C6 . . 0.1(2)
C13 C4 C5 C6 . . -179.12(14)
C4 C5 C6 C7 . . -1.6(2)
C5 C6 C7 C8 . . -177.95(14)
C5 C6 C7 C12 . . 0.8(2)
C6 C7 C8 C9 . . 178.31(16)
C12 C7 C8 C9 . . -0.4(2)
C7 C8 C9 C10 . . 0.2(3)
C8 C9 C10 C11 . . 0.5(3)
C9 C10 C11 C12 . . -1.0(3)
C4 N1 C12 C11 . . 177.18(14)
C4 N1 C12 C7 . . -3.2(2)
C10 C11 C12 N1 . . -179.65(14)
C10 C11 C12 C7 . . 0.7(2)
C6 C7 C12 N1 . . 1.5(2)
C8 C7 C12 N1 . . -179.66(13)
C6 C7 C12 C11 . . -178.84(14)
C8 C7 C12 C11 . . 0.0(2)
N1 C4 C13 O3 . . -19.8(2)
C5 C4 C13 O3 . . 159.47(14)
N1 C4 C13 O4 . . 161.50(14)
C5 C4 C13 O4 . . -19.3(2)
