#------------------------------------------------------------------------------
#$Date: 2019-12-26 22:24:23 +0200 (Thu, 26 Dec 2019) $
#$Revision: 246181 $
#$URL: file:///home/coder/svn-repositories/cod/cif/2/31/19/2311945.cif $
#------------------------------------------------------------------------------
#
# This file is available in the Crystallography Open Database (COD),
# http://www.crystallography.net/. The original data for this entry
# were provided by IUCr Journals, http://journals.iucr.org/.
#
# The file may be used within the scientific community so long as
# proper attribution is given to the journal article from which the
# data were obtained.
#
data_2311945
loop_
_publ_author_name
'Fabijani\'c, Ivana'
'Matkovi\'c-\<Calogovi\'c, Dubravka'
'Pilepi\'c, Viktor'
'Sankovi\'c, Kre\<simir'
_publ_section_title
;
 Structural and computational analysis of intermolecular interactions in a
 new 2-thiouracil polymorph.
;
_journal_coeditor_code           KU3205
_journal_issue                   'Pt 12'
_journal_name_full
'Acta crystallographica. Section C, Structural chemistry'
_journal_page_first              1078
_journal_page_last               1086
_journal_paper_doi               10.1107/S205322961701542X
_journal_volume                  73
_journal_year                    2017
_chemical_formula_iupac          'C4 H4 N2 O S'
_chemical_formula_moiety         'C4 H4 N2 O S'
_chemical_formula_sum            'C4 H4 N2 O S'
_chemical_formula_weight         128.15
_chemical_name_common            2-thiouracil
_chemical_name_systematic
;
2-Thiouracil
;
_space_group_crystal_system      monoclinic
_space_group_IT_number           14
_space_group_name_Hall           '-P 2ybc'
_space_group_name_H-M_alt        'P 1 21/c 1'
_atom_sites_solution_hydrogens   geom
_audit_creation_method           SHELXL-2014/7
_cell_angle_alpha                90
_cell_angle_beta                 93.740(3)
_cell_angle_gamma                90
_cell_formula_units_Z            4
_cell_length_a                   4.1043(2)
_cell_length_b                   11.0458(4)
_cell_length_c                   12.0465(4)
_cell_measurement_reflns_used    1185
_cell_measurement_temperature    298(2)
_cell_measurement_theta_max      32.0430
_cell_measurement_theta_min      5.4150
_cell_volume                     544.97(4)
_computing_cell_refinement
;
CrysAlis PRO (Agilent, 2014)
;
_computing_data_collection
;
CrysAlis PRO (Agilent, 2014)
;
_computing_data_reduction
;
CrysAlis PRO (Agilent, 2014)
;
_computing_molecular_graphics
;
Mercury (Macrae at al., 2008) and
ORTEP-3 (Farrugia, 2012)
;
_computing_publication_material
;
SHELXL2014 (Sheldrick, 2015)
;
_computing_structure_refinement
;
SHELXL2014 (Sheldrick, 2015)
;
_computing_structure_solution
;
SHELXS97 (Sheldrick, 2008)
;
_diffrn_ambient_temperature      298(2)
_diffrn_detector_area_resol_mean 16.3426
_diffrn_measured_fraction_theta_full 0.986
_diffrn_measured_fraction_theta_max 0.989
_diffrn_measurement_device_type  'Agilent Xcalibur Sapphire3'
_diffrn_measurement_method       '\w scans'
_diffrn_radiation_type           MoK\a
_diffrn_radiation_wavelength     0.71073
_diffrn_reflns_av_R_equivalents  0.0160
_diffrn_reflns_limit_h_max       5
_diffrn_reflns_limit_h_min       -4
_diffrn_reflns_limit_k_max       13
_diffrn_reflns_limit_k_min       -14
_diffrn_reflns_limit_l_max       12
_diffrn_reflns_limit_l_min       -16
_diffrn_reflns_number            2639
_diffrn_reflns_theta_full        25.242
_diffrn_reflns_theta_max         28.496
_diffrn_reflns_theta_min         4.978
_exptl_absorpt_coefficient_mu    0.479
_exptl_absorpt_correction_T_max  1.00000
_exptl_absorpt_correction_T_min  0.98451
_exptl_absorpt_correction_type   multi-scan
_exptl_absorpt_process_details
;
(CrysAlis PRO; Agilent, 2014)
;
_exptl_crystal_colour            colourless
_exptl_crystal_density_diffrn    1.562
_exptl_crystal_description       prismatic
_exptl_crystal_F_000             264
_exptl_crystal_size_max          0.42
_exptl_crystal_size_mid          0.16
_exptl_crystal_size_min          0.12
_refine_diff_density_max         0.239
_refine_diff_density_min         -0.241
_refine_ls_extinction_method     none
_refine_ls_goodness_of_fit_ref   1.049
_refine_ls_hydrogen_treatment    constr
_refine_ls_matrix_type           full
_refine_ls_number_parameters     73
_refine_ls_number_reflns         1367
_refine_ls_number_restraints     0
_refine_ls_restrained_S_all      1.049
_refine_ls_R_factor_all          0.0364
_refine_ls_R_factor_gt           0.0297
_refine_ls_shift/su_max          0.001
_refine_ls_shift/su_mean         0.000
_refine_ls_structure_factor_coef Fsqd
_refine_ls_weighting_details
'w=1/[\s^2^(Fo^2^)+(0.0426P)^2^+0.0147P] where P=(Fo^2^+2Fc^2^)/3'
_refine_ls_weighting_scheme      calc
_refine_ls_wR_factor_gt          0.0755
_refine_ls_wR_factor_ref         0.0807
_reflns_number_gt                1169
_reflns_number_total             1367
_reflns_threshold_expression     'I > 2\s(I)'
_cod_data_source_file            ku3205sup1.cif
_cod_data_source_block           I
_cod_original_sg_symbol_H-M      'P 21/c'
_cod_database_code               2311945
_shelx_space_group_comment
;
The symmetry employed for this shelxl refinement is uniquely defined
by the following loop, which should always be used as a source of
symmetry information in preference to the above space-group names.
They are only intended as comments.
;
_shelx_hkl_file
;
   0   0  -3 16.8072 19.0429   3
   0   0  -4 206.892 51.8182   3
   0   0  -5 69.5831 43.3463   3
   0   0  -6 10185.9 395.275   3
   0   0  -7 68.6023 46.3625   3
   0   0  -8 36875.6 878.429   3
   0   0  -9 219.322 85.6746   3
   0   0 -10 12192.4 584.925   3
   0   0 -11 38.8838 72.5806   3
   0   0 -12 2110.84 280.681   3
   0   0 -13 40.0582 79.9033   3
   0   0 -14 9925.15 657.723   3
   0   0 -15 21.5392 79.9169   3
   0   0 -16 794.416 211.577   3
   0   0 -17 142.417 120.669   3
   0   1  -3 199533. 1255.62   3
   0  -1  -3 198797. 1220.73   3
   0   1  -4 5952.02 249.669   3
   0  -1  -4 5490.72 135.225   2
   0  -1  -4 5611.22 236.503   3
   0  -1  -5 116566. 616.198   2
   0  -1  -5 119127. 1232.71   3
   0   1  -5 119239. 1241.61   3
   0  -1  -6 2414.59 194.336   3
   0   1  -6 2333.88 190.910   3
   0  -1  -6 2229.98 78.8579   2
   0  -1  -7 20294.9 610.922   3
   0   1  -7 20030.1 611.880   3
   0   1  -8 2078.95 215.921   3
   0  -1  -8 1729.20 194.432   3
   0   1  -9 43485.5 1045.32   3
   0  -1  -9 44140.8 1031.51   3
   0   1 -10 83586.2 1544.30   3
   0  -1 -10 85413.2 1528.77   3
   0   1 -11 31369.1 997.782   3
   0  -1 -11 29928.0 968.657   3
   0   1 -12 6043.56 466.422   3
   0  -1 -12 6988.44 496.849   3
   0   1 -13 7.42187 78.7137   3
   0  -1 -13 10.3290 64.2480   3
   0  -1 -14 1390.18 257.758   3
   0   1 -14 1713.00 279.019   3
   0  -1 -15 3954.83 434.591   3
   0   1 -15 3653.24 415.335   3
   0  -1 -16 459.571 162.635   3
   0   1 -16 57.3933 86.9034   3
   0   1 -17 839.549 237.763   3
   0  -1 -17 597.281 189.845   3
   0   2  -2 145.097 41.0855   3
   0  -2   2 161.281 35.7607   2
   0  -2  -2 159.176 41.4625   2
   0  -2  -2 112.097 35.8508   1
   0   2  -3 39822.9 589.626   3
   0  -2   3 39299.5 452.260   2
   0  -2  -3 38189.7 491.685   2
   0  -2  -4 100985. 806.459   2
   0  -2  -4 101424. 1050.92   3
   0   2  -4 105345. 1079.52   3
   0  -2   4 103993. 725.135   2
   0  -2  -5 54214.6 590.038   2
   0   2  -5 53958.1 859.784   3
   0  -2  -5 55039.1 844.308   3
   0   2  -6 27895.2 672.372   3
   0  -2  -6 27076.2 410.202   2
   0  -2  -6 27721.5 662.733   3
   0  -2  -7 12134.1 263.239   2
   0  -2  -7 12378.4 482.379   3
   0   2  -7 11792.4 478.158   3
   0  -2  -8 16797.8 600.112   3
   0   2  -8 17191.9 619.296   3
   0   2  -9 3.39452 47.6659   3
   0  -2  -9 157.148 83.5925   3
   0  -2 -10 10510.9 540.093   3
   0   2 -10 10155.7 541.339   3
   0   2 -11 17770.1 766.371   3
   0  -2 -11 18379.7 759.263   3
   0   2 -12 4050.58 385.370   3
   0  -2 -12 4454.60 393.629   3
   0   2 -13 23198.3 958.630   3
   0  -2 -13 22584.3 939.252   3
   0  -2 -14 1884.14 284.905   3
   0   2 -14 2853.37 357.198   3
   0  -2 -15 3995.51 437.952   3
   0   2 -15 4128.45 451.287   3
   0   2 -16 2874.65 394.753   3
   0  -2 -16 2738.64 386.290   3
   0   2 -17 372.756 155.128   3
   0  -2 -17 328.155 141.243   3
   0   3   0 72.6460 23.4257   1
   0  -3   0 78.9519 26.8293   1
   0  -3   1 21053.9 294.662   1
   0  -3   1 21301.8 429.913   2
   0   3  -1 20619.3 381.974   3
   0  -3  -1 21076.2 338.575   1
   0  -3  -1 20902.8 431.069   2
   0  -3  -2 175599. 1140.34   1
   0   3  -2 170814. 1189.14   3
   0  -3  -2 173496. 1262.00   2
   0  -3   3 15678.2 360.065   2
   0  -3  -3 15294.5 380.112   2
   0   3  -3 16049.0 401.836   3
   0   3  -4 21313.1 510.951   3
   0  -3   4 20970.8 407.628   2
   0  -3  -4 20131.3 436.451   2
   0  -3   5 2392.92 134.344   2
   0  -3  -5 2682.29 193.337   3
   0   3  -5 2446.37 190.420   3
   0  -3  -5 2535.91 156.894   2
   0   3  -6 134112. 1527.29   3
   0  -3  -6 136425. 1136.12   2
   0  -3  -6 135454. 1493.33   3
   0  -3  -7 13251.6 508.815   3
   0   3  -7 12478.7 498.372   3
   0  -3  -7 13221.6 346.516   2
   0   3  -8 19007.6 663.809   3
   0  -3  -8 19746.2 663.220   3
   0  -3  -8 18998.0 407.075   2
   0   3  -9 5713.18 389.735   3
   0  -3  -9 5804.39 384.390   3
   0  -3 -10 60574.3 1315.77   3
   0   3 -10 62645.6 1358.79   3
   0  -3 -11 569.987 152.886   3
   0   3 -11 644.624 164.642   3
   0   3 -12 1201.61 210.394   3
   0  -3 -12 1300.11 232.034   3
   0  -3 -13 623.538 148.318   3
   0   3 -13 550.918 153.619   3
   0  -3 -14 811.455 202.203   3
   0   3 -14 1170.14 236.806   3
   0  -3 -15 44.3590 86.0835   3
   0   3 -15 91.5183 72.7256   3
   0   3 -16 5877.29 570.231   3
   0  -3 -16 6760.49 595.922   3
   0  -3 -17-80.9041 102.516   3
   0  -4   0 197272. 1525.99   2
   0  -4   0 190744. 1040.30   1
   0  -4   1 158906. 923.076   1
   0  -4   1 157890. 1371.48   2
   0  -4  -1 162364. 1396.49   2
   0   4  -1 163321. 1228.59   3
   0  -4  -1 160773. 1043.64   1
   0  -4   2 3805.78 210.746   2
   0  -4   2 3596.29 151.391   1
   0   4  -2 3442.54 190.455   3
   0  -4  -2 3658.45 211.810   2
   0  -4  -2 3399.43 173.726   1
   0  -4  -3 715.745 88.6794   1
   0  -4   3 621.877 94.6677   2
   0   4  -3 611.832 88.6202   3
   0  -4  -3 621.358 92.6253   2
   0  -4   4 43510.2 690.968   2
   0   4  -4 43073.5 777.698   3
   0  -4  -4 42495.7 729.808   2
   0  -4   5 129671. 1180.34   2
   0  -4  -5 127417. 1278.68   2
   0  -4  -6 14821.3 433.409   2
   0   4  -6 15318.1 529.992   3
   0  -4  -6 15538.7 526.235   3
   0  -4  -7 18147.1 474.386   2
   0   4  -7 17750.5 611.124   3
   0  -4  -7 18390.4 611.012   3
   0  -4  -8 10441.9 492.808   3
   0  -4  -8 10457.2 356.841   2
   0   4  -8 11136.9 519.072   3
   0  -4  -9 2466.46 169.177   2
   0  -4  -9 2816.86 271.855   3
   0   4  -9 2715.43 275.760   3
   0  -4 -10 2911.70 291.097   3
   0   4 -10 2964.49 305.315   3
   0  -4 -11 5321.94 417.955   3
   0   4 -11 5229.33 427.598   3
   0   4 -12 316.263 109.693   3
   0  -4 -12 155.410 99.7217   3
   0   4 -13 9160.23 616.693   3
   0  -4 -13 8332.96 580.454   3
   0   4 -14 353.482 134.530   3
   0  -4 -14 330.391 130.285   3
   0  -4 -15 7697.55 615.750   3
   0   4 -15 6566.11 573.244   3
   0  -4 -16 370.933 162.676   3
   0   4 -16 475.030 179.362   3
   0  -4 -17 94.3288 70.7203   3
   0  -5   0 36.9488 31.5173   1
   0  -5   0 11.6700 59.6150   2
   0   5  -1 48150.3 743.422   3
   0  -5  -1 47374.6 848.268   2
   0  -5   1 48823.6 851.849   2
   0  -5  -1 47338.7 623.290   1
   0  -5   1 46476.3 559.429   1
   0   5  -2 25254.1 556.227   3
   0  -5  -2 25545.5 508.048   1
   0  -5   2 25830.7 613.908   2
   0  -5   2 24306.1 417.859   1
   0  -5  -2 25896.0 630.084   2
   0  -5  -3 35157.7 646.474   1
   0  -5   3 35321.2 717.270   2
   0  -5   3 33823.7 537.314   1
   0   5  -3 33832.5 684.421   3
   0  -5  -3 34632.1 736.820   2
   0  -5   4 48035.5 822.002   2
   0   5  -4 46675.8 849.975   3
   0  -5  -4 46903.0 866.532   2
   0  -5   5 85762.5 1085.76   2
   0   5  -5 85657.9 1231.43   3
   0  -5  -5 85422.2 1164.79   2
   0  -5  -6 703.201 111.422   2
   0  -5   6 731.824 98.9280   2
   0  -5  -7 3034.29 259.761   3
   0   5  -7 2987.12 260.460   3
   0  -5  -7 2835.44 211.336   2
   0  -5  -8 8374.56 360.772   2
   0   5  -8 8766.53 481.402   3
   0  -5  -8 8807.23 459.853   3
   0  -5  -9 8602.30 484.144   3
   0   5  -9 8658.48 500.386   3
   0  -5  -9 8556.75 360.383   2
   0  -5 -10 797.760 166.969   3
   0   5 -10 1017.71 189.588   3
   0   5 -11 26133.1 966.934   3
   0  -5 -11 27147.5 955.417   3
   0  -5 -12 6345.50 485.128   3
   0   5 -12 6521.72 513.049   3
   0   5 -13 1396.87 253.054   3
   0  -5 -13 1149.89 226.809   3
   0   5 -14 1891.17 311.648   3
   0  -5 -14 1862.22 291.498   3
   0  -5 -15 4574.03 474.995   3
   0   5 -15 3997.73 458.184   3
   0  -5 -16-118.403 118.121   3
   0   5 -16 116.682 108.976   3
   0  -6   0 147469. 1657.82   2
   0  -6   0 146623. 1119.40   1
   0  -6  -1 26625.6 505.338   1
   0  -6   1 26446.8 459.772   1
   0   6  -1 26183.5 600.929   3
   0  -6  -1 28440.5 729.622   2
   0  -6   1 26492.6 693.096   2
   0  -6   2 16206.5 543.133   2
   0  -6  -2 15986.5 547.482   2
   0  -6   2 15942.8 360.287   1
   0  -6  -2 16318.2 433.661   1
   0   6  -2 16205.8 486.359   3
   0   6  -3 1929.99 174.698   3
   0  -6   3 1955.00 134.902   1
   0  -6  -3 1935.03 194.005   2
   0  -6   3 1996.17 189.105   2
   0  -6  -3 1997.43 162.057   1
   0  -6   4 10181.0 417.262   2
   0  -6   4 9234.76 317.958   1
   0  -6  -4 9623.19 429.436   2
   0   6  -4 9586.90 411.662   3
   0  -6  -5 594.058 112.375   2
   0   6  -5 511.609 105.161   3
   0  -6   5 471.238 90.9995   2
   0  -6  -6 690.354 117.136   2
   0   6  -6 757.174 135.931   3
   0  -6   6 820.630 117.357   2
   0   6  -7 1195.48 179.218   3
   0  -6  -7 1549.50 185.412   3
   0  -6  -7 1390.80 167.365   2
   0  -6  -8 29104.5 745.492   2
   0  -6  -8 28875.4 860.168   3
   0   6  -8 28965.2 890.647   3
   0  -6  -9 6417.19 348.856   2
   0   6  -9 6210.26 434.126   3
   0  -6  -9 5975.69 414.815   3
   0  -6 -10 499.434 97.7515   2
   0  -6 -10 740.595 154.211   3
   0   6 -10 496.437 131.335   3
   0  -6 -11 2275.80 284.813   3
   0   6 -11 2901.61 332.600   3
   0   6 -12 6515.01 513.538   3
   0  -6 -12 6046.64 485.695   3
   0   6 -13 154.361 93.1052   3
   0  -6 -13 110.272 81.4853   3
   0   6 -14 11081.0 739.219   3
   0  -6 -14 10582.0 697.782   3
   0   6 -15 167.374 132.228   3
   0  -6 -15-1.92052 84.8914   3
   0   6 -16 10584.7 785.501   3
   0  -6 -16 10744.2 762.943   3
   0  -7   0-3.87654 64.6263   2
   0  -7   0 2.61748 27.0002   1
   0  -7  -1 44935.8 993.312   2
   0  -7   1 43850.9 980.587   2
   0  -7   1 44393.3 641.434   1
   0  -7  -1 44026.3 694.927   1
   0  -7   2 14087.2 362.956   1
   0   7  -2 14202.4 493.127   3
   0  -7  -2 14411.1 430.980   1
   0  -7  -2 14287.3 562.778   2
   0  -7   2 14586.9 560.625   2
   0  -7   3 26011.2 740.605   2
   0  -7   3 26309.5 515.182   1
   0  -7  -3 26907.5 630.679   1
   0   7  -3 27441.1 717.945   3
   0  -7  -3 26948.0 775.671   2
   0   7  -4 3019.41 249.986   3
   0  -7  -4 3135.05 267.174   2
   0  -7   4 3059.91 253.584   2
   0  -7   4 3148.77 191.287   1
   0  -7  -5 46509.1 1026.66   2
   0  -7   5 47802.3 804.653   1
   0  -7   5 48526.1 995.094   2
   0   7  -5 48291.2 1026.59   3
   0   7  -6 8889.58 455.320   3
   0  -7  -6 8511.07 439.672   2
   0  -7   6 8419.90 412.333   2
   0   7  -7 1197.43 182.620   3
   0  -7  -7 1030.16 154.849   2
   0  -7  -8 10612.9 537.980   3
   0   7  -8 10588.3 556.817   3
   0  -7  -8 10182.7 478.855   2
   0  -7  -9 6300.28 376.831   2
   0  -7  -9 6640.63 451.495   3
   0   7  -9 6333.53 448.644   3
   0  -7 -10 15376.8 586.925   2
   0   7 -10 17599.2 789.051   3
   0  -7 -10 16358.2 736.594   3
   0   7 -11 789.181 178.123   3
   0  -7 -11 745.663 171.058   3
   0   7 -12-29.7462 50.9129   3
   0  -7 -12-18.7664 57.0650   3
   0   7 -13-180.661 94.4949   3
   0  -7 -13 64.2641 76.3072   3
   0  -7 -14 871.598 205.491   3
   0   7 -14 1458.20 290.242   3
   0   7 -15 5375.06 548.965   3
   0  -7 -15 5659.79 537.481   3
   0  -7 -16 992.924 234.412   3
   0  -8   0 751.636 94.1433   1
   0  -8   0 833.981 147.064   2
   0  -8  -1 1972.29 233.333   2
   0  -8  -1 1842.65 154.624   1
   0  -8   1 1974.89 142.825   1
   0  -8   1 1834.63 220.657   2
   0  -8   2 4965.83 228.405   1
   0   8  -2 4936.52 312.033   3
   0  -8  -2 5631.25 386.440   2
   0  -8  -2 4990.26 266.871   1
   0  -8   2 5098.10 359.893   2
   0   8  -3 374.060 96.4387   3
   0  -8  -3 361.391 78.0862   1
   0  -8   3 371.707 63.9950   1
   0  -8  -3 470.067 112.815   2
   0  -8   3 290.356 83.3150   2
   0  -8  -4 7791.74 453.387   2
   0  -8   4 7554.96 300.996   1
   0  -8   4 8087.14 450.537   2
   0   8  -4 7594.76 410.747   3
   0   8  -5 101275. 1559.90   3
   0  -8   5 99306.4 1541.88   2
   0  -8  -5 97059.0 1599.94   2
   0  -8   5 98244.8 1163.83   1
   0  -8   6 39582.4 973.493   2
   0   8  -6 39269.0 1016.70   3
   0  -8  -6 39106.5 1010.75   2
   0  -8   6 39285.4 780.899   1
   0  -8   7 2119.62 195.546   1
   0   8  -7 2265.02 253.737   3
   0  -8  -7 2050.73 231.661   2
   0  -8   7 1834.01 207.678   2
   0   8  -8 2821.09 298.718   3
   0  -8  -8 3385.06 298.812   2
   0  -8  -8 3179.89 306.558   3
   0  -8  -9 4537.44 345.864   2
   0  -8  -9 4381.19 377.339   3
   0   8  -9 4332.06 386.004   3
   0   8 -10 357.145 136.722   3
   0  -8 -10 179.755 56.8264   2
   0  -8 -10 205.885 83.3704   3
   0  -8 -11 109.660 93.6668   3
   0   8 -11 127.900 128.503   3
   0  -8 -12 2553.08 333.307   3
   0   8 -12 2367.89 326.276   3
   0   8 -13 7514.17 603.526   3
   0  -8 -13 8177.48 606.826   3
   0   8 -14 459.945 164.926   3
   0  -8 -14 208.147 123.653   3
   0   8 -15 4768.88 523.569   3
   0  -8 -15 4477.76 488.618   3
   0  -9   0 109.225 86.6483   2
   0  -9   0 43.8117 37.7787   1
   0  -9  -1 801.546 107.989   1
   0  -9   1 815.996 99.3321   1
   0  -9  -1 1043.21 178.631   2
   0  -9   1 971.083 164.792   2
   0  -9  -2 18842.5 541.234   1
   0  -9   2 18875.8 728.937   2
   0  -9  -2 19312.0 758.344   2
   0  -9   2 18657.8 463.848   1
   0  -9   3 3932.95 335.413   2
   0  -9   3 3888.83 213.514   1
   0  -9  -3 4152.04 267.812   1
   0  -9  -3 4491.81 368.091   2
   0   9  -3 4287.13 316.903   3
   0   9  -4 12143.9 550.386   3
   0  -9  -4 12073.6 602.872   2
   0  -9   4 11858.9 386.594   1
   0  -9   4 11723.9 575.423   2
   0   9  -5 15687.5 647.311   3
   0  -9  -5 15187.0 677.739   2
   0  -9   5 15443.2 656.904   2
   0  -9  -6 29302.6 934.760   2
   0   9  -6 31222.9 942.685   3
   0  -9   6 31488.2 937.871   2
   0   9  -7 1911.54 248.476   3
   0  -9  -7 1795.54 230.277   2
   0  -9  -8 725.834 152.802   2
   0   9  -8 1022.76 193.314   3
   0  -9  -8 821.469 168.994   3
   0  -9  -9 930.783 167.146   2
   0  -9  -9 1071.78 197.581   3
   0   9  -9 878.520 189.593   3
   0  -9 -10 3482.08 360.325   3
   0   9 -10 3386.74 368.643   3
   0  -9 -10 3473.70 324.289   2
   0   9 -11 1721.65 273.798   3
   0  -9 -11 1664.35 261.835   3
   0  -9 -12 520.901 165.236   3
   0   9 -12 595.770 169.627   3
   0   9 -13-34.0487 85.0946   3
   0  -9 -13-122.684 97.8461   3
   0  -9 -14 541.911 188.480   3
   0   9 -14 554.047 171.361   3
   0  -9 -15 2224.34 356.236   3
   0 -10   0 4013.02 359.816   2
   0 -10  -1 18886.2 538.434   1
   0 -10   1 19497.9 793.387   2
   0 -10  -1 19708.5 806.014   2
   0 -10  -2 214.284 77.2194   2
   0 -10   2 183.278 96.4551   2
   0 -10  -2 211.000 68.1446   1
   0 -10   3 659.049 153.862   2
   0 -10  -3 1021.49 191.911   2
   0 -10   4 27376.8 934.883   2
   0  10  -4 29339.9 899.371   3
   0 -10  -4 27504.6 965.076   2
   0 -10  -5 1781.68 244.891   2
   0  10  -5 1773.28 233.444   3
   0 -10   5 2053.17 259.860   2
   0  10  -6 2889.89 305.420   3
   0 -10   6 2488.54 278.693   2
   0 -10  -6 2664.54 304.560   2
   0 -10  -7 13722.9 687.613   2
   0  10  -7 14433.0 696.840   3
   0  10  -8 3569.12 362.968   3
   0 -10  -8 3745.42 356.250   2
   0 -10  -8 3912.99 362.331   3
   0  10  -9 1290.31 226.205   3
   0 -10  -9 1599.80 234.444   2
   0 -10  -9 1331.91 217.303   3
   0 -10 -10-2.14341 72.5346   2
   0  10 -10 80.5887 79.4459   3
   0 -10 -10 31.6859 41.8631   3
   0  10 -11 571.152 186.324   3
   0 -10 -11 482.357 143.711   3
   0  10 -12 1100.94 249.031   3
   0 -10 -12 702.584 188.735   3
   0 -10 -13 985.795 219.273   3
   0  10 -13 1525.58 293.677   3
   0 -11   0-37.7946 56.0953   2
   0 -11   1-56.9585 82.0690   2
   0 -11  -1 107.820 84.2950   2
   0 -11  -2 881.983 186.915   2
   0 -11   2 840.548 174.868   2
   0 -11  -3 17169.4 807.122   2
   0 -11   3 17867.8 805.748   2
   0 -11  -4 7608.22 535.728   2
   0  11  -4 7742.04 489.771   3
   0 -11   4 7515.75 525.072   2
   0  11  -5 9372.37 549.700   3
   0 -11   5 8989.46 575.134   2
   0 -11  -5 9237.17 588.869   2
   0  11  -6 9869.65 584.489   3
   0 -11  -6 9689.26 605.288   2
   0 -11   6 10435.3 612.687   2
   0 -11  -7 4266.74 408.019   2
   0  11  -7 4206.03 399.529   3
   0  11  -8 549.161 150.083   3
   0 -11  -8 503.201 137.471   2
   0  11  -9 3355.63 378.739   3
   0 -11  -9 3713.02 383.278   2
   0 -11  -9 3025.44 338.678   3
   0 -11 -10 3740.87 379.250   2
   0  11 -10 4143.50 433.663   3
   0 -11 -10 3946.62 404.673   3
   0 -11 -11 5180.29 473.071   3
   0  11 -11 5819.52 537.693   3
   0  11 -12 3730.33 447.870   3
   0  11 -13 159.316 98.3310   3
   0 -12   0 28183.9 1078.06   2
   0 -12  -1 239.204 123.822   2
   0 -12   1-36.3950 50.5447   2
   0 -12  -2 4995.96 457.413   2
   0 -12   2 5069.86 457.618   2
   0 -12   3-36.3608 48.9493   2
   0 -12  -3-36.8927 70.7481   2
   0 -12  -4 237.956 103.689   2
   0 -12   4 226.361 91.0514   2
   0  12  -5-109.232 94.6370   3
   0 -12   5-115.069 99.6581   2
   0 -12  -5-55.4885 51.5233   2
   0  12  -6 5681.24 463.478   3
   0 -12  -6 5902.34 501.111   2
   0 -12  -7 2974.32 361.420   2
   0  12  -7 3128.71 358.899   3
   0 -12  -8 1621.93 267.956   2
   0  12  -8 1608.37 264.452   3
   0 -12  -9 145.460 52.2181   2
   0  12  -9-42.9933 74.2850   3
   0  12 -10 380.160 166.540   3
   0  12 -11 758.231 208.816   3
   0  12 -12 629.704 191.958   3
   0 -13   0 121.522 75.1361   2
   0 -13   1 2385.01 338.803   2
   0 -13  -1 2778.45 359.064   2
   0 -13  -2 75.9231 95.5302   2
   0 -13   2-7.43365 79.7959   2
   0 -13   3 3229.59 389.101   2
   0 -13  -3 3934.13 431.809   2
   0 -13   4 123.325 74.6178   2
   0 -13  -4-26.2588 87.6710   2
   0 -13   5-52.3714 114.472   2
   0 -13  -5 17.1104 58.1036   2
   0 -13  -6 1650.43 286.539   2
   0  13  -6 1458.17 244.969   3
   0  13  -7 672.350 179.323   3
   0 -13  -7 580.852 171.695   2
   0  13  -8 435.403 142.164   3
   0 -13  -8-39.6915 96.5691   2
   0  13  -9 2543.71 350.318   3
   0  13 -10 3415.71 427.740   3
   0  13 -11 792.285 220.480   3
   0 -14   0 328.295 157.862   2
   0 -14   1 2454.83 361.467   2
   0 -14  -1 2447.31 356.078   2
   0 -14   2 701.493 180.633   2
   0 -14  -2 649.407 192.073   2
   0 -14   3 157.836 103.406   2
   0 -14  -3-75.6652 108.764   2
   0 -14   4 1207.88 230.860   2
   0 -14  -4 1169.16 234.941   2
   0 -14  -5 3316.98 421.867   2
   0 -14  -6 1655.44 292.501   2
   0 -14  -7 2426.33 352.275   2
   0  14  -8 1231.08 250.258   3
   0  14  -9 263.738 140.392   3
   0 -15   0-220.948 122.840   2
   0 -15   1 378.753 144.169   2
   0 -15  -1 474.330 151.696   2
   0 -15   2 2327.94 359.468   2
   0 -15  -2 2651.67 401.406   2
   0 -15  -3-163.212 143.942   2
   0 -15  -4 4149.05 493.114   2
   0 -15  -5 110.014 104.547   2
   0 -15  -6 1124.70 255.488   2
   1   0 -17-7.98491 65.1376   3
   1   0 -16 299.320 155.898   3
   1   0 -15-23.2903 73.8228   3
   1   0 -14 2197.10 317.911   3
   1   0 -13 74.9327 76.9495   3
   1   0 -12 23010.9 907.949   3
   1   0 -11 135.414 88.2337   3
   1   0 -10 105467. 1739.72   3
   1   0  -9 14.1409 53.8352   3
   1   0  -8 18315.2 643.812   3
   1   0  -7 9.80095 36.6428   3
   1   0  -6 49048.1 903.834   3
   1   0  -5 16.5906 38.6181   3
   1   0  -5-22.4831 31.3310   1
   1   0  -4 181659. 1399.45   1
   1   0  -4 180121. 1427.54   3
   1   0  -3 22.6744 34.5609   1
   1   0  -2 29941.7 463.757   1
   1   0  -1-4.67061 23.3383   1
   1   0   0 52710.6 484.171   3
   1   0   0 52519.6 575.212   1
  -1   0  -1 80.9365 28.7556   3
   1   0   1 52.5788 21.8992   3
  -1   0  -2 366563. 1505.17   3
  -1   0  -3 85.0905 36.4179   3
  -1   0  -4 6633.73 264.424   3
  -1   0  -5 17.5945 41.3753   3
  -1   0  -6 13271.2 453.554   3
   1   0   7-15.6071 10.8576   2
  -1   0  -7 36.9239 30.5286   3
  -1   0  -8 9093.20 438.986   3
  -1   0  -9 55.3483 64.5713   3
  -1   0 -10 2942.30 291.642   3
  -1   0 -11 72.6456 83.4308   3
  -1   0 -12 664.708 154.236   3
  -1   0 -13 67.3550 71.9327   3
  -1   0 -14 23173.1 998.877   3
  -1   0 -15 24.9142 70.4567   3
  -1   0 -16 7628.68 628.349   3
  -1   0 -17 51.2725 77.9617   3
   1   1 -17 5243.15 557.644   3
   1  -1 -17 5141.21 553.644   3
   1   1 -16 3525.90 437.515   3
   1  -1 -16 3013.32 408.241   3
   1   1 -15 3934.65 446.822   3
   1  -1 -15 4771.06 493.381   3
   1  -1 -14 759.171 197.127   3
   1   1 -14 855.456 201.278   3
   1   1 -13 1581.91 254.191   3
   1  -1 -13 1173.28 224.806   3
   1  -1 -12 976.385 200.909   3
   1   1 -12 801.745 185.884   3
   1   1 -11 1873.79 249.754   3
   1  -1 -11 1658.44 236.172   3
   1   1 -10 33753.7 980.885   3
   1  -1 -10 33550.6 993.914   3
   1   1  -9 85663.8 1464.39   3
   1  -1  -9 83964.0 1477.26   3
   1  -1  -8 57495.7 1145.50   3
   1   1  -8 58038.1 1140.88   3
   1  -1  -7 12904.0 508.488   3
   1   1  -7 12282.2 484.976   3
   1  -1  -6 4094.94 266.334   3
   1   1  -6 4479.33 270.485   3
   1   1  -5 91303.0 1109.67   3
   1  -1  -5 91192.3 1155.45   3
   1  -1  -5 89627.8 1125.71   1
   1   1  -4 4402.14 218.635   3
   1   1  -4 4115.57 198.044   1
   1  -1  -4 3846.44 216.521   1
   1   1  -3 19461.0 403.302   3
   1  -1  -3 19650.7 442.460   1
   1   1  -3 19272.3 377.813   1
   1  -1  -2 79522.2 822.956   1
   1   1  -2 77913.9 668.744   1
   1   1  -2 78007.5 681.474   3
   1   1  -1 1886.76 94.4372   1
  -1  -1   1 1911.75 95.4429   1
   1  -1  -1 1749.43 114.440   1
   1   1   0 459734. 1533.54   1
   1   1   0 470774. 1041.85   3
  -1   1  -1 1417.97 103.694   3
   1   1   1 1477.08 65.8746   3
   1  -1   1 1500.11 112.556   1
  -1  -1  -1 1083.38 54.6904   3
  -1  -1  -2 102836. 700.373   3
   1   1   2 101755. 711.477   3
  -1   1  -2 103827. 909.638   3
  -1   1  -3 53522.8 722.647   3
  -1  -1  -3 53088.8 615.971   3
  -1   1  -4 72836.3 927.862   3
  -1  -1  -4 75197.4 851.806   3
  -1  -1  -5 27891.4 585.281   3
  -1   1  -5 28613.9 632.822   3
  -1  -1  -6 75932.3 1069.91   3
  -1   1  -6 76231.7 1125.41   3
  -1  -1  -7 8205.52 384.423   3
  -1   1  -7 8354.64 399.550   3
  -1  -1  -8 15534.2 570.637   3
  -1   1  -8 16540.7 605.758   3
  -1  -1  -9 7288.12 418.059   3
  -1   1  -9 7593.05 439.825   3
  -1   1 -10 1892.66 236.877   3
  -1  -1 -10 1835.93 227.855   3
  -1   1 -11 62758.6 1407.21   3
  -1  -1 -11 61203.9 1372.86   3
  -1  -1 -12 1499.66 239.264   3
  -1   1 -12 1799.12 270.122   3
  -1   1 -13 209.847 133.650   3
  -1  -1 -13 290.708 131.219   3
  -1   1 -14-32.1521 49.6119   3
  -1  -1 -14-14.5345 41.9503   3
  -1   1 -15 588.312 175.023   3
  -1  -1 -15 372.705 137.507   3
  -1  -1 -16 484.258 185.076   3
  -1   1 -16 423.300 160.735   3
  -1  -1 -17 331.991 146.751   3
  -1   1 -17 320.120 148.543   3
   1  -2 -17 3187.90 435.057   3
   1   2 -17 3402.38 451.290   3
   1   2 -16 726.020 190.227   3
   1  -2 -16 705.139 212.897   3
   1   2 -15 3989.17 446.634   3
   1  -2 -15 3672.16 421.478   3
   1  -2 -14 11059.3 705.563   3
   1   2 -14 11771.7 724.519   3
   1  -2 -13 9595.31 626.023   3
   1   2 -13 10253.4 646.331   3
   1   2 -12 11633.6 652.338   3
   1  -2 -12 11549.9 657.090   3
   1   2 -11 1207.43 206.518   3
   1  -2 -11 1186.96 208.483   3
   1  -2 -10 16377.8 703.596   3
   1   2 -10 16678.0 692.578   3
   1  -2  -9 3333.54 304.194   3
   1   2  -9 3787.70 315.975   3
   1   2  -8 5368.74 344.923   3
   1  -2  -8 5085.52 347.738   3
   1  -2  -7 72493.2 1236.35   3
   1   2  -7 73033.6 1179.70   3
   1  -2  -6 144.412 64.6925   1
   1  -2  -6 211.488 65.6233   3
   1   2  -6 190.862 73.6472   3
   1  -2  -5 65826.6 1005.21   1
   1   2  -5 64910.1 930.296   3
   1   2  -4 11949.8 357.084   3
   1  -2  -4 12060.6 399.018   1
   1  -2  -3 8.27392 27.1801   1
   1   2  -3 5.88368 18.8383   1
   1   2  -3-2.14633 28.6148   3
   1   2  -2 10448.7 242.499   3
   1  -2  -2 10616.2 327.768   1
  -1  -2   2 10064.5 207.509   1
   1   2  -2 10260.0 208.435   1
  -1  -2   1 19992.6 255.868   1
   1  -2  -1 20320.4 428.060   1
   1   2  -1 20128.0 247.188   3
   1   2  -1 19042.2 253.293   1
   1   2   0 281313. 1053.06   1
   1  -2   0 291781. 1599.98   1
   1  -2   1 999999. 3031.83   1
  -1   2  -1 964455. 2958.78   3
  -1  -2  -2 1336.48 71.9462   3
   1   2   2 1304.02 71.6701   3
  -1   2  -2 1190.64 110.227   3
  -1   2  -3 237.865 54.7001   3
  -1  -2  -3 283.527 45.4990   3
  -1  -2  -4 243.977 54.9160   3
  -1   2  -4 190.334 62.7584   3
  -1   2  -5 50726.6 881.081   3
  -1  -2  -5 51007.5 778.409   3
  -1   2  -6 66300.2 1094.29   3
  -1  -2  -6 67207.9 994.899   3
  -1  -2  -7 3152.88 237.112   3
  -1   2  -7 3515.61 270.441   3
   1  -2   8 12666.5 231.446   2
  -1   2  -8 13508.8 559.656   3
  -1  -2  -8 13014.3 520.784   3
  -1  -2  -9 3154.20 278.344   3
  -1   2  -9 3412.89 301.146   3
  -1   2 -10-22.0260 54.3639   3
  -1  -2 -10 122.263 62.4985   3
  -1  -2 -11 4533.44 376.645   3
  -1   2 -11 4831.68 399.760   3
  -1  -2 -12 1136.12 212.145   3
  -1   2 -12 952.619 197.126   3
  -1  -2 -13 1662.55 258.683   3
  -1   2 -13 1329.19 237.274   3
  -1  -2 -14 248.540 117.951   3
  -1   2 -14 496.138 167.671   3
  -1  -2 -15 2518.62 342.070   3
  -1   2 -15 2596.80 367.590   3
  -1  -2 -16 131.963 100.315   3
  -1   2 -16 237.244 154.791   3
  -1  -2 -17-66.9972 50.7384   3
   1   3 -16 113.665 88.5658   3
   1  -3 -16 95.0026 123.372   3
   1  -3 -15 131.903 127.996   3
   1   3 -15 131.365 103.303   3
   1  -3 -14 7582.44 592.122   3
   1   3 -14 7393.78 580.263   3
   1  -3 -13 2692.12 338.255   3
   1   3 -13 2569.27 323.491   3
   1   3 -12 4691.43 419.474   3
   1  -3 -12 4349.54 409.842   3
   1  -3 -11 2310.07 291.312   3
   1   3 -11 1922.39 250.663   3
   1  -3 -10 42217.7 1141.57   3
   1   3 -10 41127.4 1096.24   3
   1   3  -9 3409.54 293.414   3
   1  -3  -9 3447.42 306.827   3
   1   3  -8 10243.0 483.399   3
   1  -3  -8 10185.7 505.330   3
   1  -3  -7 267.487 79.0991   3
   1   3  -7 182.373 68.7697   3
   1  -3  -6 237.511 85.7864   1
   1   3  -6 83.5572 39.6503   3
   1   3  -5 3998.23 234.261   3
   1  -3  -5 4436.14 276.262   1
   1   3  -4 305318. 1846.33   3
   1  -3  -4 307440. 2130.42   1
   1   3  -3 34535.8 545.107   3
   1  -3  -3 35628.7 673.341   1
   1   3  -2 159600. 990.118   3
  -1  -3   2 162067. 651.964   1
   1  -3  -1 28760.8 552.863   1
  -1  -3   1 28222.1 323.586   3
   1   3  -1 27503.0 319.455   3
   1  -3   0 5024.72 227.512   1
   1  -3   1 7928.84 291.639   1
  -1   3  -1 7789.21 298.205   3
  -1   3  -2 49621.0 770.086   3
   1  -3   2 50804.3 760.584   1
  -1  -3  -2 49216.2 447.401   3
  -1   3  -3 11780.1 398.906   3
  -1  -3  -3 11510.7 275.914   3
  -1   3  -4 36736.3 741.956   3
  -1  -3  -4 36716.3 581.273   3
  -1   3  -5 3.70063 39.0328   3
  -1  -3  -5 59.5103 37.9769   3
  -1  -3  -6 18705.4 520.138   3
  -1   3  -6 19952.8 621.896   3
  -1   3  -7 63.1362 52.8103   3
  -1  -3  -7 36.8006 40.4646   3
   1  -3   8 14821.2 332.004   2
  -1   3  -8 14382.7 592.569   3
  -1  -3  -8 14296.2 542.790   3
  -1  -3  -9 2287.43 237.095   3
  -1   3  -9 2239.10 251.262   3
  -1   3 -10 43123.5 1152.02   3
  -1  -3 -10 42920.9 1071.99   3
  -1  -3 -11 16705.2 711.196   3
  -1   3 -11 16907.9 760.791   3
  -1  -3 -12 22370.2 873.928   3
  -1   3 -12 22522.4 923.619   3
  -1  -3 -13-12.0009 51.0350   3
  -1   3 -13 204.259 118.768   3
  -1  -3 -14 53.8222 86.7739   3
  -1   3 -14-28.9210 81.5619   3
  -1   3 -15 490.716 171.308   3
  -1  -3 -15 505.423 170.288   3
  -1  -3 -16 1807.07 305.805   3
  -1   3 -16 1895.34 328.470   3
  -1  -3 -17 178.984 78.0010   3
   1   4 -16 152.760 94.9734   3
   1  -4 -16 519.682 149.437   3
   1  -4 -15 11494.9 769.285   3
   1   4 -15 10785.2 737.398   3
   1  -4 -14 2808.32 362.549   3
   1   4 -14 2826.62 359.053   3
   1   4 -13 14041.2 761.351   3
   1  -4 -13 14285.9 789.568   3
   1  -4 -12 11611.3 675.702   3
   1   4 -12 11159.9 645.397   3
   1  -4 -11 635.092 179.498   3
   1   4 -11 761.503 170.019   3
   1   4 -10 2997.48 310.219   3
   1  -4 -10 3171.41 326.904   3
   1  -4  -9 1613.92 214.566   3
   1   4  -9 1448.88 201.590   3
   1  -4  -8 822.780 160.362   3
   1   4  -8 889.387 150.219   3
   1  -4  -7 30662.1 839.832   1
   1   4  -7 29356.6 767.098   3
   1  -4  -6 4266.87 297.631   1
   1   4  -6 4285.75 273.086   3
   1  -4  -5 2505.96 220.018   1
   1   4  -5 2782.66 202.534   3
   1   4  -4 14107.9 410.427   3
   1  -4  -4 14236.7 480.131   1
   1   4  -3 12149.4 338.537   3
   1  -4  -3 12088.5 416.533   1
  -1  -4   3 11560.1 202.734   1
   1   4  -2 5910.55 207.140   3
   1  -4  -2 6157.82 282.106   1
   1   4  -1 3543.93 135.751   3
   1  -4  -1 3826.24 217.360   1
   1   4   0 139058. 575.516   1
  -1  -4   0 137218. 722.326   3
   1  -4   0 139823. 1281.55   1
   1  -4   1 50666.4 770.486   1
  -1   4  -1 52152.3 841.239   3
  -1   4  -2 17262.4 499.895   3
   1  -4   2 16361.4 452.387   1
  -1   4  -3 15907.1 498.953   3
  -1  -4  -3 15759.1 341.505   3
   1  -4   3 16740.8 477.897   1
  -1  -4  -4 8958.64 294.409   3
  -1   4  -4 9567.16 404.386   3
  -1  -4  -5 45057.1 743.772   3
  -1   4  -5 45139.1 919.863   3
  -1  -4  -6 12952.8 439.790   3
  -1   4  -6 12771.2 520.400   3
  -1  -4  -7 16552.8 542.059   3
   1  -4   7 17016.9 452.006   2
  -1   4  -7 17493.6 640.200   3
   1  -4   8 9269.80 314.141   2
  -1   4  -8 9486.10 501.166   3
  -1  -4  -8 9802.25 453.858   3
  -1  -4  -9 20524.1 695.655   3
  -1   4  -9 22421.7 811.129   3
  -1   4 -10 5299.02 415.123   3
  -1  -4 -10 5716.20 393.917   3
  -1  -4 -11 262.278 102.100   3
  -1   4 -11 590.231 159.861   3
  -1   4 -12 8005.97 560.022   3
  -1  -4 -12 8286.80 532.610   3
  -1   4 -13 11060.3 691.500   3
  -1  -4 -13 10757.5 644.268   3
  -1   4 -14 2223.87 335.621   3
  -1  -4 -14 2244.84 308.896   3
  -1  -4 -15 2428.55 339.223   3
  -1   4 -15 2999.66 401.895   3
  -1   4 -16 155.506 107.696   3
  -1  -4 -16 256.402 114.568   3
  -1  -4 -17 2839.98 391.946   3
   1  -5 -16 1058.86 256.237   3
   1   5 -16 675.196 197.867   3
   1   5 -15 1669.85 295.176   3
   1  -5 -15 1461.07 286.375   3
   1  -5 -14 98.3258 110.762   3
   1   5 -14 111.842 77.1541   3
   1  -5 -13 141.912 99.9305   3
   1   5 -13 199.901 121.863   3
   1  -5 -12 1160.56 229.577   3
   1   5 -12 1418.45 235.611   3
   1   5 -11 211.824 73.3240   3
   1  -5 -11 323.530 130.321   3
   1   5 -10 5913.93 423.105   3
   1  -5 -10 6182.75 457.065   3
   1  -5  -9 64450.9 1396.21   3
   1   5  -9 63480.2 1310.28   3
   1  -5  -8 1631.55 218.956   3
   1   5  -8 1471.24 187.373   3
   1   5  -7 17001.8 595.620   3
   1  -5  -7 19012.1 680.595   1
   1  -5  -6 2331.71 228.907   1
   1   5  -6 2311.04 207.321   3
   1  -5  -5 89099.0 1323.29   1
   1   5  -5 87032.4 1156.32   3
   1   5  -4 6598.20 291.680   3
   1  -5  -4 6580.25 345.106   1
   1   5  -3 23366.3 497.644   3
   1  -5  -3 23799.0 614.971   1
   1   5  -2 1387.37 112.221   3
   1  -5  -2 1401.21 149.551   1
   1   5  -1 15313.6 331.820   3
   1  -5  -1 15455.6 458.646   1
   1  -5   0 12299.7 405.963   1
  -1   5  -1 36365.1 760.356   3
   1  -5   1 36774.0 697.652   1
  -1   5  -2 52326.2 936.529   3
   1  -5   2 50143.3 832.747   1
  -1   5  -3 77684.1 1170.04   3
   1  -5   3 77020.2 1070.69   1
   1  -5   4 10334.4 407.927   1
  -1  -5  -4 9849.37 326.393   3
  -1   5  -4 9791.19 436.033   3
  -1   5  -5 6733.53 375.176   3
  -1  -5  -5 6757.31 298.075   3
  -1   5  -6 38038.6 943.445   3
  -1  -5  -6 37928.3 771.432   3
   1  -5   7 9658.01 381.479   2
  -1  -5  -7 9606.79 417.821   3
  -1   5  -7 9056.86 484.747   3
   1  -5   8 1215.72 135.222   2
  -1   5  -8 1279.82 197.133   3
  -1  -5  -8 1087.03 158.463   3
  -1   5  -9 10591.9 570.475   3
  -1  -5  -9 10763.4 515.117   3
  -1   5 -10 98.6727 59.8951   3
  -1  -5 -10 301.432 115.122   3
  -1   5 -11 15349.7 759.914   3
  -1  -5 -11 15778.4 693.802   3
  -1   5 -12 382.974 136.523   3
  -1  -5 -12 318.232 121.510   3
  -1   5 -13 436.226 147.108   3
  -1  -5 -13 308.762 123.282   3
  -1   5 -14 241.183 120.206   3
  -1  -5 -14-6.54070 73.2890   3
  -1   5 -15 1956.58 320.354   3
  -1  -5 -15 1821.96 294.045   3
  -1  -5 -16 5252.03 510.560   3
   1   6 -16 499.532 170.282   3
   1  -6 -16 711.563 232.691   3
   1  -6 -15-4.40848 55.6446   3
   1   6 -15 158.287 114.944   3
   1  -6 -14 10857.8 736.510   3
   1   6 -14 10194.2 696.526   3
   1   6 -13 134.300 107.051   3
   1  -6 -13 209.507 87.9450   3
   1  -6 -12 16009.1 827.390   3
   1   6 -12 16482.2 801.336   3
   1   6 -11 5919.18 460.484   3
   1  -6 -11 6136.07 488.393   3
   1  -6 -10 200.146 77.9428   2
   1  -6 -10 107.401 82.4116   3
   1   6 -10 368.345 115.102   3
   1  -6  -9 539.307 149.012   3
   1   6  -9 644.386 155.196   3
   1   6  -8 16371.1 645.986   3
   1  -6  -7 84.2438 96.8568   1
   1   6  -7 188.327 81.2944   3
   1  -6  -6 31032.6 855.640   1
   1   6  -6 30298.2 765.275   3
   1   6  -5 189.454 62.5908   3
   1  -6  -5 234.181 71.9769   1
   1  -6  -4 85985.2 1279.44   1
   1   6  -4 84705.3 1099.12   3
  -1  -6   4 83333.9 599.908   1
   1   6  -3 131.817 40.7273   3
   1  -6  -3 141.597 52.5456   1
   1  -6  -2 15282.4 500.613   1
   1   6  -2 15975.9 408.187   3
   1  -6  -1 33121.0 718.662   1
   1   6  -1 34306.0 560.814   3
   1   6   0 49353.6 345.518   1
   1  -6   0 52237.1 877.792   1
   1  -6   1 26078.3 619.171   1
  -1   6  -2 16079.9 557.719   3
   1  -6   2 15775.1 486.489   1
   1  -6   3 1764.68 171.189   1
  -1   6  -3 1904.43 196.961   3
  -1   6  -4 3292.60 271.743   3
   1  -6   4 3653.22 253.453   1
  -1  -6  -4 3554.85 206.221   3
  -1  -6  -5 1036.21 125.864   3
  -1   6  -5 1142.03 171.604   3
   1  -6   5 969.552 141.079   1
   1  -6   6 104554. 1407.87   2
  -1   6  -6 104291. 1635.13   3
  -1  -6  -6 101162. 1295.63   3
   1  -6   7 11244.3 455.091   2
  -1  -6  -7 10752.0 451.565   3
  -1   6  -7 12030.8 577.073   3
  -1  -6  -8 2169.12 218.477   3
   1  -6   8 2100.30 191.093   2
  -1   6  -8 2313.43 262.595   3
  -1   6  -9 94.3589 99.4168   3
  -1  -6  -9 25.3253 32.8613   3
  -1   6 -10 658.569 161.884   3
  -1  -6 -10 407.141 121.602   3
  -1   6 -11 163.375 117.344   3
  -1  -6 -11 122.133 56.1285   3
  -1   6 -12 4204.78 434.384   3
  -1  -6 -12 4433.57 395.743   3
  -1   6 -13 250.956 120.745   3
  -1  -6 -13 84.4456 56.5750   3
  -1  -6 -14 3415.36 388.244   3
  -1   6 -14 4002.54 452.610   3
  -1   6 -15 292.476 148.401   3
  -1  -6 -15 64.5911 85.3110   3
   1  -7 -15 705.734 214.826   3
   1   7 -15 190.964 117.891   3
   1  -7 -14 139.026 103.961   3
   1   7 -14 285.347 114.129   3
   1  -7 -13 263.311 133.238   3
   1   7 -13 178.393 112.567   3
   1  -7 -12 332.621 141.846   3
   1   7 -12 719.805 192.932   3
   1  -7 -11 11546.4 686.367   3
   1   7 -11 13295.6 698.279   3
   1   7 -10 8264.29 525.717   3
   1  -7 -10 9059.64 490.362   2
   1  -7 -10 9090.11 577.209   3
   1  -7  -9 2597.01 269.778   2
   1  -7  -9 2235.02 287.450   3
   1   7  -9 2259.67 257.388   3
   1   7  -8 409.911 113.964   3
   1  -7  -7 2475.83 263.613   1
   1   7  -7 2245.01 235.047   3
   1   7  -6 176.256 66.8164   3
   1  -7  -6 419.909 110.715   1
   1   7  -5 42262.9 879.603   3
  -1  -7   5 42937.2 513.021   1
   1  -7  -5 43303.1 1005.69   1
   1  -7  -4 7061.52 382.921   1
   1   7  -4 6623.59 326.915   3
   1  -7  -3 67216.2 1142.12   1
   1   7  -3 67631.4 976.638   3
   1  -7  -2 1981.74 194.021   1
   1   7  -2 2049.07 161.477   3
   1  -7  -1 26338.1 672.052   1
   1  -7   0 17881.1 543.872   1
   1   7   0 17578.2 221.720   1
   1  -7   1 12246.7 445.803   1
  -1   7  -2 126.656 55.0725   3
   1  -7   2 159.971 59.9471   1
   1  -7   3 23675.9 639.906   1
  -1   7  -3 24677.6 754.679   3
  -1   7  -4 1163.64 179.271   3
   1  -7   4 1031.77 140.599   1
  -1  -7  -5 2614.85 201.791   3
   1  -7   5 2321.97 237.672   2
  -1   7  -5 2573.20 259.810   3
   1  -7   5 2749.79 233.972   1
   1  -7   6 65392.1 1203.70   2
  -1   7  -6 64062.4 1350.99   3
   1  -7   6 63870.7 1184.46   1
  -1  -7  -6 63512.3 1055.19   3
  -1   7  -7 2266.05 275.019   3
   1  -7   7 2433.09 247.770   1
   1  -7   7 2560.22 236.653   2
  -1  -7  -7 2327.12 215.302   3
   1  -7   8 123.068 72.0821   2
  -1  -7  -8 65.4221 46.5729   3
  -1  -7  -9 6313.04 406.738   3
  -1   7  -9 6348.81 478.388   3
  -1   7 -10 753.952 179.899   3
  -1  -7 -10 759.516 147.627   3
  -1   7 -11 5161.89 466.803   3
  -1  -7 -11 5419.60 418.490   3
  -1   7 -12 170.991 91.3230   3
  -1  -7 -12 255.048 98.4218   3
  -1  -7 -13 32.3376 83.5604   3
  -1   7 -13 91.0894 97.8456   3
  -1   7 -14-73.4941 94.7322   3
  -1   7 -15 851.894 233.062   3
   1  -8 -15 15052.2 936.894   3
   1   8 -15 15437.0 922.394   3
   1  -8 -14 3046.80 411.768   3
   1   8 -14 4101.30 459.716   3
   1  -8 -13 6957.95 596.226   3
   1   8 -13 6981.35 571.715   3
   1   8 -12 547.495 160.609   3
   1  -8 -12 511.820 157.807   3
   1  -8 -11 5732.11 497.278   3
   1   8 -11 5215.72 446.389   3
   1  -8 -10 3569.39 330.674   2
   1  -8 -10 3441.20 370.783   3
   1   8 -10 3774.93 362.190   3
   1   8  -9 955.414 172.812   3
   1  -8  -9 961.074 176.379   2
   1  -8  -8 2179.07 262.551   2
   1   8  -8 2154.30 247.644   3
   1  -8  -7 14368.9 659.566   2
   1  -8  -7 14764.9 661.586   1
   1   8  -7 14296.9 600.819   3
   1  -8  -6 2024.33 233.806   1
   1   8  -6 2102.69 222.770   3
   1  -8  -5 1594.65 209.313   1
   1   8  -5 1290.11 166.434   3
   1  -8  -4 3697.38 289.161   1
   1   8  -4 3255.32 243.239   3
   1  -8  -3 11271.0 490.176   1
   1   8  -3 10672.5 418.118   3
   1   8  -2 282.887 68.8849   3
   1  -8  -2 325.197 95.2800   1
   1  -8  -1 12783.1 487.701   1
   1  -8   0 3054.36 233.237   1
   1  -8   1 34168.7 781.584   1
   1  -8   2 1840.75 189.255   1
  -1   8  -3 142.433 58.8100   3
   1  -8   3 215.404 104.713   2
   1  -8   3 61.2513 37.8999   1
  -1   8  -4 366.299 101.469   3
   1  -8   4 393.036 121.266   2
   1  -8   4 276.301 67.9292   1
   1  -8   5 25852.4 740.986   1
   1  -8   5 26466.1 836.378   2
  -1  -8  -5 25686.8 657.706   3
  -1   8  -5 27155.3 887.004   3
   1  -8   6 482.311 112.225   1
  -1   8  -6 350.401 105.495   3
  -1  -8  -6 464.255 102.207   3
   1  -8   6 535.911 122.520   2
   1  -8   7 18116.8 674.014   1
  -1  -8  -7 18429.1 628.704   3
   1  -8   7 19314.7 697.845   2
  -1   8  -7 19594.1 801.788   3
   1  -8   8 14264.8 622.401   1
   1  -8   8 14328.2 587.255   2
  -1   8  -8 13728.1 700.508   3
  -1  -8  -8 13802.6 579.974   3
  -1   8  -9 7835.80 552.024   3
   1  -8   9 7331.75 473.957   1
  -1  -8  -9 7136.94 440.430   3
  -1   8 -10 3338.19 372.033   3
  -1  -8 -10 3697.69 334.146   3
  -1   8 -11 946.341 205.959   3
  -1   8 -12 258.797 144.625   3
  -1   8 -13 1331.39 269.771   3
  -1   8 -14 892.891 237.652   3
   1   9 -14 2671.94 375.403   3
   1  -9 -14 2937.14 416.798   3
   1   9 -13 574.616 168.067   3
   1  -9 -13 596.781 194.129   3
   1   9 -12 588.447 165.097   3
   1  -9 -12 269.596 137.366   3
   1   9 -11 163.095 96.8858   3
   1  -9 -11 222.267 102.547   3
   1  -9 -10 9170.62 626.610   3
   1  -9 -10 10081.8 583.575   2
   1   9 -10 9761.83 596.735   3
   1   9  -9 41.5308 56.7125   3
   1  -9  -9 27.9721 52.0851   2
   1  -9  -8 3250.68 332.801   2
   1   9  -8 3009.24 301.806   3
   1  -9  -7 3474.65 343.543   2
   1  -9  -7 3346.46 329.185   1
   1   9  -7 3142.42 296.954   3
   1   9  -6 380.559 103.917   3
   1  -9  -6 545.425 153.592   2
   1  -9  -6 473.342 127.910   1
   1  -9  -5 27735.7 955.030   2
   1  -9  -5 26741.2 853.558   1
   1   9  -5 26031.3 761.859   3
   1  -9  -4 80717.3 1621.14   2
   1  -9  -4 81974.9 1419.41   1
   1   9  -4 80980.3 1292.68   3
   1   9  -3 2103.61 198.153   3
   1  -9  -3 1612.90 192.110   1
   1  -9  -2 40208.8 932.398   1
   1  -9  -1 80.4111 48.6970   1
   1  -9   0 6262.80 353.584   1
   1  -9   0 6427.47 456.042   2
   1  -9   1 10476.7 452.997   1
   1  -9   1 11066.5 593.056   2
   1  -9   2 6112.47 440.468   2
   1  -9   2 6086.84 346.868   1
  -1   9  -3 519.246 133.279   3
   1  -9   3 231.824 77.1967   1
   1  -9   3 399.318 132.404   2
   1  -9   4 10616.9 578.295   2
   1  -9   4 10514.4 468.740   1
  -1   9  -4 10588.0 564.651   3
   1  -9   5 13262.3 635.904   2
   1  -9   5 11870.9 512.297   1
  -1   9  -5 14079.1 671.068   3
   1  -9   6 551.810 138.827   2
  -1   9  -6 696.596 164.794   3
  -1  -9  -6 524.470 112.025   3
   1  -9   6 748.979 134.593   1
  -1   9  -7 1153.82 209.071   3
   1  -9   7 980.549 160.168   1
   1  -9   7 946.866 170.388   2
  -1  -9  -7 1021.87 153.549   3
   1  -9   8 4024.74 334.768   1
   1  -9   8 4100.88 338.586   2
  -1   9  -8 4011.41 400.773   3
   1  -9   9 65.9307 60.0507   1
  -1   9  -9-15.6685 52.9974   3
   1  -9  10 8696.56 537.843   1
  -1   9 -10 8729.23 625.693   3
  -1   9 -11 608.130 179.668   3
   1  -9  11 691.319 153.774   1
  -1   9 -12 1310.24 267.011   3
  -1   9 -13 2164.76 353.360   3
   1  10 -14 6292.49 583.386   3
   1 -10 -13 2811.41 399.650   3
   1  10 -13 2792.34 369.085   3
   1 -10 -12 2603.03 367.879   3
   1  10 -12 2768.92 360.622   3
   1  10 -11 577.676 159.619   3
   1 -10 -11 909.101 221.194   3
   1  10 -10 387.155 108.844   3
   1 -10 -10 546.365 150.220   2
   1 -10 -10 293.874 130.919   3
   1  10  -9 2816.12 320.893   3
   1 -10  -9 2552.95 316.835   2
   1  10  -8 192.214 99.6844   3
   1 -10  -8 143.483 91.0391   2
   1 -10  -7 12759.5 693.890   2
   1  10  -7 12377.4 606.377   3
   1 -10  -6 6281.27 490.394   2
   1  10  -6 5630.26 391.846   3
   1 -10  -6 5547.26 416.410   1
   1  10  -5 36752.7 958.752   3
   1 -10  -5 37639.6 1187.24   2
   1 -10  -5 37735.0 1042.55   1
   1 -10  -4 4947.89 429.914   2
   1 -10  -4 4881.85 362.101   1
   1  10  -4 5112.43 338.884   3
   1 -10  -3 1000.27 157.595   1
   1 -10  -3 962.833 198.210   2
   1 -10  -2 221.936 130.422   2
   1 -10  -2 50.1117 42.7644   1
   1 -10  -1 10517.5 484.799   1
   1 -10  -1 9973.78 606.095   2
   1 -10   0 4584.39 315.730   1
   1 -10   0 4249.14 398.153   2
   1 -10   1 11835.3 501.360   1
   1 -10   1 12375.9 658.527   2
   1 -10   2 181.167 74.8440   1
   1 -10   2 241.710 114.696   2
   1 -10   3 1876.65 263.842   2
   1 -10   3 1994.99 208.421   1
  -1  10  -4 267.659 85.4080   3
   1 -10   4 220.825 82.8576   1
   1 -10   4 412.840 140.031   2
   1 -10   5 4816.46 410.157   2
  -1  10  -5 5602.33 441.951   3
   1 -10   5 4509.97 326.937   1
   1 -10   6 20083.4 823.296   2
   1 -10   6 19966.4 703.402   1
  -1  10  -6 21025.5 881.916   3
  -1  10  -7 4450.12 418.608   3
   1 -10   7 3509.65 308.843   1
   1 -10   7 3919.97 359.721   2
  -1  10  -8 1135.77 225.632   3
   1 -10   8 1223.09 196.708   2
  -1  10  -9 639.792 160.884   3
  -1  10 -10 498.322 157.791   3
  -1  10 -11 2379.21 353.279   3
  -1  10 -12 1168.68 248.809   3
   1  11 -13 301.516 150.389   3
   1 -11 -13 185.530 119.216   3
   1  11 -12 753.956 211.050   3
   1 -11 -12 552.516 191.268   3
   1  11 -11 294.580 129.629   3
   1 -11 -11 158.809 85.6284   3
   1  11 -10 1050.03 212.036   3
   1 -11 -10 1187.87 245.465   3
   1 -11 -10 1437.26 249.089   2
   1 -11  -9 6235.86 518.143   2
   1  11  -9 7312.36 526.367   3
   1  11  -8 6119.10 463.485   3
   1 -11  -8 5738.15 493.416   2
   1  11  -7 22.6261 46.7423   3
   1 -11  -7 75.3958 89.7531   2
   1  11  -6 270.101 109.565   3
   1 -11  -6 133.655 97.0595   2
   1 -11  -6 133.130 76.8133   1
   1 -11  -5 4935.53 456.013   2
   1 -11  -5 4390.51 370.455   1
   1  11  -5 4128.49 335.961   3
   1 -11  -4 4493.47 430.063   2
   1 -11  -4 4343.90 353.350   1
   1  11  -4 4505.85 337.045   3
   1 -11  -3 638.626 131.105   1
   1 -11  -3 985.792 207.558   2
   1 -11  -2 1514.67 262.651   2
   1 -11  -2 1171.06 177.885   1
   1 -11  -1 2388.91 243.036   1
   1 -11  -1 2727.16 334.165   2
   1 -11   0 4.95961 32.0092   1
   1 -11   0 149.900 119.614   2
   1 -11   1 1767.78 201.641   1
   1 -11   1 1813.36 271.257   2
   1 -11   2 8711.10 445.323   1
   1 -11   2 9272.19 603.982   2
   1 -11   3 3501.27 375.930   2
   1 -11   3 3326.55 279.561   1
   1 -11   4 12604.2 699.873   2
  -1  11  -5 7179.60 527.349   3
   1 -11   5 6894.93 515.852   2
  -1  11  -6 146.766 105.017   3
   1 -11   6-67.9344 96.1943   2
  -1  11  -7 9281.55 632.179   3
   1 -11   7 8938.63 571.559   2
  -1  11  -8 240.171 124.667   3
   1 -11   8 5.84096 55.6895   2
  -1  11  -9 1005.42 225.571   3
  -1  11 -10 150.693 123.369   3
  -1  11 -11 2222.14 346.044   3
  -1  11 -12 830.253 235.140   3
   1  12 -12 1069.63 233.554   3
   1 -12 -12 1110.84 276.195   3
   1  12 -11 159.423 71.8484   3
   1 -12 -11 155.476 123.666   3
   1  12 -10 1348.20 252.964   3
   1 -12 -10 1258.79 261.863   3
   1 -12 -10 1620.34 277.875   2
   1  12  -9 167.170 101.042   3
   1 -12  -9 120.927 107.963   2
   1 -12  -8 3241.79 391.536   2
   1  12  -8 2870.77 332.467   3
   1  12  -7 205.470 89.7744   3
   1 -12  -7 140.784 118.031   2
   1 -12  -6 13071.2 777.490   2
   1 -12  -6 12165.5 656.844   1
   1  12  -6 12258.5 624.684   3
   1 -12  -5 220.710 88.6471   1
   1  12  -5 407.184 128.842   3
   1 -12  -5 411.551 147.075   2
   1 -12  -4 1452.10 213.476   1
   1 -12  -4 1796.20 298.453   2
   1 -12  -3 1289.25 246.605   2
   1 -12  -3 1435.83 206.523   1
   1 -12  -2 935.888 161.139   1
   1 -12  -2 1240.77 235.513   2
   1 -12  -1 858.770 208.762   2
   1 -12   0 5754.82 515.995   2
   1 -12   1 1265.56 252.119   2
   1 -12   2 9725.39 654.896   2
   1 -12   3 369.069 152.742   2
   1 -12   4 115.671 126.908   2
   1 -12   5 12712.6 737.791   2
  -1  12  -6 1175.47 234.441   3
   1 -12   6 560.106 165.666   2
  -1  12  -7 1637.34 278.270   3
   1 -12   7 1682.85 263.041   2
  -1  12  -8 3954.80 444.007   3
  -1  12  -9 195.298 127.660   3
  -1  12 -10-48.9482 69.4646   3
  -1  12 -11 176.059 111.698   3
   1 -13 -11 1995.94 331.547   3
   1 -13 -10 1187.45 242.475   3
   1 -13 -10 1635.33 286.788   2
   1 -13  -9 2139.52 332.851   2
   1 -13  -8 2198.13 331.197   2
   1 -13  -7 165.088 107.094   2
   1 -13  -6 212.842 111.471   2
   1 -13  -5 39.9805 91.3338   2
   1 -13  -4 2831.76 371.945   2
   1 -13  -3 11698.7 767.676   2
   1 -13  -2 1638.33 287.245   2
   1 -13  -1 1941.22 319.536   2
   1 -13   0 2899.98 384.295   2
   1 -13   1 514.058 161.941   2
   1 -13   2 573.338 170.806   2
   1 -13   3 4377.80 460.887   2
   1 -13   4 1123.04 236.187   2
   1 -13   5 2670.34 349.632   2
   1 -13   6 1475.68 266.300   2
   1 -13   7 5896.13 520.393   2
  -1  13  -7 6020.30 542.170   3
  -1  13  -8 153.262 94.4260   3
  -1  13  -9 1356.60 276.642   3
   1 -14 -10 1200.92 257.233   2
   1 -14  -9 90.1778 58.4781   2
   1 -14  -8 425.072 157.017   2
   1 -14  -7 921.809 233.436   2
   1 -14  -6 7316.60 636.693   2
   1 -14  -5 97.4674 77.0916   2
   1 -14  -4 254.353 137.083   2
   1 -14  -3 249.533 145.596   2
   1 -14  -2 1470.37 288.229   2
   1 -14  -1 1353.32 279.079   2
   1 -14   0 2171.44 346.757   2
   1 -14   1 8236.72 664.050   2
   1 -14   2 1898.92 320.319   2
   1 -14   3 64.1971 104.295   2
   1 -14   4 112.378 91.7468   2
   1 -14   5 300.723 121.717   2
   1 -14   6 17.5982 81.9167   2
   1 -14   7 1531.64 278.759   2
   1 -15  -5 1065.15 256.848   2
   1 -15  -4 100.494 109.316   2
   1 -15  -3-44.3249 61.8812   2
   1 -15  -2 1207.11 266.287   2
   1 -15  -1 111.536 71.7282   2
   1 -15   0 173.410 123.070   2
   1 -15   1 1075.69 268.913   2
   1 -15   2 114.229 131.719   2
   1 -15   3 433.233 175.580   2
   1 -15   4 1890.00 337.647   2
   1 -15   5 484.097 169.384   2
   1 -15   6-10.2759 67.4125   2
   1 -15   7 32.4731 90.5733   2
   2   0 -16 411.693 171.521   3
   2   0 -15-171.646 116.562   3
   2   0 -14 15333.6 852.266   3
   2   0 -13-90.2643 100.874   3
   2   0 -12 21402.5 909.281   3
   2   0 -11-78.2331 76.5055   3
   2   0 -10 1254.78 201.788   3
   2   0  -9-4.30862 41.7978   3
   2   0  -8 60230.5 1223.18   3
   2   0  -7 29.3773 46.2899   1
   2   0  -7-4.52880 45.0204   3
   2   0  -6 97208.5 1363.56   3
   2   0  -6 94873.3 1334.33   1
   2   0  -5-27.8544 39.7291   1
   2   0  -5 105.446 59.6716   3
   2   0  -4 135291. 1419.64   1
   2   0  -3-0.26039 35.8923   1
   2   0  -2-19.3596 45.7233   1
   2   0  -1 17.3709 21.8466   1
   2   0   0 5592.71 267.845   1
   2   0   1 121.664 48.1856   1
  -2   0  -2 86025.9 929.856   3
   2   0   2 88344.3 1145.22   1
  -2   0  -3 1.62895 29.0891   3
  -2   0  -4 4087.93 231.594   3
  -2   0  -5-15.6944 27.5428   3
  -2   0  -6 101465. 1324.68   3
  -2   0  -7 533.048 103.445   3
  -2   0  -8 4550.31 319.754   3
  -2   0  -9-5.50879 58.3642   3
  -2   0 -10 121.898 58.6969   3
  -2   0 -11 10.2731 67.9745   3
  -2   0 -12 773.750 165.003   3
  -2   0 -13 121.810 80.9890   3
  -2   0 -14 1282.52 240.180   3
  -2   0 -15 158.195 118.819   3
  -2   0 -16 897.639 221.539   3
   2  -1 -16 1921.97 332.736   3
   2   1 -16 2265.36 360.545   3
   2  -1 -15 2785.86 382.612   3
   2   1 -15 2686.03 376.638   3
   2  -1 -14 10880.9 721.568   3
   2   1 -14 10282.4 691.201   3
   2   1 -13 2344.24 321.903   3
   2  -1 -13 2125.15 304.079   3
   2   1 -12 2207.15 296.729   3
   2  -1 -12 1860.77 275.721   3
   2  -1 -11 2613.54 303.381   3
   2   1 -11 2242.38 277.792   3
   2   1 -10 9205.15 534.464   3
   2  -1 -10 9434.15 556.227   3
   2  -1  -9 46894.5 1157.29   3
   2   1  -9 46571.6 1130.09   3
   2  -1  -8 2904.86 275.098   3
   2   1  -8 3173.56 274.598   3
   2  -1  -8 3246.02 290.602   1
   2  -1  -7 17893.2 643.247   3
   2   1  -7 17510.2 607.437   3
   2  -1  -7 17578.4 634.292   1
   2   1  -7 17055.3 580.937   1
   2   1  -6 362.926 75.9629   1
   2  -1  -6 300.787 85.9970   3
   2  -1  -6 425.994 109.735   1
   2   1  -6 290.409 77.9509   3
   2  -1  -5 10443.2 433.297   1
   2   1  -5 10406.5 401.348   3
   2   1  -5 10104.3 390.487   1
   2  -1  -4 65612.3 1039.18   1
   2   1  -4 64642.2 931.652   1
   2   1  -4 65766.5 933.906   3
   2  -1  -3 63314.0 983.173   1
   2   1  -3 63330.8 878.836   1
   2   1  -2 287.736 50.5433   1
   2  -1  -2 242.729 64.9070   1
   2   1  -1 61436.5 823.947   1
   2  -1  -1 61590.3 930.798   1
   2   1   0 9959.36 340.500   1
   2  -1   0 10059.7 377.792   1
   2   1   1 108007. 1163.80   1
   2  -1   1 109731. 1279.79   1
  -2  -1  -2 334.309 52.2394   3
  -2   1  -2 368.715 76.6723   3
   2   1   2 155.586 43.9302   1
   2  -1   2 342.684 78.1175   1
   2  -1   3 18204.2 560.999   1
  -2  -1  -3 17616.2 402.354   3
  -2   1  -3 17632.8 482.474   3
  -2  -1  -4 19001.7 458.695   3
  -2   1  -4 18747.3 531.172   3
  -2  -1  -5 20136.1 516.939   3
  -2   1  -5 18917.6 566.107   3
  -2  -1  -6 11052.8 418.632   3
  -2   1  -6 11218.0 462.022   3
  -2  -1  -7 15323.8 535.618   3
  -2   1  -7 16315.8 587.066   3
  -2  -1  -8 5479.43 341.250   3
  -2   1  -8 5842.15 377.255   3
  -2  -1  -9 9591.66 483.415   3
  -2   1  -9 9214.65 498.902   3
  -2   1 -10 664.672 141.427   3
  -2  -1 -10 568.828 130.362   3
  -2  -1 -11 6918.22 463.137   3
  -2   1 -11 7457.21 501.621   3
  -2  -1 -12 9832.49 582.961   3
  -2   1 -12 10124.1 612.705   3
  -2  -1 -13 3104.06 354.165   3
  -2   1 -13 3381.31 374.965   3
  -2   1 -14 694.480 184.065   3
  -2  -1 -14 807.566 187.659   3
  -2   1 -15 133.669 125.203   3
  -2  -1 -15 126.337 103.628   3
  -2   1 -16 534.069 193.475   3
  -2  -1 -16 619.072 191.163   3
   2  -2 -16 774.888 207.558   3
   2   2 -16 471.358 163.254   3
   2   2 -15 3158.14 405.146   3
   2  -2 -15 3008.37 407.223   3
   2  -2 -14 3616.91 418.048   3
   2   2 -14 3450.54 403.720   3
   2  -2 -13 4365.04 443.491   3
   2   2 -13 4315.80 423.407   3
   2   2 -12 5298.68 444.389   3
   2  -2 -12 5060.87 459.794   3
   2  -2 -11 14080.2 722.339   3
   2   2 -11 13401.6 668.807   3
   2  -2 -10 764.959 178.540   3
   2   2 -10 750.371 154.079   3
   2   2  -9 34039.5 958.078   3
   2  -2  -9 33861.5 1014.76   3
   2  -2  -8 1900.85 229.598   3
   2   2  -8 2097.14 226.042   3
   2  -2  -8 2175.61 242.852   1
   2  -2  -7 24342.9 764.731   3
   2   2  -7 23351.0 692.879   3
   2  -2  -7 24794.8 778.589   1
   2   2  -6 7826.38 373.372   3
   2   2  -6 7778.44 350.715   1
   2  -2  -6 8234.64 421.334   1
   2  -2  -5 4946.29 315.165   1
   2   2  -5 5055.66 264.029   1
   2   2  -5 4870.69 268.235   3
   2  -2  -4 4793.99 294.330   1
   2   2  -4 4108.53 221.145   1
   2   2  -4 4256.86 228.295   3
   2  -2  -3 56582.3 981.668   1
   2   2  -3 56948.1 773.434   1
   2   2  -3 57500.6 751.458   3
   2  -2  -2 7339.90 346.153   1
   2   2  -2 7972.57 279.384   1
   2   2  -2 8085.76 247.061   3
   2   2  -1 2362.32 150.127   1
   2  -2  -1 2426.10 194.786   1
   2   2   0 12390.8 223.133   3
   2   2   0 12395.6 357.477   1
   2  -2   0 12648.8 442.971   1
   2   2   1 68379.3 519.258   3
   2   2   1 67649.7 879.817   1
   2  -2   1 68158.1 1048.51   1
   2  -2   2 114785. 1405.84   1
  -2   2  -2 112805. 1286.92   3
  -2  -2  -3 56463.6 643.665   3
  -2   2  -3 58227.9 958.268   3
   2  -2   3 58609.4 1035.72   1
  -2  -2  -4 6673.18 250.257   3
  -2   2  -4 6731.13 339.945   3
  -2   2  -5 311.411 78.1757   3
  -2  -2  -5 187.592 53.1410   3
  -2   2  -6 288.899 85.3432   3
  -2  -2  -6 323.994 64.1325   3
  -2  -2  -7 9017.54 393.185   3
  -2   2  -7 8860.52 451.334   3
  -2  -2  -8 1371.00 173.145   3
  -2   2  -8 1326.48 192.035   3
  -2  -2  -9 9108.60 460.256   3
  -2   2  -9 9209.76 511.757   3
  -2   2 -10 1737.34 234.706   3
  -2  -2 -10 1204.95 181.049   3
  -2  -2 -11 8076.40 495.856   3
  -2   2 -11 7844.53 526.665   3
  -2  -2 -12 1815.60 257.788   3
  -2   2 -12 1970.48 283.818   3
  -2   2 -13 804.138 190.653   3
  -2  -2 -13 643.141 148.130   3
  -2   2 -14 2132.18 316.460   3
  -2  -2 -14 1907.90 281.243   3
  -2  -2 -15 4150.49 435.101   3
  -2   2 -15 4655.39 488.557   3
  -2   2 -16 387.448 142.878   3
  -2  -2 -16 286.856 129.976   3
   2  -3 -16 5539.14 576.155   3
   2   3 -16 4728.86 514.164   3
   2  -3 -15 139.551 110.428   3
   2   3 -15 62.1486 56.1540   3
   2  -3 -14 393.116 146.355   3
   2   3 -14 337.341 151.499   3
   2  -3 -13 1629.27 277.529   3
   2   3 -13 1358.89 235.821   3
   2   3 -12 3233.76 349.078   3
   2  -3 -12 3704.44 394.793   3
   2  -3 -11 786.819 184.061   3
   2   3 -11 789.177 167.941   3
   2   3 -10 19378.5 765.866   3
   2  -3 -10 20995.5 849.744   3
   2  -3  -9 1041.30 177.991   1
   2  -3  -9 1279.30 228.329   3
   2   3  -9 1166.80 179.361   3
   2  -3  -8 81383.9 1517.82   3
   2   3  -8 81408.6 1369.61   3
   2  -3  -8 83027.8 1530.29   1
   2  -3  -7 3282.90 293.595   1
   2   3  -7 3484.02 261.987   3
   2  -3  -6 12258.7 535.605   1
   2   3  -6 13299.4 476.725   3
   2   3  -5 887.149 114.917   3
   2   3  -5 762.252 95.8047   1
   2  -3  -5 989.755 167.355   1
   2  -3  -4 54496.4 1043.74   1
   2   3  -4 54309.6 745.123   1
   2   3  -4 53911.8 793.391   3
   2  -3  -3 3118.55 244.438   1
   2   3  -3 2949.24 162.236   1
   2   3  -3 2905.18 159.494   3
   2  -3  -2 38787.2 834.575   1
   2   3  -2 37852.5 556.373   1
   2   3  -2 38359.8 488.309   3
   2   3  -1 1740.36 76.0483   3
   2   3  -1 1681.16 118.690   1
   2  -3  -1 1690.42 170.993   1
   2   3   0 9899.40 297.672   1
   2  -3   0 10372.0 422.678   1
   2   3   1 108811. 1067.22   1
   2  -3   1 108960. 1382.08   1
   2  -3   2 31507.5 759.788   1
  -2   3  -2 31023.3 722.114   3
  -2   3  -3 780.638 118.939   3
  -2  -3  -3 759.552 64.8120   3
   2  -3   3 1042.71 144.433   1
   2  -3   4 37260.4 894.820   1
  -2  -3  -4 36253.6 539.551   3
  -2   3  -4 37802.2 849.212   3
  -2   3  -5 123.890 76.2280   3
  -2  -3  -5 96.3073 34.7301   3
  -2  -3  -6 14876.5 446.628   3
  -2   3  -6 15645.7 598.147   3
  -2   3  -7 762.881 143.133   3
  -2  -3  -7 782.269 118.128   3
  -2   3  -8 1165.86 179.183   3
  -2  -3  -8 1322.64 165.155   3
  -2   3  -9 535.634 124.814   3
  -2  -3  -9 684.491 126.574   3
  -2  -3 -10 4969.99 360.934   3
  -2   3 -10 4553.90 388.213   3
  -2   3 -11 967.009 188.215   3
  -2  -3 -11 1139.97 183.680   3
  -2  -3 -12 19819.5 810.423   3
  -2   3 -12 20382.3 904.283   3
  -2   3 -13 1133.70 223.243   3
  -2  -3 -13 876.270 182.539   3
  -2   3 -14 328.640 127.444   3
  -2  -3 -14 258.631 124.166   3
  -2   3 -15 1.82027 77.9624   3
  -2  -3 -15-31.7229 65.2791   3
   2  -4 -16 2597.17 405.720   3
   2   4 -16 2339.20 363.830   3
   2  -4 -15 327.287 115.394   3
   2   4 -15 676.453 194.186   3
   2  -4 -14 3265.05 413.608   3
   2   4 -14 3623.35 418.542   3
   2  -4 -13 18118.6 927.646   3
   2   4 -13 18066.0 871.567   3
   2  -4 -12 4785.64 457.120   3
   2   4 -12 4873.16 431.346   3
   2  -4 -11 20156.8 895.891   3
   2   4 -11 20266.4 832.004   3
   2  -4 -10 2954.28 334.714   3
   2   4 -10 2960.99 305.754   3
   2  -4  -9 165.745 79.6529   3
   2   4  -9 148.821 78.9350   3
   2  -4  -9 17.5064 74.9744   1
   2  -4  -8 811.101 159.858   1
   2   4  -8 1076.62 161.117   3
   2  -4  -7 32314.1 941.595   1
   2   4  -7 31441.3 797.623   3
   2  -4  -6 18226.1 680.220   1
   2   4  -6 18259.6 562.283   3
   2  -4  -5 9147.52 463.423   1
   2   4  -5 9214.49 363.303   3
   2  -4  -4 3456.05 286.993   1
   2   4  -4 3330.36 165.990   1
   2  -4  -3 8675.82 420.474   1
   2   4  -3 8587.53 240.441   1
   2   4  -3 8493.95 270.479   3
   2  -4  -2 16015.3 554.263   1
   2   4  -2 16018.5 312.792   1
   2   4  -2 16138.8 297.042   3
   2   4  -1 35705.7 474.324   1
   2  -4  -1 36920.0 828.416   1
   2  -4   0 1075.51 143.434   1
   2   4   0 961.535 85.2364   1
   2   4   1 68504.2 817.818   1
   2  -4   1 72273.0 1163.23   1
  -2   4  -2 165198. 1794.89   3
   2  -4   2 167949. 1821.18   1
  -2  -4  -3 1575.38 74.3791   3
  -2   4  -3 2079.34 212.796   3
   2  -4   3 1933.74 200.589   1
  -2  -4  -4 2661.50 135.088   3
  -2   4  -4 2797.27 253.286   3
   2  -4   4 2931.29 259.151   1
  -2  -4  -5 4407.22 209.885   3
  -2   4  -5 4443.85 320.325   3
   2  -4   5 4531.86 327.031   1
  -2   4  -6 3186.31 286.357   3
  -2  -4  -6 2891.56 191.053   3
  -2  -4  -7 52112.6 905.798   3
  -2   4  -7 54731.5 1217.11   3
  -2  -4  -8 4324.36 285.177   3
  -2   4  -8 4583.94 373.728   3
  -2  -4  -9 1780.40 201.174   3
  -2   4  -9 2100.07 263.953   3
  -2   4 -10 180.436 86.0884   3
  -2  -4 -10 59.5300 51.8358   3
  -2   4 -11 163.308 97.7015   3
  -2  -4 -11 86.1419 42.3792   3
  -2  -4 -12 5823.65 430.676   3
  -2   4 -12 6161.13 510.016   3
  -2   4 -13 100.229 103.972   3
  -2   4 -14 572.040 191.505   3
  -2   4 -15 356.094 153.862   3
   2   5 -16 1137.39 257.571   3
   2  -5 -15 218.102 118.459   3
   2   5 -15 30.2123 63.5641   3
   2  -5 -14 757.098 223.937   3
   2   5 -14 860.442 214.043   3
   2  -5 -13 110.415 66.2588   3
   2   5 -13 601.221 168.971   3
   2  -5 -12 97.5564 122.885   3
   2   5 -12 167.207 111.117   3
   2  -5 -11 1499.42 255.070   3
   2   5 -11 1659.53 239.317   3
   2  -5 -10 7703.65 539.938   3
   2   5 -10 8013.48 493.350   3
   2   5  -9 16634.4 668.651   3
   2  -5  -9 16623.4 758.597   1
   2  -5  -8 188.990 88.8986   1
   2   5  -8 236.160 87.3176   3
   2  -5  -7 2730.59 290.324   1
   2   5  -7 3010.20 245.752   3
   2  -5  -6 547.124 145.314   1
   2   5  -6 257.828 68.9980   3
   2   5  -5 1526.41 150.577   3
   2  -5  -5 1362.26 197.310   1
   2  -5  -4 58126.5 1165.28   1
   2   5  -4 56117.8 804.802   3
   2  -5  -3 51608.6 1073.68   1
   2   5  -3 51722.4 663.960   3
   2   5  -2 34720.9 332.921   1
   2   5  -2 35718.2 436.750   3
   2   5  -1 33414.9 368.671   1
   2  -5  -1 33984.5 836.500   1
   2   5   0 18984.9 335.494   1
   2  -5   0 19832.2 632.750   1
   2   5   1 1553.66 115.693   1
   2  -5   1 1436.96 180.026   1
   2  -5   2 2319.62 223.145   1
   2  -5   3 3296.23 275.646   1
  -2   5  -3 3165.50 274.132   3
  -2  -5  -4 11457.5 263.939   3
  -2   5  -4 11984.3 544.559   3
   2  -5   4 12175.9 534.295   1
  -2  -5  -5 4714.14 206.776   3
  -2   5  -5 5293.23 368.950   3
   2  -5   5 5319.53 369.472   1
  -2  -5  -6 4416.60 235.447   3
  -2   5  -6 4456.73 356.020   3
   2  -5   6 4555.70 356.330   1
  -2  -5  -7 19873.7 552.890   3
   2  -5   7 21368.7 791.310   1
  -2   5  -7 21386.5 807.676   3
  -2   5  -8 725.265 150.421   3
  -2  -5  -8 770.749 123.933   3
  -2   5  -9 1836.30 256.290   3
  -2  -5  -9 1643.55 195.169   3
  -2   5 -10 4724.55 420.987   3
  -2   5 -11 13463.3 746.488   3
  -2   5 -12 426.724 149.729   3
  -2   5 -13 468.381 166.683   3
  -2   5 -14 563.968 190.954   3
  -2   5 -15 337.151 162.773   3
   2  -6 -15-15.0955 81.0201   3
   2   6 -15 248.297 142.904   3
   2  -6 -14 14403.3 894.011   3
   2   6 -14 13640.2 804.671   3
   2  -6 -13 338.022 153.664   3
   2   6 -13 439.534 148.336   3
   2  -6 -12 11087.0 721.390   3
   2   6 -12 10965.4 654.174   3
   2  -6 -11 3196.26 374.134   3
   2   6 -11 2752.48 312.512   3
   2  -6 -10 711.095 176.156   3
   2   6 -10 567.460 140.302   3
   2   6  -9 4522.17 355.620   3
   2  -6  -9 4398.30 402.714   1
   2  -6  -8 2126.81 275.115   1
   2   6  -8 2074.47 225.777   3
   2  -6  -7 1588.45 228.963   1
   2   6  -7 1479.19 177.075   3
   2  -6  -6 18856.9 734.771   1
   2   6  -6 18546.4 571.743   3
   2  -6  -5 1750.28 223.660   1
   2   6  -5 1757.91 162.744   3
   2  -6  -4 1196.90 174.849   1
   2   6  -4 1043.85 116.015   3
   2  -6  -3 12710.7 551.013   1
   2   6  -3 12060.8 329.746   3
   2  -6  -2 6680.85 395.955   1
   2   6  -2 6192.84 195.638   3
   2  -6  -1 29.5606 42.5654   1
   2   6   0 14124.3 230.234   1
   2  -6   0 14907.6 579.572   1
   2  -6   1 38.1381 42.2213   1
   2   6   1 47.3815 22.3722   1
   2  -6   2 15727.7 599.489   1
  -2   6  -3 1983.91 228.303   3
   2  -6   3 2341.90 236.050   1
  -2   6  -4 912.924 168.759   3
   2  -6   4 701.277 128.297   1
  -2   6  -5 27.5362 56.5972   3
   2  -6   5 18.5451 52.7626   1
  -2   6  -6 49781.8 1221.40   3
   2  -6   6 48723.3 1175.05   1
  -2   6  -7 1016.68 193.247   3
   2  -6   7 923.837 171.616   1
  -2   6  -8 36069.2 1130.68   3
   2  -6   8 37314.9 1117.79   1
  -2   6  -9 951.375 201.638   3
  -2   6 -10 4982.75 453.102   3
  -2   6 -11 1989.89 300.215   3
  -2   6 -12 2107.48 321.042   3
  -2   6 -13 1495.07 276.070   3
  -2   6 -14 3482.00 438.694   3
   2   7 -15 143.536 91.6536   3
   2  -7 -14 1556.01 304.727   3
   2   7 -14 899.216 210.734   3
   2  -7 -13 161.966 127.875   3
   2   7 -13 96.5843 104.355   3
   2  -7 -12 96.0885 98.3857   3
   2   7 -12-55.8756 64.6372   3
   2  -7 -11 5600.74 511.787   3
   2   7 -11 5201.77 429.335   3
   2  -7 -10 8.05913 53.5925   3
   2   7 -10 108.262 78.4212   3
   2  -7  -9 31146.9 1094.82   1
   2   7  -9 30713.0 933.054   3
   2  -7  -8 5367.22 444.891   1
   2   7  -8 4523.66 339.757   3
   2  -7  -7 1217.98 212.859   1
   2   7  -7 1196.50 162.624   3
   2  -7  -6 2783.51 303.165   1
   2   7  -6 2774.22 226.973   3
   2   7  -5 80.3461 43.4228   3
   2  -7  -5 92.0986 83.1708   1
   2  -7  -4 81106.0 1489.01   1
   2   7  -4 77046.1 1001.74   3
   2  -7  -3 43969.1 1068.50   1
   2   7  -3 43581.7 661.500   3
   2  -7  -2 11963.1 549.407   1
   2   7  -2 11378.8 288.053   3
   2  -7  -1 15712.7 617.551   1
   2  -7   0 22.6934 75.2749   1
   2  -7   1 17.0528 35.4039   1
   2   7   1-1.23359 9.40165   1
   2  -7   2-5.03132 42.8149   1
  -2   7  -3 5598.04 402.478   3
   2  -7   3 5425.16 369.592   1
  -2   7  -4 7220.17 464.355   3
   2  -7   4 6853.46 423.238   1
  -2   7  -5 6782.95 464.330   3
   2  -7   5 6756.01 435.437   1
  -2   7  -6 6157.09 453.978   3
   2  -7   6 6274.72 434.991   1
  -2   7  -7 108.758 94.7865   3
   2  -7   7 177.426 88.2728   1
  -2   7  -8 1896.32 263.864   3
   2  -7   8 1606.54 238.727   1
  -2   7  -9 4160.09 413.116   3
   2  -7   9 4110.82 395.172   1
  -2   7 -10 502.007 161.978   3
   2  -7  10 228.633 106.534   1
   2  -7  11 3805.52 405.802   1
  -2   7 -11 3780.84 420.840   3
  -2   7 -12 1148.21 255.615   3
   2  -7  12 1012.90 217.451   1
  -2   7 -13 528.551 192.894   3
  -2   7 -14 1356.72 280.892   3
   2   8 -15 133.846 113.063   3
   2   8 -14 202.980 111.489   3
   2  -8 -14 178.266 140.869   3
   2  -8 -13 12825.9 845.207   3
   2   8 -13 11932.1 730.117   3
   2  -8 -12 3114.92 405.301   3
   2   8 -12 3340.68 370.666   3
   2  -8 -11 4850.13 488.774   3
   2   8 -11 4742.58 419.406   3
   2   8 -10 1807.37 247.310   3
   2   8  -9 61.0246 61.7252   3
   2  -8  -9 68.0916 102.620   1
   2   8  -8 404.073 103.963   3
   2  -8  -8 523.875 133.802   1
   2  -8  -7 6021.34 458.763   1
   2   8  -7 6105.43 371.537   3
   2  -8  -6 9272.48 556.833   1
   2   8  -6 8838.16 415.134   3
   2   8  -5 161.740 63.8419   3
   2  -8  -5 74.8715 77.8183   1
   2  -8  -4 1972.81 243.924   1
   2   8  -4 1956.12 166.664   3
   2  -8  -3-79.4730 68.9974   1
   2  -8  -2 9928.39 514.124   1
   2  -8  -1 6592.21 418.276   1
   2  -8   0 23718.5 786.246   1
   2  -8   1 46164.0 1091.31   1
   2  -8   2 3157.88 287.184   1
   2  -8   3 2325.38 250.503   1
  -2   8  -4 379.626 120.690   3
   2  -8   4 121.190 49.6181   1
  -2   8  -5 323.656 129.004   3
   2  -8   5 237.683 94.5682   1
  -2   8  -6 36.0069 59.8735   3
   2  -8   6 20.3202 46.5933   1
  -2   8  -7 18032.5 836.949   3
   2  -8   7 16695.8 743.071   1
  -2   8  -8 337.373 129.642   3
   2  -8   8 342.193 124.038   1
  -2   8  -9 1478.82 260.237   3
   2  -8   9 1585.57 249.324   1
  -2   8 -10 162.224 101.107   3
   2  -8  10-35.6851 54.8363   1
  -2   8 -11-136.145 100.696   3
   2  -8  11-47.6161 52.3114   1
  -2   8 -12 1647.50 291.936   3
   2  -8  12 1745.21 291.376   1
  -2   8 -13-136.703 125.721   3
   2  -8  13 89.9611 61.0870   1
   2  -8  14 2.32214 67.3673   1
   2   9 -14 306.768 128.908   3
   2   9 -13 484.260 150.635   3
   2  -9 -13 465.732 156.980   3
   2   9 -12 1677.81 264.958   3
   2  -9 -12 1684.56 301.313   3
   2   9 -11 315.419 99.9093   3
   2  -9 -11 386.268 126.766   3
   2   9 -10 9714.00 570.907   3
   2  -9  -9 3961.92 412.502   1
   2   9  -9 3888.41 344.828   3
   2  -9  -8 9785.71 629.168   1
   2   9  -8 9403.64 502.315   3
   2   9  -7 767.146 137.934   3
   2  -9  -7 841.744 184.753   1
   2  -9  -6 1108.09 210.012   1
   2  -9  -5 6209.70 449.767   1
   2  -9  -4 6069.50 439.485   1
   2  -9  -3 739.820 153.945   1
   2  -9  -2 15747.7 673.678   1
   2  -9  -1 224.291 79.9848   1
   2  -9   0 2359.44 257.482   1
   2  -9   1 1681.30 216.775   1
   2  -9   2 77.2029 41.4386   1
   2  -9   3 5661.44 402.919   1
   2  -9   4 8214.73 493.843   1
  -2   9  -5 1885.17 271.842   3
   2  -9   5 1594.93 224.468   1
  -2   9  -6 3328.42 363.176   3
   2  -9   6 2431.41 281.957   1
  -2   9  -7 1959.44 284.022   3
   2  -9   7 2229.94 281.725   2
   2  -9   7 1977.37 267.923   1
  -2   9  -8 131.497 82.8321   3
   2  -9   8 93.0255 73.9913   1
  -2   9  -9 304.482 133.999   3
   2  -9   9 107.327 64.5781   1
  -2   9 -10 4592.11 486.332   3
   2  -9  10 4790.85 451.096   1
  -2   9 -11 567.073 166.546   3
   2  -9  11 989.819 219.726   1
  -2   9 -12 4392.32 501.896   3
   2  -9  12 4579.84 472.920   1
   2  -9  13 49.0201 66.2868   1
   2 -10 -12 4423.94 509.689   3
   2 -10 -11 1626.46 299.867   3
   2 -10 -10 11.2270 92.8033   2
   2 -10  -9 505.406 177.039   1
   2 -10  -8 1723.72 278.106   1
   2 -10  -7 4296.44 414.730   1
   2 -10  -6 2649.86 320.675   1
   2 -10  -5 6686.53 486.476   1
   2 -10  -4 2723.44 305.102   1
   2 -10  -3 4202.65 370.905   1
   2 -10  -2 763.084 164.937   1
   2 -10  -1 2063.87 255.042   1
   2 -10   0 3433.03 325.110   1
   2 -10   1 1031.30 187.357   1
   2 -10   2 11736.0 589.427   1
   2 -10   3 2001.44 247.919   1
   2 -10   4 29.6243 67.4206   1
   2 -10   5 218.225 97.6505   1
  -2  10  -5 310.143 134.189   3
   2 -10   6 6158.07 492.797   2
  -2  10  -6 6584.78 528.840   3
   2 -10   6 6391.73 466.015   1
   2 -10   7 8276.44 562.568   2
  -2  10  -7 8305.05 616.768   3
   2 -10   7 8239.38 541.908   1
  -2  10  -8 70.8831 51.8440   3
   2 -10   8 41.8165 61.3945   1
  -2  10  -9 4281.20 464.006   3
   2 -10   9 4363.82 424.245   1
  -2  10 -10 221.568 153.059   3
   2 -10  10 201.916 140.796   1
  -2  10 -11 302.791 160.688   3
   2 -10  11 312.608 111.352   1
   2 -11 -11 339.327 148.022   3
   2 -11 -10 330.979 148.334   2
   2 -11  -9 3498.59 417.745   2
   2 -11  -9 2810.91 369.182   1
   2 -11  -8 234.483 123.736   1
   2 -11  -8 208.330 127.424   2
   2 -11  -7 1448.08 249.101   1
   2 -11  -6 1488.71 243.247   1
   2 -11  -5 4893.90 429.601   1
   2 -11  -4 61.4210 86.9645   1
   2 -11  -3 25108.0 931.934   1
   2 -11  -2 1751.79 248.764   1
   2 -11  -1 5255.04 414.630   1
   2 -11   0 1917.23 248.373   1
   2 -11   1 26.5179 42.0227   1
   2 -11   2 5516.00 423.255   1
   2 -11   3 4285.13 372.584   1
   2 -11   4 2796.05 361.815   2
   2 -11   4 2337.68 283.942   1
   2 -11   5 69.3323 57.1175   1
   2 -11   5 107.857 95.9960   2
   2 -11   6 4524.82 437.917   2
  -2  11  -6 4877.14 475.603   3
   2 -11   6 4403.50 393.839   1
   2 -11   7 193.685 97.4640   1
  -2  11  -7 274.467 112.132   3
   2 -11   7 158.123 101.067   2
   2 -11   8 910.731 185.266   1
  -2  11  -8 1017.02 238.525   3
  -2  11  -9 182.866 113.162   3
  -2  11 -10 113.855 89.8405   3
   2 -12 -10 442.947 147.640   2
   2 -12  -9 241.026 119.399   2
   2 -12  -8 4982.44 512.688   2
   2 -12  -8 4305.95 452.700   1
   2 -12  -7 283.514 138.885   2
   2 -12  -7 99.5361 101.710   1
   2 -12  -6 7904.35 648.769   2
   2 -12  -6 7463.36 569.374   1
   2 -12  -5 10259.3 733.306   2
   2 -12  -5 10428.5 653.408   1
   2 -12  -4 7247.93 614.438   2
   2 -12  -4 6939.31 517.077   1
   2 -12  -3 3652.78 367.837   1
   2 -12  -2 373.952 133.182   1
   2 -12  -1 1348.15 219.679   1
   2 -12   0 2621.45 305.617   1
   2 -12   0 2501.70 359.390   2
   2 -12   1 191.090 151.391   2
   2 -12   1 58.7116 58.2329   1
   2 -12   2 2638.60 304.804   1
   2 -12   2 3116.53 402.530   2
   2 -12   3 1193.82 249.074   2
   2 -12   3 847.585 172.142   1
   2 -12   4 302.155 111.978   1
   2 -12   4 422.355 166.863   2
   2 -12   5 674.941 207.718   2
   2 -12   6 2084.57 321.835   2
   2 -12   7 6456.06 549.425   2
  -2  12  -8 2221.97 358.390   3
  -2  12  -9 158.814 110.424   3
   2 -13 -10 428.056 170.025   2
   2 -13  -9 1754.65 317.733   2
   2 -13  -8 455.924 194.855   2
   2 -13  -8 124.205 111.486   1
   2 -13  -7 933.411 212.342   1
   2 -13  -7 1077.53 260.185   2
   2 -13  -6-46.1580 65.0415   1
   2 -13  -6 76.4852 117.453   2
   2 -13  -5 78.7724 141.941   2
   2 -13  -5 188.858 123.953   1
   2 -13  -4 2093.52 294.608   1
   2 -13  -4 2096.34 352.432   2
   2 -13  -3 514.983 162.329   2
   2 -13  -3 479.832 143.308   1
   2 -13  -2 566.181 195.370   2
   2 -13  -2 418.726 131.137   1
   2 -13  -1 1223.59 267.149   2
   2 -13  -1 1285.51 221.108   1
   2 -13   0 120.674 157.524   2
   2 -13   1 1017.41 249.142   2
   2 -13   2 164.691 129.564   2
   2 -13   3 2074.00 334.290   2
   2 -13   4 352.613 153.747   2
   2 -13   5 8336.89 661.884   2
   2 -13   6 394.038 172.206   2
   2 -13   7-74.7942 101.331   2
   2 -14  -7 852.698 250.960   2
   2 -14  -6 278.288 159.667   2
   2 -14  -5 4334.50 523.559   2
   2 -14  -4 1570.46 312.933   2
   2 -14  -3 97.0292 114.249   2
   2 -14  -2 248.861 174.364   2
   2 -14  -1 1442.12 313.348   2
   2 -14   0 1150.76 273.461   2
   2 -14   1 2573.11 392.566   2
   2 -14   2 227.833 138.833   2
   2 -14   3 3666.72 470.933   2
   2 -14   4 975.046 265.757   2
   2 -14   5 200.903 113.023   2
   2 -14   6 1404.74 283.255   2
   3   0 -15 112.080 99.2752   3
   3   0 -14 14892.7 868.826   3
   3   0 -13 68.2583 98.7740   3
   3   0 -12 12154.3 715.941   3
   3   0 -11-113.860 55.8168   3
   3   0 -10 14357.6 709.243   3
   3   0  -9-21.4887 61.0294   1
   3   0  -9 27.1451 56.7937   3
   3   0  -8 4000.32 339.276   3
   3   0  -8 3874.36 330.501   1
   3   0  -7 55.6949 78.1733   1
   3   0  -7 65.0103 70.1870   3
   3   0  -6 27965.7 797.758   3
   3   0  -6 27505.6 814.121   1
   3   0  -5 65.8025 74.1621   1
   3   0  -4 134.300 66.0508   1
   3   0  -3 12.4974 37.2335   1
   3   0  -2 13562.1 524.652   1
   3   0  -1 66.6054 66.5176   1
   3   0   0 4254.43 295.221   1
   3   0   1 24.2834 41.4284   1
   3   0   2 62838.3 1176.07   1
   3   0   3 89.7514 56.1342   1
   3   0   4 8568.13 472.515   1
  -3   0  -4 8611.83 377.975   3
  -3   0  -5 55.4437 43.5339   3
   3   0   5-16.1843 42.8870   1
  -3   0  -6 5267.52 327.936   3
  -3   0  -7 16.3199 55.2322   3
  -3   0  -8 12842.4 568.934   3
  -3   0  -9-0.85785 33.2508   3
  -3   0 -10 6371.81 443.983   3
  -3   0 -11 39.5167 75.2339   3
  -3   0 -12 7271.80 520.206   3
  -3   0 -13-6.01931 82.1090   3
   3  -1 -15 3063.23 413.780   3
   3   1 -15 2810.98 387.771   3
   3  -1 -14 138.697 133.597   3
   3   1 -14 284.695 129.740   3
   3  -1 -13 2323.74 341.617   3
   3   1 -13 2033.99 307.840   3
   3  -1 -12 1242.82 233.812   3
   3   1 -12 1499.66 251.487   3
   3  -1 -11 4133.58 407.070   3
   3   1 -11 3817.73 381.931   3
   3  -1 -10 4019.78 385.204   3
   3   1 -10 3850.51 362.779   3
   3  -1 -10 3706.37 368.601   1
   3  -1  -9 1621.89 238.072   3
   3  -1  -9 1711.71 240.250   1
   3   1  -9 1542.62 217.127   3
   3   1  -8 3822.60 320.915   3
   3  -1  -8 3840.63 339.258   1
   3   1  -8 3964.26 325.262   1
   3  -1  -8 4064.01 349.620   3
   3  -1  -7 11082.0 545.407   3
   3  -1  -7 11477.9 564.026   1
   3   1  -7 11745.9 530.277   3
   3   1  -7 10813.0 514.332   1
   3   1  -6 26.3968 47.5892   1
   3   1  -6 1.57022 30.5305   3
   3  -1  -6 75.9542 71.3847   1
   3  -1  -5 549.995 132.360   1
   3   1  -5 345.417 95.6639   1
   3   1  -5 345.827 91.0760   3
   3  -1  -4 17811.0 639.842   1
   3   1  -4 18561.7 602.153   1
   3   1  -4 19345.6 564.579   3
   3  -1  -3 51343.3 1063.93   1
   3   1  -3 49651.1 966.146   1
   3  -1  -2 28340.1 789.670   1
   3   1  -2 29680.3 740.250   1
   3   1  -1 11905.8 464.595   1
   3  -1  -1 12768.5 524.719   1
   3   1   0 4714.36 300.547   1
   3  -1   0 4433.72 310.403   1
   3   1   1-39.5706 53.9987   1
   3  -1   1 129.659 59.8956   1
   3   1   2 14304.2 549.178   1
   3  -1   2 14376.2 583.360   1
   3   1   3 15594.2 594.923   1
   3  -1   3 15687.6 627.173   1
  -3  -1  -4 136.835 53.9400   3
  -3   1  -4 176.468 69.2809   3
   3   1   4 84.8005 61.3925   1
   3  -1   4 92.2423 59.1392   1
  -3  -1  -5 15951.4 507.896   3
  -3   1  -5 16309.2 589.195   3
  -3  -1  -6 40.1486 45.3984   3
  -3   1  -6 77.4669 59.8719   3
   3  -1   6 66.0642 79.6676   1
  -3  -1  -7 7383.36 392.567   3
  -3   1  -7 7147.93 422.563   3
  -3  -1  -8 32.0209 51.0078   3
  -3   1  -8-31.7081 75.5240   3
  -3  -1  -9 39.1925 55.6873   3
  -3   1  -9 123.620 72.3154   3
  -3  -1 -10 384.319 116.957   3
  -3   1 -10 361.628 111.793   3
  -3  -1 -11 1223.38 203.542   3
  -3   1 -11 1065.39 193.617   3
  -3   1 -12 626.559 163.205   3
  -3   1 -13 2928.57 353.634   3
  -3   1 -14 1290.55 248.790   3
  -3   1 -15 76.1617 81.9403   3
   3  -2 -15 129.645 100.253   3
   3   2 -15-38.9075 67.1804   3
   3  -2 -14-11.8921 64.9754   3
   3   2 -14 118.040 108.945   3
   3  -2 -13 15063.9 857.110   3
   3   2 -13 15451.7 825.518   3
   3  -2 -12 1986.69 311.633   3
   3   2 -12 2219.34 301.696   3
   3  -2 -11 16090.6 811.924   3
   3   2 -11 15632.6 750.871   3
   3  -2 -10 1140.92 215.091   1
   3  -2 -10 931.706 185.340   3
   3   2 -10 1187.63 199.111   3
   3  -2  -9 1339.85 218.814   1
   3  -2  -9 1397.53 230.826   3
   3   2  -9 1216.35 190.309   3
   3   2  -8 12670.4 574.032   3
   3  -2  -8 12867.8 641.123   1
   3   2  -8 12255.6 547.804   1
   3  -2  -8 12640.0 632.505   3
   3   2  -7 32839.6 869.816   3
   3   2  -7 31691.8 840.746   1
   3  -2  -7 32174.1 970.591   1
   3  -2  -6 12370.7 586.946   1
   3   2  -6 11917.4 492.964   1
   3   2  -6 12701.4 503.480   3
   3  -2  -5 26111.3 826.322   1
   3   2  -5 26200.9 700.385   1
   3   2  -5 27112.6 689.275   3
   3  -2  -4 10170.5 507.942   1
   3   2  -4 9529.30 411.297   1
   3   2  -4 10179.0 388.213   3
   3  -2  -3 18730.5 669.225   1
   3   2  -3 18603.4 562.463   1
   3   2  -3 18720.0 489.062   3
   3  -2  -2 256.687 91.0439   1
   3   2  -2 147.519 32.0821   1
   3   2  -1 8446.76 375.319   1
   3  -2  -1 9094.88 460.282   1
   3   2   0 6615.92 337.732   1
   3  -2   0 6681.13 395.180   1
   3  -2   1-12.5770 52.9552   1
   3   2   1 40.0170 47.1768   1
   3   2   2 630.680 112.835   1
   3  -2   2 374.842 98.6408   1
   3   2   3 13534.6 539.768   1
   3  -2   3 13284.6 587.507   1
  -3  -2  -4 9.46367 20.3981   3
  -3   2  -4 54.6455 56.3277   3
   3   2   4-70.5276 78.3538   1
   3  -2   4 13.7981 58.0766   1
  -3  -2  -5 375.022 72.3925   3
  -3   2  -5 461.686 104.948   3
   3  -2   5 450.690 113.934   1
  -3  -2  -6 1846.80 172.038   3
   3  -2   6 2041.47 256.441   1
  -3   2  -6 1759.92 212.932   3
  -3  -2  -7 20925.3 621.165   3
  -3   2  -7 22447.8 778.124   3
  -3   2  -8 3118.54 303.446   3
  -3   2  -9 128.071 84.9929   3
  -3   2 -10 92.5621 72.8016   3
  -3   2 -11-62.2588 92.5409   3
  -3   2 -12-3.38722 66.3623   3
  -3   2 -13 1644.19 278.835   3
  -3   2 -14 308.144 123.602   3
  -3   2 -15 653.862 199.994   3
   3  -3 -15 81.1906 77.2164   3
   3   3 -15 30.4317 53.3327   3
   3   3 -14 2450.20 343.442   3
   3  -3 -14 2590.41 385.128   3
   3  -3 -13 1156.71 241.629   3
   3   3 -13 917.030 208.421   3
   3  -3 -12 320.495 152.552   3
   3   3 -12 478.698 138.541   3
   3  -3 -11 179.849 111.710   3
   3   3 -11 127.073 88.9775   3
   3  -3 -10 1039.44 202.459   1
   3  -3 -10 1546.61 250.621   3
   3   3 -10 1481.66 219.186   3
   3  -3  -9 12446.6 667.978   3
   3   3  -9 11859.9 579.435   3
   3  -3  -9 11200.4 640.032   1
   3  -3  -8 24761.9 917.122   1
   3   3  -8 24587.9 786.376   3
   3  -3  -7 66.8506 91.6162   1
   3   3  -7 29.1365 39.5057   1
   3   3  -7 51.8612 61.1632   3
   3  -3  -6 6122.24 426.762   1
   3   3  -6 6358.17 346.281   3
   3   3  -6 6523.25 345.994   1
   3   3  -5 775.906 116.670   1
   3  -3  -5 866.530 174.250   1
   3   3  -5 781.007 113.259   3
   3  -3  -4 14161.6 616.654   1
   3   3  -4 14086.4 470.201   1
   3   3  -4 15008.2 447.067   3
   3   3  -3 153.558 55.0269   1
   3  -3  -3 43.9224 63.5465   1
   3   3  -3 107.698 41.4979   3
   3   3  -2 13719.0 450.964   1
   3   3  -2 13868.3 334.629   3
   3  -3  -2 13603.1 589.063   1
   3   3  -1 1380.61 89.9034   3
   3   3  -1 1257.27 140.050   1
   3  -3  -1 1448.78 208.266   1
   3   3   0 16665.4 254.508   3
   3   3   0 16712.1 513.219   1
   3  -3   0 17127.8 662.218   1
   3  -3   1 694.409 124.165   1
   3   3   1 779.109 120.613   1
   3   3   2 31609.9 768.358   1
   3  -3   2 32302.3 914.012   1
   3   3   3 6060.06 356.315   1
   3  -3   3 5466.47 397.965   1
  -3   3  -4 31643.1 873.254   3
   3  -3   4 33353.6 980.130   1
  -3   3  -5 468.792 122.632   3
   3  -3   5 627.322 138.718   1
   3  -3   6 6062.37 449.406   1
  -3   3  -6 6001.29 414.425   3
   3  -3   7 8913.62 571.324   1
  -3   3  -7 8828.30 509.237   3
   3  -3   8 14533.7 741.436   1
  -3   3  -8 13419.1 656.021   3
  -3   3  -9 187.424 86.8534   3
  -3   3 -10 2103.10 280.114   3
  -3   3 -11 210.732 99.5077   3
  -3   3 -12 1825.96 290.254   3
  -3   3 -13 139.704 73.5763   3
  -3   3 -14 123.015 93.5830   3
   3   4 -15 65.3224 112.183   3
   3  -4 -14 830.938 241.533   3
   3   4 -14 775.105 198.273   3
   3  -4 -13 6662.58 595.753   3
   3   4 -13 6806.58 550.856   3
   3  -4 -12 51.1574 73.6228   3
   3   4 -12 139.918 69.8133   3
   3  -4 -11 6107.37 522.693   3
   3   4 -11 6089.65 465.800   3
   3  -4 -11 5876.09 517.198   1
   3  -4 -10 3649.75 385.691   3
   3   4 -10 3740.30 344.715   3
   3  -4 -10 3699.22 392.652   1
   3  -4  -9 474.525 167.893   3
   3   4  -9 215.114 90.3412   3
   3  -4  -9 109.111 121.892   1
   3  -4  -8 21218.8 881.275   1
   3   4  -8 22492.6 744.602   3
   3   4  -7 263.113 81.0350   3
   3  -4  -7 256.316 105.616   1
   3  -4  -6 12623.8 635.257   1
   3   4  -6 12996.1 480.441   3
   3   4  -6 12494.3 453.312   1
   3  -4  -5 11904.2 601.914   1
   3   4  -5 12998.2 439.238   1
   3   4  -5 13121.0 441.305   3
   3  -4  -4 5066.48 382.485   1
   3   4  -4 4655.72 248.357   1
   3   4  -4 4717.55 239.373   3
   3   4  -3 233.822 63.5494   1
   3  -4  -3 148.010 64.8437   1
   3   4  -3 128.934 30.7208   3
   3  -4  -2 20386.0 742.882   1
   3   4  -2 19841.9 504.904   1
   3  -4  -1 1092.71 175.811   1
   3   4  -1 946.733 115.749   1
   3   4   0-4.88162 32.8919   1
   3  -4   0-6.87631 53.4427   1
   3   4   1 27339.4 655.016   1
   3  -4   1 27339.5 860.908   1
   3   4   2-23.2162 37.3403   1
   3  -4   2 90.8353 99.2976   1
   3   4   3 32701.4 799.132   1
   3  -4   3 33950.1 991.997   1
  -3   4  -4 1961.78 236.048   3
   3  -4   4 1980.85 248.447   1
  -3   4  -5 194.108 81.6714   3
   3  -4   5 372.371 118.092   1
  -3   4  -6 5765.72 424.290   3
   3  -4   6 5721.28 444.276   1
  -3   4  -7 10062.5 573.977   3
   3  -4   7 9938.70 605.149   1
   3  -4   8 2092.05 279.874   1
  -3   4  -8 2384.04 296.417   3
   3  -4   9 12079.8 717.193   1
  -3   4  -9 10420.5 626.206   3
  -3   4 -10-35.4484 68.2624   3
   3  -4  10-3.65960 68.3013   1
  -3   4 -11 279.926 120.073   3
  -3   4 -12 1565.85 271.993   3
  -3   4 -13 26.7738 78.1893   3
  -3   4 -14 795.031 223.739   3
   3   5 -15 2611.71 377.847   3
   3  -5 -14 372.508 168.993   3
   3   5 -14 374.050 153.693   3
   3  -5 -13 334.802 161.385   3
   3   5 -13 353.082 147.885   3
   3  -5 -12 672.368 194.056   3
   3   5 -12 634.747 151.648   3
   3  -5 -11 3726.40 426.336   3
   3   5 -11 3831.30 369.995   3
   3  -5 -11 3479.50 410.873   1
   3  -5 -10 5963.62 510.671   3
   3   5 -10 5891.25 430.804   3
   3  -5 -10 5467.13 487.282   1
   3  -5  -9 11585.2 690.703   1
   3   5  -9 10896.0 550.214   3
   3  -5  -8 8987.92 590.954   1
   3   5  -8 9532.92 478.555   3
   3  -5  -7 8849.10 565.297   1
   3   5  -7 8596.51 418.839   3
   3  -5  -6 4.89973 46.8777   1
   3   5  -6 104.488 28.0558   3
   3  -5  -5 506.062 138.410   1
   3   5  -5 620.726 94.8908   3
   3  -5  -4 1059.04 186.802   1
   3  -5  -3 57508.3 1311.37   1
   3  -5  -2 27372.6 901.934   1
   3   5  -2 25796.3 513.296   1
   3  -5  -1 17057.0 696.525   1
   3   5  -1 16181.2 424.165   1
   3   5   0 2144.15 164.877   1
   3  -5   0 2391.94 269.334   1
   3   5   1 6238.93 296.761   1
   3  -5   1 6271.88 422.827   1
   3   5   2 7516.33 350.725   1
   3  -5   2 7857.13 487.648   1
   3   5   3 972.246 133.565   1
   3  -5   3 1067.44 183.218   1
  -3   5  -4 98.4613 75.3535   3
   3  -5   4 210.348 108.204   1
  -3   5  -5 4713.33 383.628   3
   3  -5   5 4749.05 403.536   1
  -3   5  -6 769.317 166.993   3
   3  -5   6 871.678 179.736   1
  -3   5  -7 345.427 121.007   3
   3  -5   7 796.398 179.243   1
  -3   5  -8 8105.31 551.604   3
   3  -5   8 7802.94 563.062   1
  -3   5  -9 286.051 132.445   3
   3  -5   9 151.550 110.122   1
   3  -5  10 2629.22 349.652   1
  -3   5 -10 2227.67 305.021   3
  -3   5 -11 386.110 139.032   3
   3  -5  11 310.735 140.065   1
   3  -5  12 5892.75 556.770   1
  -3   5 -12 5211.89 510.113   3
   3  -5  13 3644.17 453.605   1
  -3   5 -13 3870.30 455.977   3
   3   6 -15 24.8128 66.9298   3
   3   6 -14 1342.66 247.480   3
   3  -6 -13 792.159 214.138   3
   3   6 -13 912.474 199.386   3
   3  -6 -12 19101.9 1011.11   3
   3   6 -12 19350.3 861.111   3
   3  -6 -11-22.6609 67.3535   3
   3  -6 -11 175.709 97.1344   1
   3   6 -11 98.6442 86.4930   3
   3  -6 -10 5994.99 516.679   1
   3   6 -10 5744.67 421.528   3
   3  -6  -9 120.003 124.861   1
   3   6  -9-7.34471 40.1237   3
   3  -6  -8 354.482 128.369   1
   3  -6  -7 153.296 104.572   1
   3  -6  -6 18261.7 809.935   1
   3  -6  -5 410.419 150.184   1
   3  -6  -4 247.056 102.728   1
   3  -6  -3 103.881 93.8265   1
   3  -6  -2 8050.24 502.550   1
   3  -6  -1 1016.93 185.239   1
   3  -6   0 15858.1 692.671   1
   3  -6   1 1923.79 248.103   1
   3   6   2 49203.9 856.624   1
   3  -6   2 50780.9 1256.66   1
   3   6   3 4530.42 280.200   1
   3  -6   3 4561.11 382.480   1
   3  -6   4 36.6920 65.4410   1
  -3   6  -5 469.910 143.056   3
   3  -6   5 248.259 112.820   1
  -3   6  -6 22.2069 69.0526   3
   3  -6   6-25.3049 44.6043   1
  -3   6  -7 693.861 173.511   3
   3  -6   7 588.772 149.960   1
  -3   6  -8 10197.5 645.749   3
   3  -6   8 9302.81 628.211   1
  -3   6  -9 95.6498 110.212   3
   3  -6   9 76.9918 70.2321   1
  -3   6 -10 1143.90 230.251   3
   3  -6  10 1304.91 248.740   1
  -3   6 -11 128.134 103.215   3
   3  -6  11 144.593 73.8924   1
  -3   6 -12 95.1145 68.0003   3
   3  -6  12-4.82760 70.5013   1
  -3   6 -13 61.4039 80.9123   3
   3  -7 -13 138.810 82.8884   3
   3  -7 -12 327.087 150.608   3
   3  -7 -11 1979.75 328.913   1
   3  -7 -11 2291.78 352.980   3
   3  -7 -10 260.920 148.586   1
   3  -7  -9 9709.06 671.390   1
   3  -7  -8 5855.99 507.886   1
   3  -7  -7 8215.34 577.581   1
   3  -7  -6 184.474 72.4767   1
   3  -7  -5 219.781 123.320   1
   3  -7  -4 1182.66 223.758   1
   3  -7  -3 7129.79 492.304   1
   3  -7  -2 15633.1 721.286   1
   3  -7  -1 9409.02 556.114   1
   3  -7   0 6653.38 463.969   1
   3  -7   1 573.463 161.099   1
   3  -7   2 10.4043 66.7273   1
   3  -7   3 2446.25 290.103   1
   3  -7   4 29.6007 49.0437   1
  -3   7  -5 7040.05 514.241   3
   3  -7   5 6867.89 506.298   1
  -3   7  -6 148.896 88.2948   3
   3  -7   6 94.4501 93.4522   1
  -3   7  -7-9.23886 61.0442   3
   3  -7   7-63.7213 66.0665   1
  -3   7  -8-47.4781 58.0716   3
   3  -7   8 40.0730 89.4884   1
  -3   7  -9 65.2474 80.7042   3
   3  -7   9 131.820 113.858   1
  -3   7 -10 1255.16 250.344   3
   3  -7  10 1365.61 263.869   1
  -3   7 -11 3615.17 440.637   3
   3  -7  11 3904.45 451.135   1
  -3   7 -12 5509.78 553.242   3
   3  -7  12 5491.13 551.574   1
   3  -8 -12 130.987 95.4560   3
   3  -8 -11 6088.64 582.351   3
   3  -8 -11 5809.21 564.498   1
   3  -8 -10 202.464 152.888   1
   3  -8  -9 2168.58 330.031   1
   3  -8  -8 715.237 198.878   1
   3  -8  -7 732.397 186.338   1
   3  -8  -6 712.667 185.713   1
   3  -8  -5 7828.05 552.118   1
   3  -8  -4 9392.91 597.636   1
   3  -8  -3 183.243 125.382   1
   3  -8  -2 1251.61 218.887   1
   3  -8  -1 1762.79 255.490   1
   3  -8   0 1785.07 258.643   1
   3  -8   1 5182.14 430.716   1
   3  -8   2 341.200 122.508   1
   3  -8   3 9957.47 596.410   1
   3  -8   4 1724.65 251.388   1
   3  -8   5 242.042 110.923   1
  -3   8  -6 560.984 161.976   3
   3  -8   6 686.922 166.128   1
  -3   8  -7 10580.0 689.897   3
   3  -8   7 10347.9 661.558   1
  -3   8  -8 2711.96 366.928   3
   3  -8   8 2666.42 351.546   1
  -3   8  -9 1867.16 309.274   3
   3  -8   9 1563.88 265.501   1
  -3   8 -10 374.877 155.163   3
   3  -8  10 411.504 149.236   1
  -3   8 -11 121.196 57.0703   3
   3  -8  11 163.280 102.493   1
   3  -8  12 50.9195 53.7342   1
   3  -9 -11 3.95850 95.4321   1
   3  -9 -11 9.08844 69.5252   3
   3  -9 -10 3542.09 437.936   1
   3  -9  -9-89.3584 77.4032   1
   3  -9  -8 13087.1 797.667   1
   3  -9  -7 1686.47 284.259   1
   3  -9  -6 395.913 136.282   1
   3  -9  -5 896.354 203.662   1
   3  -9  -4 4102.77 404.614   1
   3  -9  -3 962.015 192.629   1
   3  -9  -2 11744.9 667.933   1
   3  -9  -1 62.2241 57.8110   1
   3  -9   0 990.607 192.440   1
   3  -9   1 2461.45 304.594   1
   3  -9   2 3138.97 347.458   1
   3  -9   3-2.33068 68.9002   1
   3  -9   4 4878.90 439.516   1
   3  -9   5 328.787 123.746   1
   3  -9   6 152.422 100.897   1
  -3   9  -7 1402.91 263.566   3
   3  -9   7 1129.01 227.321   1
  -3   9  -8 40.9844 78.9057   3
   3  -9   8 29.3980 52.5311   1
  -3   9  -9 747.355 222.858   3
   3  -9   9 893.484 223.681   1
  -3   9 -10 197.423 96.8712   3
   3  -9  10 286.580 128.027   1
   3  -9  11 27.0010 78.6072   1
   3 -10 -10 188.232 138.383   1
   3 -10  -9 1158.04 270.405   1
   3 -10  -8 1310.17 262.850   1
   3 -10  -7 3327.20 404.369   1
   3 -10  -6 1007.19 217.652   1
   3 -10  -5 5937.63 515.299   1
   3 -10  -4 330.469 129.115   1
   3 -10  -3 52.8202 67.3551   1
   3 -10  -2 125.461 126.997   1
   3 -10  -1 3095.23 357.309   1
   3 -10   0 3.18019 50.2885   1
   3 -10   1 7347.01 542.294   1
   3 -10   2 5194.15 452.658   1
   3 -10   3 595.031 166.140   1
   3 -10   4 133.708 65.7911   1
   3 -10   5 947.067 208.542   1
   3 -10   6 36.9615 45.3369   1
   3 -10   7-35.2842 102.306   1
  -3  10  -8 4395.63 491.177   3
   3 -10   8 4112.53 444.007   1
  -3  10  -9 1273.36 270.725   3
   3 -10   9 870.550 208.710   1
   3 -10  10-20.7044 53.8205   1
   3 -11  -9 1573.67 304.472   1
   3 -11  -8 335.231 158.085   1
   3 -11  -7 546.945 203.859   1
   3 -11  -6 38.2587 85.0954   1
   3 -11  -5 1250.46 254.724   1
   3 -11  -4 2800.05 357.616   1
   3 -11  -3 4996.89 475.156   1
   3 -11  -2 362.956 142.240   1
   3 -11  -1 6665.01 528.560   1
   3 -11   0 503.875 164.679   1
   3 -11   1 85.2087 69.2214   1
   3 -11   2-93.2917 104.969   1
   3 -11   3 304.954 116.249   1
   3 -11   4 918.169 204.010   1
   3 -11   5 1781.50 282.994   1
   3 -11   6 2530.89 344.376   1
   3 -11   7-74.2312 96.9912   1
   3 -11   8 147.422 85.6604   1
   3 -11   9 392.563 156.659   1
   3 -12  -8 49.1033 64.1065   1
   3 -12  -7 803.785 233.890   1
   3 -12  -6 1619.90 296.356   1
   3 -12  -5 60.3424 92.7332   1
   3 -12  -4 2271.20 337.097   1
   3 -12  -3 7322.64 586.158   1
   3 -12  -2 166.105 123.921   1
   3 -12  -1 119.484 63.9505   1
   3 -12   0 1842.69 288.259   1
   3 -12   1 380.319 143.149   1
   3 -12   2 1641.20 274.403   1
   3 -12   3 419.517 130.173   1
   3 -12   4 1064.10 223.071   1
   3 -12   5 60.0785 96.1603   1
   3 -12   6 1033.80 250.211   2
   3 -12   6 669.719 186.101   1
   3 -12   7 154.292 130.836   1
   3 -12   8 539.838 168.821   1
   3 -13  -6-17.8492 70.1870   1
   3 -13  -5 2690.54 376.157   1
   3 -13  -4 964.894 232.198   1
   3 -13  -3 1140.04 247.283   1
   3 -13  -2 1404.38 267.834   1
   3 -13  -1-20.2912 53.7518   1
   3 -13   0 214.535 119.508   1
   3 -13   1 144.771 83.9701   1
   3 -13   2 700.734 190.674   1
   3 -13   3 8781.04 646.534   1
   3 -13   4 297.786 179.066   2
   3 -13   4-68.4788 97.7145   1
   3 -13   5 1062.49 261.363   2
   3 -13   6 424.569 170.247   2
   3 -14  -4 2443.19 366.307   1
   3 -14  -3 3225.84 409.627   1
   3 -14  -2 21.4903 65.9045   1
   3 -14  -1 141.867 113.655   1
   4   0 -14 248.809 130.821   3
   4   0 -13 450.320 152.979   3
   4   0 -12 16932.4 885.113   3
   4   0 -11-13.2379 81.4103   3
   4   0 -10 9604.34 611.578   3
   4   0 -10 9390.55 607.595   1
   4   0  -9 158.940 136.847   1
   4   0  -9-27.9713 56.9009   3
   4   0  -8 4459.56 383.632   3
   4   0  -8 4216.12 385.623   1
   4   0  -7-30.9353 55.5804   1
   4   0  -7-48.0513 34.4459   3
   4   0  -6 17118.9 731.018   1
   4   0  -6 16964.8 681.073   3
   4   0  -5 59.2978 80.1265   1
   4   0  -4 7107.23 455.477   1
   4   0  -3 105.301 76.7698   1
   4   0  -2 302.741 99.9716   1
   4   0  -1 146.142 96.5374   1
   4   0   0 10552.7 549.579   1
   4   0   1 12.7394 54.0625   1
   4   0   2-13.7578 50.8611   1
   4   0   3-42.6601 68.2577   1
   4   0   4 3888.03 366.945   1
   4   0   5-22.2622 59.1652   1
   4   0   6 135.950 76.3531   1
   4   0   7-4.57473 66.1112   1
   4   0   8 6232.49 523.560   1
   4   0   9-136.618 100.536   1
   4   0  10 177.105 65.5421   1
   4   0  11 140.653 106.520   1
   4   0  12 12.5910 98.3855   1
   4  -1 -14-120.381 122.514   3
   4   1 -14 129.976 52.2164   3
   4  -1 -13 151.719 100.408   3
   4   1 -13 285.482 153.301   3
   4  -1 -12 217.362 96.2609   3
   4   1 -12 244.281 139.226   3
   4  -1 -11 543.072 167.623   1
   4  -1 -11 569.535 168.099   3
   4   1 -11 327.533 114.923   3
   4   1 -10 455.547 131.621   1
   4  -1 -10 432.746 139.429   3
   4  -1 -10 454.163 161.098   1
   4   1 -10 467.963 139.186   3
   4  -1  -9 3149.54 351.100   3
   4   1  -9 3593.55 348.478   3
   4  -1  -9 3306.54 367.902   1
   4   1  -9 3536.66 351.102   1
   4  -1  -8 739.376 182.337   1
   4  -1  -8 560.057 147.470   3
   4   1  -8 782.000 155.943   3
   4   1  -8 885.764 173.299   1
   4  -1  -7 3426.51 345.521   1
   4  -1  -7 3553.61 336.997   3
   4   1  -7 3151.33 296.157   3
   4   1  -7 2776.29 294.816   1
   4  -1  -6 2439.90 293.375   1
   4   1  -6 2105.94 250.003   1
   4   1  -6 2593.63 252.958   3
   4  -1  -5 52.4419 62.6571   1
   4   1  -5-47.2962 54.7219   1
   4   1  -5 71.9122 49.9666   3
   4   1  -4 320.956 92.8800   1
   4   1  -4 276.420 77.7491   3
   4  -1  -4 283.388 122.440   1
   4  -1  -3 16858.4 723.187   1
   4   1  -3 17332.1 683.615   1
   4  -1  -2 3903.54 341.166   1
   4   1  -2 3474.96 306.178   1
   4   1  -1 11690.2 557.979   1
   4  -1  -1 10706.2 568.636   1
   4   1   0 3170.45 294.865   1
   4  -1   0 3217.54 315.470   1
   4   1   1 2163.44 248.452   1
   4  -1   1 1882.90 242.088   1
   4  -1   2 629.201 149.155   1
   4   1   2 213.288 91.3581   1
   4   1   3 5470.28 413.893   1
   4  -1   3 5706.47 435.960   1
   4   1   4 9735.48 563.413   1
   4  -1   4 9618.98 585.003   1
   4   1   5 4344.74 391.310   1
   4  -1   5 4587.11 418.140   1
   4   1   6 1182.81 213.393   1
   4  -1   6 1749.87 274.677   1
   4   1   7 27.0206 79.7297   1
   4  -1   7 93.8954 74.3754   1
   4   1   8 3076.80 364.738   1
   4  -1   8 3428.64 389.160   1
   4   1   9 979.815 212.835   1
   4  -1   9 781.019 201.626   1
   4  -1  10 432.311 174.278   1
   4   1  10 497.487 161.584   1
   4  -1  11 79.9070 101.671   1
   4   2 -14 526.771 178.666   3
   4  -2 -13 6894.27 613.208   3
   4   2 -13 6706.67 560.956   3
   4  -2 -12 1272.66 269.159   3
   4   2 -12 1151.46 232.239   3
   4  -2 -11 3793.81 426.361   3
   4   2 -11 4093.52 402.102   3
   4  -2 -11 4494.33 460.680   1
   4  -2 -10 1150.54 232.204   1
   4  -2 -10 935.897 196.858   3
   4   2 -10 1028.19 193.998   3
   4  -2  -9 5424.84 462.851   3
   4   2  -9 5560.55 424.741   3
   4  -2  -9 5256.39 469.856   1
   4   2  -9 5143.79 407.095   1
   4   2  -8 127.179 77.4518   1
   4  -2  -8 104.166 112.401   1
   4  -2  -8-12.9121 56.4838   3
   4   2  -8 51.7333 55.5208   3
   4  -2  -7 4562.58 413.632   1
   4   2  -7 3801.04 312.584   3
   4   2  -7 3983.76 336.725   1
   4  -2  -6 2310.57 285.737   1
   4   2  -6 2373.20 251.947   1
   4  -2  -5 14408.8 701.234   1
   4   2  -5 14022.2 600.803   1
   4  -2  -4 2212.44 276.841   1
   4   2  -4 1892.64 218.837   1
   4  -2  -3 364.569 122.706   1
   4   2  -3 437.946 118.165   1
   4  -2  -2 481.458 136.589   1
   4   2  -2 579.934 127.708   1
   4   2  -1 3311.87 289.204   1
   4  -2  -1 3468.23 338.075   1
   4   2   0 69.0484 61.6884   1
   4  -2   0-17.5450 48.1678   1
   4   2   1 2397.85 253.201   1
   4  -2   1 2430.91 289.371   1
   4   2   2 5149.33 379.538   1
   4  -2   2 5368.37 426.670   1
   4   2   3 2669.32 283.881   1
   4  -2   3 3105.86 325.397   1
   4   2   4 204.602 92.7592   1
   4  -2   4 172.525 88.6535   1
   4   2   5 148.286 98.2158   1
   4  -2   5 118.850 86.5780   1
   4   2   6 182.939 102.186   1
   4  -2   6 209.015 113.906   1
   4   2   7 8532.67 576.006   1
   4  -2   7 8371.44 606.692   1
  -4   2  -7 7742.28 500.340   3
   4   2   8 2950.61 367.841   1
   4  -2   8 3747.45 420.253   1
  -4   2  -8 3404.40 345.780   3
   4   2   9 4757.20 461.716   1
   4  -2   9 4900.29 492.617   1
   4  -2  10 2023.67 334.816   1
   4  -2  11-8.88478 87.5330   1
   4  -3 -13 115.694 104.379   3
   4  -3 -12 929.940 222.290   3
   4  -3 -11 102.200 86.7387   1
   4  -3 -11 223.442 111.094   3
   4  -3 -10 4543.43 458.198   3
   4  -3 -10 4734.15 472.540   1
   4  -3  -9 42.8204 96.3885   1
   4  -3  -9-74.5552 83.0782   3
   4  -3  -8 1733.38 280.533   1
   4  -3  -7 2871.37 338.078   1
   4   3  -6 255.092 89.4878   1
   4  -3  -6 169.060 100.871   1
   4  -3  -5 270.636 102.579   1
   4   3  -5 294.668 82.1687   1
   4   3  -4 956.212 150.338   1
   4  -3  -4 1074.45 195.554   1
   4  -3  -3 6501.87 480.352   1
   4   3  -3 5936.09 362.757   1
   4  -3  -2 46276.1 1270.53   1
   4   3  -2 45309.0 1010.44   1
   4  -3  -1 4.50515 68.1674   1
   4   3  -1 72.9592 65.6704   1
   4   3   0 6885.16 403.806   1
   4  -3   0 7281.05 500.974   1
   4   3   1 92.9236 57.9576   1
   4  -3   1-19.8377 45.8012   1
   4  -3   2 265.242 125.589   1
   4   3   2 192.486 67.3332   1
   4  -3   3 21.4263 50.5415   1
   4   3   3 68.1179 52.5959   1
   4   3   4 1953.51 247.108   1
   4  -3   4 2389.27 299.587   1
   4   3   5 22.3955 51.3452   1
   4  -3   5-35.2623 62.7061   1
   4   3   6 2102.48 274.898   1
   4  -3   6 2333.11 324.231   1
  -4   3  -7 764.711 181.876   3
   4   3   7 684.760 172.958   1
   4  -3   7 767.349 204.759   1
  -4   3  -8 63.4161 83.4553   3
   4   3   8 97.7205 84.5046   1
   4  -3   8 161.106 122.279   1
   4  -3   9 1798.53 306.495   1
  -4   3  -9 2081.57 291.172   3
  -4   3 -10-10.8783 65.8067   3
   4  -3  10 182.837 155.028   1
   4  -3  11 740.900 208.136   1
   4  -4 -13 510.329 184.683   3
   4  -4 -12 6361.88 594.171   3
   4  -4 -12 6099.21 581.605   1
   4  -4 -11 5668.10 537.575   3
   4  -4 -11 5536.49 539.146   1
   4  -4 -10 2456.26 348.064   3
   4  -4 -10 2805.11 386.482   1
   4  -4  -9-58.2128 89.1412   3
   4  -4  -9-54.1471 79.7667   1
   4  -4  -8 122.014 78.5738   1
   4  -4  -7 7639.61 567.939   1
   4  -4  -6 6795.77 517.760   1
   4  -4  -5 9671.96 618.332   1
   4  -4  -4-1.14438 58.8612   1
   4  -4  -3 152.993 78.3661   1
   4  -4  -2 1486.59 234.382   1
   4  -4  -1 6485.98 486.401   1
   4   4  -1 6411.07 365.247   1
   4   4   0 61.9666 50.4547   1
   4  -4   0 284.200 139.917   1
   4   4   1 3670.05 290.644   1
   4  -4   1 3516.56 359.346   1
   4  -4   2 144.689 98.3002   1
   4   4   2 23.7695 40.5838   1
   4   4   3 7600.93 451.992   1
   4  -4   3 7580.63 540.097   1
   4   4   4 379.514 112.686   1
   4  -4   4 168.078 70.7583   1
   4   4   5 7.48447 72.8252   1
   4  -4   5-27.8208 68.0849   1
   4   4   6 281.345 93.9356   1
   4  -4   6 232.082 102.294   1
  -4   4  -7 64.9125 100.174   3
   4   4   7 81.4559 89.8666   1
   4  -4   7-40.0531 58.7008   1
   4   4   8 6644.49 522.681   1
  -4   4  -8 6951.68 532.076   3
   4  -4   8 7397.54 600.575   1
  -4   4  -9 548.934 163.545   3
   4  -4   9 371.462 157.125   1
  -4   4 -10 335.816 157.108   3
   4  -4  10 938.290 233.961   1
  -4   4 -11 140.275 94.9458   3
   4  -4  11 148.788 96.6763   1
  -4   4 -12-55.8669 78.4190   3
   4  -5 -12 2021.57 345.999   1
   4  -5 -12 2125.33 351.160   3
   4  -5 -11 635.573 188.147   3
   4  -5 -11 1117.83 264.028   1
   4  -5 -10 1712.79 307.982   1
   4  -5 -10 2406.15 352.909   3
   4  -5  -9 344.359 165.955   1
   4  -5  -8 10707.8 706.490   1
   4  -5  -7 10504.2 684.495   1
   4  -5  -6 4587.44 442.915   1
   4  -5  -5 787.601 193.974   1
   4  -5  -4 260.607 115.329   1
   4  -5  -3 1209.64 222.290   1
   4  -5  -2 1434.08 236.582   1
   4  -5  -1 8553.54 574.499   1
   4  -5   0 278.497 125.182   1
   4  -5   1 2733.91 328.553   1
   4  -5   2 3004.76 352.386   1
   4  -5   3 7743.43 562.199   1
   4  -5   4 503.108 154.629   1
   4   5   4 467.950 129.089   1
   4   5   5 4119.90 354.940   1
   4  -5   5 3909.14 410.970   1
   4   5   6 530.964 141.205   1
   4  -5   6 546.887 150.968   1
   4   5   7 460.517 124.907   1
   4  -5   7 419.536 152.541   1
  -4   5  -8 18.6775 65.0257   3
   4   5   8 5.32447 76.8167   1
   4  -5   8 123.560 105.468   1
  -4   5  -9 160.359 83.6132   3
   4  -5   9 33.5504 78.4534   1
  -4   5 -10 622.371 182.589   3
   4  -5  10 630.876 209.011   1
  -4   5 -11 931.307 231.050   3
   4  -6 -11 292.082 139.981   3
   4  -6 -11 277.704 120.802   1
   4  -6 -10 3230.66 414.977   3
   4  -6 -10 3719.44 454.900   1
   4  -6  -9 8.71447 72.5542   1
   4  -6  -8 4472.83 472.156   1
   4  -6  -7 664.852 209.691   1
   4  -6  -6 1194.63 252.721   1
   4  -6  -5 401.892 162.585   1
   4  -6  -4 9466.62 635.656   1
   4  -6  -3 659.898 194.835   1
   4  -6  -2 53.7312 64.3824   1
   4  -6  -1-25.3123 55.8945   1
   4  -6   0 6284.85 507.540   1
   4  -6   1 1208.05 234.018   1
   4  -6   2 9272.29 620.033   1
   4  -6   3 102.034 87.9652   1
   4  -6   4 13799.4 777.481   1
   4  -6   5 120.271 71.9097   1
   4  -6   6-103.799 79.2327   1
   4  -6   7 73.9055 88.3436   1
  -4   6  -8 1932.74 309.694   3
   4  -6   8 1035.33 234.397   1
  -4   6  -9 245.488 134.813   3
   4  -6   9 368.252 154.250   1
  -4   6 -10 379.516 141.574   3
   4  -6  10 307.345 128.559   1
  -4   6 -11 32.7221 77.0585   3
   4  -7 -11 1139.38 260.864   3
   4  -7 -10 2272.09 368.097   1
   4  -7  -9 3368.57 433.750   1
   4  -7  -8 2694.75 378.613   1
   4  -7  -7 4683.83 482.677   1
   4  -7  -6 2031.03 314.772   1
   4  -7  -5 111.492 112.508   1
   4  -7  -4 48.1524 72.3168   1
   4  -7  -3 1631.77 273.313   1
   4  -7  -2 269.975 118.628   1
   4  -7  -1 6691.00 545.497   1
   4  -7   0 126.482 93.1367   1
   4  -7   1-41.2929 50.9198   1
   4  -7   2 5916.76 508.775   1
   4  -7   3 112.729 105.690   1
   4  -7   4 319.534 129.837   1
   4  -7   5 932.545 216.367   1
   4  -7   6-68.6761 87.4499   1
   4  -7   7-46.7252 83.1590   1
   4  -7   8-138.395 125.761   1
  -4   7  -9 918.617 223.870   3
   4  -7   9 649.373 205.923   1
  -4   7 -10-83.7174 85.0394   3
   4  -8  -9 254.261 119.079   1
   4  -8  -8 125.944 107.441   1
   4  -8  -7 3095.14 402.753   1
   4  -8  -6 2289.95 353.108   1
   4  -8  -5 4844.99 492.623   1
   4  -8  -4 699.740 199.484   1
   4  -8  -3 255.460 106.514   1
   4  -8  -2 79.7777 69.6787   1
   4  -8  -1 797.905 206.037   1
   4  -8   0 603.609 182.412   1
   4  -8   1 1661.36 286.364   1
   4  -8   2 1212.28 242.998   1
   4  -8   3 6515.18 552.353   1
   4  -8   4 833.342 214.149   1
   4  -8   5 117.485 126.136   1
   4  -8   6 364.943 149.859   1
   4  -8   7-32.5547 56.2009   1
   4  -8   8-7.93239 82.8662   1
   4  -9  -8 1600.58 306.326   1
   4  -9  -7 30.8442 81.4437   1
   4  -9  -6 739.728 207.704   1
   4  -9  -5 540.672 212.548   1
   4  -9  -4-93.0315 119.483   1
   4  -9  -3 97.2958 91.2752   1
   4  -9  -2 5838.17 535.027   1
   4  -9  -1 751.741 189.466   1
   4  -9   0 4080.04 450.042   1
   4  -9   1-35.3402 70.1781   1
   4  -9   2 252.910 148.028   1
   4  -9   3 202.063 135.402   1
   4  -9   4 383.993 162.318   1
   4  -9   5 2.38614 78.5961   1
   4  -9   6 2072.27 345.871   1
   4  -9   7 671.659 213.222   1
   4 -10  -7 470.598 195.020   1
   4 -10  -6 383.561 181.948   1
   4 -10  -5 1274.23 273.912   1
   4 -10  -4 465.292 169.352   1
   4 -10  -3 2807.43 395.540   1
   4 -10  -2 1493.94 284.895   1
   4 -10  -1 144.529 87.9071   1
   4 -10   0 217.836 132.167   1
   4 -10   1 1981.34 321.140   1
   4 -10   2 347.931 157.192   1
   4 -10   3 2036.65 327.733   1
   4 -10   4 776.879 227.228   1
   4 -10   5 297.302 125.689   1
   4 -10   6-173.495 136.350   1
   4 -11  -5 112.074 112.184   1
   4 -11  -4 1189.00 267.994   1
   4 -11  -3 305.431 142.656   1
   4 -11  -2 435.666 166.473   1
   4 -11  -1 175.263 91.1555   1
   4 -11   0 2.06955 109.861   1
   4 -11   1 104.058 83.1978   1
   4 -11   2 124.922 55.5379   1
   4 -11   3 2225.27 364.839   1
   4 -11   4 1619.06 310.221   1
   4 -12  -2 18.0056 84.8405   1
   4 -12  -1 291.662 154.182   1
   4 -12   0 894.561 227.026   1
   4 -12   1-61.3837 80.9387   1
   5   0 -10 2321.13 341.739   1
   5   0  -9 82.3901 110.333   1
   5   0  -8 1747.68 276.170   1
   5   0  -7-36.5729 75.9169   1
   5   0  -6 4773.16 440.348   1
   5   0  -5 54.0580 61.0639   1
   5   0  -4 7355.98 537.246   1
   5   0  -3-51.3717 64.4971   1
   5   0  -2 386.171 131.148   1
   5   0  -1 58.6179 88.0940   1
   5   0   0 277.092 109.294   1
   5   0   1 1.20666 59.2750   1
   5   0   2 2149.40 299.779   1
   5   0   3 122.236 98.2781   1
   5   0   4 117.614 85.8635   1
   5   0   5 64.1869 82.2772   1
   5   0   6 198.682 104.142   1
   5   0   7 275.185 134.676   1
   5   0   8 5504.87 551.687   1
   5  -1 -11 170.451 127.475   1
   5  -1 -10 622.432 183.302   1
   5  -1  -9 2185.69 325.903   1
   5  -1  -8 89.7478 111.299   1
   5  -1  -7 1456.44 254.294   1
   5  -1  -6 163.656 85.2860   1
   5   1  -6 152.569 82.6312   1
   5  -1  -5-40.2106 92.3235   1
   5   1  -5 112.798 87.5447   1
   5  -1  -4-5.96410 69.7383   1
   5   1  -4 93.8110 79.9011   1
   5  -1  -3 471.554 150.859   1
   5   1  -3 406.082 136.252   1
   5  -1  -2 4859.42 444.688   1
   5   1  -2 5186.25 428.599   1
   5  -1  -1 9138.16 613.119   1
   5   1  -1 9364.43 585.318   1
   5   1   0 307.496 136.085   1
   5  -1   0 253.322 140.132   1
   5  -1   1 1701.75 269.744   1
   5   1   1 2072.70 277.366   1
   5   1   2 222.390 91.4684   1
   5  -1   2 138.731 100.328   1
   5   1   3 403.398 137.075   1
   5  -1   3 351.960 140.593   1
   5   1   4 173.402 95.6295   1
   5  -1   4 71.1860 76.8355   1
   5   1   5 1489.72 253.727   1
   5  -1   5 1708.91 289.880   1
   5   1   6 509.520 164.404   1
   5  -1   6 436.739 152.441   1
   5   1   7 226.919 137.556   1
   5  -1   7 155.493 115.881   1
   5   1   8 204.794 113.441   1
   5  -1   8 108.856 117.512   1
   5   1   9-90.5425 75.2105   1
   5  -2 -11 5974.62 559.395   3
   5  -2 -11 6581.27 600.986   1
   5  -2 -10 1282.19 262.833   1
   5  -2 -10 937.551 217.455   3
   5  -2  -9 1371.92 268.076   1
   5  -2  -9 1500.17 270.595   3
   5  -2  -8 65.3809 66.3563   1
   5  -2  -8 105.745 95.8606   3
   5  -2  -7 341.160 130.178   3
   5  -2  -7 351.080 154.977   1
   5  -2  -6 220.607 128.327   1
   5  -2  -5 3709.36 409.524   1
   5  -2  -4 803.010 198.788   1
   5  -2  -3-36.4434 88.0917   1
   5  -2  -2 384.818 161.190   1
   5   2  -2 408.163 123.754   1
   5  -2  -1 460.914 162.549   1
   5   2  -1 450.971 130.110   1
   5  -2   0 2147.54 317.839   1
   5   2   0 1788.86 253.444   1
   5   2   1 875.266 185.036   1
   5  -2   1 790.721 199.838   1
   5   2   2 231.758 103.800   1
   5  -2   2 376.176 146.040   1
   5   2   3 84.1785 92.6686   1
   5  -2   3 32.9516 72.1465   1
   5  -2   4 2189.91 324.667   1
   5   2   4 1914.60 279.207   1
   5  -2   5-50.2812 89.5051   1
   5   2   5 65.3624 63.8767   1
   5   2   6 89.8515 64.2271   1
   5  -2   6-7.11854 54.7350   1
   5   2   7-43.7209 47.5375   1
   5  -2   7 220.745 118.865   1
   5   2   8 261.890 124.279   1
   5  -2   8 154.461 106.529   1
   5   2   9 2233.99 356.248   1
   5  -3 -11 175.178 125.296   3
   5  -3 -10 824.280 215.243   3
   5  -3 -10 1127.74 263.920   1
   5  -3  -9 140.232 114.707   1
   5  -3  -9 102.399 94.9511   3
   5  -3  -8 2877.40 364.504   3
   5  -3  -8 2986.59 397.288   1
   5  -3  -7 124.464 98.3832   1
   5  -3  -6 2006.50 312.217   1
   5  -3  -5 128.832 129.067   1
   5  -3  -4 97.2020 104.978   1
   5  -3  -3 237.620 137.967   1
   5  -3  -2 2773.49 356.574   1
   5  -3  -1 3190.88 381.323   1
   5  -3   0 7357.22 579.245   1
   5  -3   1 825.345 196.720   1
   5  -3   2 195.727 102.793   1
   5   3   3 383.049 121.131   1
   5  -3   3 194.423 117.715   1
   5   3   4 1543.60 246.842   1
   5  -3   4 1641.91 286.270   1
   5  -3   5 67.1856 98.9679   1
   5   3   5-36.5481 62.7258   1
   5   3   6 534.918 176.263   1
   5  -3   6 365.857 145.901   1
   5   3   7 115.365 104.237   1
   5  -3   7 132.120 104.651   1
   5   3   8 4.39831 66.1709   1
   5   3   9 343.168 152.978   1
   5  -4 -10 1726.66 318.745   3
   5  -4  -9 1147.31 273.438   1
   5  -4  -9 1002.58 224.362   3
   5  -4  -8 654.242 193.531   1
   5  -4  -7 1793.68 316.181   1
   5  -4  -6 56.0425 79.7025   1
   5  -4  -5 3365.65 406.795   1
   5  -4  -4 1326.90 266.811   1
   5  -4  -3 3923.58 437.366   1
   5  -4  -2 1365.81 260.096   1
   5  -4  -1 71.7162 64.0119   1
   5  -4   0 295.330 122.959   1
   5  -4   1 1927.99 316.560   1
   5  -4   2 253.318 131.111   1
   5  -4   3 1986.83 326.538   1
   5  -4   4 493.125 181.167   1
   5  -4   5 307.307 103.697   1
   5  -4   6 233.755 128.313   1
   5  -4   7 209.493 124.043   1
   5  -5  -9 2122.27 336.894   3
   5  -5  -8 69.9985 62.9848   1
   5  -5  -7 191.745 103.258   1
   5  -5  -6 1518.32 297.089   1
   5  -5  -5 165.484 127.361   1
   5  -5  -4 12.3017 66.9935   1
   5  -5  -3 337.357 145.353   1
   5  -5  -2 193.060 108.437   1
   5  -5  -1 1789.63 299.218   1
   5  -5   0 156.492 115.178   1
   5  -5   1 282.279 136.597   1
   5  -5   2 140.644 95.8949   1
   5  -5   3 1034.70 236.613   1
   5  -5   4 1619.04 293.217   1
   5  -5   5 932.338 238.989   1
   5  -5   6 982.419 240.423   1
   5  -6  -7-16.7184 73.1746   1
   5  -6  -6 8790.88 709.198   1
   5  -6  -5 484.670 214.715   1
   5  -6  -4 3983.70 465.063   1
   5  -6  -3-9.23947 72.7774   1
   5  -6  -2 325.265 117.210   1
   5  -6  -1 523.710 188.494   1
   5  -6   0 337.872 155.991   1
   5  -6   1 166.722 93.1979   1
   5  -6   2 139.218 111.936   1
   5  -6   3 429.359 167.961   1
   5  -6   4 442.071 143.474   1
   5  -6   5 53.3857 115.620   1
   5  -7  -6 723.444 229.041   1
   5  -7  -5 422.887 183.805   1
   5  -7  -4 450.296 168.670   1
   5  -7  -3 138.136 109.415   1
   5  -7  -2 488.918 191.738   1
   5  -7  -1 500.845 156.319   1
   5  -7   0 543.812 194.163   1
   5  -7   1 750.986 221.940   1
   5  -7   2 95.2194 79.0196   1
   5  -7   3 968.926 245.525   1
   5  -7   4 1959.49 345.040   1
   5  -8  -3 1294.31 284.472   1
   5  -8  -2 74.1595 92.0923   1
   5  -8  -1 843.024 225.594   1
   5  -8   0 586.384 215.048   1
   5  -8   1 925.877 236.260   1
   6   0  -2 604.829 184.148   1
   6   0  -1 175.645 104.957   1
   6   0   0 683.784 192.266   1
   6   0   1-6.02529 55.8947   1
   6   0   2 140.524 92.9334   1
   6   0   3 17.7131 70.3891   1
   6  -1  -5-60.5392 64.6057   1
   6  -1  -4 81.4079 91.2513   1
   6  -1  -3 276.093 130.780   1
   6  -1  -2-2.76822 56.9322   1
   6  -1  -1 726.621 208.129   1
   6  -1   0 3405.28 425.586   1
   6  -1   1 498.582 167.463   1
   6  -1   2 282.926 126.869   1
   6   1   4 52.3955 76.0682   1
   6  -2  -5 316.233 120.923   1
   6  -2  -4 592.654 188.783   1
   6  -2  -3 1082.12 242.066   1
   6  -2  -2 652.094 189.500   1
   6  -2  -1 371.253 194.619   1
   6  -2   0-102.401 123.726   1
   6  -2   1 485.180 181.223   1
   0   0   0    0.00    0.00   0
TITL exp_258 in P2(1)/c
REM P2(1)/c (#14 in standard setting)
CELL 0.71073   4.104318  11.045758  12.046490  90.0000  93.7402  90.0000
ZERR    1.00   0.000173   0.000394   0.000385   0.0000   0.0032   0.0000
LATT  1
SYMM -x, y+1/2,-z+1/2
SFAC C H N S Cd
UNIT 20.00 20.00 6.00 2.00 1.00
TREF
HKLF 4
END
;
_shelx_hkl_checksum              73256
_shelx_res_file
;
    shelx.res created by SHELXL-2014/7
TITL 2-thiouracil in space group P 21/c
CELL  0.71073   4.1043  11.0458  12.0465   90.000   93.740   90.000
ZERR     4.00   0.0002   0.0004   0.0004    0.000    0.003    0.000
LATT   1
SYMM  - X, 1/2 + Y, 1/2 - Z
SFAC  C    H    N    O    S
UNIT  16   16   8    4    4
MERG   2
OMIT    -2.00  57.00
OMIT     0   2   2
OMIT    -1   4   6
OMIT    -1   4   5
OMIT     1   2   2
OMIT    -1   2   6
OMIT     0   8   0
OMIT     3  11   1
OMIT    -1   1   1
OMIT     0   0   6
OMIT     1   6   2
FMAP   2
PLAN   25
ACTA
BOND   $H
CONF
L.S.  10
TEMP    25.00
WGHT    0.042600    0.014700
FVAR       9.15049
C2    1    0.145504    0.153239    0.721313    11.00000    0.02995    0.02752 =
         0.02432   -0.00091    0.00134    0.00532
C4    1    0.289548    0.156500    0.527022    11.00000    0.04030    0.02763 =
         0.02361    0.00161    0.00309    0.00350
C5    1    0.458738    0.267925    0.549719    11.00000    0.04164    0.03220 =
         0.03010    0.00313    0.00534   -0.00349
AFIX  43
H5    2    0.570931    0.305835    0.494795    11.00000   -1.20000
AFIX   0
C6    1    0.452929    0.316923    0.651681    11.00000    0.03805    0.02610 =
         0.03610   -0.00054    0.00054   -0.00267
AFIX  43
H6    2    0.560020    0.389928    0.666447    11.00000   -1.20000
AFIX   0
N1    3    0.293669    0.262162    0.734132    11.00000    0.04196    0.02792 =
         0.02535   -0.00563    0.00211    0.00180
AFIX  43
H1    2    0.287294    0.298579    0.797052    11.00000   -1.20000
AFIX   0
N3    3    0.150276    0.104817    0.617226    11.00000    0.04014    0.02508 =
         0.02402   -0.00168    0.00349   -0.00144
AFIX  43
H3    2    0.057848    0.035524    0.606678    11.00000   -1.20000
AFIX   0
O1     4    0.258204    0.104987    0.435238    11.00000    0.06805    0.03423 =
         0.02265   -0.00138    0.00660   -0.00582
S1     5   -0.032204    0.082795    0.823788    11.00000    0.04559    0.03940 =
         0.02835    0.00031    0.01149   -0.00086
HKLF 4
REM  2-thiouracil in space group P 21/c
REM R1 =  0.0297 for    1169 Fo > 4sig(Fo)  and  0.0364 for all    1367 data
REM     73 parameters refined using      0 restraints
END
WGHT      0.0426      0.0147
REM Highest difference peak  0.239,  deepest hole -0.241,  1-sigma level  0.046
Q1    1   0.4878  0.2731  0.6121  11.00000  0.05    0.24
Q2    1   0.3663  0.2827  0.6895  11.00000  0.05    0.21
Q3    1   0.0660  0.1205  0.7595  11.00000  0.05    0.21
Q4    1   0.4566  0.2059  0.5468  11.00000  0.05    0.18
Q5    1   0.2968  0.2013  0.7368  11.00000  0.05    0.15
Q6    1   0.1075  0.0802  0.6169  11.00000  0.05    0.14
Q7    1   0.1818  0.1243  0.6733  11.00000  0.05    0.14
Q8    1   0.9073  0.3592  0.6938  11.00000  0.05    0.13
Q9    1   0.3152  0.2750  0.7642  11.00000  0.05    0.13
Q10   1  -0.1437  0.1525  0.8091  11.00000  0.05    0.13
Q11   1  -0.1097  0.3567  0.8135  11.00000  0.05    0.13
Q12   1  -0.1847 -0.0011  0.8092  11.00000  0.05    0.13
Q13   1  -0.2634  0.0593  0.6669  11.00000  0.05    0.13
Q14   1   0.0933  0.1262  0.4458  11.00000  0.05    0.13
Q15   1   0.4595  0.0676  0.7084  11.00000  0.05    0.12
Q16   1   0.3239  0.1189  0.4784  11.00000  0.05    0.12
Q17   1   0.7557  0.2171  0.7013  11.00000  0.05    0.12
Q18   1   0.7680  0.2129  0.3697  11.00000  0.05    0.11
Q19   1   0.1399 -0.0839  0.5307  11.00000  0.05    0.11
Q20   1   0.0886 -0.0056  0.8338  11.00000  0.05    0.11
Q21   1   0.1552  0.3365  0.5145  11.00000  0.05    0.10
Q22   1   0.5860  0.1956  0.6589  11.00000  0.05    0.10
Q23   1   0.2123  0.1430  0.5710  11.00000  0.05    0.10
Q24   1   0.1318  0.3551  0.5863  11.00000  0.05    0.10
Q25   1   0.6976  0.1569  0.6314  11.00000  0.05    0.10
;
_shelx_res_checksum              48261
loop_
_space_group_symop_operation_xyz
'x, y, z'
'-x, y+1/2, -z+1/2'
'-x, -y, -z'
'x, -y-1/2, z-1/2'
loop_
_atom_site_type_symbol
_atom_site_label
_atom_site_fract_x
_atom_site_fract_y
_atom_site_fract_z
_atom_site_U_iso_or_equiv
_atom_site_adp_type
_atom_site_calc_flag
_atom_site_occupancy
C C2 0.1455(3) 0.15324(11) 0.72131(10) 0.0273(3) Uani d 1
C C4 0.2895(3) 0.15650(11) 0.52702(10) 0.0305(3) Uani d 1
C C5 0.4587(3) 0.26792(12) 0.54972(11) 0.0345(3) Uani d 1
H H5 0.5709 0.3058 0.4948 0.041 Uiso calc 1
C C6 0.4529(3) 0.31692(12) 0.65168(10) 0.0335(3) Uani d 1
H H6 0.5600 0.3899 0.6664 0.040 Uiso calc 1
N N1 0.2937(3) 0.26216(9) 0.73413(8) 0.0317(3) Uani d 1
H H1 0.2873 0.2986 0.7971 0.038 Uiso calc 1
N N3 0.1503(3) 0.10482(9) 0.61723(8) 0.0297(2) Uani d 1
H H3 0.0578 0.0355 0.6067 0.036 Uiso calc 1
O O1 0.2582(3) 0.10499(9) 0.43524(8) 0.0415(3) Uani d 1
S S1 -0.03220(9) 0.08280(3) 0.82379(3) 0.03738(14) Uani d 1
loop_
_atom_site_aniso_label
_atom_site_aniso_U_11
_atom_site_aniso_U_22
_atom_site_aniso_U_33
_atom_site_aniso_U_12
_atom_site_aniso_U_13
_atom_site_aniso_U_23
C2 0.0299(6) 0.0275(6) 0.0243(6) 0.0053(5) 0.0013(4) -0.0009(4)
C4 0.0403(7) 0.0276(6) 0.0236(6) 0.0035(6) 0.0031(5) 0.0016(4)
C5 0.0416(8) 0.0322(7) 0.0301(6) -0.0035(6) 0.0053(5) 0.0031(5)
C6 0.0381(7) 0.0261(6) 0.0361(7) -0.0027(6) 0.0005(5) -0.0005(5)
N1 0.0420(6) 0.0279(5) 0.0254(5) 0.0018(5) 0.0021(4) -0.0056(4)
N3 0.0401(6) 0.0251(5) 0.0240(5) -0.0014(5) 0.0035(4) -0.0017(4)
O1 0.0680(7) 0.0342(5) 0.0226(5) -0.0058(5) 0.0066(4) -0.0014(3)
S1 0.0456(2) 0.0394(2) 0.0283(2) -0.00086(15) 0.01149(15) 0.00031(12)
loop_
_atom_type_symbol
_atom_type_description
_atom_type_scat_dispersion_real
_atom_type_scat_dispersion_imag
_atom_type_scat_source
C C 0.0033 0.0016 'International Tables Vol C Tables 4.2.6.8 and 6.1.1.4'
H H 0.0000 0.0000 'International Tables Vol C Tables 4.2.6.8 and 6.1.1.4'
N N 0.0061 0.0033 'International Tables Vol C Tables 4.2.6.8 and 6.1.1.4'
O O 0.0106 0.0060 'International Tables Vol C Tables 4.2.6.8 and 6.1.1.4'
S S 0.1246 0.1234 'International Tables Vol C Tables 4.2.6.8 and 6.1.1.4'
loop_
_geom_angle_atom_site_label_1
_geom_angle_atom_site_label_2
_geom_angle_atom_site_label_3
_geom_angle
N1 C2 N3 114.86(11)
N1 C2 S1 123.09(9)
N3 C2 S1 122.06(10)
O1 C4 N3 119.06(12)
O1 C4 C5 125.78(12)
N3 C4 C5 115.15(11)
C6 C5 C4 118.93(12)
C6 C5 H5 120.5
C4 C5 H5 120.5
C5 C6 N1 121.62(12)
C5 C6 H6 119.2
N1 C6 H6 119.2
C2 N1 C6 122.96(11)
C2 N1 H1 118.5
C6 N1 H1 118.5
C2 N3 C4 126.26(11)
C2 N3 H3 116.9
C4 N3 H3 116.9
loop_
_geom_bond_atom_site_label_1
_geom_bond_atom_site_label_2
_geom_bond_distance
C2 N1 1.3524(16)
C2 N3 1.3645(15)
C2 S1 1.6670(12)
C4 O1 1.2427(15)
C4 N3 1.3836(16)
C4 C5 1.4307(18)
C5 C6 1.3439(18)
C5 H5 0.9300
C6 N1 1.3654(16)
C6 H6 0.9300
N1 H1 0.8600
N3 H3 0.8600
loop_
_geom_hbond_atom_site_label_D
_geom_hbond_atom_site_label_H
_geom_hbond_atom_site_label_A
_geom_hbond_site_symmetry_A
_geom_hbond_distance_DH
_geom_hbond_distance_HA
_geom_hbond_distance_DA
_geom_hbond_angle_DHA
_geom_hbond_publ_flag
N1 H1 O1 4_566 0.86 1.99 2.8443(14) 175 no
N3 H3 O1 3_565 0.86 2.06 2.9057(15) 166 no
C5 H5 S1 4_665 0.86 2.97 3.9031(14) 176 no
C6 H6 S1 2_545 0.86 2.88 3.7780(14) 163 no
loop_
_geom_torsion_atom_site_label_1
_geom_torsion_atom_site_label_2
_geom_torsion_atom_site_label_3
_geom_torsion_atom_site_label_4
_geom_torsion
O1 C4 C5 C6 175.47(14)
N3 C4 C5 C6 -4.11(18)
C4 C5 C6 N1 0.9(2)
N3 C2 N1 C6 -3.66(18)
S1 C2 N1 C6 176.68(10)
C5 C6 N1 C2 3.3(2)
N1 C2 N3 C4 -0.03(19)
S1 C2 N3 C4 179.64(10)
O1 C4 N3 C2 -175.79(11)
C5 C4 N3 C2 3.8(2)
