#------------------------------------------------------------------------------
#$Date: 2022-02-22 05:00:00 +0200 (Tue, 22 Feb 2022) $
#$Revision: 273083 $
#$URL: file:///home/coder/svn-repositories/cod/cif/2/31/20/2312027.cif $
#------------------------------------------------------------------------------
#
# This file is available in the Crystallography Open Database (COD),
# http://www.crystallography.net/. The original data for this entry
# were provided by IUCr Journals, http://journals.iucr.org/.
#
# The file may be used within the scientific community so long as
# proper attribution is given to the journal article from which the
# data were obtained.
#
data_2312027
loop_
_publ_author_name
'Liu, Huang Huang'
'Liang, Chu Heng'
'Liu, Yan'
'Zhang, Hong Tao'
_publ_section_title
;
 A two-dimensional calcium (II) coordination polymer constructed from
 2,2'-[terephthaloylbis(azanediyl)]diacetate: synthesis, structure and
 properties.
;
_journal_coeditor_code           DG3022
_journal_issue                   'Pt 11'
_journal_name_full
'Acta crystallographica. Section C, Structural chemistry'
_journal_page_first              675
_journal_page_last               682
_journal_paper_doi               10.1107/S205322962101041X
_journal_volume                  77
_journal_year                    2021
_chemical_formula_iupac          '[Ca (C12 H10 N2 O6) (H2 O)2], H2 O'
_chemical_formula_moiety         'C12 H14 Ca N2 O8, H2 O'
_chemical_formula_sum            'C12 H16 Ca N2 O9'
_chemical_formula_weight         372.35
_chemical_name_systematic
;
Poly[[diaqua-[\m~4~-2,2'-[terephthaloylbis(azanediyl)]diacetato]calcium(II)]
monohydrate]
;
_space_group_crystal_system      triclinic
_space_group_IT_number           2
_space_group_name_Hall           '-P 1'
_space_group_name_H-M_alt        'P -1'
_atom_sites_solution_hydrogens   geom
_atom_sites_solution_primary     direct
_atom_sites_solution_secondary   difmap
_audit_creation_method           SHELXL-2014/7
_cell_angle_alpha                74.277(6)
_cell_angle_beta                 79.224(6)
_cell_angle_gamma                84.609(7)
_cell_formula_units_Z            2
_cell_length_a                   6.661(3)
_cell_length_b                   9.833(5)
_cell_length_c                   12.612(6)
_cell_measurement_reflns_used    2311
_cell_measurement_temperature    298(2)
_cell_measurement_theta_max      27.27
_cell_measurement_theta_min      2.37
_cell_volume                     780.3(6)
_computing_cell_refinement
;
SAINT (Bruker, 2004)
;
_computing_data_collection
;
APEX2 (Bruker, 2004)
;
_computing_data_reduction
;
SAINT (Bruker, 2004)
;
_computing_molecular_graphics
;
DIAMOND (Brandenburg, 2008)
;
_computing_publication_material
;
SHELXL2014 (Sheldrick, 2015)
;
_computing_structure_refinement
;
SHELXL2014 (Sheldrick, 2015)
;
_computing_structure_solution
;
SHELXS97 (Sheldrick, 2008)
;
_diffrn_ambient_temperature      298(2)
_diffrn_measured_fraction_theta_full 0.989
_diffrn_measured_fraction_theta_max 0.972
_diffrn_measurement_device_type  'Bruker APEXII CCD area detector'
_diffrn_measurement_method       'phi and omega scans'
_diffrn_radiation_type           MoK\a
_diffrn_radiation_wavelength     0.71073
_diffrn_reflns_av_R_equivalents  0.0298
_diffrn_reflns_av_unetI/netI     0.0564
_diffrn_reflns_limit_h_max       8
_diffrn_reflns_limit_h_min       -8
_diffrn_reflns_limit_k_max       12
_diffrn_reflns_limit_k_min       -12
_diffrn_reflns_limit_l_max       16
_diffrn_reflns_limit_l_min       -16
_diffrn_reflns_number            6752
_diffrn_reflns_theta_full        25.242
_diffrn_reflns_theta_max         27.524
_diffrn_reflns_theta_min         1.702
_diffrn_source                   'fine-focus sealed tube'
_exptl_absorpt_coefficient_mu    0.454
_exptl_absorpt_correction_T_max  0.9777
_exptl_absorpt_correction_T_min  0.9560
_exptl_absorpt_correction_type   multi-scan
_exptl_absorpt_process_details
;
(SADABS; Bruker, 2004)
;
_exptl_crystal_colour            colorless
_exptl_crystal_density_diffrn    1.585
_exptl_crystal_description       block
_exptl_crystal_F_000             388
_exptl_crystal_size_max          0.100
_exptl_crystal_size_mid          0.050
_exptl_crystal_size_min          0.050
_refine_diff_density_max         0.262
_refine_diff_density_min         -0.383
_refine_ls_extinction_method     none
_refine_ls_goodness_of_fit_ref   0.996
_refine_ls_hydrogen_treatment    constr
_refine_ls_matrix_type           full
_refine_ls_number_parameters     221
_refine_ls_number_reflns         3500
_refine_ls_number_restraints     6
_refine_ls_restrained_S_all      0.995
_refine_ls_R_factor_all          0.0747
_refine_ls_R_factor_gt           0.0417
_refine_ls_shift/su_max          0.001
_refine_ls_shift/su_mean         0.000
_refine_ls_structure_factor_coef Fsqd
_refine_ls_weighting_details
'w=1/[\s^2^(Fo^2^)+(0.0370P)^2^+0.2954P] where P=(Fo^2^+2Fc^2^)/3'
_refine_ls_weighting_scheme      calc
_refine_ls_wR_factor_gt          0.0827
_refine_ls_wR_factor_ref         0.0962
_reflns_number_gt                2466
_reflns_number_total             3500
_reflns_threshold_expression     'I > 2\s(I)'
_cod_data_source_file            dg3022sup1.cif
_cod_data_source_block           I
_cod_original_cell_volume        780.3(7)
_cod_database_code               2312027
_shelx_space_group_comment
;
The symmetry employed for this shelxl refinement is uniquely defined
by the following loop, which should always be used as a source of
symmetry information in preference to the above space-group names.
They are only intended as comments.
;
_shelx_estimated_absorpt_t_min   0.956
_shelx_estimated_absorpt_t_max   0.978
_shelx_hkl_file
;
  -1   0   0  696.74   11.79
  -1   0   0  660.63   12.50
  -2   0   0  945.00   15.66
  -2   0   0  968.96   19.37
  -2   0   0  948.76   17.71
  -3   0   0 2375.56   35.62
  -3   0   0 2451.37   42.46
  -3   0   0 2374.05   39.36
  -4   0   0  793.25   19.27
  -4   0   0  775.84   21.09
  -4   0   0  801.29   14.94
  -5   0   0   -5.12    4.07
  -5   0   0    3.37    5.71
  -6   0   0   73.11    9.69
  -6   0   0   61.93    8.35
  -7   0   0    0.75    6.31
  -7   0   0    4.03    6.62
  -8   0   0   25.81    9.48
   8   0   0   22.95    9.33
   8  -1   0   84.83   12.59
  -8   1   0   71.47   12.24
  -7   1   0   14.28    7.45
   7  -1   0   10.76    7.76
  -6   1   0  261.11   15.25
  -5   1   0  644.88   19.36
  -5   1   0  599.28   20.63
  -4   1   0  123.91    7.78
  -4   1   0  115.38    9.10
  -4   1   0  114.80    6.69
  -3   1   0   19.55    3.78
  -3   1   0   19.62    3.09
  -3   1   0   15.77    4.12
  -2   1   0   13.89    2.99
  -2   1   0   12.44    2.98
  -2   1   0   12.10    2.60
   1  -1   0  710.83   12.72
  -1   1   0  673.47   12.01
  -1   1   0  671.70   12.87
   0   1   0 1658.51   26.01
   0  -1   0 1681.26   25.17
   0   1   0 1608.81   24.64
   1   1   0  321.66    6.08
  -1  -1   0  327.70    6.76
  -1  -1   0  322.34    8.22
  -2  -1   0   29.26    4.35
  -2  -1   0   19.48    2.90
   2   1   0   28.97    2.35
  -3  -1   0 1871.66   27.55
  -3  -1   0 1820.02   31.29
  -3  -1   0 1743.70   34.18
  -4  -1   0  166.75    8.90
  -4  -1   0  194.96   11.27
  -5  -1   0   -1.31    3.96
  -5  -1   0    4.46    5.37
  -6  -1   0    2.91    4.98
  -6  -1   0    7.64    6.48
  -7  -1   0   16.23    7.54
  -7  -1   0   11.83    6.26
  -8  -1   0   -5.04    6.72
  -8  -1   0   -4.99    6.35
  -8   2   0   21.74    9.23
   8  -2   0   36.12   11.20
   7  -2   0   -0.49    7.64
  -7   2   0    8.43    6.75
   6  -2   0  121.66   12.02
  -6   2   0  109.54   10.47
  -5   2   0    6.55    5.45
   5  -2   0    6.33    6.64
  -4   2   0    0.71    3.29
   4  -2   0    1.30    5.17
  -4   2   0    7.28    4.22
  -3   2   0  156.31    8.14
  -3   2   0  164.09    7.46
   3  -2   0  161.54    9.13
  -2   2   0  359.30   10.56
  -2   2   0  360.67    9.82
   2  -2   0  358.27   10.86
  -1   2   0   42.45    3.89
   1  -2   0   32.87    4.11
  -1   2   0   36.90    3.70
   0  -2   0 2660.32   39.02
   0   2   0 2598.38   40.29
   0   2   0 2631.74   38.96
  -1  -2   0 1073.56   20.52
  -1  -2   0 1086.14   18.05
   1   2   0 1062.86   17.64
  -2  -2   0  279.87   10.54
  -2  -2   0  269.02    7.74
   2   2   0  261.07    6.23
   3   2   0    5.65    1.58
  -3  -2   0   10.67    3.01
  -3  -2   0    2.21    4.23
  -4  -2   0    7.74    3.52
  -4  -2   0   18.38    5.88
  -5  -2   0  950.09   23.20
  -5  -2   0  920.27   26.77
  -6  -2   0   30.28    8.70
  -6  -2   0   31.97    6.39
  -7  -2   0  209.41   13.29
  -7  -2   0  191.86   15.43
  -8  -2   0   -2.48    7.93
  -8   3   0   -9.99    6.83
   8  -3   0    7.20    9.93
  -7   3   0   13.52    7.60
   7  -3   0    7.58    8.67
  -6   3   0   59.36    9.42
   6  -3   0   57.99    9.89
   5  -3   0   64.46    9.54
  -5   3   0   33.40    7.23
  -4   3   0   52.39    6.74
  -4   3   0   39.30    5.19
   4  -3   0   46.82    7.49
   3  -3   0  398.06   13.69
  -3   3   0  428.21   13.73
  -3   3   0  396.63   12.30
  -2   3   0   85.14    5.97
  -2   3   0   82.70    6.21
   2  -3   0   81.24    6.86
  -1   3   0  787.28   16.34
  -1   3   0  781.63   16.47
   1  -3   0  790.35   16.49
   0   3   0  842.48   16.92
   0   3   0  852.20   16.80
   0  -3   0  868.73   16.57
  -1  -3   0   -0.53    2.41
  -1  -3   0    3.45    3.42
   1   3   0    4.06    2.15
  -2  -3   0   59.19    7.13
  -2  -3   0   68.46    4.67
   2   3   0   59.76    4.10
   3   3   0  675.70   12.93
  -3  -3   0  669.37   19.23
  -3  -3   0  678.92   15.55
  -4  -3   0   -0.88    3.46
  -4  -3   0    5.58    6.03
  -5  -3   0  422.32   18.58
  -5  -3   0  435.06   15.05
  -6  -3   0  579.22   18.68
  -6  -3   0  550.69   22.89
  -7  -3   0  115.08   12.92
  -8  -3   0   15.56    9.13
  -7   4   0   59.07   10.39
   7  -4   0   60.58   11.56
   6  -4   0   13.78    8.40
  -6   4   0   34.69    7.99
  -5   4   0  196.62   12.48
   5  -4   0  181.79   13.53
  -5   4   0  137.25    9.68
  -4   4   0  234.61   12.28
   4  -4   0  221.87   13.30
  -4   4   0  229.23   11.44
  -3   4   0  224.03   10.50
  -3   4   0  219.31   10.44
   3  -4   0  218.68   11.76
  -2   4   0  278.58   10.69
   2  -4   0  279.77   11.36
  -2   4   0  288.44   10.50
   1  -4   0  113.48    7.32
  -1   4   0  100.75    6.23
  -1   4   0   94.43    6.63
   0  -4   0  651.58   14.78
   0   4   0  633.12   15.15
   0   4   0  643.14   15.11
  -1  -4   0  755.87   16.08
  -1  -4   0  773.98   18.33
   1   4   0  750.01   16.27
  -2  -4   0  152.89    6.97
   2   4   0  151.68    6.70
  -2  -4   0  180.41   10.44
   3   4   0  169.63    6.67
  -3  -4   0  158.31    7.65
  -3  -4   0  199.60   11.40
  -4  -4   0  123.87    7.91
  -4  -4   0  120.31   11.39
  -5  -4   0   22.42    8.80
  -5  -4   0   23.54    5.52
  -6  -4   0  307.90   14.02
  -6  -4   0  325.39   18.14
  -7  -4   0    1.39    8.00
  -8  -4   0   37.66   11.73
   7  -5   0  -16.74    8.64
  -7   5   0    1.32    7.17
  -6   5   0  347.04   17.55
   6  -5   0  329.56   17.83
  -5   5   0  109.67   10.57
   5  -5   0  104.74   12.48
  -5   5   0  104.90   10.39
  -4   5   0  351.41   14.86
  -4   5   0  336.79   14.85
   4  -5   0  333.68   16.39
  -3   5   0   31.07    5.96
  -3   5   0   36.88    6.09
   3  -5   0   49.31    7.91
  -2   5   0  229.04   10.76
   2  -5   0  229.46   11.26
  -2   5   0  231.22   10.24
  -1   5   0  260.98   10.72
  -1   5   0  260.39   10.29
   1  -5   0  278.53   11.11
   0  -5   0   79.35    7.48
   0   5   0   94.85    6.86
   0   5   0   88.36    6.97
  -1  -5   0  147.63    7.57
   1   5   0  147.73    7.99
  -1  -5   0  159.81    9.90
   2   5   0    1.75    2.79
  -2  -5   0    2.84    3.25
  -2  -5   0    4.61    5.43
  -3  -5   0  133.99   11.95
  -3  -5   0  151.32    8.01
   3   5   0  146.48    7.20
  -4  -5   0  109.02   13.26
  -4  -5   0  102.53    7.79
  -5  -5   0   38.01    9.29
  -5  -5   0   36.79    6.13
  -6  -5   0    5.03    8.46
  -7  -5   0   33.41   10.89
  -7   6   0   32.78    9.90
   7  -6   0   31.60   11.80
  -6   6   0  156.92   13.30
   6  -6   0  151.69   14.83
  -5   6   0   79.59    9.48
   5  -6   0   82.02   11.52
  -5   6   0  107.87   10.79
  -4   6   0    6.85    5.56
  -4   6   0    2.52    4.92
   4  -6   0   13.92    7.64
  -3   6   0  180.45   10.96
   3  -6   0  176.86   12.62
  -3   6   0  165.75   11.20
  -2   6   0  181.61   10.76
   2  -6   0  167.50   11.22
  -2   6   0  150.70    9.48
  -1   6   0   79.73    7.57
  -1   6   0   78.83    7.84
   1  -6   0   79.15    8.74
   0  -6   0  476.28   14.66
   0   6   0  445.50   14.50
   0   6   0  496.90   15.50
   1   6   0  127.06    8.42
  -1  -6   0  110.91    7.86
  -1  -6   0  133.71   10.61
  -2  -6   0   22.11    7.82
   2   6   0   39.12    5.15
  -2  -6   0   45.05    5.72
  -3  -6   0  724.58   18.36
  -3  -6   0  736.95   24.03
   3   6   0  724.98   17.82
  -4  -6   0  465.98   20.35
  -4  -6   0  468.02   15.11
  -5  -6   0   18.43    9.38
  -6  -6   0  111.46   14.56
  -7  -6   0   56.89   12.70
   6  -7   0   14.49    9.73
  -6   7   0    2.86    6.82
  -5   7   0    9.77    6.83
  -5   7   0    6.20    6.16
   5  -7   0   26.07    9.40
   4  -7   0    1.36    7.27
  -4   7   0    7.91    5.25
  -4   7   0    2.56    5.71
  -3   7   0   28.34    6.43
  -3   7   0   30.31    7.16
   3  -7   0   32.14    8.18
   2  -7   0   -4.90    6.88
  -2   7   0   -0.52    4.97
  -2   7   0   -1.25    4.41
  -1   7   0  547.16   17.48
  -1   7   0  534.93   18.18
   1  -7   0  551.26   18.05
   0  -7   0   63.70    7.65
   0   7   0   52.31    7.14
   1   7   0  319.06   13.56
  -1  -7   0  336.74   13.39
  -1  -7   0  315.18   15.30
   2   7   0   37.89    5.99
  -2  -7   0   42.62    6.44
  -2  -7   0   54.72    9.93
  -3  -7   0  420.02   14.85
  -3  -7   0  444.84   20.37
   3   7   0  411.03   14.37
  -4  -7   0   -8.99    7.78
  -5  -7   0    0.51    8.14
  -6  -7   0  174.07   17.64
  -7  -7   0   58.15   13.87
  -6   8   0   63.13   11.21
   6  -8   0   69.21   13.55
   5  -8   0   12.45    9.42
  -5   8   0   16.14    7.52
  -5   8   0   25.61    7.43
   4  -8   0   41.79    9.97
  -4   8   0   56.19    9.11
  -4   8   0   39.58    8.06
  -3   8   0   48.49    8.55
  -3   8   0   63.73    8.58
   3  -8   0   51.94    9.76
  -2   8   0   44.65    7.83
  -2   8   0   38.52    7.10
   2  -8   0   37.97    8.86
  -1   8   0  679.59   21.75
   1  -8   0  651.40   21.09
  -1   8   0  654.83   20.46
   0  -8   0  120.55   11.19
   0   8   0  105.09   10.21
   0  -8   0  113.73   12.67
  -1  -8   0  102.56   12.30
  -1  -8   0  116.43   10.36
   1   8   0  114.35   10.01
  -2  -8   0  465.70   20.48
  -2  -8   0  484.73   16.34
   2   8   0  475.71   17.02
  -3  -8   0  391.46   19.97
  -4  -8   0  333.64   19.83
  -5  -8   0   53.99   12.29
  -6  -8   0   -2.89    9.97
  -5   9   0   -3.69    6.89
   5  -9   0   -5.35    8.87
  -5   9   0   22.10    8.01
   4  -9   0   13.08    9.06
  -4   9   0   16.18    7.50
  -4   9   0   11.98    6.55
  -3   9   0   22.54    6.81
   3  -9   0   21.75    8.77
  -3   9   0   11.86    7.04
   2  -9   0  340.39   16.78
  -2   9   0  354.03   17.32
  -2   9   0  362.91   16.59
  -1   9   0   71.40    9.19
  -1   9   0   61.06    8.89
   1  -9   0   55.11    9.08
   0  -9   0  169.67   13.31
   0  -9   0  147.70   11.42
   0   9   0  164.59   12.30
  -1  -9   0   -1.97    5.95
   1   9   0   14.90    5.80
  -1  -9   0   13.24    8.46
   2   9   0    3.95    4.76
  -2  -9   0   -9.03    8.47
  -3  -9   0    0.96    8.85
  -4  -9   0   16.08   10.62
  -5  -9   0   -6.98    9.91
  -6  -9   0   36.13   13.79
  -4  10   0  -11.66    5.94
   4 -10   0   -0.65    8.78
   3 -10   0    4.93    8.71
  -3  10   0   -1.59    6.26
  -2  10   0   -0.11    5.73
   2 -10   0   -7.22    7.05
  -2  10   0   -1.49    5.74
  -1  10   0   35.06    8.19
   1 -10   0   46.33    9.08
   0 -10   0   -7.34    6.57
   0  10   0   -1.79    5.56
   0 -10   0   10.80    8.64
   1  10   0   98.43   10.89
  -1 -10   0   88.99   12.13
   2  10   0   89.48   10.52
  -2 -10   0   61.77   12.00
  -3 -10   0   48.02   11.90
  -4 -10   0   35.02   11.85
  -5 -10   0    5.56   11.59
   3 -11   0    6.31    8.65
  -3  11   0   -9.03    6.88
  -2  11   0   -7.19    6.00
   2 -11   0  -11.76    7.37
  -1  11   0  100.98   12.22
   1 -11   0   71.02   11.00
   0  11   0   13.90    7.07
   1  11   0   29.74    8.31
   2  11   0    1.62    5.74
  -1  12   0   -5.93    6.77
   0  12   0   27.71    8.82
   1  12   0   20.85    8.17
   1  12  -1    1.14    6.56
   0  12  -1   26.94    9.13
  -3 -11   1   27.15   12.63
  -2 -11   1  -11.40    9.96
   2  11  -1    2.04    5.78
   1  11  -1  136.83   13.04
  -1 -11   1  143.68   15.68
   0 -11   1   17.00    9.78
   0  11  -1   -5.44    5.35
  -1  11  -1   20.89    7.75
   1 -11   1   20.94    9.93
  -2  11  -1    7.64    7.38
   2 -11   1   10.56    8.81
  -3  11  -1   43.31   10.21
   3 -11   1   23.96   10.27
  -4 -10   1   42.26   12.98
  -3 -10   1  213.41   18.25
  -2 -10   1   -6.59    8.91
   2  10  -1    1.11    5.03
   1  10  -1   -0.76    5.12
  -1 -10   1   13.16    9.33
   0 -10   1  127.41   13.60
   0  10  -1  116.23   11.29
   1 -10   1   97.90   11.01
  -1  10  -1  104.77   11.50
   2 -10   1  -13.45    6.55
  -2  10  -1    0.32    6.30
  -2  10  -1    3.15    6.11
  -3  10  -1    9.95    6.90
   3 -10   1   13.52    8.64
  -3  10  -1   10.29    7.30
  -4  10  -1    7.66    7.60
  -4  10  -1    8.38    7.80
   4 -10   1    6.92    9.71
  -5  -9   1   -4.83   10.69
  -4  -9   1  -10.21    9.32
  -3  -9   1   64.17   12.32
   2   9  -1    5.59    4.80
  -2  -9   1   17.45    9.74
  -1  -9   1   12.76    9.03
   1   9  -1    0.22    4.89
   0  -9   1  237.32   15.97
   0  -9   1  245.89   13.31
   0   9  -1  246.55   14.31
  -1   9  -1   15.84    7.09
   1  -9   1   25.20    7.59
  -1   9  -1   11.63    6.10
   2  -9   1   22.16    8.56
  -2   9  -1    2.29    5.77
  -2   9  -1   10.74    6.25
   3  -9   1   16.68    8.60
  -3   9  -1   19.42    7.19
  -3   9  -1   11.37    6.68
  -4   9  -1    2.66    6.55
  -4   9  -1    1.27    6.18
   4  -9   1   11.00    8.68
   5  -9   1   14.72   10.26
  -5   9  -1    8.38    7.86
  -5   9  -1    4.54    6.79
  -6  -8   1   11.29   11.78
  -5  -8   1  -10.04    9.20
  -4  -8   1    4.64    9.41
  -3  -8   1    8.84    8.86
   3   8  -1   13.31    4.91
  -2  -8   1   -2.99    8.02
   2   8  -1   -0.76    3.98
   1   8  -1   60.06    8.11
  -1  -8   1   59.44   10.07
  -1  -8   1   64.85    8.17
   0  -8   1   30.79    8.71
   0   8  -1   33.44    6.73
   0  -8   1   27.45    6.81
  -1   8  -1  174.79   11.84
  -1   8  -1  171.83   11.69
   1  -8   1  184.98   11.99
   2  -8   1  430.79   17.66
  -2   8  -1  460.08   18.51
  -2   8  -1  437.63   17.54
  -3   8  -1   75.10    9.58
   3  -8   1   99.33   11.43
  -3   8  -1   73.94    9.68
   4  -8   1   42.05    9.84
  -4   8  -1   44.11    8.43
  -4   8  -1   36.08    8.21
   5  -8   1   80.61   12.27
  -5   8  -1   87.75   11.31
  -5   8  -1   94.70   11.70
   6  -8   1   55.18   12.81
  -6   8  -1   45.58   10.46
  -6  -7   1   54.45   12.87
  -5  -7   1    9.83    9.72
  -4  -7   1  203.04   15.61
  -3  -7   1  229.90   16.76
   3   7  -1  239.61   11.43
  -2  -7   1   53.45   10.28
   2   7  -1   41.05    6.15
  -2  -7   1   49.34    6.39
   1   7  -1  280.62   13.00
  -1  -7   1  288.83   12.20
  -1  -7   1  280.66   15.55
   0  -7   1   85.08    9.64
   0   7  -1   99.39    9.23
   0  -7   1   90.83    8.72
  -1   7  -1    1.76    5.01
   1  -7   1    2.23    6.03
  -1   7  -1   -1.83    4.38
   2  -7   1  224.13   14.13
  -2   7  -1  251.66   13.36
  -2   7  -1  260.66   13.35
  -3   7  -1  362.64   15.89
   3  -7   1  337.78   16.11
  -3   7  -1  336.97   15.71
  -4   7  -1   40.46    7.87
   4  -7   1   37.09    8.90
  -4   7  -1   41.54    8.17
   5  -7   1  373.87   19.25
  -5   7  -1  362.02   18.02
  -5   7  -1  346.50   17.63
  -6   7  -1   15.29    8.00
   6  -7   1   37.22   11.22
  -7  -6   1   11.48   10.96
  -6  -6   1   19.82   10.66
  -5  -6   1  184.42   15.57
  -4  -6   1  865.55   28.28
  -3  -6   1  315.65   17.71
   3   6  -1  300.20   11.67
  -3  -6   1  323.04   11.59
  -2  -6   1   33.61    8.70
  -2  -6   1   30.91    5.08
   2   6  -1   24.75    4.96
  -1  -6   1  255.99   10.45
  -1  -6   1  234.23   13.53
   1   6  -1  239.01   11.08
   0  -6   1   -0.03    4.55
   0   6  -1    8.71    4.08
   0   6  -1   -2.47    3.65
  -1   6  -1   11.19    4.56
   1  -6   1   10.39    5.44
  -1   6  -1   10.81    4.31
  -2   6  -1  186.04   10.72
   2  -6   1  162.65   11.22
  -2   6  -1  177.24   10.76
  -3   6  -1  239.81   12.87
   3  -6   1  268.41   13.51
  -3   6  -1  270.27   13.38
   4  -6   1   15.21    7.68
  -4   6  -1   12.96    5.69
  -4   6  -1   14.92    5.61
   5  -6   1    9.48    8.25
  -5   6  -1    8.69    5.85
  -5   6  -1    5.52    6.05
  -6   6  -1  182.76   14.51
   6  -6   1  219.76   16.43
   7  -6   1   31.58   11.76
  -7   6  -1   31.72    9.42
  -7  -5   1   73.94   13.53
  -6  -5   1    6.48    8.92
  -5  -5   1    1.86    7.84
  -4  -5   1  126.55   14.23
  -4  -5   1  133.82    8.29
  -3  -5   1  204.38   14.27
   3   5  -1  194.04    8.67
  -3  -5   1  211.44    8.79
  -2  -5   1   15.46    3.81
   2   5  -1   14.75    3.52
  -2  -5   1   18.52    6.74
   1   5  -1  362.94   12.25
  -1  -5   1  402.05   14.89
  -1  -5   1  407.52   11.58
   0   5  -1  153.88    8.31
   0  -5   1  147.05    7.81
   0   5  -1  150.91    8.56
  -1   5  -1   55.39    6.54
  -1   5  -1   43.44    5.52
   1  -5   1   53.98    5.91
  -2   5  -1   77.77    7.43
  -2   5  -1   56.99    6.23
   2  -5   1   75.53    8.27
  -3   5  -1  382.70   14.38
   3  -5   1  394.14   15.66
  -3   5  -1  378.65   14.75
  -4   5  -1   70.21    7.89
   4  -5   1   81.93   10.32
  -4   5  -1   61.48    7.91
  -5   5  -1   -0.95    4.86
  -5   5  -1   11.83    6.05
   5  -5   1   -2.29    7.24
   6  -5   1  212.43   15.90
  -6   5  -1  199.03   14.40
  -7   5  -1   12.37    8.29
   7  -5   1   13.23   10.20
  -7  -4   1   -0.32    8.47
  -6  -4   1  427.42   21.80
  -5  -4   1   27.47    9.16
  -4  -4   1  907.48   27.47
  -4  -4   1  895.00   20.30
   3   4  -1  172.05    7.40
  -3  -4   1  193.70   12.78
  -3  -4   1  174.32    7.53
  -2  -4   1   -1.21    2.33
  -2  -4   1   -3.50    5.00
   2   4  -1   -2.31    2.09
   1   4  -1  433.67   12.07
  -1  -4   1  432.23   10.93
  -1  -4   1  436.58   13.84
   0  -4   1 1993.97   32.91
   0   4  -1 2005.28   35.52
   0   4  -1 1983.43   34.28
   1  -4   1 1345.79   25.04
  -1   4  -1 1343.94   26.44
  -1   4  -1 1303.90   25.59
  -2   4  -1  116.69    7.54
  -2   4  -1  117.49    7.78
   2  -4   1  110.12    8.37
   3  -4   1  516.50   16.71
  -3   4  -1  522.98   15.46
  -3   4  -1  520.45   16.34
   4  -4   1  215.50   13.04
  -4   4  -1  202.18   11.72
  -4   4  -1  211.94   10.93
  -5   4  -1   -4.57    4.80
  -5   4  -1   -4.45    3.82
   5  -4   1    9.68    7.29
   6  -4   1   14.62    8.52
  -6   4  -1   23.55    7.29
   7  -4   1   12.40    9.32
  -7   4  -1   -0.77    6.46
  -8  -3   1   53.46   12.97
  -7  -3   1   49.99   10.60
  -6  -3   1  124.32   13.58
  -5  -3   1  420.52   14.32
  -5  -3   1  373.66   19.23
  -4  -3   1  151.82    8.05
  -4  -3   1  135.67   11.68
  -3  -3   1  471.08   17.02
  -3  -3   1  470.37   12.02
   2   3  -1   30.99    3.20
  -2  -3   1   27.47    5.57
  -2  -3   1   28.69    3.13
   1   3  -1  535.31   12.31
  -1  -3   1  538.70   14.77
  -1  -3   1  546.02   11.25
   0   3  -1 1994.98   32.71
   0   3  -1 1995.94   34.05
   0  -3   1 2008.51   31.58
   1  -3   1  132.24    6.82
  -1   3  -1  135.34    6.77
  -1   3  -1  134.13    6.81
  -2   3  -1   90.47    6.25
   2  -3   1   78.21    6.75
  -2   3  -1   93.00    6.38
  -3   3  -1 1775.29   31.69
   3  -3   1 1726.67   33.49
  -3   3  -1 1809.00   34.81
  -4   3  -1  174.35   10.76
   4  -3   1  188.37   11.99
  -4   3  -1  194.57    9.49
   5  -3   1   77.71   10.23
  -5   3  -1   98.97    9.89
  -6   3  -1   68.48    9.56
   6  -3   1   70.20   10.70
   7  -3   1   41.42   10.28
  -7   3  -1   48.08    9.16
   8  -3   1   23.62   10.98
  -8   3  -1   -1.75    8.17
  -8  -2   1   29.86   10.08
  -7  -2   1  121.15   12.67
  -6  -2   1   15.89    5.66
  -6  -2   1   17.48    7.71
  -5  -2   1  404.62   14.22
  -5  -2   1  396.75   18.58
  -4  -2   1    3.91    5.71
  -4  -2   1    0.65    3.08
  -3  -2   1 2745.62   49.74
   3   2  -1 2770.53   41.38
  -3  -2   1 2804.30   43.64
  -2  -2   1  634.66   12.59
   2   2  -1  602.25   12.27
  -2  -2   1  650.47   16.76
   1   2  -1 3503.28   51.66
  -1  -2   1 3590.91   51.35
  -1  -2   1 3635.16   56.18
   0   2  -1   97.50    5.67
   0   2  -1  104.74    6.10
   0  -2   1  112.30    5.29
   1  -2   1 1280.00   21.88
  -1   2  -1 1268.91   21.86
  -1   2  -1 1278.16   23.00
   2  -2   1  624.01   14.67
  -2   2  -1  602.10   13.34
  -2   2  -1  597.71   14.75
  -3   2  -1  154.31    7.12
  -3   2  -1  152.19    8.44
  -4   2  -1   42.59    6.47
  -4   2  -1   45.55    4.75
  -5   2  -1   27.89    6.81
   6  -2   1   21.99    7.93
  -6   2  -1   28.93    7.09
   7  -2   1    3.02    7.68
  -7   2  -1   -2.96    5.78
  -8   2  -1   14.34    7.87
   8  -2   1   -4.79    8.60
  -8  -1   1  -12.88    7.11
  -7  -1   1   -1.69    6.06
  -7  -1   1    7.65    7.51
  -6  -1   1   -2.11    4.53
  -6  -1   1   -7.36    5.64
  -5  -1   1   42.75    6.41
  -5  -1   1   52.36    8.85
  -4  -1   1  109.37    7.30
  -4  -1   1  102.54    6.93
  -4  -1   1   89.53    9.63
  -3  -1   1   64.03    7.99
  -3  -1   1   63.22    5.30
  -2  -1   1   74.47    6.45
   2   1  -1   67.08    3.80
  -2  -1   1   60.07    4.11
   1   1  -1  127.01    4.66
  -1  -1   1  130.36    6.42
  -1  -1   1  136.45    3.95
   0   1  -1 1218.41   20.00
   0  -1   1 1189.01   18.84
   0   1  -1 1209.23   19.04
  -1   1  -1   76.68    4.04
  -1   1  -1   73.30    4.14
  -1   1  -1   79.91    4.16
  -2   1  -1  439.92    9.69
  -2   1  -1  436.50   10.96
  -2   1  -1  459.84   11.91
  -3   1  -1  584.32   15.89
  -3   1  -1  587.34   15.00
  -3   1  -1  589.06   12.41
  -4   1  -1   26.39    5.05
  -4   1  -1   31.37    5.72
  -4   1  -1   31.31    3.54
  -5   1  -1    0.48    5.11
  -5   1  -1    5.39    5.07
  -6   1  -1   31.15    7.23
  -6   1  -1   26.67    6.89
  -7   1  -1   30.74    8.61
  -8   1  -1   58.58   11.56
   8  -1   1   64.61   11.53
   8   0  -1  -11.78    8.17
  -8   0   1   15.60    8.47
   7   0  -1   15.51    7.80
  -7   0   1    1.45    6.23
  -6   0   1    5.53    6.44
  -6   0   1   -6.34    4.59
  -5   0   1   12.54    4.97
  -5   0   1    4.38    6.03
  -4   0   1   39.03    4.29
  -4   0   1   35.73    6.45
  -4   0   1   30.98    4.95
  -3   0   1  135.72    7.02
  -3   0   1  132.77    8.70
  -3   0   1  135.63    6.82
  -2   0   1 1909.35   29.17
  -2   0   1 1799.75   29.61
  -2   0   1 1912.17   32.95
  -1   0   1  116.61    5.15
   1   0  -1  114.42    3.84
  -1   0   1  109.20    3.60
   0   0  -1  477.86    8.30
  -1   0  -1   20.68    2.60
  -1   0  -1   19.43    1.73
  -1   0  -1   16.56    1.99
  -2   0  -1 3188.10   46.24
  -2   0  -1 3309.44   48.62
  -2   0  -1 3147.11   50.29
  -3   0  -1   61.50    3.63
  -3   0  -1   66.49    5.27
  -3   0  -1   62.55    5.83
  -4   0  -1  904.81   23.02
  -4   0  -1  928.04   21.53
  -4   0  -1  928.76   15.92
  -5   0  -1    8.42    4.80
  -5   0  -1   10.68    5.79
  -6   0  -1 1409.10   35.90
  -6   0  -1 1422.07   33.19
  -7   0  -1   25.24    8.38
  -7   0  -1   19.44    7.50
  -8   0  -1   68.48   11.68
  -8   1   1   24.01    9.44
   8  -1  -1   36.67   10.89
   7  -1  -1   93.62   11.89
  -7   1   1  101.65   12.14
  -6   1   1   65.53    9.41
   6  -1  -1   59.18    9.19
  -5   1   1  105.69   10.58
  -4   1   1  367.29   14.02
  -4   1   1  376.76   11.54
  -3   1   1  257.62   10.67
  -3   1   1  254.69    8.89
  -2   1   1   99.48    5.25
  -2   1   1  120.72    6.22
   2  -1  -1  107.39    6.32
   1  -1  -1  718.92   13.24
  -1   1   1  718.58   13.38
  -1   1   1  712.82   13.36
   0   1   1 1374.60   21.17
   0  -1  -1 1387.04   21.27
  -1  -1  -1  748.01   13.13
  -1  -1  -1  752.77   13.69
  -2  -1  -1  790.78   16.95
  -2  -1  -1  782.38   15.56
  -3  -1  -1   -0.73    2.51
  -3  -1  -1   -1.44    3.16
  -4  -1  -1  280.37   10.90
  -4  -1  -1  263.77   12.38
  -5  -1  -1   27.28    5.70
  -5  -1  -1   19.50    6.26
  -6  -1  -1  703.30   21.54
  -6  -1  -1  653.49   23.03
  -7  -1  -1   21.53    7.06
  -7  -1  -1   29.90    8.51
  -8  -1  -1   39.83   10.75
  -8  -1  -1   52.20   10.28
   8  -2  -1   79.89   12.96
  -8   2   1   68.31   12.17
  -7   2   1   92.07   11.70
   7  -2  -1   75.58   11.16
   6  -2  -1  217.52   14.18
  -6   2   1  224.37   14.25
  -5   2   1   18.20    6.28
   5  -2  -1    8.92    6.87
  -4   2   1   41.04    6.36
  -4   2   1   32.50    4.91
   4  -2  -1   42.10    6.92
  -3   2   1  474.91   14.26
   3  -2  -1  457.74   13.94
   2  -2  -1  846.15   17.59
  -2   2   1  842.72   17.62
  -2   2   1  801.73   16.82
   1  -2  -1  401.95   10.56
  -1   2   1  380.45   10.57
  -1   2   1  389.99    9.18
   0  -2  -1 2425.89   36.49
   0   2   1 2405.79   36.82
   0   2   1 2411.30   36.13
  -1  -2  -1  260.23    7.51
   1   2   1  255.48    6.66
   2   2   1  101.05    3.29
  -2  -2  -1  103.78    5.68
  -2  -2  -1   92.66    6.82
  -3  -2  -1 1226.01   23.48
  -3  -2  -1 1201.88   25.77
  -4  -2  -1    2.48    3.32
  -4  -2  -1    0.26    4.11
  -5  -2  -1  139.64   11.91
  -5  -2  -1  125.75    9.54
  -6  -2  -1   58.25    7.85
  -6  -2  -1   54.05    9.48
  -7  -2  -1  151.07   11.95
  -7  -2  -1  161.30   13.53
  -8  -2  -1   -3.23    7.76
  -8  -2  -1    3.28    6.07
  -8   3   1   -9.01    6.80
   8  -3  -1  -10.62    9.30
   7  -3  -1  130.15   14.14
  -7   3   1  151.83   13.49
  -6   3   1   90.56    9.85
   6  -3  -1   94.29   11.27
   5  -3  -1  594.72   20.68
  -5   3   1  616.52   20.80
   4  -3  -1   72.41    8.45
  -4   3   1   75.01    8.03
  -3   3   1  262.99   10.38
   3  -3  -1  273.47   11.72
  -3   3   1  251.63   10.43
  -2   3   1 1007.38   20.59
  -2   3   1  993.70   20.42
   2  -3  -1 1015.16   21.19
   1  -3  -1  732.93   15.80
  -1   3   1  733.66   14.91
  -1   3   1  739.57   15.96
   0   3   1   -1.55    2.04
   0   3   1    1.57    2.82
   0  -3  -1    5.79    3.29
  -1  -3  -1  521.50   12.59
  -1  -3  -1  527.05   12.15
   1   3   1  526.48   11.43
  -2  -3  -1  101.77    5.72
  -2  -3  -1  102.97    7.23
   2   3   1   93.91    4.39
  -3  -3  -1  907.03   19.38
  -3  -3  -1  901.28   22.21
   3   3   1  869.98   14.68
  -4  -3  -1   24.70    6.18
  -4  -3  -1   17.64    4.35
  -5  -3  -1    6.55    4.29
  -5  -3  -1    4.46    6.00
  -6  -3  -1  351.91   14.77
  -6  -3  -1  337.11   17.24
  -7  -3  -1  278.89   14.46
  -7  -3  -1  221.94   16.52
  -8  -3  -1   -1.77    7.13
   7  -4  -1   36.82   10.81
  -7   4   1   36.57    9.37
   6  -4  -1   22.10    9.02
  -6   4   1   26.30    7.70
  -5   4   1  285.66   14.61
   5  -4  -1  333.75   16.71
   4  -4  -1  281.77   14.68
  -4   4   1  312.27   13.11
  -4   4   1  274.75   12.66
  -3   4   1  595.01   16.88
  -3   4   1  608.21   17.08
   3  -4  -1  610.40   17.80
  -2   4   1 2239.10   38.48
   2  -4  -1 2182.54   38.68
  -2   4   1 2173.55   38.18
   1  -4  -1  481.05   13.16
  -1   4   1  478.73   13.50
  -1   4   1  501.29   12.39
   0  -4  -1    0.91    3.28
   0   4   1    4.36    2.35
   0   4   1    2.86    2.90
  -1  -4  -1  430.85   11.78
   1   4   1  450.18   11.61
  -1  -4  -1  445.97   12.57
  -2  -4  -1 1343.89   27.77
  -2  -4  -1 1393.45   25.40
   2   4   1 1347.59   23.55
   3   4   1  802.59   15.26
  -3  -4  -1  820.65   18.47
  -3  -4  -1  806.81   21.88
  -4  -4  -1   19.56    6.98
  -4  -4  -1   13.13    4.44
  -5  -4  -1    2.15    6.36
  -5  -4  -1    3.30    4.36
  -6  -4  -1  366.28   19.17
  -6  -4  -1  357.33   14.99
  -7  -4  -1    6.67    7.87
  -7  -4  -1   -1.44    4.96
  -8  -4  -1    1.98    9.20
   7  -5  -1   43.51   11.88
  -7   5   1   20.17    8.48
  -6   5   1  164.43   13.22
   6  -5  -1  178.72   15.36
  -5   5   1   31.63    7.04
  -5   5   1   36.76    7.30
   5  -5  -1   35.29    9.06
   4  -5  -1  310.56   15.16
  -4   5   1  312.01   14.15
  -4   5   1  317.77   14.44
  -3   5   1   81.88    7.53
   3  -5  -1  102.98   10.25
  -3   5   1   92.03    9.07
  -2   5   1  596.29   17.29
  -2   5   1  614.66   16.25
   2  -5  -1  616.64   17.40
  -1   5   1   14.08    3.41
   1  -5  -1   17.71    4.65
  -1   5   1   13.56    4.14
   0  -5  -1 1071.67   22.55
   0   5   1 1075.84   22.78
   0   5   1 1066.87   21.75
  -1  -5  -1  103.76    8.25
   1   5   1  106.67    6.95
  -1  -5  -1  129.46    7.59
  -2  -5  -1  138.07    9.89
   2   5   1  152.79    7.57
  -2  -5  -1  135.03    7.63
  -3  -5  -1  112.95   10.73
   3   5   1  133.00    6.73
  -3  -5  -1  107.73    7.29
  -4  -5  -1   -4.54    6.85
  -4  -5  -1   -2.48    3.67
  -5  -5  -1   97.78   11.83
  -5  -5  -1   97.20    8.65
  -6  -5  -1   84.50   12.16
  -6  -5  -1   76.72    8.74
  -7  -5  -1    0.36    8.21
  -8  -5  -1  -10.74    8.63
  -7   6   1   35.30   10.09
   7  -6  -1   58.50   13.24
   6  -6  -1   95.37   12.70
  -6   6   1   99.83   11.34
  -5   6   1   21.20    7.31
  -5   6   1   27.74    7.30
   5  -6  -1   33.07    9.50
  -4   6   1   26.25    6.92
  -4   6   1   36.75    6.93
   4  -6  -1   31.39    8.37
  -3   6   1    3.28    5.48
   3  -6  -1   16.18    7.25
  -3   6   1   15.30    4.99
  -2   6   1  103.04    7.79
  -2   6   1   99.30    9.18
   2  -6  -1  112.50   10.23
  -1   6   1  147.69    8.44
  -1   6   1  136.83    9.33
   1  -6  -1  146.79   10.06
   0  -6  -1  932.80   21.94
   0   6   1  940.75   21.37
   0   6   1  934.98   22.34
  -1  -6  -1 1017.85   22.68
  -1  -6  -1 1059.07   24.28
   1   6   1  993.79   22.76
  -2  -6  -1   79.47    9.06
   2   6   1   76.39    6.92
  -2  -6  -1   86.49    7.66
  -3  -6  -1  402.54   13.64
   3   6   1  404.50   12.57
  -3  -6  -1  407.94   17.43
  -4  -6  -1    8.93    8.25
  -4  -6  -1    5.59    4.69
  -5  -6  -1   34.47    9.44
  -5  -6  -1   37.10    6.44
  -6  -6  -1   -9.16    7.77
  -7  -6  -1   16.88    9.02
   6  -7  -1   26.00   10.89
  -6   7   1   19.18    7.47
  -5   7   1   22.15    7.21
   5  -7  -1    5.02    8.47
  -5   7   1    5.80    6.75
   4  -7  -1  134.35   11.90
  -4   7   1  146.79   10.97
  -4   7   1  145.50   12.27
  -3   7   1   81.93    9.40
   3  -7  -1   74.89    9.90
  -3   7   1   84.34    8.51
  -2   7   1   14.24    6.08
  -2   7   1   21.85    5.49
   2  -7  -1   17.47    7.44
   1  -7  -1   -3.11    5.94
  -1   7   1    3.11    4.81
  -1   7   1    7.56    4.31
   0   7   1  108.33    9.48
   0  -7  -1  119.51    9.89
  -1  -7  -1  195.79   10.84
  -1  -7  -1  184.63   12.26
   1   7   1  205.01   11.07
   2   7   1   34.10    5.83
  -2  -7  -1   32.73    8.36
  -2  -7  -1   22.89    6.07
   3   7   1  309.92   12.42
  -3  -7  -1  288.05   12.54
  -3  -7  -1  313.14   16.98
  -4  -7  -1  118.17    9.18
  -4  -7  -1  103.90   12.18
  -5  -7  -1   15.04    9.17
  -6  -7  -1    2.52    9.05
  -7  -7  -1   21.71   11.26
   6  -8  -1    5.33   10.21
  -6   8   1    2.39    7.02
   5  -8  -1  -14.17    7.01
  -5   8   1    1.94    6.98
  -5   8   1    0.33    5.69
   4  -8  -1   15.50    8.41
  -4   8   1   21.79    7.05
  -4   8   1   14.55    6.90
  -3   8   1   50.12    8.54
  -3   8   1   44.62    7.48
   3  -8  -1   49.66    9.58
  -2   8   1   -0.04    4.27
   2  -8  -1    6.87    6.98
  -2   8   1   -2.39    5.06
  -1   8   1  201.42   11.84
   1  -8  -1  219.39   13.28
  -1   8   1  215.45   12.92
   0   8   1  235.91   13.16
   0  -8  -1  251.64   13.41
   0  -8  -1  226.01   14.04
  -1  -8  -1  446.90   18.13
   1   8   1  471.45   17.29
  -1  -8  -1  450.87   16.83
  -2  -8  -1    1.63    8.29
   2   8   1    0.80    4.60
  -2  -8  -1    6.68    5.48
  -3  -8  -1  133.64    9.74
  -3  -8  -1  137.05   14.34
  -4  -8  -1   -1.45    8.36
  -5  -8  -1  259.13   18.84
  -6  -8  -1  130.39   16.79
   5  -9  -1    6.69    9.53
  -5   9   1    0.08    7.07
  -4   9   1   65.35   10.49
   4  -9  -1   64.95   11.40
   3  -9  -1   12.06    8.21
  -3   9   1   23.06    6.73
  -3   9   1   19.30    7.16
   2  -9  -1  134.08   12.57
  -2   9   1  162.55   11.21
  -2   9   1  150.26   12.56
  -1   9   1   39.47    7.66
   1  -9  -1   54.64    8.99
  -1   9   1   51.55    7.88
   0   9   1  207.25   13.20
   0  -9  -1  200.30   13.90
   0  -9  -1  233.24   13.24
   1   9   1   25.93    6.67
  -1  -9  -1   27.47    7.19
  -1  -9  -1   21.80    8.46
  -2  -9  -1   15.70    6.49
  -2  -9  -1   13.60    8.93
   2   9   1   15.16    5.79
  -3  -9  -1    6.55    8.51
  -4  -9  -1   89.41   13.17
  -5  -9  -1   15.39   10.44
  -6  -9  -1   92.52   15.86
  -4  10   1   11.53    8.08
   4 -10  -1   10.18    9.71
  -3  10   1    3.79    6.66
   3 -10  -1    1.58    7.91
  -2  10   1   28.21    7.91
   2 -10  -1   16.91    8.37
   1 -10  -1   -7.35    6.60
  -1  10   1   -0.78    5.71
   0  10   1    4.88    6.07
   0 -10  -1   -4.84    5.98
  -1 -10  -1   67.37    9.95
   1  10   1   68.43    9.57
   2  10   1   34.01    7.71
  -2 -10  -1   43.37   10.59
  -3 -10  -1    7.16    9.92
  -4 -10  -1    0.22    9.75
  -5 -10  -1   44.43   12.83
  -3  11   1   88.98   12.78
   3 -11  -1  100.89   13.48
  -2  11   1    2.33    6.91
   2 -11  -1    3.69    7.90
   1 -11  -1   13.99    8.28
  -1  11   1   12.87    7.61
   0  11   1    6.67    6.71
   0 -11  -1    2.50    6.96
   1  11   1   60.16    9.79
   2  11   1   18.71    7.03
   1 -12  -1   26.44    9.86
  -1  12   1   18.06    8.62
   0  12   1    6.33    7.32
   1  12   1   80.11   11.56
  -3 -11   2   20.18   12.42
   2  11  -2   -2.09    5.71
  -2 -11   2    1.85   11.35
   1  11  -2   44.90    9.20
  -1 -11   2   35.47   12.01
   0 -11   2   20.69   10.43
   0  11  -2    9.27    6.82
   1 -11   2   87.73   13.23
  -1  11  -2  100.94   12.27
  -2  11  -2   10.21    7.58
  -4 -10   2   12.14   11.84
  -3 -10   2    3.80   10.59
  -2 -10   2   57.25   12.91
   2  10  -2   55.77    8.85
  -1 -10   2  190.17   16.50
   1  10  -2  190.14   13.66
   0  10  -2   41.29    8.48
   0 -10   2   25.08    9.59
  -1  10  -2    2.80    5.82
   1 -10   2    3.63    8.16
  -2  10  -2   55.02    9.71
   2 -10   2   49.61    9.90
  -2  10  -2   43.85    9.08
  -3  10  -2   54.89   10.20
   3 -10   2   56.49   10.87
  -3  10  -2   62.46   10.76
  -4  10  -2   -2.10    6.83
  -4  10  -2    6.39    8.13
   4 -10   2  -15.57    8.28
  -5  -9   2  -13.21   10.42
  -4  -9   2   -2.26   10.01
  -3  -9   2  103.88   14.48
  -2  -9   2   18.84   10.33
   2   9  -2   16.25    5.98
  -1  -9   2  207.69   15.99
   1   9  -2  238.76   13.93
   0   9  -2    5.48    5.37
   0  -9   2   15.03    8.26
  -1   9  -2   18.04    6.57
   1  -9   2   20.75    7.24
  -1   9  -2   27.92    8.10
  -2   9  -2  195.47   13.60
  -2   9  -2  208.83   14.20
   2  -9   2  186.51   14.07
  -3   9  -2   59.33    9.58
  -3   9  -2   98.51   11.77
   3  -9   2   82.84   11.68
   4  -9   2   26.15   10.05
  -4   9  -2   28.43    8.42
  -4   9  -2   21.81    7.77
  -5   9  -2    3.49    7.38
   5  -9   2    0.52    9.44
  -5   9  -2   15.77    8.15
  -6  -8   2   76.09   15.77
  -5  -8   2   79.69   14.71
  -4  -8   2   10.01   10.25
  -3  -8   2   40.98   10.95
   3   8  -2   29.18    5.92
   2   8  -2   56.42    7.69
  -2  -8   2   43.86   10.89
   1   8  -2    7.81    5.12
  -1  -8   2    3.94    8.16
   0  -8   2  213.97   14.62
   0   8  -2  155.52   11.42
   0  -8   2  184.36   11.42
  -1   8  -2    4.57    5.02
   1  -8   2    1.23    5.76
  -1   8  -2   -7.22    4.83
   2  -8   2   11.19    6.99
  -2   8  -2    1.77    5.01
  -2   8  -2   -2.97    5.05
  -3   8  -2   54.09    9.00
   3  -8   2   58.45    9.55
  -3   8  -2   31.61    7.74
   4  -8   2   14.91    9.13
  -4   8  -2    9.21    6.44
  -4   8  -2   20.10    7.34
  -5   8  -2   63.73   10.56
   5  -8   2   36.77   10.30
  -5   8  -2   43.22    8.95
  -6   8  -2   28.80    9.37
   6  -8   2   16.47   10.93
  -6  -7   2   42.35   13.05
  -5  -7   2   13.46   10.31
  -4  -7   2   92.28   13.29
  -3  -7   2   25.74    9.71
   3   7  -2   46.34    6.41
   2   7  -2   91.49    8.53
  -2  -7   2  106.94   12.65
   1   7  -2   39.46    6.54
  -1  -7   2   47.88    9.64
  -1  -7   2   29.80    5.90
   0   7  -2  228.22   12.55
   0  -7   2  232.72   11.65
   0  -7   2  220.23   13.51
  -1   7  -2   64.28    8.22
  -1   7  -2   54.18    7.48
   1  -7   2   53.31    8.09
  -2   7  -2   40.95    7.57
  -2   7  -2   62.52    8.22
   2  -7   2   62.65    8.67
  -3   7  -2  422.10   17.37
  -3   7  -2  381.63   16.97
   3  -7   2  414.06   17.34
  -4   7  -2  108.39   10.40
   4  -7   2  102.25   12.04
  -4   7  -2  102.43   10.73
  -5   7  -2   73.12    9.91
  -5   7  -2   79.92   11.18
   5  -7   2   79.03   11.97
   6  -7   2    8.77    9.47
  -6   7  -2    7.45    7.16
  -7  -6   2  148.86   18.37
  -6  -6   2   48.02   12.31
  -5  -6   2  283.40   19.38
  -4  -6   2   54.71   11.03
   3   6  -2    8.45    4.07
  -3  -6   2    9.29    9.09
   2   6  -2  188.97   10.08
  -2  -6   2  194.68   15.15
  -1  -6   2  440.35   17.19
  -1  -6   2  451.15   13.03
   1   6  -2  406.07   14.65
   0   6  -2  478.11   16.11
   0  -6   2  497.65   14.71
  -1   6  -2   30.73    5.64
   1  -6   2   22.39    5.99
  -1   6  -2   13.61    5.33
   2  -6   2  357.91   14.41
  -2   6  -2  337.05   14.49
  -2   6  -2  354.83   14.94
  -3   6  -2  185.17   11.72
  -3   6  -2  203.46   12.41
   3  -6   2  190.97   13.09
   4  -6   2    4.34    6.99
  -4   6  -2    0.46    4.76
  -4   6  -2    2.84    5.49
  -5   6  -2   63.63    8.97
  -5   6  -2   60.24    9.44
   5  -6   2   48.74   10.28
   6  -6   2   16.73    9.47
  -6   6  -2   10.18    6.94
   7  -6   2   -3.71    9.71
  -7   6  -2    6.31    8.14
  -7  -5   2  -15.61    8.95
  -6  -5   2   40.20   11.56
  -5  -5   2  185.14   16.17
  -4  -5   2    6.57    8.70
   3   5  -2   80.98    7.06
  -3  -5   2   92.02   11.72
  -2  -5   2    9.15    3.36
   2   5  -2    9.56    3.44
  -2  -5   2   12.55    6.84
  -1  -5   2  101.16   10.13
  -1  -5   2  101.42    6.58
   1   5  -2   98.50    7.28
   0   5  -2  447.61   14.79
   0   5  -2  449.58   14.28
   0  -5   2  445.53   12.60
   1  -5   2    1.82    4.01
  -1   5  -2    0.31    3.27
  -1   5  -2    7.65    3.65
   2  -5   2  145.53   10.35
  -2   5  -2  156.58    9.75
  -2   5  -2  143.42    9.46
  -3   5  -2  393.40   15.26
   3  -5   2  392.76   15.76
  -3   5  -2  398.38   14.90
   4  -5   2   17.06    7.82
  -4   5  -2   24.34    6.24
  -4   5  -2   26.70    6.84
  -5   5  -2  130.73   10.97
   5  -5   2  121.87   11.52
  -5   5  -2  141.08   11.69
  -6   5  -2   69.24   10.11
   6  -5   2   63.48   11.16
  -7   5  -2    5.02    6.62
   7  -5   2    6.96    9.51
  -7  -4   2    5.95    8.43
  -6  -4   2   50.58   11.35
  -5  -4   2    3.25    8.02
  -4  -4   2   11.32    7.59
  -3  -4   2   48.70    8.83
   3   4  -2   43.32    4.69
  -3  -4   2   44.37    4.65
   2   4  -2  449.15   12.68
  -2  -4   2  464.96   16.68
  -2  -4   2  479.14   10.91
  -1  -4   2  392.37    9.86
  -1  -4   2  380.54   14.33
   1   4  -2  381.05   11.79
   0   4  -2 2602.97   45.02
   0  -4   2 2611.33   40.63
   0   4  -2 2570.05   43.02
  -1   4  -2    1.68    2.84
  -1   4  -2    1.37    2.89
   1  -4   2    2.60    3.71
   2  -4   2  745.29   18.32
  -2   4  -2  738.47   18.42
  -2   4  -2  729.67   19.03
  -3   4  -2   13.13    4.72
   3  -4   2    6.15    5.47
  -3   4  -2   11.88    4.35
   4  -4   2   19.44    6.45
  -4   4  -2   28.19    5.58
  -4   4  -2   26.85    6.42
   5  -4   2   -0.21    6.46
  -5   4  -2    2.21    4.11
  -5   4  -2   -3.02    5.14
  -6   4  -2  154.70   12.97
   6  -4   2  176.28   14.21
  -7   4  -2   61.19   10.92
   7  -4   2   57.81   11.41
  -8  -3   2   33.38   11.35
  -7  -3   2    9.35    8.84
  -6  -3   2  258.38   17.45
  -5  -3   2  123.57   12.86
  -4  -3   2  204.42   14.71
  -4  -3   2  187.94    8.48
   3   3  -2   22.15    3.36
  -3  -3   2   29.60    7.19
  -3  -3   2   24.65    3.43
  -2  -3   2   46.40    6.45
   2   3  -2   50.04    4.89
  -2  -3   2   46.55    3.74
   1   3  -2  517.17   12.79
  -1  -3   2  536.20   15.43
  -1  -3   2  530.05   10.55
   0  -3   2 3417.79   49.64
   0   3  -2 3340.99   51.63
   0   3  -2 3366.28   54.22
  -1   3  -2 1176.85   22.83
  -1   3  -2 1167.96   23.63
   1  -3   2 1212.64   21.74
  -2   3  -2  693.88   16.48
  -2   3  -2  709.20   17.79
   2  -3   2  711.70   16.76
  -3   3  -2    0.21    3.52
   3  -3   2   -2.84    3.75
  -3   3  -2    5.49    3.05
  -4   3  -2    0.45    4.24
  -4   3  -2    6.52    3.33
   4  -3   2    4.98    6.01
   5  -3   2  121.71   12.11
  -5   3  -2  116.91   10.73
  -6   3  -2  252.06   14.77
   6  -3   2  247.75   15.70
  -7   3  -2   67.66   10.55
   7  -3   2   69.26   11.60
   8  -3   2  123.10   15.23
  -8   3  -2   90.89   13.48
  -8  -2   2   43.63   12.05
  -7  -2   2   33.08    9.56
  -6  -2   2  155.45   13.31
  -5  -2   2  177.73   14.28
  -5  -2   2  164.09    9.36
  -4  -2   2    7.62    3.68
  -4  -2   2    6.73    6.66
  -3  -2   2  230.79    7.93
  -3  -2   2  254.46   13.02
   3   2  -2  219.73    7.89
  -2  -2   2  311.87    7.56
   2   2  -2  304.80    8.73
  -2  -2   2  311.35   11.83
  -1  -2   2 1473.50   22.38
   1   2  -2 1468.05   24.85
  -1  -2   2 1478.77   27.73
   0   2  -2  638.77   13.69
   0  -2   2  646.50   11.68
   0   2  -2  646.30   14.63
   1  -2   2 2979.21   44.59
  -1   2  -2 2997.84   45.37
  -1   2  -2 2959.25   47.48
  -2   2  -2   43.87    5.09
  -2   2  -2   55.13    4.81
  -2   2  -2   51.56    4.99
  -3   2  -2 1751.14   33.98
  -3   2  -2 1737.54   29.89
  -3   2  -2 1744.38   32.35
  -4   2  -2  116.02    8.77
  -4   2  -2  141.93    7.59
  -4   2  -2  118.50    8.64
  -5   2  -2  206.52   12.15
  -5   2  -2  224.92   12.61
  -6   2  -2   25.87    7.32
  -7   2  -2    6.82    7.05
   7  -2   2    7.02    7.75
   8  -2   2    5.72    9.31
  -8   2  -2   -9.54    6.88
  -8  -1   2   14.72    9.56
  -7  -1   2   77.35   11.92
  -6  -1   2   11.63    5.72
  -6  -1   2   12.82    7.47
  -5  -1   2   24.28    5.57
  -5  -1   2   29.43    8.25
  -4  -1   2   83.00    6.30
  -4  -1   2   82.53   10.31
  -4  -1   2   86.34    7.95
  -3  -1   2  862.21   17.26
  -3  -1   2  830.01   21.69
   3   1  -2  862.32   16.78
  -2  -1   2   84.28    7.00
  -2  -1   2   98.26    4.43
   2   1  -2  105.49    5.23
  -1  -1   2    4.64    4.07
  -1  -1   2    1.90    1.27
   1   1  -2    4.27    2.17
   0   1  -2  207.89    6.44
   0   1  -2  201.60    6.63
   0  -1   2  213.69    4.74
  -1   1  -2  824.25   14.90
  -1   1  -2  816.39   16.24
  -1   1  -2  827.02   15.24
  -2   1  -2  590.39   12.03
  -2   1  -2  577.93   13.32
  -2   1  -2  566.10   14.03
  -3   1  -2  672.49   13.72
  -3   1  -2  655.30   16.30
  -3   1  -2  649.54   17.01
  -4   1  -2    4.28    3.72
  -4   1  -2    2.66    2.35
  -4   1  -2    3.32    3.84
  -5   1  -2  335.65   14.36
  -5   1  -2  317.55   15.09
  -6   1  -2  771.04   25.14
  -6   1  -2  772.48   23.78
  -7   1  -2  158.50   13.18
  -7   1  -2  170.89   13.84
  -8   1  -2   20.60    8.53
   8  -1   2   27.46    9.66
  -8   0   2    7.23    8.74
   7   0  -2   27.34    8.33
  -7   0   2   23.45    8.02
  -6   0   2   51.90    9.32
   6   0  -2   67.09    8.82
  -5   0   2  131.23   11.30
  -4   0   2   12.64    4.52
  -4   0   2    6.99    3.74
  -4   0   2    8.72    5.76
  -3   0   2 4494.46   72.42
  -3   0   2 4309.63   66.25
  -3   0   2 4594.04   65.98
  -2   0   2    4.54    3.61
   2   0  -2    4.08    1.94
  -1   0   2 1192.12   21.50
   1   0  -2 1159.97   18.54
   1   0  -2 1167.00   19.83
   0   0  -2  911.05   15.42
  -1   0  -2 4822.78   71.79
  -1   0  -2 4971.91   69.49
  -2   0  -2 2146.69   34.57
  -2   0  -2 2106.95   35.73
  -2   0  -2 2197.95   31.96
  -3   0  -2 1374.81   27.71
  -3   0  -2 1430.02   22.02
  -3   0  -2 1388.99   26.55
  -4   0  -2   71.95    4.11
  -4   0  -2   66.45    7.65
  -4   0  -2   59.02    6.60
  -5   0  -2   55.89    7.26
  -5   0  -2   67.54    8.50
  -6   0  -2  960.56   26.40
  -6   0  -2  949.25   28.02
  -7   0  -2    0.37    6.48
  -7   0  -2    3.89    5.88
  -8   0  -2  115.37   13.51
  -8   0  -2  108.71   13.71
  -8   1   2  230.12   17.98
   7  -1  -2   -1.06    7.48
  -7   1   2    2.50    6.90
  -6   1   2   30.61    7.54
   6  -1  -2   32.66    7.93
  -5   1   2  175.62   12.71
   5  -1  -2  218.46   13.31
  -4   1   2  116.48    8.72
   4  -1  -2  135.06    9.91
  -4   1   2  120.13    9.71
  -3   1   2   17.28    4.10
   3  -1  -2   19.95    4.49
  -3   1   2   24.06    4.89
  -2   1   2  685.82   15.06
  -2   1   2  697.83   15.90
   2  -1  -2  676.70   14.41
   1  -1  -2  488.98   10.55
  -1   1   2  510.03   12.31
  -1   1   2  499.58   11.19
   0  -1  -2  512.90    9.71
  -1  -1  -2  798.95   14.44
  -1  -1  -2  780.18   13.94
  -1  -1  -2  818.46   13.31
  -2  -1  -2  331.78    9.39
  -2  -1  -2  311.79    9.53
  -3  -1  -2  266.06   10.35
  -3  -1  -2  255.28    9.43
  -4  -1  -2    5.19    3.57
  -4  -1  -2   -1.36    3.77
  -5  -1  -2  617.14   20.28
  -5  -1  -2  564.23   17.76
  -6  -1  -2  317.31   14.66
  -6  -1  -2  300.53   16.17
  -7  -1  -2    6.14    6.83
  -7  -1  -2   10.18    6.25
  -8  -1  -2   74.45   11.28
  -8  -1  -2   85.05   12.80
  -8   2   2   55.14   11.71
   8  -2  -2   37.25   11.33
   7  -2  -2  111.98   12.90
  -7   2   2  104.94   12.27
   6  -2  -2  281.52   15.34
  -6   2   2  249.49   15.24
  -5   2   2  818.20   24.57
   5  -2  -2  802.81   23.23
   4  -2  -2  165.22   10.59
  -4   2   2  160.05   10.50
  -4   2   2  168.82   10.29
  -3   2   2  618.53   15.63
  -3   2   2  614.25   16.65
   3  -2  -2  615.18   16.21
  -2   2   2  344.24   11.04
   2  -2  -2  362.34   10.87
  -2   2   2  352.35   10.34
   1  -2  -2   57.00    5.76
  -1   2   2   61.46    4.04
  -1   2   2   60.29    6.38
   0   2   2  132.11    6.94
   0  -2  -2  131.58    6.42
  -1  -2  -2  978.24   17.97
  -1  -2  -2  976.78   17.15
   1   2   2 1001.66   17.15
  -2  -2  -2  520.81   12.75
   2   2   2  502.68    9.16
  -2  -2  -2  514.49   12.22
  -3  -2  -2  219.50    9.46
  -3  -2  -2  224.76    8.89
  -4  -2  -2  659.43   19.31
  -4  -2  -2  676.55   17.78
  -5  -2  -2   12.28    4.83
  -5  -2  -2   13.13    6.32
  -6  -2  -2    8.04    5.10
  -6  -2  -2   -6.32    5.50
  -7  -2  -2   25.27    8.68
  -7  -2  -2   28.25    7.10
  -8  -2  -2   -2.47    7.77
  -8  -2  -2   -1.19    5.93
   7  -3  -2  265.18   17.32
  -7   3   2  277.23   17.18
   6  -3  -2  282.78   16.32
  -6   3   2  306.60   16.05
  -5   3   2   65.93    8.69
   5  -3  -2   87.96   10.26
  -4   3   2  311.19   13.40
   4  -3  -2  324.75   14.41
  -4   3   2  275.93   12.08
   3  -3  -2  909.67   21.82
  -3   3   2  930.66   21.12
  -3   3   2  918.26   21.37
   2  -3  -2    6.04    3.92
  -2   3   2    2.20    2.50
  -2   3   2    5.58    3.69
  -1   3   2   90.50    4.80
  -1   3   2   94.92    7.14
   1  -3  -2   91.60    6.66
   0   3   2  391.33   10.96
   0  -3  -2  392.95   10.92
   0   3   2  384.60    8.43
  -1  -3  -2  374.82    9.64
   1   3   2  396.01   10.04
  -1  -3  -2  385.24   10.38
  -2  -3  -2   -1.25    2.88
   2   3   2   -0.19    1.80
  -2  -3  -2   -1.44    2.32
  -3  -3  -2  182.41    8.28
  -3  -3  -2  176.26    9.74
  -4  -3  -2   81.71    9.04
  -4  -3  -2   88.27    7.13
  -5  -3  -2   14.55    6.78
  -5  -3  -2   13.21    5.25
  -6  -3  -2   47.37    9.05
  -6  -3  -2   49.21    7.43
  -7  -3  -2   16.50    6.24
  -7  -3  -2   -2.32    5.91
  -8  -3  -2   -3.46    7.83
  -8  -3  -2    5.10    6.19
  -7   4   2   97.35   12.05
   7  -4  -2   77.98   12.77
   6  -4  -2   14.12    8.82
  -6   4   2   18.97    7.00
  -5   4   2    1.82    4.06
  -5   4   2   16.33    6.05
   5  -4  -2   13.16    7.77
  -4   4   2  351.53   14.25
   4  -4  -2  336.31   15.77
  -4   4   2  361.92   14.54
  -3   4   2  663.97   17.78
   3  -4  -2  638.12   18.87
  -3   4   2  675.06   18.42
  -2   4   2  148.24    9.19
  -2   4   2  123.54    7.00
   2  -4  -2  136.15    8.91
  -1   4   2  194.92    9.35
   1  -4  -2  211.47    9.44
  -1   4   2  208.52    7.14
   0  -4  -2 1316.87   24.88
   0   4   2 1309.15   24.59
   0   4   2 1287.86   22.63
   1   4   2 1919.06   32.28
  -1  -4  -2 1991.01   33.16
  -1  -4  -2 1945.52   33.51
   2   4   2  218.10    7.62
  -2  -4  -2  230.02    9.03
  -2  -4  -2  202.49    9.39
  -3  -4  -2  832.13   19.46
  -3  -4  -2  898.98   21.99
   3   4   2  861.90   15.63
  -4  -4  -2 1228.18   29.59
  -4  -4  -2 1180.78   26.16
  -5  -4  -2   56.06    9.30
  -5  -4  -2   55.85    7.49
  -6  -4  -2   52.48    7.68
  -6  -4  -2   68.20   10.20
  -7  -4  -2   -2.77    6.98
  -7  -4  -2    4.78    5.30
  -8  -4  -2   47.56    9.07
  -8  -4  -2   67.15   12.62
   7  -5  -2   45.09   11.88
  -7   5   2   33.04    9.19
  -6   5   2  138.84   12.33
   6  -5  -2  168.04   15.03
  -5   5   2   57.52    8.22
  -5   5   2   57.97    8.46
   5  -5  -2   49.74    9.90
  -4   5   2   97.64   10.60
   4  -5  -2   85.82   10.60
  -4   5   2  100.99    9.45
  -3   5   2   32.45    5.53
   3  -5  -2   42.84    7.77
  -3   5   2   43.50    6.74
  -2   5   2 1265.79   25.71
  -2   5   2 1333.52   27.81
   2  -5  -2 1270.96   27.61
  -1   5   2    6.68    2.69
   1  -5  -2    5.64    4.42
  -1   5   2    2.23    3.74
   0   5   2 1529.58   27.31
   0   5   2 1577.82   29.48
   0  -5  -2 1483.54   29.00
  -1  -5  -2    0.66    3.79
   1   5   2    2.29    3.23
  -1  -5  -2   -4.17    3.32
  -2  -5  -2  368.05   13.09
   2   5   2  359.38   10.90
  -2  -5  -2  368.11   12.22
  -3  -5  -2  213.90    9.99
   3   5   2  201.03    7.79
  -3  -5  -2  183.40   11.49
  -4  -5  -2  724.65   22.92
  -4  -5  -2  738.69   19.67
  -5  -5  -2  108.26   12.28
  -5  -5  -2   91.97    8.62
  -6  -5  -2    3.22    4.81
  -6  -5  -2    4.52    7.67
  -7  -5  -2    2.13    5.20
  -7  -5  -2   -0.80    7.77
  -8  -5  -2   26.40   10.61
  -7   6   2   47.78   10.52
   7  -6  -2   72.87   13.93
  -6   6   2   80.04   11.32
   6  -6  -2   82.70   13.00
   5  -6  -2    5.94    8.14
  -5   6   2  -10.38    5.45
  -5   6   2    3.97    5.57
  -4   6   2    2.55    6.01
  -4   6   2   -0.53    4.09
   4  -6  -2   -1.34    6.71
   3  -6  -2   31.69    8.06
  -3   6   2   27.60    7.05
  -3   6   2   34.77    6.06
   2  -6  -2  276.49   13.62
  -2   6   2  281.48   11.26
  -2   6   2  300.52   13.74
   1  -6  -2   93.31    9.18
  -1   6   2   95.82    8.62
  -1   6   2   94.65    6.92
   0   6   2 1086.89   24.48
   0   6   2 1051.43   22.21
   0  -6  -2 1079.89   24.38
  -1  -6  -2   -2.58    4.40
   1   6   2   -6.26    3.08
  -1  -6  -2    1.24    4.15
   2   6   2  258.42   10.52
  -2  -6  -2  260.94   12.77
  -2  -6  -2  254.13   11.44
   3   6   2  156.44    8.21
  -3  -6  -2  144.70   11.66
  -3  -6  -2  145.81    9.29
  -4  -6  -2   39.36    8.77
  -4  -6  -2   35.56    6.19
  -5  -6  -2  288.83   17.19
  -5  -6  -2  297.87   13.80
  -6  -6  -2  253.52   13.71
  -6  -6  -2  234.96   17.14
  -7  -6  -2   29.00   10.32
  -6   7   2    9.82    6.83
   6  -7  -2   -5.79    9.27
  -5   7   2   23.04    8.01
  -5   7   2   36.41    7.97
   5  -7  -2   41.51   10.54
  -4   7   2   60.22    8.13
   4  -7  -2   47.54   10.00
  -4   7   2   51.67    8.55
   3  -7  -2    7.16    6.49
  -3   7   2    0.38    5.43
  -3   7   2    1.51    4.17
   2  -7  -2    7.93    7.07
  -2   7   2   -3.54    4.00
  -2   7   2   -0.61    5.41
  -1   7   2  206.33   10.28
   1  -7  -2  219.71   11.99
  -1   7   2  221.52   12.44
   0  -7  -2   45.63    7.37
   0   7   2   28.47    6.16
   0  -7  -2   44.75    6.40
  -1  -7  -2   84.50    9.11
   1   7   2   94.64    8.88
  -1  -7  -2   87.85    8.88
  -2  -7  -2  123.80   11.85
  -2  -7  -2  100.82    8.92
   2   7   2  101.16    8.70
  -3  -7  -2  163.10   10.45
  -3  -7  -2  170.03   13.82
   3   7   2  159.19    9.64
  -4  -7  -2   17.25    5.66
  -4  -7  -2   28.48    8.54
  -5  -7  -2  215.35   12.17
  -5  -7  -2  237.39   16.74
  -6  -7  -2   72.78   12.18
  -7  -7  -2    6.26    9.71
   6  -8  -2    8.71   10.17
   5  -8  -2   19.07    9.71
  -5   8   2   11.42    7.94
   4  -8  -2    2.84    8.17
  -4   8   2   10.60    5.64
  -4   8   2   -3.58    6.38
  -3   8   2    2.93    4.74
  -3   8   2   -0.97    5.69
   3  -8  -2    6.23    7.38
  -2   8   2   -1.65    5.50
  -2   8   2   12.79    4.99
   2  -8  -2    6.56    7.00
   1  -8  -2  348.64   16.15
  -1   8   2  364.06   14.25
  -1   8   2  383.76   16.73
   0  -8  -2    9.49    6.56
   0   8   2   17.75    6.31
   0  -8  -2   25.87    7.42
  -1  -8  -2  113.76    9.17
   1   8   2  121.88   10.48
  -1  -8  -2  115.17   10.45
   2   8   2    5.19    4.69
  -2  -8  -2    5.91    5.72
  -2  -8  -2    3.73    7.34
  -3  -8  -2   46.54    7.64
  -3  -8  -2   46.86    9.52
  -4  -8  -2  259.32   13.45
  -4  -8  -2  249.06   17.28
  -5  -8  -2   -9.75    8.85
  -6  -8  -2   61.35   12.93
  -7  -8  -2   90.96   15.31
  -5   9   2    2.58    7.56
   5  -9  -2   17.57   10.12
   4  -9  -2  252.16   17.16
  -4   9   2  260.61   16.82
  -3   9   2   98.92   11.83
   3  -9  -2   84.35   11.73
  -2   9   2   78.19   10.11
   2  -9  -2   82.37   10.78
  -1   9   2  385.55   17.27
   1  -9  -2  391.24   17.33
   0   9   2  249.05   14.14
   0  -9  -2  230.41   13.64
   1   9   2  -11.33    4.23
  -1  -9  -2   -6.51    5.99
  -1  -9  -2    0.64    3.37
  -2  -9  -2   57.71   10.09
   2   9   2   41.87    7.27
  -2  -9  -2   33.93    7.45
  -3  -9  -2   -2.62    5.40
  -3  -9  -2    1.21    7.69
  -4  -9  -2  163.99   16.19
  -5  -9  -2   -4.90    9.05
  -6  -9  -2   81.67   14.64
   4 -10  -2  124.95   14.87
  -4  10   2  107.52   13.19
   3 -10  -2   15.29    8.61
  -3  10   2  -13.98    5.46
  -2  10   2   71.95   10.40
   2 -10  -2   79.31   11.53
  -1  10   2  285.00   16.02
   1 -10  -2  283.18   16.10
   0  10   2  111.47   11.31
   0 -10  -2   92.36   10.90
   1  10   2   47.77    8.50
  -1 -10  -2   63.83    9.78
  -2 -10  -2   49.62    8.86
   2  10   2   41.30    7.81
   3 -11  -2    0.71    9.14
  -3  11   2    1.23    7.79
   2 -11  -2    9.71    8.49
  -2  11   2   19.52    7.55
   1 -11  -2   -1.99    7.38
  -1  11   2   -7.56    5.70
   0 -11  -2   -2.18    7.31
   0  11   2   -0.68    6.11
  -1 -11  -2   22.59    8.01
   1  11   2   30.84    8.11
   2  11   2   -4.16    5.41
  -2  12   2   -6.96    7.24
   2 -12  -2  -16.73    8.79
   1 -12  -2    1.43    8.17
  -1  12   2   -0.61    7.02
   0 -12  -2  -14.03    6.55
   0  12   2   -0.68    6.75
   1  12   2   39.08    9.30
   2  11  -3   12.97    7.01
  -2 -11   3   30.33   13.06
   1  11  -3   -6.45    5.55
  -1 -11   3    6.12   11.10
   0 -11   3    0.95   10.07
   0  11  -3   -5.67    5.58
  -1  11  -3   10.07    7.03
   1 -11   3   33.71   10.95
  -2  11  -3   47.21   10.31
  -4 -10   3   44.84   14.37
  -3 -10   3   79.62   15.20
  -2 -10   3  -15.59   10.00
   2  10  -3    7.40    5.60
   1  10  -3   19.45    7.02
  -1 -10   3    1.51    9.37
   0 -10   3    7.14    9.31
   0  10  -3    2.39    5.78
  -1  10  -3   -3.16    5.45
   1 -10   3   21.10    9.63
  -2  10  -3   14.35    7.38
  -2  10  -3   11.78    8.05
  -3  10  -3   -8.06    6.10
  -3  10  -3    6.33    7.63
  -5  -9   3   37.43   14.10
  -4  -9   3   -7.02   10.01
  -3  -9   3  147.55   16.66
   2   9  -3   35.01    7.06
  -2  -9   3   35.96   11.73
  -1  -9   3   27.10   10.38
   1   9  -3   41.29    8.21
   0   9  -3    5.33    5.45
   0  -9   3    7.15    8.80
  -1   9  -3   -0.67    5.28
  -2   9  -3   32.25    7.61
  -2   9  -3   42.56    8.81
  -3   9  -3   79.58   10.96
   3  -9   3   66.40   10.66
  -3   9  -3   95.60   11.56
  -4   9  -3   13.49    7.35
  -4   9  -3   22.30    8.42
   4  -9   3   20.46    9.78
  -5   9  -3   24.40    8.71
  -5   9  -3   30.34    9.88
   5  -9   3   40.57   11.29
  -5  -8   3    5.84   11.16
  -4  -8   3   58.49   13.06
   3   8  -3   97.41    9.41
  -3  -8   3   99.92   14.06
   2   8  -3  117.12   10.16
  -2  -8   3   90.58   13.25
  -1  -8   3  436.59   20.45
   1   8  -3  446.41   17.81
   0   8  -3   18.99    5.92
   0  -8   3    2.73    7.84
   1  -8   3   65.23    8.66
  -1   8  -3   50.93    7.84
  -1   8  -3   36.11    7.96
  -2   8  -3   93.07   10.48
   2  -8   3  100.51   10.61
  -2   8  -3   90.35   10.24
   3  -8   3    4.38    7.62
  -3   8  -3   11.61    6.41
  -3   8  -3   22.56    6.98
  -4   8  -3   23.53    7.48
   4  -8   3   11.20    8.48
  -4   8  -3   15.51    7.34
  -5   8  -3   12.50    7.32
  -5   8  -3    0.33    6.44
   5  -8   3   19.38    9.41
  -6  -7   3  182.61   19.63
  -5  -7   3    8.49   10.80
  -4  -7   3   48.56   11.99
   3   7  -3    9.28    4.44
  -3  -7   3   10.42    9.10
   2   7  -3    9.09    4.52
  -2  -7   3   15.09    9.37
  -1  -7   3   11.91    8.15
   1   7  -3   11.02    5.07
   0  -7   3  218.76   14.90
   0   7  -3  215.63   12.19
   1  -7   3   -7.56    5.76
  -1   7  -3   -2.35    5.23
  -1   7  -3    0.50    4.47
   2  -7   3  892.71   23.98
  -2   7  -3  864.71   25.64
  -2   7  -3  933.41   25.94
  -3   7  -3  144.35   11.40
  -3   7  -3  121.88   11.36
   3  -7   3  118.44   11.41
  -4   7  -3   49.50    8.31
   4  -7   3   44.48    9.60
  -4   7  -3   46.93    8.99
  -5   7  -3  134.35   12.67
   5  -7   3  133.45   13.88
  -5   7  -3  128.92   12.77
  -6   7  -3    8.23    7.80
   6  -7   3   10.17    9.85
  -6  -6   3   45.28   12.68
  -5  -6   3   81.72   13.79
  -4  -6   3   15.26    9.47
  -3  -6   3 1353.21   36.81
   3   6  -3 1339.62   29.20
  -2  -6   3    6.83    7.95
   2   6  -3    7.21    4.27
   1   6  -3  165.03   10.20
  -1  -6   3  152.77   13.45
   0  -6   3   53.94    6.14
   0   6  -3   36.31    6.07
   0  -6   3   29.63    7.81
  -1   6  -3  303.71   13.39
   1  -6   3  307.01   12.83
  -1   6  -3  278.96   13.77
   2  -6   3   -4.20    5.97
  -2   6  -3   -2.25    4.32
  -2   6  -3    5.02    4.93
  -3   6  -3  225.41   13.07
  -3   6  -3  224.34   13.40
   3  -6   3  217.18   13.42
   4  -6   3    5.53    7.40
  -4   6  -3    6.65    5.35
  -4   6  -3    4.99    5.27
  -5   6  -3  169.73   13.40
   5  -6   3  178.75   14.62
  -5   6  -3  198.76   13.64
   6  -6   3   42.14   10.93
  -6   6  -3   39.97    9.59
   7  -6   3    0.21   10.06
  -7   6  -3   11.95    8.77
  -7  -5   3   77.54   14.66
  -6  -5   3   -3.30    8.01
  -5  -5   3  187.70   15.87
  -4  -5   3   36.83   10.25
  -3  -5   3   50.87    9.94
   3   5  -3   40.25    5.58
  -2  -5   3   77.02    9.91
   2   5  -3   74.33    7.05
  -1  -5   3   49.28    5.50
   1   5  -3   52.92    5.94
  -1  -5   3   32.34    7.27
   0  -5   3   45.35    5.19
   0   5  -3   41.99    5.74
   1  -5   3  460.13   13.84
  -1   5  -3  449.07   15.13
  -1   5  -3  484.76   16.22
  -2   5  -3    7.27    4.88
   2  -5   3    3.14    5.30
  -2   5  -3    6.73    3.96
  -3   5  -3   44.96    6.80
   3  -5   3   51.62    7.97
  -3   5  -3   45.94    7.48
  -4   5  -3    1.91    5.26
   4  -5   3    5.34    7.09
  -4   5  -3    9.08    5.02
  -5   5  -3  105.80   10.30
   5  -5   3   81.55   10.88
  -5   5  -3  104.06   10.99
   6  -5   3  113.68   13.10
  -6   5  -3   98.78   11.72
   7  -5   3   14.34    9.99
  -7   5  -3   -2.65    6.87
  -7  -4   3   37.19   11.57
  -6  -4   3    0.13    8.66
  -5  -4   3   -2.61    7.89
  -4  -4   3  135.82   14.81
   3   4  -3    1.89    3.08
  -3  -4   3   -2.67    7.23
  -2  -4   3   47.37    8.04
  -2  -4   3   50.92    3.88
   2   4  -3   49.50    5.80
  -1  -4   3   25.81    5.97
  -1  -4   3   22.94    3.01
   1   4  -3   23.79    4.17
   0   4  -3   13.68    4.32
   0   4  -3   15.96    3.87
   0  -4   3   20.32    3.76
  -1   4  -3   94.97    7.36
   1  -4   3  108.19    7.26
  -1   4  -3  106.39    7.24
  -2   4  -3  261.04   11.63
   2  -4   3  250.08   10.71
  -2   4  -3  259.78   10.85
  -3   4  -3    1.46    4.27
   3  -4   3    0.35    5.08
  -3   4  -3    4.06    3.67
  -4   4  -3   15.82    5.82
   4  -4   3   16.04    7.33
  -4   4  -3   22.97    5.52
   5  -4   3   17.56    7.85
  -5   4  -3   17.72    6.55
  -6   4  -3   84.44   11.09
   6  -4   3  118.60   12.80
  -7   4  -3   10.52    7.96
   7  -4   3    9.27    8.67
  -7  -3   3   11.54    8.54
  -6  -3   3   -2.30    7.87
  -5  -3   3    4.77    7.53
  -4  -3   3  162.22   14.52
   3   3  -3  649.03   15.91
  -3  -3   3  641.35   21.53
  -2  -3   3  224.47   12.73
   2   3  -3  233.02    9.09
  -2  -3   3  227.17    6.13
   1   3  -3  232.69    8.94
  -1  -3   3  230.90    5.77
  -1  -3   3  243.32   11.59
   0   3  -3 2112.14   37.78
   0  -3   3 2126.27   32.41
   0   3  -3 2102.17   35.94
  -1   3  -3  506.88   14.59
   1  -3   3  488.65   12.14
  -1   3  -3  509.01   13.58
  -2   3  -3  506.90   14.05
  -2   3  -3  503.86   15.15
   2  -3   3  485.80   13.76
   3  -3   3  437.46   14.73
  -3   3  -3  436.44   13.48
  -3   3  -3  441.87   15.18
  -4   3  -3   -4.24    3.52
   4  -3   3    4.55    6.05
  -5   3  -3  133.71   11.13
   5  -3   3  118.65   11.82
  -6   3  -3  757.55   25.79
   6  -3   3  733.91   25.17
   7  -3   3  -11.33    7.67
  -7   3  -3    0.79    6.61
   8  -3   3   25.87   10.83
  -8   3  -3    7.94    8.40
  -7  -2   3   -2.78    7.99
  -6  -2   3    4.17    7.96
  -5  -2   3   58.55   10.30
  -4  -2   3  659.76   22.95
   4   2  -3  650.42   16.17
  -4  -2   3  637.07   15.55
   3   2  -3   13.93    3.26
  -3  -2   3   17.28    3.02
  -3  -2   3   16.19    5.97
   2   2  -3   27.49    3.67
  -2  -2   3   32.76    6.23
  -2  -2   3   33.65    3.02
   1   2  -3 1136.15   21.41
  -1  -2   3 1101.06   23.52
   0   2  -3 2240.81   38.44
   0   2  -3 2280.10   36.84
   0  -2   3 2313.69   33.69
  -1   2  -3 2150.72   37.41
  -1   2  -3 2215.91   35.84
  -2   2  -3  111.06    6.32
  -2   2  -3  119.33    6.42
  -2   2  -3  111.59    6.77
  -3   2  -3  329.23   11.47
  -3   2  -3  350.39   12.84
  -4   2  -3   13.24    3.56
  -4   2  -3    6.49    4.55
  -4   2  -3    5.23    4.02
  -5   2  -3  212.51   12.65
  -5   2  -3  213.97   13.05
  -6   2  -3    6.29    5.24
  -6   2  -3    0.19    5.43
  -7   2  -3   77.97   11.15
  -8   2  -3   -1.54    7.04
   8  -2   3    4.25    8.69
  -8  -1   3   49.66   12.36
  -7  -1   3   85.02   12.78
  -6  -1   3  152.90   13.82
  -5  -1   3   37.15    9.22
  -4  -1   3  121.52    9.69
  -4  -1   3   99.38    7.31
  -4  -1   3   95.17   11.62
  -3  -1   3  582.03   13.19
  -3  -1   3  569.22   18.54
   3   1  -3  609.70   14.43
  -2  -1   3  109.20    4.42
  -2  -1   3  112.59    8.58
   2   1  -3  111.55    6.13
   1   1  -3    5.24    2.29
  -1  -1   3    5.61    3.92
   0   1  -3  464.95   11.50
   0   1  -3  458.85   11.26
   0   1  -3  457.47    8.09
  -1   1  -3  192.03    7.07
  -1   1  -3  194.36    7.54
  -2   1  -3   26.72    3.91
  -2   1  -3   30.17    3.77
  -3   1  -3   79.64    5.34
  -3   1  -3   70.46    6.68
  -3   1  -3   62.14    6.16
  -4   1  -3    7.63    2.72
  -4   1  -3    6.03    3.93
  -4   1  -3    5.26    3.82
  -5   1  -3  308.02   14.76
  -5   1  -3  326.87   14.36
  -6   1  -3   -8.37    4.67
  -6   1  -3   -1.80    5.17
  -7   1  -3  179.35   13.95
  -7   1  -3  168.30   13.43
  -8   1  -3    3.92    7.60
  -8   0   3   69.58   13.01
  -7   0   3  113.70   13.47
  -6   0   3   56.95    9.99
   6   0  -3   67.91    8.70
   5   0  -3  104.52   10.11
  -5   0   3  110.44   11.78
   4   0  -3  148.81    7.76
  -4   0   3  228.67   11.34
  -4   0   3  206.51   12.86
  -3   0   3 1522.26   27.80
   3   0  -3 1444.17   26.46
  -3   0   3 1464.07   31.23
  -2   0   3 1025.86   22.13
   2   0  -3  988.33   19.32
   2   0  -3  997.96   17.74
   1   0  -3  142.12    6.45
  -1   0   3  149.30    7.49
   1   0  -3  153.72    4.75
   0   0  -3  106.70    3.85
   0   0  -3  116.83    5.68
  -1   0  -3 7671.99  112.08
  -1   0  -3 7825.70  107.57
  -1   0  -3 7815.46  108.19
  -2   0  -3  855.27   17.41
  -2   0  -3  846.98   17.75
  -2   0  -3  856.02   15.43
  -3   0  -3 2115.77   38.64
  -3   0  -3 2172.76   37.61
  -3   0  -3 2211.50   33.17
  -4   0  -3   99.80    7.77
  -4   0  -3  105.71    8.50
  -4   0  -3  115.64    5.09
  -5   0  -3  126.98    9.96
  -5   0  -3  132.41    9.87
  -6   0  -3  455.70   19.09
  -6   0  -3  427.30   17.49
  -7   0  -3   11.54    7.31
  -7   0  -3    9.13    6.44
  -8   0  -3  137.52   13.43
  -8   0  -3  106.77   13.81
  -8   1   3   -5.69    8.03
  -7   1   3   40.40    9.56
  -6   1   3    5.09    6.49
   6  -1  -3    2.23    6.81
  -5   1   3   62.08    9.13
   5  -1  -3   59.76    8.21
   4  -1  -3  536.29   16.30
  -4   1   3  545.73   16.33
  -4   1   3  504.04   17.47
  -3   1   3   53.10    6.21
   3  -1  -3   48.32    5.11
  -2   1   3  843.39   18.57
  -2   1   3  893.48   19.29
   1  -1  -3   64.47    4.73
  -1   1   3   80.91    5.74
   0  -1  -3   35.54    4.48
   0   1   3   34.59    3.90
  -1  -1  -3  341.72    8.03
  -1  -1  -3  331.71    8.73
  -2  -1  -3    2.72    2.64
  -2  -1  -3    6.27    2.55
  -2  -1  -3    0.22    1.52
  -3  -1  -3   35.63    4.68
  -3  -1  -3   37.40    2.70
  -3  -1  -3   38.23    4.78
  -4  -1  -3  763.70   20.30
  -4  -1  -3  762.37   19.52
  -5  -1  -3   54.56    8.00
  -5  -1  -3   63.36    7.88
  -6  -1  -3  554.55   21.28
  -6  -1  -3  589.71   20.09
  -7  -1  -3  161.45   13.79
  -7  -1  -3  160.40   12.22
  -8  -1  -3   73.36   11.11
  -8  -1  -3   75.23   11.82
  -7   2   3   57.28   10.49
   7  -2  -3   43.05    9.77
   6  -2  -3  236.12   15.42
  -6   2   3  269.69   15.79
   5  -2  -3    8.78    7.41
  -5   2   3   11.82    6.30
  -4   2   3  449.62   15.07
   4  -2  -3  480.67   16.34
  -4   2   3  536.85   17.55
   3  -2  -3  393.77   13.26
  -3   2   3  397.93   13.36
  -3   2   3  382.61   13.55
  -2   2   3  172.74    7.51
   2  -2  -3  168.12    7.84
  -2   2   3  172.43    9.20
  -1   2   3 3202.00   48.40
  -1   2   3 3245.84   49.59
   1  -2  -3 3146.69   48.34
   0  -2  -3 4953.12   72.55
   0   2   3 5168.11   73.04
  -1  -2  -3 9779.09  137.17
  -1  -2  -3 9999.45  143.61
   1   2   3 9899.33  135.85
   2   2   3  354.50    8.37
  -2  -2  -3  368.47   10.40
  -3  -2  -3  516.84   13.96
  -3  -2  -3  498.57   14.23
  -4  -2  -3   -0.06    3.38
  -4  -2  -3    1.11    3.43
  -5  -2  -3   89.64    8.45
  -5  -2  -3   81.98    8.90
  -6  -2  -3   26.56    6.58
  -6  -2  -3   39.42    8.25
  -7  -2  -3   -1.16    6.78
  -7  -2  -3   11.56    6.26
  -8  -2  -3   36.85   10.03
  -8  -2  -3   36.80    8.58
  -7   3   3  115.16   12.86
   7  -3  -3  111.24   13.93
  -6   3   3   85.13   10.86
   6  -3  -3   60.06   10.29
  -5   3   3 1254.86   31.84
   5  -3  -3 1274.74   31.64
  -5   3   3 1277.02   29.08
   4  -3  -3   29.64    7.27
  -4   3   3   28.69    6.50
  -4   3   3   29.69    6.18
  -3   3   3  127.98    8.04
   3  -3  -3  111.24    8.92
  -3   3   3  137.84    9.60
  -2   3   3   66.17    7.64
   2  -3  -3   50.42    5.66
  -2   3   3   64.05    5.43
  -1   3   3  406.03    9.17
   1  -3  -3  402.79   11.72
  -1   3   3  401.71   12.41
   0   3   3 1586.35   24.91
   0  -3  -3 1538.53   27.20
   0   3   3 1561.91   27.62
  -1  -3  -3    3.36    1.98
   1   3   3    7.18    3.19
  -1  -3  -3    7.36    3.07
   2   3   3  597.37   12.31
  -2  -3  -3  596.66   14.33
  -2  -3  -3  584.22   13.68
  -3  -3  -3  876.80   19.96
  -3  -3  -3  885.67   20.46
   3   3   3  900.45   14.61
  -4  -3  -3   36.94    5.67
  -4  -3  -3   34.09    6.06
  -5  -3  -3   79.11    8.28
  -5  -3  -3   70.85    8.98
  -6  -3  -3   20.75    6.10
  -6  -3  -3    7.22    6.44
  -7  -3  -3    5.44    6.40
  -7  -3  -3   15.02    6.18
  -8  -3  -3    5.85    6.63
  -8  -3  -3   -2.13    7.64
  -7   4   3   73.80   11.37
   7  -4  -3   65.35   12.26
   6  -4  -3   10.18    8.40
  -6   4   3    9.19    6.40
  -5   4   3  325.09   15.20
   5  -4  -3  336.43   16.72
  -5   4   3  333.24   15.47
   4  -4  -3   21.54    7.64
  -4   4   3    7.61    6.08
  -4   4   3   10.91    4.79
  -3   4   3    5.26    5.15
  -3   4   3   -1.52    3.34
   3  -4  -3   -3.62    5.26
  -2   4   3  122.73    6.60
   2  -4  -3  110.94    8.59
  -2   4   3   96.75    8.52
  -1   4   3  313.35   11.73
  -1   4   3  312.36    8.36
   1  -4  -3  304.95   10.95
   0   4   3  548.88   11.04
   0  -4  -3  546.29   14.49
   0   4   3  565.47   14.84
  -1  -4  -3  348.89    9.28
  -1  -4  -3  362.58   11.21
   1   4   3  366.52   11.11
   2   4   3 1045.07   19.50
  -2  -4  -3 1025.04   21.93
  -2  -4  -3 1057.70   21.34
   3   4   3  686.69   13.23
  -3  -4  -3  675.76   17.99
  -3  -4  -3  648.81   17.06
  -4  -4  -3   69.93    7.29
  -4  -4  -3   79.40    9.14
  -5  -4  -3   13.53    6.63
  -5  -4  -3   22.40    5.86
  -6  -4  -3  189.72   11.84
  -6  -4  -3  190.74   13.98
  -7  -4  -3   27.64    7.33
  -7  -4  -3   20.18    8.40
  -8  -4  -3   40.52    8.96
  -8  -4  -3   24.01    9.74
   7  -5  -3    4.44   10.05
  -7   5   3    8.36    7.56
   6  -5  -3    6.12    8.59
  -6   5   3    6.56    6.33
   5  -5  -3   18.37    8.25
  -5   5   3    6.70    6.27
  -5   5   3    7.93    5.36
  -4   5   3  128.84   11.54
   4  -5  -3  144.57   12.52
  -4   5   3  151.79   10.51
   3  -5  -3  163.05   12.02
  -3   5   3  192.41    9.57
  -3   5   3  203.03   12.32
  -2   5   3   26.36    3.94
  -2   5   3   18.46    5.64
   2  -5  -3   22.08    6.02
   1  -5  -3   17.37    4.74
  -1   5   3   29.13    5.44
  -1   5   3   22.75    3.27
   0   5   3 1244.25   22.05
   0  -5  -3 1221.38   25.57
   0   5   3 1208.40   25.21
   1   5   3   42.51    5.10
  -1  -5  -3   40.01    4.78
  -1  -5  -3   43.26    5.70
  -2  -5  -3  966.70   21.34
  -2  -5  -3  980.94   22.05
   2   5   3  951.90   19.77
   3   5   3   17.79    3.39
  -3  -5  -3   17.55    4.71
  -3  -5  -3   21.52    5.82
  -4  -5  -3  275.61   12.43
  -4  -5  -3  279.26   14.15
  -5  -5  -3    2.98    4.59
  -5  -5  -3    6.19    6.72
  -6  -5  -3  332.90   15.63
  -6  -5  -3  350.83   18.07
  -7  -5  -3   21.48    6.80
  -7  -5  -3    6.96    8.07
  -8  -5  -3   87.38   13.67
  -8  -5  -3   72.87   10.74
   7  -6  -3   19.36   11.05
  -6   6   3    7.54    6.97
   6  -6  -3    1.73    9.12
  -5   6   3    2.46    5.14
  -5   6   3   -1.85    6.17
   5  -6  -3    7.88    8.22
  -4   6   3  139.18   11.92
  -4   6   3  138.63    9.83
   4  -6  -3  129.54   12.65
  -3   6   3   73.87    7.65
   3  -6  -3   59.62    9.26
  -3   6   3   71.95    8.80
  -2   6   3  112.06    7.44
   2  -6  -3  106.32   10.73
  -2   6   3  132.86   11.04
  -1   6   3   36.08    4.41
   1  -6  -3   44.20    6.67
  -1   6   3   34.25    6.23
   0  -6  -3 1458.37   29.99
   0   6   3 1439.71   29.85
   1   6   3   28.60    5.18
  -1  -6  -3   18.65    5.36
  -1  -6  -3   21.55    5.08
   2   6   3  145.86    8.69
  -2  -6  -3  157.88    9.95
  -2  -6  -3  138.96    9.24
   3   6   3  151.56    8.22
  -3  -6  -3  155.49    9.80
  -4  -6  -3  464.59   18.46
  -4  -6  -3  457.40   16.16
  -5  -6  -3   10.26    5.49
  -5  -6  -3    3.50    7.18
  -6  -6  -3  168.64   14.66
  -6  -6  -3  169.22   11.68
  -7  -6  -3   18.15    9.44
  -7  -6  -3   27.01    7.26
   6  -7  -3    3.79    9.94
   5  -7  -3  102.72   13.15
  -5   7   3   86.63   11.00
  -4   7   3    3.85    4.66
   4  -7  -3   -0.34    6.57
  -4   7   3   -5.40    5.72
  -3   7   3    7.44    4.53
   3  -7  -3    7.98    7.30
  -3   7   3    6.25    6.28
  -2   7   3    0.17    3.67
  -2   7   3   -0.07    5.79
   2  -7  -3    4.46    7.08
  -1   7   3  295.08   14.35
  -1   7   3  328.24   11.85
   1  -7  -3  269.12   13.99
   0   7   3   22.46    6.08
   0  -7  -3   20.49    5.63
   0  -7  -3   23.44    6.67
   1   7   3   45.46    6.66
  -1  -7  -3   35.65    6.94
  -1  -7  -3   56.52    7.33
  -2  -7  -3   42.77    7.75
   2   7   3   55.77    6.69
  -2  -7  -3   50.53    7.47
   3   7   3   -1.77    3.89
  -3  -7  -3    1.45    3.23
  -3  -7  -3    5.96    5.44
  -4  -7  -3    2.72    5.32
  -4  -7  -3   11.90    7.98
  -5  -7  -3   34.43    9.00
  -5  -7  -3   28.28    6.54
  -6  -7  -3    2.30    7.79
  -6  -7  -3    2.08    5.34
  -7  -7  -3  121.45   15.05
   6  -8  -3    3.42   10.32
   5  -8  -3   37.37   10.76
  -5   8   3   28.15    9.18
   4  -8  -3   -8.55    7.91
  -4   8   3   -4.06    6.46
   3  -8  -3   44.67    9.26
  -3   8   3   24.51    7.61
   2  -8  -3   -5.91    5.86
  -2   8   3   -1.55    5.53
   1  -8  -3    4.45    6.96
  -1   8   3   14.78    6.46
   0  -8  -3  212.99   13.21
   0   8   3  203.14   12.83
  -1  -8  -3   14.70    6.97
   1   8   3   13.24    5.86
  -1  -8  -3   20.89    6.78
   2   8   3    8.48    5.35
  -2  -8  -3   -4.37    5.61
  -2  -8  -3   -8.12    6.72
  -4  -8  -3   41.92    9.50
  -4  -8  -3   35.42    6.95
  -5  -8  -3  323.77   15.39
  -5  -8  -3  310.24   19.37
  -6  -8  -3    5.08    8.95
  -7  -8  -3   57.36   12.78
   5  -9  -3   80.41   13.44
  -5   9   3   57.83   11.24
  -4   9   3    0.52    7.12
   4  -9  -3   -1.88    7.89
   3  -9  -3   50.24   10.22
  -3   9   3   50.69    9.39
   2  -9  -3   54.45    9.98
  -2   9   3   55.35    9.40
  -1   9   3   41.59    8.12
   1  -9  -3   27.50    8.06
   0   9   3  176.10   12.67
   0  -9  -3  174.65   12.59
  -1  -9  -3   11.36    6.85
   1   9   3    9.20    5.86
   2   9   3  138.52   10.94
  -2  -9  -3  129.68   10.91
  -3  -9  -3   80.41    9.58
  -4  -9  -3    2.27    6.10
  -4  10   3  123.03   14.56
   4 -10  -3  121.56   14.67
  -3  10   3   -1.11    7.00
   3 -10  -3   -0.87    8.11
  -2  10   3   99.93   11.95
   2 -10  -3  115.51   12.67
   1 -10  -3   25.70    8.64
  -1  10   3   35.83    8.22
   0  10   3  143.90   12.27
   0 -10  -3  117.73   11.90
  -1 -10  -3   24.37    7.92
   1  10   3   24.13    7.37
  -2 -10  -3  134.61   12.55
   2  10   3  137.00   11.62
  -3 -10  -3    6.24    6.57
  -4 -10  -3  205.59   13.98
  -3  11   3   40.39   10.28
   3 -11  -3   40.59   11.09
   2 -11  -3   48.10   10.73
  -2  11   3   59.44   10.37
  -1  11   3   33.64    8.99
   1 -11  -3   41.09   10.08
   0 -11  -3   -0.99    7.62
   0  11   3   10.62    6.85
  -1 -11  -3  -11.33    6.27
   1  11   3    2.98    6.07
   2  11   3    7.32    6.52
  -2 -11  -3   18.93    7.64
  -3 -11  -3    7.20    7.24
   2 -12  -3    4.67    9.37
  -2  12   3   10.92    8.42
  -1  12   3    4.14    7.39
   1 -12  -3   -7.81    7.98
   0 -12  -3   -6.18    7.47
   0  12   3    0.14    6.79
   1  12   3   21.40    8.57
  -1 -12  -3   28.62    8.99
  -2 -12  -3    1.99    7.64
   1  11  -4   -4.91    6.20
   0  11  -4   26.28    8.66
   0 -11   4   39.09   12.62
   1 -11   4   29.76   12.26
  -1  11  -4   21.23    8.22
  -3 -10   4   67.77   14.78
  -2 -10   4    0.28   11.31
   2  10  -4    6.11    6.09
  -1 -10   4   12.85   11.14
   1  10  -4   16.09    6.92
   0  10  -4   -4.96    5.20
   0 -10   4   -2.45    8.75
   1 -10   4    5.44    9.46
  -1  10  -4   19.16    7.05
  -2  10  -4   14.10    7.43
  -2  10  -4    6.48    8.19
  -3  10  -4   11.64    8.66
  -3  10  -4   11.58    7.83
  -3  -9   4   45.10   11.89
  -2  -9   4   29.91   11.73
   2   9  -4   35.99    7.60
  -1  -9   4   83.08   13.20
   1   9  -4   93.70   10.84
   0   9  -4   19.17    6.63
   0  -9   4   21.17    9.91
  -1   9  -4   51.43    9.05
  -2   9  -4   60.67    9.65
  -2   9  -4   47.75    9.88
  -3   9  -4   26.17    8.06
  -3   9  -4   14.67    7.01
  -4   9  -4   84.50   11.77
   4  -9   4   77.74   12.10
  -4   9  -4   65.42   11.48
  -5  -8   4   14.53   11.24
  -4  -8   4   10.76   10.82
  -3  -8   4   63.68   13.15
   3   8  -4   58.99    8.34
  -2  -8   4   85.09   13.43
   2   8  -4  100.74   10.26
  -1  -8   4   23.53    9.83
   1   8  -4   15.04    5.70
   0   8  -4    4.34    4.97
   0  -8   4   16.29    8.96
  -1   8  -4   30.41    6.86
  -1   8  -4   28.37    8.20
  -2   8  -4   73.15    9.60
  -2   8  -4   86.61   10.78
   3  -8   4  137.27   12.90
  -3   8  -4  112.72   12.00
  -3   8  -4  110.76   11.49
  -4   8  -4   57.67    9.56
   4  -8   4   42.08    9.78
  -4   8  -4   43.28    9.65
   5  -8   4   27.54    9.85
  -5   8  -4   40.08    9.16
  -5   8  -4   53.21   10.74
  -6  -7   4    0.28   11.47
  -5  -7   4   -0.02    9.54
  -4  -7   4   64.47   12.38
   3   7  -4   73.95    8.87
  -3  -7   4   57.28   12.06
  -2  -7   4   -3.28    8.90
   2   7  -4   10.10    4.82
  -1  -7   4   14.41    8.17
   1   7  -4    2.10    4.00
   0   7  -4  474.63   18.10
   0  -7   4  502.18   20.80
  -1   7  -4   41.06    8.24
  -1   7  -4   39.28    7.08
  -2   7  -4   57.44    8.26
   2  -7   4   44.17    8.02
  -2   7  -4   75.57    9.67
   3  -7   4   80.82    9.75
  -3   7  -4   80.90    9.69
  -3   7  -4   59.53    9.01
   4  -7   4   -5.55    7.59
  -4   7  -4    2.24    5.52
  -4   7  -4    0.89    6.28
  -5   7  -4    3.71    6.25
  -5   7  -4    8.65    7.57
   5  -7   4   19.92    9.41
  -6   7  -4   78.20   12.28
   6  -7   4   87.32   13.64
  -6  -6   4   -4.41    9.33
  -5  -6   4  344.98   21.26
  -4  -6   4   65.42   12.41
  -3  -6   4  237.80   16.31
   3   6  -4  241.52   12.40
   2   6  -4   52.45    7.10
  -2  -6   4   55.58   11.33
   1   6  -4   76.87    8.26
  -1  -6   4   72.44   10.86
   0   6  -4   63.83    7.61
   0  -6   4   62.49    9.92
  -1   6  -4  128.69    9.99
  -1   6  -4  148.73   11.57
   1  -6   4  153.30   10.16
  -2   6  -4   26.09    6.10
  -2   6  -4   20.67    6.60
   2  -6   4    8.10    6.55
   3  -6   4  479.10   17.84
  -3   6  -4  504.73   19.56
  -3   6  -4  480.54   18.07
   4  -6   4   10.24    7.19
  -4   6  -4    3.53    5.09
  -4   6  -4   -2.65    5.66
  -5   6  -4   66.23    9.37
  -5   6  -4   63.65   10.23
   5  -6   4   59.15   10.84
   6  -6   4   18.59    9.85
  -6   6  -4   20.74    8.52
  -6  -5   4   18.38   10.77
  -5  -5   4   72.46   13.03
  -4  -5   4   33.15   10.05
   3   5  -4  173.58   10.55
  -3  -5   4  200.64   15.42
  -2  -5   4   86.92   11.29
   2   5  -4  116.10    8.86
  -1  -5   4  250.98   14.03
   1   5  -4  237.91   11.35
   0  -5   4   -1.81    3.89
   0   5  -4   -2.92    3.04
  -1   5  -4  130.19    9.58
   1  -5   4  145.62    9.48
  -1   5  -4  133.45    9.20
  -2   5  -4   30.56    6.69
   2  -5   4   32.12    6.61
  -2   5  -4   23.82    5.59
  -3   5  -4  522.78   17.82
   3  -5   4  515.45   17.84
  -3   5  -4  496.22   18.47
  -4   5  -4   10.02    5.16
  -4   5  -4    8.80    5.46
   4  -5   4   23.49    7.62
   5  -5   4  165.39   13.42
  -5   5  -4  161.33   11.73
  -5   5  -4  169.28   13.23
   6  -5   4   11.67    8.53
  -6   5  -4    0.03    6.60
   7  -5   4  133.49   15.34
  -7   5  -4  119.71   13.70
  -7  -4   4   72.37   13.35
  -6  -4   4   -1.29    8.73
  -5  -4   4   61.37   11.82
  -4  -4   4   11.72    8.68
  -3  -4   4 2321.34   49.86
   3   4  -4 2463.75   42.84
   2   4  -4    0.93    3.18
  -2  -4   4   -5.94    6.82
  -1  -4   4   27.27    7.07
   1   4  -4   19.28    4.29
   0   4  -4  928.63   21.82
   0  -4   4  939.76   17.77
   1  -4   4   27.29    4.69
  -1   4  -4   27.29    5.52
  -1   4  -4   33.92    5.19
  -2   4  -4   48.41    5.97
   2  -4   4   76.30    8.15
  -2   4  -4   58.73    7.01
  -3   4  -4    1.19    3.68
   3  -4   4    3.95    5.57
  -3   4  -4   -1.07    4.66
   4  -4   4   -0.04    6.79
  -4   4  -4   15.39    5.88
  -4   4  -4   12.06    4.74
   5  -4   4   20.20    7.90
  -5   4  -4   24.27    7.36
   6  -4   4   79.68   10.90
  -6   4  -4   52.18    9.43
   7  -4   4   11.02    8.61
  -7   4  -4    3.72    6.97
  -7  -3   4   30.25   10.16
  -6  -3   4    5.83    8.12
  -5  -3   4   -1.70    7.73
  -4  -3   4   37.43    9.81
  -3  -3   4  498.17   20.18
   3   3  -4  506.56   14.84
  -2  -3   4  494.96   17.68
   2   3  -4  487.42   14.17
   1   3  -4  186.85    8.66
  -1  -3   4  203.44   11.71
   0  -3   4  686.23   13.04
   0   3  -4  674.66   16.98
   0   3  -4  697.96   18.01
  -1   3  -4  378.22   13.40
   1  -3   4  393.54   10.60
  -1   3  -4  409.02   12.76
   2  -3   4  228.78    9.67
  -2   3  -4  233.95   10.85
  -2   3  -4  234.41   10.08
  -3   3  -4   -6.56    3.72
  -3   3  -4   -0.61    3.05
  -4   3  -4  250.33   13.26
  -4   3  -4  247.66   11.00
  -5   3  -4   26.91    6.98
   6  -3   4   83.69   11.28
  -6   3  -4   59.15    9.60
  -7   3  -4  101.27   11.65
   7  -3   4   97.00   11.84
   8  -3   4  193.15   17.67
  -7  -2   4   -8.50    6.94
  -6  -2   4   62.14   11.48
  -5  -2   4   47.46    9.85
  -4  -2   4  170.98   14.32
   4   2  -4  175.10    9.63
  -3  -2   4   37.29    7.63
   3   2  -4   32.01    4.70
   2   2  -4 1283.25   25.19
  -2  -2   4 1290.42   29.22
  -1  -2   4  585.94   16.92
   1   2  -4  572.18   14.73
   0  -2   4  285.88    6.55
   0   2  -4  289.62   10.47
   0   2  -4  307.89   10.05
  -1   2  -4  848.21   19.43
  -1   2  -4  862.56   16.07
  -1   2  -4  862.37   18.64
  -2   2  -4  728.16   16.34
  -2   2  -4  701.24   18.01
  -2   2  -4  716.38   16.75
  -3   2  -4  272.10   11.74
  -3   2  -4  271.87   10.78
  -3   2  -4  274.46   10.09
  -4   2  -4    6.69    4.72
  -4   2  -4    1.93    3.12
  -4   2  -4    7.84    4.65
  -5   2  -4  302.39   14.60
  -5   2  -4  304.91   15.28
  -6   2  -4   78.69   10.27
  -6   2  -4   62.71    9.27
  -7   2  -4  145.94   13.73
   8  -2   4   17.61    9.72
  -8   2  -4   31.87   10.35
  -7  -1   4   61.51   11.34
  -6  -1   4   17.47    8.72
  -5  -1   4   58.30   10.21
  -4  -1   4    4.15    6.45
   3   1  -4  153.56    7.07
   3   1  -4  151.24    8.33
  -3  -1   4  148.88   11.48
  -2  -1   4  111.66    9.38
   2   1  -4  107.86    4.61
   2   1  -4  103.56    6.76
   1   1  -4   53.15    5.12
  -1  -1   4   56.75    7.31
   0   1  -4  631.78   10.85
   0   1  -4  667.14   15.06
  -1   1  -4  431.83   11.97
  -1   1  -4  431.07    9.92
  -1   1  -4  455.64   11.84
  -2   1  -4   19.22    3.65
  -2   1  -4   24.19    3.77
  -2   1  -4   26.12    3.44
  -3   1  -4 2056.33   37.48
  -3   1  -4 2134.68   39.75
  -3   1  -4 2189.06   35.37
  -4   1  -4  209.07   10.78
  -4   1  -4  216.64   11.08
  -4   1  -4  212.40    8.54
  -5   1  -4   34.03    7.12
  -5   1  -4   21.55    6.48
  -6   1  -4    7.24    5.63
  -6   1  -4   -1.13    4.81
  -7   1  -4   -0.20    6.91
  -7   1  -4   -2.92    5.88
  -8   1  -4   38.27   10.04
  -8   1  -4   50.14   10.90
  -7   0   4  168.81   15.48
  -6   0   4    3.58    7.23
  -5   0   4  194.73   14.28
  -4   0   4   67.16    7.85
  -4   0   4   43.95    8.20
   4   0  -4   37.99    6.23
   3   0  -4   53.01    6.10
  -3   0   4   69.72    8.84
   2   0  -4 4375.68   62.45
   2   0  -4 4358.96   65.33
  -2   0   4 4271.02   69.40
  -1   0   4  772.66   17.30
   1   0  -4  762.63   16.64
   1   0  -4  747.99   12.98
   0   0  -4 2308.55   37.16
   0   0  -4 2329.21   34.28
   0   0   4 2334.11   37.46
  -1   0  -4  584.91   13.08
  -1   0  -4  595.35   13.30
  -2   0  -4  104.51    6.19
  -2   0  -4  104.86    6.04
  -3   0  -4 1758.65   28.49
  -3   0  -4 1732.69   32.03
  -3   0  -4 1686.49   32.83
  -4   0  -4    5.75    2.45
  -4   0  -4    5.44    3.94
  -4   0  -4    8.85    4.29
  -5   0  -4   60.37    8.19
  -5   0  -4   52.29    7.43
  -6   0  -4  137.37   11.73
  -6   0  -4  137.91   10.55
  -7   0  -4   40.28    8.56
  -7   0  -4   26.08    8.42
  -8   0  -4   11.15    7.53
  -8   0  -4   25.69    9.43
  -7   1   4    8.79    8.03
  -6   1   4   80.51   11.17
   5  -1  -4  288.83   14.09
  -5   1   4  280.82   15.60
  -4   1   4  119.75   10.99
  -4   1   4  144.73   11.51
  -3   1   4   45.02    6.37
   3  -1  -4   55.42    6.54
  -3   1   4   50.05    6.81
   2  -1  -4  226.26    8.05
  -2   1   4  225.27    9.92
  -2   1   4  225.49   10.37
  -1   1   4   63.52    5.70
   1  -1  -4   59.71    4.74
   1  -1  -4   59.19    5.31
   0  -1  -4  405.75    9.26
   0   1   4  405.18    9.36
   0  -1  -4  393.03   10.70
  -1  -1  -4  615.65   12.21
  -1  -1  -4  593.92   12.76
  -1  -1  -4  623.34   13.24
  -2  -1  -4  465.87   10.47
  -2  -1  -4  464.78   12.17
  -2  -1  -4  449.61   11.54
  -3  -1  -4  713.22   13.41
  -3  -1  -4  721.16   17.59
  -3  -1  -4  705.97   17.46
  -4  -1  -4   76.78    7.13
  -4  -1  -4   86.41    7.52
  -5  -1  -4    7.91    5.43
  -5  -1  -4   24.19    5.95
  -6  -1  -4   -4.68    5.22
  -6  -1  -4    0.01    5.05
  -7  -1  -4   62.32   10.47
  -7  -1  -4   65.90    9.44
  -8  -1  -4   57.17   10.97
  -8  -1  -4   53.14   10.02
  -7   2   4   -6.50    6.51
   6  -2  -4  192.41   13.91
  -6   2   4  202.85   14.50
   5  -2  -4    2.76    6.32
  -5   2   4   -5.33    5.38
  -4   2   4    7.83    5.77
  -4   2   4    0.65    6.09
   4  -2  -4    1.29    5.93
  -3   2   4  117.98   10.12
  -3   2   4   99.73    8.65
   3  -2  -4  102.74    8.67
  -2   2   4  501.19   13.50
   2  -2  -4  480.15   12.86
  -2   2   4  469.59   14.86
  -1   2   4  493.10   11.15
   1  -2  -4  501.96   12.27
  -1   2   4  470.45   13.76
   0   2   4 1202.45   22.70
   0  -2  -4 1149.07   21.06
   0   2   4 1199.03   19.62
  -1  -2  -4  730.03   15.59
   1   2   4  751.77   15.61
  -1  -2  -4  746.05   13.09
  -2  -2  -4  309.97    9.95
  -2  -2  -4  316.85    9.01
   3   2   4 1429.83   22.83
  -3  -2  -4 1423.79   27.90
  -3  -2  -4 1458.16   28.29
  -4  -2  -4  170.63    9.51
  -4  -2  -4  172.54    9.88
  -5  -2  -4  193.47   10.75
  -5  -2  -4  195.11   12.25
  -6  -2  -4  184.99   13.07
  -6  -2  -4  169.43   11.62
  -7  -2  -4   37.30    8.71
  -7  -2  -4   27.64    7.43
  -8  -2  -4   55.84    9.67
  -8  -2  -4   34.63    9.82
   7  -3  -4   97.30   13.24
  -7   3   4   79.40   11.91
  -6   3   4    2.84    6.29
   6  -3  -4   -5.11    7.34
  -5   3   4  150.75   11.52
   5  -3  -4  175.30   12.83
  -4   3   4  497.11   17.88
   4  -3  -4  495.66   17.52
  -4   3   4  490.28   17.23
  -3   3   4    7.39    5.40
   3  -3  -4    0.71    4.71
  -3   3   4    1.27    3.78
  -2   3   4    1.79    4.35
   2  -3  -4    6.66    4.21
  -2   3   4    0.95    2.73
  -1   3   4 1810.51   28.92
  -1   3   4 1843.91   33.10
   1  -3  -4 1766.28   31.49
   0   3   4 1289.18   24.83
   0  -3  -4 1288.21   24.10
  -1  -3  -4  715.51   16.15
  -1  -3  -4  709.70   12.32
   1   3   4  700.29   15.83
  -2  -3  -4   48.39    5.37
   2   3   4   61.03    5.75
  -2  -3  -4   49.33    4.83
  -3  -3  -4  600.49   15.52
  -3  -3  -4  624.94   16.50
   3   3   4  624.50   12.34
  -4  -3  -4   16.40    4.92
  -4  -3  -4   16.42    4.79
  -5  -3  -4   27.23    6.06
  -5  -3  -4   45.52    7.48
  -6  -3  -4  195.52   13.49
  -6  -3  -4  215.99   12.54
  -7  -3  -4   24.76    8.10
  -7  -3  -4   33.58    7.58
  -8  -3  -4   29.59    8.21
  -8  -3  -4   17.44    8.27
  -7   4   4   70.48   11.34
   7  -4  -4   80.08   13.42
   6  -4  -4   -1.04    7.65
  -6   4   4   -7.46    5.12
  -5   4   4   52.31    8.15
   5  -4  -4   54.53    9.90
  -5   4   4   44.96    8.37
  -4   4   4  274.78   12.77
  -4   4   4  243.94   14.30
   4  -4  -4  236.19   13.98
  -3   4   4    5.83    4.02
  -3   4   4   14.63    6.06
   3  -4  -4   -3.41    5.39
  -2   4   4   61.87    7.12
  -2   4   4   74.23    5.66
   2  -4  -4   62.16    7.74
  -1   4   4 3202.06   52.68
  -1   4   4 3175.96   48.50
   1  -4  -4 3225.86   51.97
   0  -4  -4 2213.28   38.27
   0   4   4 2250.39   38.61
  -1  -4  -4 1260.26   25.28
   1   4   4 1296.56   24.71
  -1  -4  -4 1260.54   21.04
  -2  -4  -4  257.56    8.47
   2   4   4  236.74    9.33
  -2  -4  -4  246.54   10.17
   3   4   4  676.12   13.75
  -3  -4  -4  631.12   16.56
  -3  -4  -4  660.60   17.57
  -4  -4  -4  190.69   10.50
  -4  -4  -4  205.40   11.15
  -5  -4  -4   20.91    6.90
  -5  -4  -4   15.48    5.63
  -6  -4  -4    0.18    4.71
  -6  -4  -4   -1.01    5.61
  -7  -4  -4   13.06    6.23
  -7  -4  -4   25.69    8.51
  -8  -4  -4   34.84    9.87
  -8  -4  -4   41.23    8.90
   7  -5  -4   27.56   11.28
  -7   5   4   26.11    9.12
   6  -5  -4   -0.69    8.25
  -6   5   4   -5.54    5.88
   5  -5  -4   51.79    9.92
  -5   5   4   45.86    7.96
  -5   5   4   35.06    8.18
   4  -5  -4   43.34    8.86
  -4   5   4   48.61    6.85
  -4   5   4   30.44    7.77
  -3   5   4   73.68    6.67
   3  -5  -4   84.22   10.34
  -3   5   4   89.22   10.93
  -2   5   4    1.42    2.72
   2  -5  -4   -0.34    5.33
  -2   5   4   -0.11    5.18
  -1   5   4   21.14    5.61
  -1   5   4   29.16    3.13
   1  -5  -4   18.20    5.40
   0  -5  -4  169.27    9.63
   0   5   4  175.84   10.29
  -1  -5  -4  140.53    6.47
  -1  -5  -4  130.87    8.68
   1   5   4  125.35    8.96
  -2  -5  -4  166.98    9.28
   2   5   4  160.89    8.45
  -2  -5  -4  153.29    7.89
   3   5   4  234.07    8.76
  -3  -5  -4  225.27   10.75
  -3  -5  -4  219.76   10.86
  -4  -5  -4  283.25   13.79
  -4  -5  -4  262.54   12.37
  -5  -5  -4   44.17    8.26
  -5  -5  -4   41.59    7.32
  -6  -5  -4  449.65   19.75
  -6  -5  -4  444.43   18.01
  -7  -5  -4  105.94   11.11
  -7  -5  -4   76.76   11.62
  -8  -5  -4   93.56   13.58
  -8  -5  -4   72.43   11.07
   6  -6  -4   -5.36    9.72
   5  -6  -4   -4.64    8.07
  -5   6   4   -6.88    6.39
   4  -6  -4  188.15   13.86
  -4   6   4  182.93   10.85
  -4   6   4  178.74   13.20
  -3   6   4  122.58   12.06
   3  -6  -4  104.58   11.95
  -3   6   4  116.26    8.28
  -2   6   4  247.33   13.87
   2  -6  -4  233.76   13.42
  -2   6   4  258.16    9.91
  -1   6   4  584.17   18.66
   1  -6  -4  562.49   17.67
  -1   6   4  567.64   13.64
   0  -6  -4  323.91    9.97
   0  -6  -4  293.59   12.89
   0   6   4  302.76   13.26
  -1  -6  -4    8.86    5.19
  -1  -6  -4   10.40    4.18
   1   6   4   11.25    4.92
  -2  -6  -4  863.91   20.12
  -2  -6  -4  859.14   22.04
   2   6   4  870.54   20.40
  -3  -6  -4   82.62    9.15
   3   6   4   92.90    7.40
  -3  -6  -4   97.65    8.67
  -4  -6  -4  204.09   13.15
  -4  -6  -4  201.25   11.64
  -5  -6  -4   18.18    7.10
  -5  -6  -4   19.64    5.99
  -6  -6  -4  495.53   19.27
  -6  -6  -4  484.30   20.99
  -7  -6  -4   18.35    6.77
  -7  -6  -4   16.49    9.19
   6  -7  -4   33.45   11.42
   5  -7  -4   -1.95    8.32
  -5   7   4  -17.89    6.04
  -4   7   4  110.10   12.17
   4  -7  -4  111.23   12.63
  -3   7   4  135.75   11.88
   3  -7  -4  117.91   12.21
  -2   7   4   89.19    9.75
   2  -7  -4   75.95   10.07
  -1   7   4  149.45   11.64
   1  -7  -4  164.91   11.11
   0  -7  -4    9.77    6.36
   0   7   4   10.56    5.71
  -1  -7  -4  153.56   10.84
   1   7   4  175.08   11.17
  -2  -7  -4   -2.29    5.20
  -2  -7  -4   -1.45    4.98
   2   7   4   15.88    5.30
  -3  -7  -4   89.31   10.43
   3   7   4   76.05    8.10
  -3  -7  -4   87.56    9.31
  -4  -7  -4   17.87    5.75
  -4  -7  -4   -1.90    3.98
  -5  -7  -4  189.77   13.98
  -5  -7  -4  194.19   12.31
  -6  -7  -4   99.97   12.46
  -6  -7  -4   83.60    9.88
  -7  -7  -4   51.03   11.00
  -7  -7  -4   23.29    7.53
   5  -8  -4   10.64    9.84
  -5   8   4   11.74    8.12
   4  -8  -4    3.69    7.58
  -4   8   4    3.68    7.03
  -3   8   4  179.90   13.83
   3  -8  -4  198.09   14.57
  -2   8   4  109.98   11.32
   2  -8  -4  117.60   11.76
   1  -8  -4   10.44    7.41
  -1   8   4   14.72    6.91
   0  -8  -4  280.96   14.66
   0   8   4  290.77   14.94
   1   8   4  254.62   13.52
  -1  -8  -4  284.83   14.53
  -2  -8  -4    2.10    5.97
   2   8   4   -3.19    5.01
  -3  -8  -4    5.68    5.66
  -4  -8  -4   -1.72    5.02
  -5  -8  -4   11.35    5.95
  -6  -8  -4   -4.76    5.48
  -5   9   4   38.67   10.63
   5  -9  -4   45.56   12.37
   4  -9  -4   46.41   11.18
  -4   9   4   76.69   11.46
  -3   9   4   57.48    9.90
   3  -9  -4   56.16    9.81
   2  -9  -4   24.12    8.37
  -2   9   4   26.42    8.21
  -1   9   4   59.57    9.16
   1  -9  -4   50.99    9.04
   0  -9  -4   29.50    7.84
   0   9   4   20.10    7.12
  -1  -9  -4   50.43    8.92
   1   9   4   45.99    7.99
   2   9   4   84.12    9.78
  -2  -9  -4   89.29   10.11
  -3  -9  -4   42.58    8.18
  -4  -9  -4  129.55   11.15
  -5  -9  -4   50.28    8.67
   4 -10  -4   64.93   12.30
  -4  10   4   78.46   12.59
   3 -10  -4    2.73    8.42
  -3  10   4   -5.51    7.01
  -2  10   4   31.61    8.89
   2 -10  -4   21.22    8.68
  -1  10   4   -5.72    5.89
   1 -10  -4    2.85    7.08
   0  10   4   59.12    9.53
   0 -10  -4   34.14    8.85
   1  10   4   -0.07    5.88
  -1 -10  -4   -3.77    6.44
  -2 -10  -4  414.04   18.36
   2  10   4  390.62   17.59
  -3 -10  -4  171.35   13.01
  -4 -10  -4   10.56    6.32
  -5 -10  -4   16.02    7.29
   3 -11  -4    8.49    9.55
  -3  11   4    1.59    8.24
   2 -11  -4  131.38   13.92
  -2  11   4  108.52   13.04
   1 -11  -4   -3.86    7.96
  -1  11   4   -7.66    6.07
   0  11   4  171.80   14.01
   0 -11  -4  136.43   12.98
  -1 -11  -4   11.11    7.47
   1  11   4   11.69    6.96
  -2 -11  -4   32.85    8.79
   2  11   4   32.21    8.17
  -3 -11  -4   12.58    7.54
  -4 -11  -4   26.59    8.13
   2 -12  -4    2.96    9.45
  -2  12   4   13.42    8.77
  -1  12   4    3.42    7.55
   1 -12  -4   11.57    9.08
   0  12   4   71.73   11.47
   0 -12  -4   71.61   11.77
   1  12   4   -2.75    6.60
  -1 -12  -4    1.80    7.68
  -2 -12  -4   18.61    8.80
  -3 -12  -4   49.95   10.68
   2  10  -5    1.88    5.71
  -2 -10   5  -15.79   11.28
  -1 -10   5  108.79   15.90
   1  10  -5  100.54   11.91
   0  10  -5   63.21   10.14
   0 -10   5   87.59   14.19
  -1  10  -5    1.90    6.55
   1 -10   5   11.88   10.28
  -2  10  -5  -14.00    8.55
  -2  10  -5   12.84    7.47
  -3  -9   5   27.94   12.38
  -2  -9   5   42.18   11.70
   2   9  -5   36.60    7.99
  -1  -9   5   80.30   13.91
   1   9  -5   97.62   11.11
   0  -9   5   64.51   12.45
   0   9  -5   53.13    9.48
   1  -9   5   38.52   10.82
  -1   9  -5   26.25    7.16
  -2   9  -5   38.35    9.78
  -2   9  -5   35.21    8.44
  -3   9  -5   80.63   11.28
  -3   9  -5   76.16   11.82
  -4   9  -5    6.23    7.98
  -4   9  -5   -5.53    6.15
  -4  -8   5   20.29   11.86
   3   8  -5    0.85    4.70
  -3  -8   5    5.70   10.44
  -2  -8   5  -11.43    9.66
   2   8  -5    6.52    5.02
  -1  -8   5   14.41    9.21
   1   8  -5   13.95    5.77
   0  -8   5   75.35   12.30
   0   8  -5   77.84    9.55
  -1   8  -5   70.12    9.33
  -2   8  -5    1.65    5.29
  -2   8  -5    3.72    6.44
  -3   8  -5   38.28    8.55
  -3   8  -5   39.88    9.38
  -4   8  -5   19.48    7.73
  -4   8  -5   27.03    8.78
   4  -8   5   11.96    8.82
  -5   8  -5   63.81   11.85
  -5   8  -5   77.69   11.65
   5  -8   5   69.65   12.21
  -5  -7   5  -17.00   10.19
  -4  -7   5   40.41   11.50
  -3  -7   5    7.55    8.95
   3   7  -5   26.95    6.25
  -2  -7   5   91.12   13.67
   2   7  -5  128.72   10.63
   1   7  -5  156.72   11.26
  -1  -7   5  145.69   14.73
   0  -7   5  215.07   15.64
   0   7  -5  210.42   12.72
  -1   7  -5    3.50    4.76
  -1   7  -5    7.47    6.61
  -2   7  -5  158.15   11.70
  -2   7  -5  150.91   12.48
   3  -7   5   35.99    8.44
  -3   7  -5   41.14    9.10
  -3   7  -5   45.05    8.13
  -4   7  -5  166.80   14.00
   4  -7   5  143.44   12.97
  -4   7  -5  163.88   12.98
  -5   7  -5    6.72    6.94
   5  -7   5   -2.04    7.86
  -5   7  -5    3.79    6.43
  -6   7  -5   84.04   13.05
   6  -7   5   60.13   12.70
  -6  -6   5  161.11   19.40
  -5  -6   5    6.90   10.72
  -4  -6   5   92.88   13.96
   3   6  -5   -1.14    3.80
  -3  -6   5    4.40    8.66
  -2  -6   5   -2.64    7.87
   2   6  -5    2.84    4.35
  -1  -6   5  111.82   12.60
   1   6  -5  124.00    9.81
   0  -6   5  104.47   11.80
   0   6  -5  134.34   10.35
  -1   6  -5  284.85   15.13
  -1   6  -5  290.60   14.16
  -2   6  -5   19.14    5.88
   2  -6   5   11.03    6.19
  -2   6  -5   14.97    6.56
  -3   6  -5    3.34    5.04
  -3   6  -5   -2.67    4.71
   3  -6   5   -3.85    5.75
  -4   6  -5   67.54   10.15
  -4   6  -5   66.48    8.96
   4  -6   5   44.80    9.49
  -5   6  -5   52.00    9.89
  -5   6  -5   52.64    8.81
   5  -6   5   45.01    9.92
  -6   6  -5   46.95   10.12
   6  -6   5   23.60   10.52
  -6  -5   5  -15.01    8.98
  -5  -5   5   57.00   12.99
  -4  -5   5   -3.47    8.43
  -3  -5   5   66.67   11.17
   3   5  -5   80.42    8.42
  -2  -5   5    9.76    8.95
   2   5  -5    6.82    4.45
  -1  -5   5  169.88   14.30
   1   5  -5  202.23   10.93
   0   5  -5    5.46    4.01
   0  -5   5   11.75    7.28
   1  -5   5  116.28    8.78
  -1   5  -5  122.34    9.34
  -1   5  -5  122.35   10.65
   2  -5   5  408.11   14.68
  -2   5  -5  418.06   16.92
  -2   5  -5  409.73   15.88
  -3   5  -5    5.31    4.84
   3  -5   5   -4.52    5.82
  -3   5  -5    4.09    5.11
  -4   5  -5   41.22    8.26
  -4   5  -5   42.78    7.29
   4  -5   5   23.95    7.62
  -5   5  -5   69.38   10.06
  -5   5  -5   89.83   10.30
   5  -5   5   93.75   11.64
  -6   5  -5   -0.55    6.05
   6  -5   5    4.63    8.08
   7  -5   5   35.65   11.48
  -7   5  -5   29.04    9.60
  -6  -4   5    4.03    9.69
  -5  -4   5   95.80   13.70
  -4  -4   5    9.61    8.61
   3   4  -5    2.85    3.81
  -3  -4   5    2.53    8.63
   2   4  -5   53.16    6.58
  -2  -4   5   59.82    9.68
  -1  -4   5  385.27   16.37
   1   4  -5  378.26   13.93
   0   4  -5    5.67    3.62
   0  -4   5    2.88    6.07
  -1   4  -5   87.27    8.95
   1  -4   5  113.76    7.61
  -1   4  -5   95.25    8.00
  -2   4  -5   21.20    4.96
   2  -4   5   16.08    5.03
  -2   4  -5   14.98    5.17
  -3   4  -5  613.64   18.64
  -3   4  -5  592.41   20.30
   3  -4   5  610.02   18.39
  -4   4  -5   -5.00    4.90
  -4   4  -5   -5.81    3.99
   4  -4   5   -1.35    6.51
   5  -4   5   37.92    8.79
  -5   4  -5   30.02    7.65
   6  -4   5   76.62   11.49
  -6   4  -5   78.88   11.32
  -7   4  -5   47.60   10.32
   7  -4   5   41.96   10.87
  -7  -3   5   22.09   11.63
  -6  -3   5   -0.99    8.80
  -5  -3   5  184.31   16.18
  -4  -3   5   11.07    7.87
   3   3  -5  578.65   16.96
  -3  -3   5  526.70   21.58
  -2  -3   5  270.54   15.35
   2   3  -5  240.54   10.92
  -1  -3   5  635.67   19.88
   1   3  -5  636.33   17.45
   0  -3   5  119.95    5.34
   0   3  -5  109.94    7.63
   1  -3   5   20.57    3.81
  -1   3  -5   18.84    4.14
  -1   3  -5   20.91    4.84
  -2   3  -5  257.78   11.08
  -2   3  -5  262.72   12.13
   2  -3   5  242.81   10.51
  -3   3  -5 1374.56   31.57
  -3   3  -5 1336.29   28.41
  -4   3  -5   -2.21    5.16
  -4   3  -5    4.98    3.93
  -5   3  -5    3.01    5.55
  -6   3  -5  418.98   19.86
  -7   3  -5   33.18    9.48
   7  -3   5   53.52   10.92
  -7  -2   5   -4.19    8.79
  -6  -2   5   32.41   10.48
  -5  -2   5  132.97   14.19
   4   2  -5   32.06    5.62
  -4  -2   5   37.65    9.47
  -3  -2   5    6.94    7.50
   3   2  -5    2.78    3.51
  -2  -2   5 1022.13   26.18
   2   2  -5  985.84   22.36
   1   2  -5    8.18    3.43
  -1  -2   5   13.54    5.35
   0   2  -5  308.94   11.16
   0  -2   5  297.95    6.75
  -1   2  -5 1322.90   22.61
  -1   2  -5 1306.06   27.42
  -1   2  -5 1328.88   26.35
  -2   2  -5  485.40   14.05
  -2   2  -5  489.91   12.91
  -2   2  -5  476.76   15.20
  -3   2  -5    2.82    3.80
  -3   2  -5    6.08    3.36
  -3   2  -5   10.71    4.19
  -4   2  -5  187.59    9.48
  -4   2  -5  182.03   10.84
  -4   2  -5  171.50   10.88
  -5   2  -5  291.57   14.43
  -5   2  -5  280.84   15.09
  -6   2  -5  204.54   13.81
  -6   2  -5  209.01   14.31
  -7   2  -5  107.00   12.60
  -7   2  -5   73.80   11.13
  -8   2  -5   -1.27    8.18
  -7  -1   5   27.92   10.34
  -6  -1   5   55.97   11.35
  -5  -1   5  338.92   18.50
  -4  -1   5   15.97    8.22
   4   1  -5   16.29    5.13
  -3  -1   5   65.98    9.00
   3   1  -5   75.15    7.66
   2   1  -5   19.90    4.10
  -2  -1   5   15.60    5.39
   2   1  -5   10.02    2.24
  -1  -1   5   48.97    6.36
   1   1  -5   71.58    6.03
   0   1  -5  180.85    8.31
   0   1  -5  183.36    4.72
   0  -1   5  191.36    9.03
  -1   1  -5  581.52   14.95
  -1   1  -5  592.83   12.50
  -1   1  -5  596.83   15.27
  -2   1  -5  362.47   11.05
  -2   1  -5  372.20   11.49
  -2   1  -5  369.45   12.42
  -3   1  -5   15.44    4.24
  -3   1  -5   20.16    4.80
  -4   1  -5  188.83   10.64
  -4   1  -5  196.44   11.42
  -4   1  -5  199.79    8.77
  -5   1  -5  112.00   10.49
  -5   1  -5  118.01   10.26
  -6   1  -5   32.38    7.91
  -6   1  -5   29.56    7.37
  -7   1  -5  113.65   11.77
  -7   1  -5   99.49   11.19
  -8   1  -5   75.58   11.73
  -8   1  -5   37.53   10.55
  -7   0   5   93.20   13.55
  -6   0   5   -5.79    6.98
  -5   0   5  562.13   22.30
  -4   0   5  134.13   12.77
   3   0  -5    3.58    3.85
   3   0  -5   -0.71    3.15
  -3   0   5    5.10    5.95
   2   0  -5   40.06    4.93
  -2   0   5   50.36    6.54
   2   0  -5   38.43    3.76
   1   0  -5  662.83   16.14
   1   0  -5  611.49   11.34
  -1   0   5  619.77   16.19
   0   0  -5 1521.95   28.14
   0   0   5 1554.42   27.92
   0   0  -5 1589.43   24.32
  -1   0  -5  260.29    9.22
  -1   0  -5  265.92    8.85
  -1   0  -5  271.57    7.92
  -2   0  -5  401.27   11.97
  -2   0  -5  405.86   11.35
  -2   0  -5  394.79   11.59
  -3   0  -5 1711.50   33.72
  -3   0  -5 1744.73   32.64
  -3   0  -5 1766.91   30.01
  -4   0  -5   84.36    8.20
  -4   0  -5   78.65    7.88
  -4   0  -5   75.59    5.88
  -5   0  -5   71.69    8.56
  -5   0  -5   68.91    8.72
  -6   0  -5    5.98    6.00
  -6   0  -5   -0.07    5.20
  -7   0  -5   -0.36    5.53
  -7   0  -5    4.18    6.95
  -8   0  -5    6.50    7.04
  -8   0  -5    3.12    7.69
  -7   1   5  225.74   17.17
  -6   1   5   19.37    8.17
  -5   1   5  112.56   11.72
  -4   1   5  267.88   14.77
  -4   1   5  280.75   14.57
   4  -1  -5  261.42   12.26
   3  -1  -5  145.69    8.19
  -3   1   5  122.86   10.41
  -3   1   5  124.36   10.76
  -2   1   5  366.96   12.86
   2  -1  -5  370.67   12.41
   2  -1  -5  359.22   10.38
   1  -1  -5  135.67    5.86
   1  -1  -5  127.53    7.23
  -1   1   5  127.41    7.37
   0  -1  -5   32.24    3.18
   0   1   5   31.17    3.53
   0  -1  -5   23.16    3.56
  -1  -1  -5  941.05   17.86
  -1  -1  -5  932.57   17.53
  -1  -1  -5  908.42   18.69
  -3  -1  -5 1031.10   18.92
  -3  -1  -5 1011.77   22.45
  -3  -1  -5  973.99   22.10
  -4  -1  -5   78.72    7.62
  -4  -1  -5   76.08    7.71
  -5  -1  -5    6.85    4.66
  -5  -1  -5   11.72    5.79
  -6  -1  -5  253.97   13.94
  -6  -1  -5  228.47   13.92
  -7  -1  -5   19.95    7.12
  -7  -1  -5   45.89    9.31
  -8  -1  -5   40.07   10.06
  -8  -1  -5   24.57    8.07
  -7   2   5   55.22   10.93
  -6   2   5    0.26    6.68
  -5   2   5   -1.90    5.45
   5  -2  -5   -4.44    6.47
  -4   2   5  987.02   26.25
  -4   2   5  982.65   26.20
   4  -2  -5  984.91   23.98
  -3   2   5  505.82   16.53
  -3   2   5  495.70   17.55
  -2   2   5 1322.44   27.92
  -2   2   5 1286.37   25.97
  -1   2   5    5.22    4.18
  -1   2   5    8.86    3.07
   0  -2  -5 3505.89   53.05
   0   2   5 3512.19   52.65
  -1  -2  -5 1723.88   29.93
  -1  -2  -5 1761.25   29.98
  -1  -2  -5 1739.98   27.60
  -2  -2  -5   33.32    4.38
  -2  -2  -5   36.58    4.37
  -2  -2  -5   34.17    3.60
  -3  -2  -5  488.15   13.75
  -3  -2  -5  475.10   14.27
  -4  -2  -5  286.17   12.24
  -4  -2  -5  269.31   11.86
  -5  -2  -5   42.30    7.18
  -5  -2  -5   49.38    7.60
  -6  -2  -5   66.02    8.68
  -6  -2  -5   91.55   10.30
  -7  -2  -5   34.34    7.51
  -7  -2  -5   20.63    7.75
  -8  -2  -5   15.07    8.65
  -8  -2  -5    5.71    6.78
  -7   3   5   71.91   11.46
  -6   3   5   25.63    7.73
   6  -3  -5   14.71    8.69
  -5   3   5    8.65    6.34
   5  -3  -5   -1.49    6.49
  -5   3   5    0.52    6.64
  -4   3   5  127.29   10.26
   4  -3  -5  120.12   10.90
  -4   3   5  123.18   12.81
  -3   3   5    3.61    6.16
   3  -3  -5    2.39    5.17
  -3   3   5    5.35    4.10
  -2   3   5  117.30   10.47
  -2   3   5  118.38    6.85
   2  -3  -5  116.55    8.15
   1  -3  -5 1114.93   22.55
  -1   3   5 1112.65   24.71
  -1   3   5 1097.18   19.44
   0  -3  -5  552.30   14.07
   0   3   5  569.89   15.57
   1   3   5 3102.74   49.31
  -1  -3  -5 3148.33   49.69
  -2  -3  -5   24.06    4.32
  -2  -3  -5   20.86    2.97
   2   3   5   24.15    4.24
   3   3   5   87.20    6.37
  -3  -3  -5   70.64    6.70
  -3  -3  -5   87.02    6.60
  -4  -3  -5  137.36    9.28
  -4  -3  -5  163.56    9.63
  -5  -3  -5  150.10   11.13
  -5  -3  -5  154.69   10.71
  -6  -3  -5   90.97   10.53
  -6  -3  -5   81.97    9.19
  -7  -3  -5    4.34    5.63
  -7  -3  -5   -9.67    5.74
  -8  -3  -5    4.65    7.79
  -8  -3  -5   17.46    7.30
  -7   4   5   70.08   11.38
  -6   4   5   -4.19    5.90
   6  -4  -5    0.04    8.49
  -5   4   5   40.22    8.82
  -5   4   5   45.31    7.81
   5  -4  -5   66.22    9.94
  -4   4   5  220.35   14.15
  -4   4   5  215.35   11.73
   4  -4  -5  229.05   14.44
   3  -4  -5  120.87   10.43
  -3   4   5  120.38    8.36
  -3   4   5  111.50   11.75
  -2   4   5  620.93   14.86
  -2   4   5  647.74   19.64
   2  -4  -5  625.02   17.85
   1  -4  -5    5.91    4.38
  -1   4   5   -2.59    4.43
  -1   4   5   -0.54    1.65
   0   4   5   17.46    5.07
   0  -4  -5   13.35    4.44
   1   4   5  921.08   20.58
  -1  -4  -5  889.12   20.38
  -2  -4  -5  676.00   17.77
   2   4   5  692.13   16.50
  -2  -4  -5  700.84   14.47
   3   4   5   90.97    7.01
  -3  -4  -5   85.87    6.92
  -3  -4  -5   86.97    7.46
  -4  -4  -5    1.77    4.32
  -4  -4  -5    0.13    3.98
  -5  -4  -5  693.08   21.30
  -5  -4  -5  734.61   21.93
  -6  -4  -5  162.79   12.54
  -6  -4  -5  163.78   11.66
  -7  -4  -5   39.08    9.12
  -7  -4  -5   41.89    8.37
  -8  -4  -5   31.36    8.32
  -8  -4  -5   41.07   10.62
   7  -5  -5   76.76   13.86
   6  -5  -5   37.08   10.71
  -5   5   5    4.66    7.30
   5  -5  -5   12.73    8.48
  -4   5   5  108.78    9.26
  -4   5   5  132.41   12.66
   4  -5  -5  117.68   11.76
  -3   5   5   76.30    7.44
   3  -5  -5   73.86    9.48
  -3   5   5   83.12    9.86
   2  -5  -5    4.74    5.63
  -2   5   5    5.72    3.07
  -2   5   5    2.22    6.08
  -1   5   5   52.94    7.46
   1  -5  -5   64.95    7.31
  -1   5   5   59.04    4.05
   0  -5  -5   14.69    5.05
   0   5   5   18.07    5.45
   1   5   5   61.22    6.61
  -1  -5  -5   74.22    6.83
  -1  -5  -5   56.94    3.78
   2   5   5   37.75    5.61
  -2  -5  -5   45.43    6.29
  -2  -5  -5   41.36    4.11
   3   5   5   26.22    4.69
  -3  -5  -5   23.94    5.44
  -3  -5  -5   24.63    4.74
  -4  -5  -5   58.80    7.58
  -5  -5  -5  348.88   15.59
  -5  -5  -5  329.83   15.09
  -6  -5  -5   23.73    7.69
  -6  -5  -5   31.26    7.05
  -7  -5  -5   -0.46    6.01
  -7  -5  -5   -2.69    6.81
  -8  -5  -5   27.84    9.85
  -8  -5  -5   49.01    9.63
   6  -6  -5   -2.57    9.47
   5  -6  -5   29.47    9.68
  -5   6   5   28.49    8.66
   4  -6  -5   81.12   10.98
  -4   6   5   65.86    9.64
   3  -6  -5   37.26    8.78
  -3   6   5   45.05    8.87
  -2   6   5   30.21    7.85
   2  -6  -5   39.44    8.22
  -1   6   5   10.70    6.33
   1  -6  -5    3.05    5.66
   0  -6  -5   61.17    7.61
   0   6   5   58.64    7.71
  -1  -6  -5  123.96    9.66
   1   6   5  127.44    9.97
  -2  -6  -5  206.53   11.34
   2   6   5  206.43   10.92
   3   6   5  403.20   13.15
  -3  -6  -5  433.70   14.19
  -3  -6  -5  438.49   16.08
  -4  -6  -5  176.58   11.69
  -4  -6  -5  194.89   11.69
  -5  -6  -5  173.16   11.74
  -5  -6  -5  203.38   13.25
  -6  -6  -5  561.65   21.75
  -6  -6  -5  514.16   20.27
  -7  -6  -5   -1.74    7.11
  -7  -6  -5   10.22    6.32
   6  -7  -5  103.16   15.07
   5  -7  -5   32.26   10.42
  -5   7   5   29.01    9.45
  -4   7   5  337.41   17.63
   4  -7  -5  355.43   18.32
  -3   7   5   13.13    7.41
   3  -7  -5   21.60    8.17
  -2   7   5  224.31   14.62
   2  -7  -5  209.23   13.96
   1  -7  -5  390.87   16.67
  -1   7   5  380.53   16.60
   0  -7  -5   16.40    6.45
   0   7   5   19.76    6.47
  -1  -7  -5   64.35    8.49
   1   7   5   89.02    9.80
   2   7   5    2.78    4.91
  -2  -7  -5    4.28    5.11
   3   7   5   12.63    5.26
  -3  -7  -5    2.65    5.52
  -4  -7  -5   70.08    8.74
  -5  -7  -5   67.50    9.08
  -6  -7  -5  177.49   13.08
  -7  -7  -5   12.79    6.86
  -5   8   5   70.40   11.55
   5  -8  -5   44.70   11.48
  -4   8   5   64.69   10.78
   4  -8  -5   53.94   10.97
  -3   8   5    4.40    7.13
   3  -8  -5    5.61    7.88
  -2   8   5   14.42    7.07
   2  -8  -5   16.46    7.91
  -1   8   5  243.24   14.84
   1  -8  -5  229.58   14.10
   0   8   5  276.49   15.12
   0  -8  -5  306.32   15.41
   1   8   5   -1.72    5.81
  -1  -8  -5   -8.54    5.77
  -2  -8  -5  117.72   10.84
   2   8   5  106.78   10.26
  -3  -8  -5   51.46    8.42
  -4  -8  -5    2.87    5.68
  -5  -8  -5    5.71    5.65
  -6  -8  -5   33.74    8.06
  -7  -8  -5   45.57    9.41
   5  -9  -5   37.53   12.02
  -5   9   5   35.24   10.36
   4  -9  -5    6.78    9.33
  -4   9   5   -7.07    7.17
   3  -9  -5  165.41   14.53
  -3   9   5  161.88   13.91
   2  -9  -5   10.39    7.68
  -2   9   5    1.41    6.61
  -1   9   5  103.40   11.68
   1  -9  -5  101.72   11.36
   0  -9  -5   -6.07    5.39
   0   9   5   -5.69    6.00
  -1  -9  -5  115.72   11.37
   1   9   5  125.66   11.27
   2   9   5  105.73   10.47
  -2  -9  -5   97.66   10.53
  -3  -9  -5  157.88   12.35
  -4  -9  -5   43.82    8.47
  -5  -9  -5   47.69    8.77
  -6  -9  -5   43.74    9.49
   4 -10  -5   20.72   10.60
  -4  10   5    7.18    9.10
   3 -10  -5   -1.46    8.37
  -3  10   5    0.28    7.63
   2 -10  -5    6.49    8.19
  -2  10   5   -0.01    7.29
   1 -10  -5   52.71   10.01
  -1  10   5   36.63    8.73
   0 -10  -5  361.28   17.82
   0  10   5  413.81   18.74
   1  10   5  194.35   13.61
  -1 -10  -5  164.28   13.26
  -2 -10  -5   68.88   10.21
   2  10   5   60.65    9.05
  -3 -10  -5   -5.97    6.01
  -4 -10  -5  156.25   12.75
  -5 -10  -5    9.81    6.87
  -3  11   5   -6.55    7.58
   3 -11  -5   -6.69    8.58
   2 -11  -5  -14.22    7.38
  -2  11   5    6.05    7.56
   1 -11  -5   53.60   10.62
  -1  11   5   37.33    9.32
   0  11   5   10.09    7.50
   0 -11  -5   14.93    8.36
   1  11   5   18.75    7.77
  -1 -11  -5   -6.55    6.72
   2  11   5   70.39   10.26
  -2 -11  -5   94.42   12.21
  -3 -11  -5   18.05    8.24
  -4 -11  -5   82.36   11.39
  -5 -11  -5    2.51    7.44
  -2  12   5   -2.65    7.91
   2 -12  -5   -3.57   10.00
   1 -12  -5   77.52   12.58
  -1  12   5   83.94   12.30
   0  12   5   -8.34    6.98
   0 -12  -5   -5.80    7.65
   1  12   5   -8.71    6.71
  -1 -12  -5    3.64    7.90
  -2 -12  -5   -6.65    7.72
  -3 -12  -5  -13.81    6.61
   1  10  -6   31.37    8.46
  -1 -10   6   24.76   13.16
   0 -10   6   62.59   14.05
   0  10  -6   56.84    9.72
   1 -10   6   16.22   10.50
  -1  10  -6   23.51    8.14
  -3  -9   6   21.65   12.91
   2   9  -6    1.11    5.40
  -2  -9   6   -1.22   11.26
  -1  -9   6   21.60   11.64
   1   9  -6    0.04    5.45
   0   9  -6    2.27    5.29
   0  -9   6  -13.71    8.90
   1  -9   6   58.33   12.34
  -1   9  -6   41.82    8.70
  -2   9  -6   22.24    7.87
  -2   9  -6    4.58    8.44
  -3   9  -6  176.27   15.95
  -3   9  -6  184.83   15.00
  -4  -8   6   -7.73   10.83
  -3  -8   6   72.53   13.44
  -2  -8   6   30.61   11.93
   2   8  -6   34.17    7.37
   1   8  -6    9.10    5.25
  -1  -8   6    5.29    9.80
   0  -8   6    3.12    8.88
   0   8  -6   11.58    5.58
   1  -8   6   37.90   10.61
  -1   8  -6   25.56    6.94
  -2   8  -6   -4.21    6.11
  -2   8  -6    8.99    6.27
  -3   8  -6   22.58    7.74
  -3   8  -6   24.39    8.50
  -4   8  -6    5.93    6.92
  -4   8  -6    6.84    8.15
  -5  -7   6    7.21   12.27
  -4  -7   6   19.43   11.68
  -3  -7   6   39.00   11.71
   3   7  -6   41.21    7.41
   2   7  -6   62.93    8.83
  -2  -7   6   80.45   13.69
   1   7  -6   11.40    5.28
  -1  -7   6    5.93    9.60
   0   7  -6   -1.94    4.21
   0  -7   6    3.15    8.53
  -1   7  -6   25.75    6.68
  -1   7  -6   24.66    8.32
  -2   7  -6  142.82   11.67
  -2   7  -6  139.92   12.81
  -3   7  -6  110.21   12.23
  -3   7  -6  137.26   11.70
   4  -7   6    3.33    7.88
  -4   7  -6   -7.08    6.04
  -4   7  -6   13.52    6.69
   5  -7   6   47.04   10.67
  -5   7  -6   62.24   11.14
  -5   7  -6   47.06    9.63
  -5  -6   6   46.72   13.39
  -4  -6   6  -14.73    8.25
   3   6  -6   32.04    6.42
  -3  -6   6   16.62   10.22
   2   6  -6  706.42   22.27
  -2  -6   6  700.20   26.89
   1   6  -6   59.37    7.98
  -1  -6   6   54.05   10.65
   0   6  -6  169.44   11.45
   0  -6   6  161.47   14.23
  -1   6  -6  214.65   13.81
  -1   6  -6  196.90   12.21
  -2   6  -6  146.73   11.70
  -2   6  -6  140.55   11.19
  -3   6  -6   -4.94    4.78
  -3   6  -6   -1.36    4.79
   3  -6   6    6.32    6.61
  -4   6  -6    0.91    5.24
   4  -6   6    4.58    7.00
  -4   6  -6  -10.35    4.77
  -5   6  -6    8.76    6.70
   5  -6   6   29.72    9.10
  -5   6  -6   10.95    6.67
  -6   6  -6   75.50   12.20
   6  -6   6   61.79   11.87
  -6  -5   6   99.72   15.48
  -5  -5   6    5.95    9.37
  -4  -5   6   97.51   13.98
  -3  -5   6    3.63    8.78
   3   5  -6    3.84    4.31
  -2  -5   6  232.67   16.18
   2   5  -6  275.39   13.52
   1   5  -6   11.06    4.81
  -1  -5   6   -0.51    8.39
   0   5  -6   -1.43    3.85
   0  -5   6    7.77    8.13
  -1   5  -6  388.33   15.75
  -1   5  -6  435.96   17.94
   2  -5   6   86.31    9.17
  -2   5  -6   85.89   10.49
  -2   5  -6   98.56    9.60
   3  -5   6  371.79   15.50
  -3   5  -6  349.82   16.65
  -3   5  -6  348.11   15.33
  -4   5  -6   91.87   10.97
  -4   5  -6   82.21    9.53
   4  -5   6   92.18   10.63
   5  -5   6   97.34   11.71
  -5   5  -6   95.06   10.82
  -5   5  -6   96.50   10.64
   6  -5   6    5.84    8.93
  -6   5  -6    7.06    7.96
  -7   5  -6   28.76    9.81
   7  -5   6   28.45   10.91
  -6  -4   6   68.54   13.69
  -5  -4   6   31.28   11.24
  -4  -4   6   -5.66    7.65
  -3  -4   6  292.19   18.30
   3   4  -6  301.47   13.50
   2   4  -6  765.81   21.60
  -2  -4   6  768.34   26.36
   1   4  -6  299.44   13.31
  -1  -4   6  308.97   15.74
   0   4  -6   16.65    4.78
   0  -4   6   12.14    7.27
  -1   4  -6    5.87    5.00
  -1   4  -6   -1.29    3.46
  -2   4  -6  164.04   11.90
   2  -4   6  183.46   10.20
  -2   4  -6  158.55   10.40
  -3   4  -6  170.88   12.41
   3  -4   6  177.32   11.18
  -3   4  -6  156.41   10.83
  -4   4  -6   60.79    7.85
  -4   4  -6   65.12    9.16
   4  -4   6   52.45    8.65
   5  -4   6  144.47   12.77
  -5   4  -6  166.18   13.50
  -6   4  -6   55.16   10.60
   6  -4   6   54.35   10.42
  -7   4  -6   -6.76    7.48
   7  -4   6   13.49    9.67
  -6  -3   6   -2.91    9.20
  -5  -3   6  125.33   15.25
  -4  -3   6   52.05   10.45
   4   3  -6   77.30    8.61
   3   3  -6  195.93   11.04
  -3  -3   6  188.28   15.60
   2   3  -6  182.83   10.56
  -2  -3   6  192.63   15.00
  -1  -3   6  214.95   12.99
   1   3  -6  209.25   10.70
   0   3  -6    8.58    3.87
   0  -3   6    5.94    5.94
  -1   3  -6  162.10    9.60
  -1   3  -6  191.64   11.08
   1  -3   6  179.25    7.65
   2  -3   6   63.18    7.88
  -2   3  -6   57.92    7.34
  -2   3  -6   75.28    7.29
  -3   3  -6  505.81   18.60
  -3   3  -6  539.92   16.99
  -4   3  -6  115.65   10.00
  -4   3  -6  114.40    9.24
  -4   3  -6  113.94   11.14
  -5   3  -6  111.87   10.79
  -5   3  -6  143.33   11.71
  -6   3  -6   49.34    9.24
  -7   3  -6    3.39    7.55
   7  -3   6   19.55    9.26
  -7  -2   6    9.83   10.29
  -6  -2   6   44.45   11.19
  -5  -2   6   -7.79    6.75
   4   2  -6  224.02   11.97
  -4  -2   6  210.48   15.81
   3   2  -6   16.04    5.00
  -3  -2   6   10.73    8.03
   2   2  -6    4.89    3.78
  -2  -2   6   -1.80    6.22
  -1  -2   6    5.46    5.98
   1   2  -6    6.86    3.43
   0   2  -6   43.15    5.47
   0  -2   6   43.14    6.72
   0  -2   6   46.55    3.36
  -1   2  -6  605.44   16.79
  -1   2  -6  553.93   16.55
  -1   2  -6  602.26   12.83
  -2   2  -6   48.14    6.34
  -2   2  -6   44.41    5.15
  -2   2  -6   45.27    5.51
  -3   2  -6    0.58    3.27
  -3   2  -6    4.12    4.05
  -3   2  -6    6.23    4.42
  -4   2  -6  364.02   14.67
  -4   2  -6  333.94   15.58
  -5   2  -6   -2.12    4.50
  -5   2  -6   -2.01    5.02
  -6   2  -6   25.32    7.98
  -6   2  -6   32.74    8.17
  -7   2  -6   87.13   12.14
  -7   2  -6   88.53   12.49
  -8   2  -6   37.03   10.78
  -7  -1   6   48.80   12.29
  -6  -1   6   83.34   12.94
  -5  -1   6   50.30   10.59
  -4  -1   6   62.12   10.28
   4   1  -6   50.94    6.85
  -3  -1   6   68.08    9.45
   3   1  -6   82.11    8.55
  -2  -1   6   -0.15    6.07
   2   1  -6    0.63    3.44
   1   1  -6  584.38   16.30
  -1  -1   6  561.91   17.43
   0  -1   6  336.29   12.57
   0   1  -6  356.73    7.42
   0   1  -6  359.51   12.35
  -1   1  -6    4.84    3.05
  -1   1  -6    3.39    2.52
  -1   1  -6    2.46    3.18
  -2   1  -6   25.31    4.81
  -2   1  -6   18.81    3.35
  -2   1  -6   27.25    4.53
  -3   1  -6  244.41   11.63
  -3   1  -6  247.47   10.29
  -3   1  -6  246.28   10.70
  -4   1  -6  107.88    8.99
  -4   1  -6  114.15    7.83
  -4   1  -6  106.44    9.70
  -5   1  -6  125.62   10.60
  -5   1  -6  125.06   11.00
  -6   1  -6  165.50   13.08
  -6   1  -6  191.38   12.62
  -7   1  -6   45.31    9.10
  -7   1  -6   38.53    9.43
  -8   1  -6   21.37    9.56
  -8   1  -6   26.71    9.74
  -7   0   6  102.67   14.43
  -6   0   6  -10.09    6.89
  -5   0   6  255.55   16.37
  -4   0   6  -17.17    6.46
  -4   0   6    9.85    7.13
   3   0  -6  266.11   12.38
  -3   0   6  232.82   13.69
   2   0  -6   63.09    7.11
  -2   0   6   55.76    7.53
   2   0  -6   50.47    4.70
  -1   0   6   20.17    5.20
   1   0  -6   23.25    4.39
   1   0  -6   17.82    2.29
   0   0  -6    9.16    3.32
   0   0   6    9.81    3.99
   0   0  -6   12.22    2.26
  -1   0  -6 3618.61   53.23
  -1   0  -6 3484.13   55.83
  -1   0  -6 3513.36   56.47
  -2   0  -6   51.16    5.66
  -2   0  -6   63.49    6.06
  -2   0  -6   51.53    5.23
  -3   0  -6    2.34    3.34
  -3   0  -6    3.99    3.53
  -3   0  -6    0.30    2.65
  -4   0  -6  160.45    8.15
  -4   0  -6  166.74   10.52
  -4   0  -6  132.67    9.53
  -5   0  -6  152.08   11.19
  -5   0  -6  155.76   11.61
  -6   0  -6  223.19   13.64
  -6   0  -6  191.74   13.48
  -7   0  -6   11.16    6.82
  -7   0  -6   22.32    7.94
  -8   0  -6   -4.79    6.42
  -8   0  -6   -4.81    7.36
  -7   1   6    5.40    8.56
  -6   1   6    3.23    7.27
  -5   1   6  118.11   12.24
  -4   1   6   56.73    9.14
  -4   1   6   59.00    9.63
  -3   1   6    3.92    5.74
   3  -1  -6    3.99    4.60
  -3   1   6   -3.66    6.07
   2  -1  -6  125.30    7.11
  -2   1   6  126.96    9.26
   2  -1  -6  135.90    8.99
   1  -1  -6  525.39   15.03
  -1   1   6  496.28   13.94
   1  -1  -6  509.89   11.69
   0  -1  -6   44.85    5.01
   0  -1  -6   35.56    4.34
   0   1   6   43.76    4.66
  -1  -1  -6 1242.93   24.55
  -1  -1  -6 1235.79   22.97
  -2  -1  -6   27.75    3.99
  -2  -1  -6   29.37    4.33
  -2  -1  -6   20.81    3.42
  -3  -1  -6   87.81    7.08
  -3  -1  -6   92.84    6.12
  -3  -1  -6   88.09    6.94
  -4  -1  -6  367.55   14.22
  -4  -1  -6  368.42   14.18
  -5  -1  -6  241.41   13.23
  -5  -1  -6  220.86   12.65
  -6  -1  -6   40.66    7.77
  -6  -1  -6   35.28    7.98
  -7  -1  -6   82.00   10.14
  -7  -1  -6   91.36   11.72
  -8  -1  -6   58.56   11.30
  -8  -1  -6   63.74   10.53
  -7   2   6   10.75    8.36
  -6   2   6    0.05    6.51
  -5   2   6   36.66    8.44
  -4   2   6   74.38   10.38
   4  -2  -6   84.25    8.81
  -4   2   6   80.53   10.03
  -3   2   6  583.26   18.38
   3  -2  -6  592.81   16.61
  -3   2   6  615.22   20.41
  -2   2   6    6.03    4.48
   2  -2  -6    2.64    3.84
  -2   2   6    2.63    5.34
  -1   2   6  119.04    7.23
   1  -2  -6  110.62    6.78
   0   2   6 1473.71   24.86
   0  -2  -6 1444.86   28.31
  -1  -2  -6   95.72    6.16
  -1  -2  -6  107.67    4.94
  -1  -2  -6   94.08    6.71
  -2  -2  -6 4353.49   65.28
  -2  -2  -6 4176.69   65.45
  -3  -2  -6  208.12    9.90
  -3  -2  -6  208.09    7.94
  -4  -2  -6  261.20   12.21
  -4  -2  -6  287.81   12.08
  -5  -2  -6   40.96    7.47
  -5  -2  -6   68.79    8.27
  -6  -2  -6  313.83   15.85
  -6  -2  -6  350.85   16.26
  -7  -2  -6   -1.77    6.14
  -7  -2  -6   10.97    6.64
  -8  -2  -6   63.86   10.37
  -8  -2  -6   68.10   11.67
  -7   3   6  140.12   14.74
  -6   3   6   13.00    7.69
   5  -3  -6    0.54    6.86
  -5   3   6   -1.92    5.57
  -5   3   6   -5.49    7.19
  -4   3   6  443.40   16.84
   4  -3  -6  437.69   16.35
  -4   3   6  424.64   19.12
  -3   3   6  185.16   13.90
  -3   3   6  186.78   10.74
   3  -3  -6  178.19   10.82
  -2   3   6  127.84   11.20
  -2   3   6  138.79    7.86
   2  -3  -6  151.81    9.49
   1  -3  -6  377.00   12.11
  -1   3   6  361.78   14.59
  -1   3   6  384.12    9.84
   0  -3  -6  259.30    9.93
   0   3   6  267.84   11.91
   1   3   6  118.23    8.95
  -1  -3  -6  126.95    7.59
  -1  -3  -6  129.85    4.04
   2   3   6  158.92    8.93
  -2  -3  -6  149.20    6.18
  -2  -3  -6  150.47    8.25
  -3  -3  -6   38.94    4.65
  -3  -3  -6   39.17    5.50
   3   3   6   37.81    4.87
  -4  -3  -6   13.15    4.59
  -4  -3  -6   15.93    5.35
  -5  -3  -6  457.73   17.16
  -5  -3  -6  496.99   17.75
  -6  -3  -6  464.83   18.77
  -6  -3  -6  482.80   19.56
  -7  -3  -6  281.60   15.90
  -7  -3  -6  231.97   15.53
  -8  -3  -6    6.71    6.88
  -8  -3  -6    0.83    7.32
   5  -4  -6   45.54    9.38
  -5   4   6   35.83    9.30
   4  -4  -6  478.19   18.11
  -4   4   6  518.05   20.30
  -4   4   6  511.32   17.56
  -3   4   6    6.00    7.19
   3  -4  -6   11.23    6.68
  -3   4   6    4.80    4.12
   2  -4  -6   -0.78    5.03
  -2   4   6   -3.34    5.97
  -2   4   6    3.10    3.08
  -1   4   6  461.78    9.85
  -1   4   6  447.93   16.60
   1  -4  -6  454.35   14.81
   0   4   6   25.89    6.00
   0  -4  -6   23.04    4.95
  -1  -4  -6 1188.12   25.44
   1   4   6 1245.99   25.99
  -2  -4  -6  386.15    9.27
  -2  -4  -6  366.91   13.05
   2   4   6  332.57   12.47
  -3  -4  -6   70.14    6.50
  -3  -4  -6   79.66    7.60
   3   4   6   87.78    8.04
  -4  -4  -6   29.43    5.44
  -4  -4  -6   28.16    5.98
  -5  -4  -6  180.63   12.01
  -5  -4  -6  153.31   11.01
  -6  -4  -6    2.84    5.73
  -6  -4  -6   11.50    5.92
  -7  -4  -6  301.73   17.23
  -7  -4  -6  322.64   16.90
  -8  -4  -6   -0.55    7.19
  -8  -4  -6   -7.13    5.96
   6  -5  -6   -3.95    9.02
   5  -5  -6  190.19   15.14
  -5   5   6  133.53   14.17
  -4   5   6  217.06   15.13
   4  -5  -6  203.66   13.83
  -3   5   6  162.92   13.68
   3  -5  -6  161.41   12.42
  -2   5   6    3.12    6.41
   2  -5  -6    0.80    6.04
   1  -5  -6   95.26    9.21
  -1   5   6   72.39    8.53
   0   5   6  144.61   10.90
   0  -5  -6  164.00    9.94
   1   5   6    3.86    5.01
  -1  -5  -6   -1.37    4.19
  -2  -5  -6   -0.40    4.38
   2   5   6   21.48    5.52
  -3  -5  -6  286.47   10.37
  -3  -5  -6  282.33   12.35
   3   5   6  285.92   11.62
  -4  -5  -6   32.69    6.33
  -4  -5  -6   35.64    5.96
  -5  -5  -6   -2.62    4.85
  -5  -5  -6    6.27    5.45
  -6  -5  -6    9.03    5.64
  -6  -5  -6    5.87    6.45
  -7  -5  -6   53.29    9.27
  -7  -5  -6   61.47   10.18
  -8  -5  -6   15.94    7.69
  -8  -5  -6   21.52    9.41
   6  -6  -6    5.45    9.30
   5  -6  -6  134.18   14.02
  -5   6   6  113.32   12.68
   4  -6  -6  187.70   14.18
  -4   6   6  220.58   15.46
  -3   6   6   74.51   10.18
   3  -6  -6   73.83   10.26
  -2   6   6  108.32   11.99
   2  -6  -6  102.10   11.26
  -1   6   6   10.07    6.59
   1  -6  -6    9.71    6.22
   0  -6  -6  211.01   11.93
   0   6   6  222.42   12.87
   1   6   6   62.79    7.84
  -1  -6  -6   82.86    8.97
   2   6   6   63.72    7.43
  -2  -6  -6   58.56    7.80
   3   6   6   74.86    8.56
  -3  -6  -6   70.83    8.66
  -4  -6  -6   51.40    7.59
  -5  -6  -6    4.62    5.22
  -6  -6  -6   84.74   10.00
  -7  -6  -6   13.01    6.81
   6  -7  -6   10.62   11.29
   5  -7  -6   -9.24    8.13
  -5   7   6   -2.03    7.62
  -4   7   6  227.70   16.01
   4  -7  -6  258.31   17.05
   3  -7  -6   57.58    9.92
  -3   7   6   50.88    9.54
   2  -7  -6  185.21   13.51
  -2   7   6  163.73   13.80
   1  -7  -6   52.63    8.96
  -1   7   6   50.89    9.02
   0  -7  -6   39.04    7.99
   0   7   6   45.76    8.51
  -1  -7  -6  146.02   11.23
   1   7   6  145.51   11.90
   2   7   6  341.70   14.59
  -2  -7  -6  315.62   14.75
  -3  -7  -6   52.11    8.38
  -4  -7  -6   84.17    9.37
  -5  -7  -6   16.28    6.57
  -6  -7  -6   18.19    6.95
  -7  -7  -6  165.38   13.62
   5  -8  -6   31.19   11.46
  -5   8   6   26.90    9.99
  -4   8   6   37.50    9.64
   4  -8  -6   67.15   11.62
  -3   8   6  152.35   13.83
   3  -8  -6  142.79   13.35
  -2   8   6   33.32    8.37
   2  -8  -6   22.62    8.22
   1  -8  -6  217.24   14.03
  -1   8   6  217.05   14.20
   0   8   6  444.76   18.59
   0  -8  -6  441.00   18.16
   1   8   6   11.68    6.68
  -1  -8  -6   -2.60    6.26
   2   8   6    5.99    5.91
  -2  -8  -6   10.98    6.66
  -3  -8  -6   85.28    9.95
  -4  -8  -6  122.81   10.91
  -5  -8  -6   13.87    6.84
  -6  -8  -6   41.36    8.75
  -7  -8  -6   12.54    7.93
  -5   9   6   -0.58    8.81
  -4   9   6    8.86    8.62
   4  -9  -6   -6.57    8.28
   3  -9  -6   -6.47    7.88
  -3   9   6   15.55    8.23
  -2   9   6   -1.79    6.70
   2  -9  -6   -1.47    7.64
   1  -9  -6  146.66   12.92
  -1   9   6  156.76   12.97
   0  -9  -6   38.13    8.78
   0   9   6   38.28    8.33
  -1  -9  -6  108.87   11.31
   1   9   6   95.02   10.88
   2   9   6   75.91    9.20
  -2  -9  -6   66.95    9.62
  -3  -9  -6  221.73   14.06
  -4  -9  -6   17.69    6.97
  -5  -9  -6   -0.83    6.16
  -6  -9  -6   19.07    7.83
  -4  10   6   -4.27    8.55
   4 -10  -6  -13.56    9.16
   3 -10  -6   15.63    9.62
  -3  10   6    4.28    7.83
   2 -10  -6    2.08    7.92
  -2  10   6   -5.12    6.97
   1 -10  -6   94.70   12.00
  -1  10   6   87.93   11.48
   0 -10  -6   55.31    9.95
   0  10   6   45.96    9.22
   1  10   6  113.67   12.03
  -1 -10  -6  109.39   12.06
   2  10   6   99.16   11.09
  -2 -10  -6   94.76   11.20
  -3 -10  -6   48.97    9.55
  -4 -10  -6  158.11   13.06
  -5 -10  -6  140.26   13.10
   3 -11  -6    6.82   10.05
  -3  11   6  -10.22    7.41
  -2  11   6   21.77    9.00
   2 -11  -6    7.94    8.92
   1 -11  -6   -3.73    7.65
  -1  11   6   -0.85    7.01
   0 -11  -6   67.12   10.82
   0  11   6   71.24   11.06
   1  11   6   25.36    8.32
  -1 -11  -6   35.18    9.36
  -2 -11  -6   78.64   11.42
   2  11   6   82.33   10.73
  -3 -11  -6    0.40    7.22
  -4 -11  -6   62.05   10.64
  -5 -11  -6    0.95    7.23
   1 -12  -6    3.39    8.67
  -1  12   6  -10.62    7.40
   0 -12  -6   10.05    9.06
   0  12   6    8.14    8.28
   1  12   6   35.78    9.44
  -1 -12  -6   46.51   10.52
  -2 -12  -6    0.54    7.83
  -3 -12  -6   -1.56    7.47
   2   9  -7    9.53    6.58
  -2  -9   7  -24.10   11.53
  -1  -9   7   19.96   12.76
   1   9  -7   10.64    6.69
   0  -9   7   15.80   10.48
   0   9  -7    3.68    5.68
  -1   9  -7  129.69   12.57
   1  -9   7  120.90   14.84
  -2   9  -7   -0.97    5.84
  -3  -8   7  -10.81    9.03
  -2  -8   7  -16.37   10.20
   2   8  -7    3.71    5.60
  -1  -8   7    5.93   10.55
   1   8  -7   15.95    6.28
   0  -8   7   26.30   11.20
   1  -8   7   13.16    9.12
  -1   8  -7   -0.08    5.11
  -2   8  -7    8.77    8.33
  -2   8  -7   15.27    6.68
  -3   8  -7   15.38    7.47
  -3   8  -7   29.71    8.85
  -4   8  -7   18.34    8.20
  -4   8  -7   13.46    9.05
  -4  -7   7    1.04    9.56
   3   7  -7   53.47    8.63
  -3  -7   7   46.51   11.66
   2   7  -7    8.20    5.67
  -2  -7   7   23.84   10.95
  -1  -7   7   11.63    9.15
   1   7  -7    4.44    5.30
   0  -7   7  123.33   14.69
   0   7  -7  139.49   11.43
  -1   7  -7   -7.06    3.87
  -2   7  -7    1.11    7.00
  -2   7  -7   10.43    5.92
  -3   7  -7   79.75   11.60
  -3   7  -7   42.35    8.54
  -4   7  -7    3.58    6.88
  -4   7  -7   10.92    6.85
  -5   7  -7    8.12    8.14
  -5   7  -7    1.10    6.73
  -5  -6   7   -5.54   10.94
  -4  -6   7  111.16   15.62
  -3  -6   7  160.99   15.59
   3   6  -7  183.09   12.29
   2   6  -7  159.64   11.75
  -2  -6   7  142.50   15.99
   1   6  -7    8.94    5.15
  -1  -6   7    1.77    8.46
   0  -6   7   38.82   10.00
   0   6  -7   28.91    6.52
  -1   6  -7   17.92    7.16
  -1   6  -7   15.80    5.76
  -2   6  -7   21.08    7.96
  -2   6  -7   26.48    6.66
  -3   6  -7    9.06    6.98
  -3   6  -7   -0.68    5.00
  -4   6  -7  111.36   12.59
  -4   6  -7  116.54   11.43
   5  -6   7   -3.81    7.48
  -5   6  -7    4.42    7.15
  -5   6  -7   -3.22    5.24
   6  -6   7   16.43   10.66
  -6   6  -7   34.65   10.39
  -5  -5   7   17.87   11.47
  -4  -5   7   87.16   14.14
  -3  -5   7   -1.95    8.10
   3   5  -7    2.16    4.25
  -2  -5   7  166.05   14.56
   2   5  -7  153.57   10.88
  -1  -5   7  114.75   12.47
   1   5  -7  107.72    9.90
   0   5  -7  143.91   10.56
   0  -5   7  135.17   13.72
  -1   5  -7   87.78    9.05
  -1   5  -7   97.58   10.86
  -2   5  -7   27.97    7.67
  -2   5  -7   22.69    5.97
  -3   5  -7    6.40    5.84
  -3   5  -7   17.84    5.88
  -4   5  -7  103.16   11.95
   4  -5   7  120.19   11.27
  -4   5  -7  118.60   11.01
  -5   5  -7   12.46    7.69
   5  -5   7    7.86    7.97
  -5   5  -7   16.21    6.77
  -6   5  -7   -0.71    6.86
   6  -5   7    0.81    8.26
  -6  -4   7   -6.92   10.20
  -5  -4   7   35.70   11.66
  -4  -4   7  -14.95    8.11
   3   4  -7   12.72    5.01
  -3  -4   7   -0.80    8.58
   2   4  -7  320.69   14.43
  -2  -4   7  343.41   19.14
  -1  -4   7    9.07    8.64
   1   4  -7    5.92    4.50
   0   4  -7   36.39    6.37
   0  -4   7   18.91    8.75
  -1   4  -7   78.15    8.76
  -1   4  -7   78.77   10.14
  -2   4  -7   13.48    6.70
  -2   4  -7   20.25    5.78
  -3   4  -7  163.96   12.70
  -3   4  -7  168.16   11.26
   3  -4   7  173.16   11.50
   4  -4   7   70.22    9.12
  -4   4  -7   70.56    9.91
  -4   4  -7   68.05    8.37
   5  -4   7   83.24   10.99
  -5   4  -7   84.16   11.63
  -6   4  -7    7.20    7.59
   6  -4   7   10.46    8.80
   7  -4   7    4.37    9.41
  -7   4  -7    5.33    8.77
  -6  -3   7   18.32   11.23
  -5  -3   7  126.10   15.21
  -4  -3   7   50.96   11.33
   4   3  -7   53.28    7.44
   3   3  -7    9.91    4.74
  -3  -3   7   17.85    8.96
  -2  -3   7  245.95   15.68
   2   3  -7  233.46   12.43
  -1  -3   7  155.85   13.56
   1   3  -7  123.60    9.47
   0   3  -7   70.07    7.81
   0  -3   7   84.08   10.84
  -1   3  -7  394.66   15.23
  -1   3  -7  430.87   16.09
  -2   3  -7   17.69    6.22
   2  -3   7    3.12    4.60
  -2   3  -7   10.50    4.56
  -3   3  -7  768.92   23.92
  -3   3  -7  776.12   21.83
  -4   3  -7  502.35   17.32
  -4   3  -7  482.63   19.77
  -5   3  -7  332.45   16.51
  -5   3  -7  321.60   17.35
  -6   3  -7   14.33    8.06
   7  -3   7   18.98    9.16
  -7   3  -7   -3.64    7.49
  -6  -2   7   73.83   13.40
  -5  -2   7   49.86   11.41
  -4  -2   7  282.62   17.81
   4   2  -7  331.15   14.59
   3   2  -7   80.38    9.07
  -3  -2   7   71.57   10.46
   2   2  -7 1048.51   25.56
  -2  -2   7 1017.49   28.63
  -1  -2   7   57.51    8.30
   1   2  -7   65.12    7.71
   0   2  -7  141.88    9.23
   0  -2   7  127.70   10.76
  -1   2  -7   26.01    5.86
  -1   2  -7   23.61    5.09
  -1   2  -7   27.90    3.63
  -2   2  -7  312.44   13.76
  -2   2  -7  312.09   10.87
  -2   2  -7  313.58   13.00
  -3   2  -7  182.18   10.52
  -3   2  -7  215.79   12.50
  -3   2  -7  215.99   10.78
  -4   2  -7  166.96   10.28
  -4   2  -7  161.60   10.88
  -4   2  -7  164.69   12.28
  -5   2  -7   37.58    8.06
  -5   2  -7   25.25    7.06
  -6   2  -7   30.00    8.25
  -6   2  -7   35.61    8.89
  -7   2  -7    5.05    7.51
  -7   2  -7   13.94    8.12
  -6  -1   7   10.51    9.25
  -5  -1   7   11.47    8.86
   4   1  -7   82.26    9.66
  -4  -1   7  108.57   12.76
  -3  -1   7    5.57    7.04
   3   1  -7    8.37    4.85
   2   1  -7   61.66    7.09
  -2  -1   7   58.23    8.96
   1   1  -7  230.61   11.06
  -1  -1   7  256.14   13.37
   0  -1   7  417.63   14.69
   0   1  -7  409.61   14.15
  -1   1  -7  380.83   10.12
  -1   1  -7  332.99   12.89
  -1   1  -7  369.72   13.11
  -2   1  -7   18.88    4.18
  -2   1  -7   28.20    5.35
  -2   1  -7   21.74    4.68
  -3   1  -7  202.72   11.51
  -3   1  -7  206.36   10.52
  -3   1  -7  215.05   10.64
  -4   1  -7   78.22    9.11
  -4   1  -7   71.84    8.41
  -4   1  -7   74.76    7.73
  -5   1  -7   54.79    8.30
  -5   1  -7   49.36    8.60
  -6   1  -7   23.92    7.86
  -6   1  -7   24.72    7.48
  -7   1  -7   -2.16    6.69
  -7   1  -7   -9.76    6.07
  -8   1  -7    7.40    7.84
  -8   1  -7    1.54    8.35
  -6   0   7  -10.00    7.32
  -5   0   7  176.54   14.93
  -4   0   7    3.28    7.13
  -4   0   7    5.50    6.87
   3   0  -7   27.98    5.97
  -3   0   7   34.11    8.42
   2   0  -7  104.41    8.66
  -2   0   7   78.22    9.85
  -1   0   7 2006.12   38.91
   1   0  -7 2133.06   39.41
   0   0   7   12.38    4.67
   0   0  -7    6.82    2.33
   0   0  -7    7.83    3.60
  -1   0  -7  805.47   18.99
  -1   0  -7  790.51   19.84
  -1   0  -7  831.46   16.91
  -2   0  -7  147.14    7.58
  -2   0  -7  153.22    8.87
  -2   0  -7  147.63    8.53
  -3   0  -7  327.05   12.36
  -3   0  -7  322.74   11.51
  -3   0  -7  301.89   12.66
  -4   0  -7  220.65   10.08
  -4   0  -7  200.50   11.44
  -4   0  -7  202.54   11.73
  -5   0  -7   83.00    9.34
  -5   0  -7   73.25    9.34
  -6   0  -7   25.58    7.42
  -6   0  -7   44.68    8.80
  -7   0  -7   86.31   11.86
  -7   0  -7  110.47   11.78
  -8   0  -7    8.65    8.69
  -8   0  -7    9.44    8.25
  -6   1   7   -4.67    7.66
  -5   1   7   73.33   10.86
  -4   1   7   34.66    8.35
  -4   1   7   50.04    9.53
  -3   1   7   24.45    7.32
  -3   1   7   17.18    7.76
   2  -1  -7   13.59    4.79
   2  -1  -7   12.01    3.97
  -2   1   7    1.08    5.40
  -1   1   7  519.47   15.29
   1  -1  -7  516.66   12.06
   1  -1  -7  527.05   16.13
   0   1   7   24.58    4.80
   0  -1  -7   24.64    4.76
   0  -1  -7   26.74    3.45
  -1  -1  -7  126.79    6.98
  -1  -1  -7  115.43    7.87
  -1  -1  -7  130.80    6.54
  -2  -1  -7  603.87   15.68
  -2  -1  -7  586.24   16.05
  -2  -1  -7  639.49   15.86
  -3  -1  -7  354.95   12.73
  -3  -1  -7  348.50   11.73
  -3  -1  -7  359.03   13.02
  -4  -1  -7  299.70   13.47
  -4  -1  -7  314.98   13.72
  -5  -1  -7  120.22   10.41
  -5  -1  -7  107.10   10.04
  -6  -1  -7    3.58    5.57
  -6  -1  -7   18.33    6.83
  -7  -1  -7    5.87    6.91
  -7  -1  -7    8.69    6.53
  -8  -1  -7   -9.20    6.80
  -8  -1  -7    3.51    6.48
  -6   2   7   24.26    8.34
  -5   2   7  138.26   12.59
  -4   2   7   21.47    7.47
  -4   2   7   36.92    9.37
   3  -2  -7   62.13    6.97
  -3   2   7   58.47    9.60
  -3   2   7   54.15    8.09
  -2   2   7  379.64   16.56
   2  -2  -7  379.53   12.51
  -2   2   7  410.03   14.42
   1  -2  -7   92.31    6.79
   1  -2  -7   80.64    7.58
  -1   2   7   87.64    7.44
   0   2   7   31.48    4.24
   0  -2  -7   27.84    4.25
   0  -2  -7   16.55    4.15
  -1  -2  -7   50.56    4.65
  -1  -2  -7   65.27    6.60
  -1  -2  -7   49.85    5.21
  -2  -2  -7   70.36    6.27
  -2  -2  -7   73.26    6.49
  -2  -2  -7   82.49    5.91
  -3  -2  -7  190.99   10.02
  -3  -2  -7  190.18    8.54
  -3  -2  -7  189.13    9.17
  -4  -2  -7  171.96   10.31
  -4  -2  -7  156.00   10.40
  -5  -2  -7    5.78    5.36
  -5  -2  -7    9.01    5.68
  -6  -2  -7  404.01   17.51
  -6  -2  -7  415.42   18.02
  -7  -2  -7   10.69    7.05
  -7  -2  -7    2.05    5.96
  -8  -2  -7   95.33   13.03
  -8  -2  -7   84.04   11.73
  -5   3   7    6.00    8.56
  -5   3   7    3.80    6.44
  -4   3   7  344.91   18.21
  -4   3   7  364.53   16.06
  -3   3   7  252.73   12.51
  -3   3   7  236.33   16.21
  -2   3   7  334.52   16.39
  -2   3   7  351.30   12.44
  -1   3   7   55.39    5.63
  -1   3   7   48.78    7.63
   1  -3  -7   30.37    4.79
   0  -3  -7   54.90    6.01
   0   3   7   64.90    4.53
   0   3   7   60.86    7.40
  -1  -3  -7  246.12   10.40
   1   3   7  232.26   11.53
  -2  -3  -7    3.63    2.49
  -2  -3  -7    2.71    3.67
   2   3   7    7.97    4.58
   3   3   7  225.29   10.56
  -3  -3  -7  233.62   11.16
  -3  -3  -7  237.49    9.68
  -4  -3  -7   77.75    8.49
  -5  -3  -7   72.81    8.63
  -5  -3  -7   57.91    8.35
  -6  -3  -7  163.49   11.61
  -6  -3  -7  158.24   11.85
  -7  -3  -7    9.91    6.53
  -7  -3  -7    8.46    6.76
  -8  -3  -7  100.98   13.01
  -8  -3  -7   84.84   11.62
  -5   4   7   11.40    8.75
   4  -4  -7   18.12    7.71
  -4   4   7   23.32    9.06
  -3   4   7   18.92    8.89
   3  -4  -7   12.38    7.23
   2  -4  -7    5.25    5.93
  -2   4   7   18.75    7.75
  -1   4   7  316.61   15.55
   1  -4  -7  357.50   13.16
   0   4   7  110.20   10.69
   0  -4  -7  111.68    8.26
  -1  -4  -7  223.36   10.38
   1   4   7  194.42   11.53
   2   4   7  450.46   15.12
  -2  -4  -7  455.17   15.06
  -3  -4  -7    0.70    3.14
   3   4   7    2.61    4.90
  -3  -4  -7    3.85    4.24
  -4  -4  -7   42.53    6.90
  -4  -4  -7   39.64    5.96
  -5  -4  -7  206.84   12.14
  -5  -4  -7  231.74   12.49
  -6  -4  -7   20.94    6.76
  -6  -4  -7   23.51    7.40
  -7  -4  -7  206.55   14.37
  -7  -4  -7  201.42   14.75
  -8  -4  -7   12.89    8.45
  -8  -4  -7    5.09    6.95
   5  -5  -7   86.94   11.89
  -5   5   7   85.61   12.01
  -4   5   7    9.45    7.93
   4  -5  -7   -7.30    7.11
  -3   5   7  458.82   20.08
   3  -5  -7  461.25   17.86
  -2   5   7   29.20    8.57
   2  -5  -7   31.69    7.86
   1  -5  -7  216.80   11.76
  -1   5   7  205.60   14.00
   0  -5  -7    3.62    4.95
   0   5   7    9.89    6.39
  -1  -5  -7   35.49    5.93
   1   5   7   25.04    6.58
  -2  -5  -7   18.76    5.73
   2   5   7   29.66    6.46
   3   5   7  264.21   12.31
  -3  -5  -7  251.24   12.60
  -4  -5  -7  122.77   10.19
  -5  -5  -7   44.18    7.55
  -6  -5  -7   -0.29    5.49
  -7  -5  -7  146.33   12.66
  -8  -5  -7    6.47    7.13
   6  -6  -7   23.51   10.52
  -5   6   7  111.52   13.30
   5  -6  -7  102.89   12.88
  -4   6   7   26.72    9.21
   4  -6  -7   22.31    8.80
   3  -6  -7  164.53   12.74
  -3   6   7  166.31   14.00
  -2   6   7  154.72   13.65
   2  -6  -7  178.94   12.76
   1  -6  -7  595.48   19.69
  -1   6   7  605.88   21.30
   0  -6  -7   41.45    7.53
   0   6   7   42.30    8.44
  -1  -6  -7  393.20   15.80
   1   6   7  411.57   16.51
  -2  -6  -7  316.15   14.38
   2   6   7  306.09   14.00
  -3  -6  -7  448.13   16.98
   3   6   7  397.25   14.92
  -4  -6  -7   44.18    7.61
  -5  -6  -7    4.12    5.56
  -6  -6  -7    6.06    6.11
  -7  -6  -7    5.77    6.76
   5  -7  -7   14.85    9.85
  -5   7   7   32.41   10.37
  -4   7   7   32.70    9.79
   4  -7  -7   21.49    9.33
   3  -7  -7   55.48    9.93
  -3   7   7   62.88   10.45
   2  -7  -7  177.27   13.18
  -2   7   7  178.65   14.46
  -1   7   7   21.74    8.10
   1  -7  -7    0.98    6.75
   0  -7  -7   38.75    8.10
   0   7   7   47.12    9.09
  -1  -7  -7   22.80    7.30
   1   7   7   25.24    7.77
  -2  -7  -7  574.35   19.73
   2   7   7  601.96   19.58
  -3  -7  -7    9.79    5.41
  -4  -7  -7   63.65    8.79
  -5  -7  -7  215.82   13.86
  -6  -7  -7    2.78    6.21
  -7  -7  -7   15.98    7.75
  -5   8   7  -13.21    8.21
   5  -8  -7  -16.26    9.47
  -4   8   7    3.27    8.27
   4  -8  -7    2.58    8.63
   3  -8  -7   19.31    9.07
  -3   8   7   23.61    8.94
   2  -8  -7   94.43   11.70
  -2   8   7  112.21   12.97
  -1   8   7   28.43    8.45
   1  -8  -7   45.24    9.22
   0  -8  -7   17.33    6.74
   0   8   7   19.78    7.86
   1   8   7  412.54   17.77
  -1  -8  -7  407.47   17.80
  -2  -8  -7  446.40   17.81
   2   8   7  426.60   17.09
  -3  -8  -7  228.99   13.99
  -4  -8  -7   53.95    8.87
  -5  -8  -7  149.03   12.39
  -6  -8  -7  109.43   12.02
  -7  -8  -7    7.42    7.36
  -4   9   7   20.09    9.44
   4  -9  -7   37.97   11.06
   3  -9  -7  -19.55    6.99
  -3   9   7    0.93    7.82
   2  -9  -7   -8.89    7.30
  -2   9   7   -7.19    6.84
  -1   9   7  107.29   12.15
   1  -9  -7  131.52   12.70
   0   9   7   28.76    8.29
   0  -9  -7   24.49    8.12
   1   9   7   95.69   11.22
  -1  -9  -7  113.24   11.40
  -2  -9  -7    0.71    6.29
   2   9   7   -8.38    5.85
  -3  -9  -7   32.40    8.19
  -4  -9  -7   -4.30    5.38
  -5  -9  -7  128.01   12.44
  -6  -9  -7    5.42    7.13
   3 -10  -7   18.40   10.24
  -3  10   7   13.34    9.01
   2 -10  -7   -4.25    7.96
  -2  10   7    9.41    8.08
  -1  10   7   26.47    9.16
   1 -10  -7   15.50    8.76
   0  10   7    5.32    7.14
   0 -10  -7   -6.86    6.51
   1  10   7   45.38    9.26
  -1 -10  -7   30.87    8.83
   2  10   7   99.72   11.49
  -2 -10  -7  138.47   12.04
  -3 -10  -7   15.07    7.86
  -4 -10  -7   -3.16    6.39
  -5 -10  -7    5.22    6.90
  -2  11   7  -10.57    6.91
   2 -11  -7    0.02    9.09
  -1  11   7    6.63    8.42
   1 -11  -7   -3.20    7.57
   0 -11  -7   13.71    8.44
   0  11   7    5.69    7.49
   1  11   7   20.34    8.33
  -1 -11  -7    3.99    7.76
  -2 -11  -7    8.69    7.82
   2  11   7    9.45    7.21
  -3 -11  -7    0.74    7.53
  -4 -11  -7   15.11    7.99
  -1  12   7    2.68    8.82
   1 -12  -7    5.35    9.48
   0 -12  -7  -17.61    7.36
   0  12   7   -9.15    7.47
  -1 -12  -7   11.17    8.88
   1  12   7   11.57    8.34
  -2 -12  -7   -7.07    7.63
  -3 -12  -7   -0.03    7.85
   0   9  -8  121.85   12.94
   0  -9   8   99.45   16.07
   1  -9   8   36.63   13.00
  -2  -8   8   -1.07    9.99
   2   8  -8    2.20    5.81
   1   8  -8    9.25    6.71
  -1  -8   8    5.69   11.50
   0  -8   8    1.52   10.23
   0   8  -8    6.41    5.74
   1  -8   8   15.66   10.38
  -1   8  -8    7.58    6.10
  -2   8  -8   17.25    7.35
  -2   8  -8    9.49    8.47
  -3   8  -8   19.58    9.06
  -3   8  -8   -0.34    6.38
  -3  -7   8    9.45   11.21
   3   7  -8   23.00    6.75
  -2  -7   8  158.80   17.70
   2   7  -8  181.58   13.22
  -1  -7   8   89.44   14.48
   1   7  -8   71.29   10.06
   0  -7   8   19.17   10.22
   0   7  -8    8.68    5.31
   1  -7   8   41.28   10.99
  -1   7  -8   31.39    6.95
  -2   7  -8   10.51    8.42
  -2   7  -8    7.34    5.83
  -3   7  -8    4.58    6.03
  -3   7  -8    1.95    7.97
  -4   7  -8   44.23   11.02
  -4   7  -8   65.92   10.74
  -4  -6   8   26.67   12.02
   3   6  -8   19.26    6.20
  -3  -6   8    2.65    8.76
  -2  -6   8   73.82   12.80
   2   6  -8   90.64    9.92
  -1  -6   8   28.72   10.90
   1   6  -8   29.48    7.07
   0  -6   8   71.64   12.25
   0   6  -8   96.78   10.10
  -1   6  -8    2.01    5.03
  -2   6  -8   85.80   10.98
  -2   6  -8   77.27    9.93
  -3   6  -8   48.65    8.52
  -3   6  -8   56.45   10.32
  -4   6  -8   75.82   10.55
  -4   6  -8   52.98   11.18
  -5   6  -8    1.75    6.58
  -5   6  -8   17.41    9.34
  -5  -5   8   -5.70   10.78
  -4  -5   8   40.52   12.21
   3   5  -8    7.27    4.82
  -3  -5   8   18.92   10.26
   2   5  -8  258.96   14.22
  -2  -5   8  266.56   18.86
  -1  -5   8   43.89   10.73
   1   5  -8   22.50    6.14
   0   5  -8  438.22   17.98
   0  -5   8  465.30   20.74
  -1   5  -8    1.08    4.36
  -1   5  -8   -8.15    5.25
  -2   5  -8   97.24   10.06
  -2   5  -8   95.91   11.51
  -3   5  -8  129.09   12.88
  -3   5  -8  137.92   11.25
  -4   5  -8   18.88    7.92
  -4   5  -8   17.30    6.55
  -5   5  -8   73.41   11.94
   5  -5   8   78.31   11.30
  -6   5  -8   25.00    9.84
   6  -5   8   13.58    9.38
  -5  -4   8  239.53   20.12
  -4  -4   8   45.69   12.11
   3   4  -8   31.30    6.42
  -3  -4   8   -8.51    8.81
   2   4  -8   63.59    8.24
  -2  -4   8   75.93   11.93
  -1  -4   8   65.75   10.99
   1   4  -8   49.69    7.60
   0   4  -8   29.61    6.57
   0  -4   8   42.69    9.23
  -1   4  -8  169.97   11.61
  -1   4  -8  156.70   12.49
  -2   4  -8   48.11    7.68
  -2   4  -8   51.61    8.81
  -3   4  -8   54.75    8.13
  -3   4  -8   28.83    7.47
  -4   4  -8    4.54    6.84
   4  -4   8   -6.50    6.31
  -4   4  -8   -2.81    4.50
   5  -4   8   20.44    8.18
  -5   4  -8   14.90    8.42
  -6   4  -8   -0.78    7.58
   6  -4   8    3.17    7.80
  -6  -3   8    2.27   10.56
  -5  -3   8   22.96   10.98
  -4  -3   8   18.88    9.97
   4   3  -8   20.61    6.10
   3   3  -8   27.02    6.20
  -3  -3   8   27.51    9.80
   2   3  -8  148.20   10.78
  -2  -3   8  163.02   14.62
  -1  -3   8    0.69    7.52
   1   3  -8    0.71    4.19
   0   3  -8   13.21    5.29
   0  -3   8   17.42    8.37
  -1   3  -8   72.12    8.88
  -1   3  -8   69.99    9.02
  -2   3  -8   16.16    5.27
  -2   3  -8    7.65    6.21
  -3   3  -8    0.29    4.50
  -3   3  -8    8.74    6.30
  -4   3  -8    0.11    5.16
  -4   3  -8    0.99    4.37
  -4   3  -8    5.74    5.87
  -5   3  -8  114.23   11.22
  -5   3  -8   81.24   11.41
  -6   3  -8    9.04    7.79
   7  -3   8  100.47   13.68
  -7   3  -8   61.04   11.66
  -6  -2   8   64.67   13.81
  -5  -2   8   30.85   10.80
  -4  -2   8   14.10    9.43
   4   2  -8   20.50    5.88
  -3  -2   8  100.34   12.99
   3   2  -8  130.15   10.54
  -2  -2   8    1.92    8.47
   2   2  -8   -3.18    3.87
   1   2  -8   82.27    8.63
  -1  -2   8   84.59   10.43
   0   2  -8   81.67    8.39
   0  -2   8   84.68   10.86
  -1   2  -8  104.94    8.98
  -1   2  -8  109.36    9.72
  -2   2  -8  502.89   17.42
  -2   2  -8  486.50   17.58
  -2   2  -8  502.53   14.10
  -3   2  -8  183.81   11.42
  -3   2  -8  185.06   10.36
  -3   2  -8  180.87   11.80
  -4   2  -8  244.36   13.96
  -4   2  -8  248.14   12.81
  -4   2  -8  265.54   13.06
  -5   2  -8   23.26    7.87
  -5   2  -8   33.40    8.10
  -6   2  -8   91.04   11.16
  -6   2  -8   77.68   11.61
  -7   2  -8   78.49   12.53
  -7   2  -8   84.37   12.44
  -6  -1   8   21.76   10.57
  -5  -1   8    6.57    8.85
  -4  -1   8  236.76   16.39
   4   1  -8  250.67   14.32
   3   1  -8  114.44   10.03
  -3  -1   8   88.40   11.19
  -2  -1   8  300.60   16.12
   2   1  -8  306.85   14.16
  -1  -1   8   19.67    7.53
   1   1  -8   27.36    5.89
   0   1  -8   55.42    6.94
   0  -1   8   56.91    7.89
  -1   1  -8  251.46    8.53
  -1   1  -8  245.60   11.65
  -1   1  -8  229.29   11.72
  -2   1  -8  833.70   22.06
  -2   1  -8  816.79   22.32
  -2   1  -8  840.77   19.20
  -3   1  -8   50.29    7.62
  -3   1  -8   41.59    6.36
  -3   1  -8   50.75    6.55
  -4   1  -8    4.25    5.86
  -4   1  -8    1.61    1.86
  -4   1  -8    9.56    5.90
  -5   1  -8   14.25    6.48
  -5   1  -8   17.16    7.15
  -6   1  -8  122.43   12.37
  -6   1  -8  132.28   11.97
  -7   1  -8   62.75   11.03
  -7   1  -8   49.05   10.15
  -6   0   8    4.33    9.01
  -5   0   8    5.92    8.03
  -4   0   8  303.32   17.19
   3   0  -8   12.68    5.31
  -3   0   8    8.53    7.59
   2   0  -8  330.47   14.61
  -2   0   8  338.67   15.65
  -1   0   8  175.17   11.95
   1   0  -8  156.80   10.46
   0   0  -8   11.66    4.70
   0   0   8    2.09    5.62
  -1   0  -8 1034.79   23.42
  -1   0  -8 1108.03   21.03
  -1   0  -8 1045.84   24.92
  -2   0  -8  313.42   11.17
  -2   0  -8  328.35   13.03
  -2   0  -8  311.41   12.80
  -3   0  -8   26.31    5.30
  -3   0  -8   18.09    5.49
  -3   0  -8   32.54    5.75
  -4   0  -8  141.57   10.39
  -4   0  -8  141.45   10.94
  -4   0  -8  163.73    9.73
  -5   0  -8  262.09   14.44
  -5   0  -8  241.08   13.63
  -6   0  -8   20.30    7.08
  -6   0  -8   12.82    6.87
  -7   0  -8  152.96   14.05
  -7   0  -8  165.85   13.85
  -8   0  -8   -6.28    7.35
  -8   0  -8    2.33    8.12
  -6   1   8   18.37    9.14
  -5   1   8   25.86    8.95
  -4   1   8    5.54    6.88
  -4   1   8    5.87    8.13
  -3   1   8  115.49   11.23
  -2   1   8  301.26   13.77
   2  -1  -8  267.53   13.44
  -1   1   8   28.84    6.49
   1  -1  -8   34.89    5.91
   0  -1  -8   46.72    5.06
   0   1   8   55.87    6.19
   0  -1  -8   39.18    6.00
  -1  -1  -8  783.22   18.37
  -1  -1  -8  799.07   20.79
  -1  -1  -8  826.66   17.97
  -2  -1  -8   43.94    5.32
  -2  -1  -8   33.07    5.37
  -2  -1  -8   30.12    5.08
  -3  -1  -8   99.48    8.05
  -3  -1  -8   92.03    7.89
  -3  -1  -8   87.10    7.01
  -4  -1  -8   71.29    8.73
  -4  -1  -8   66.37    8.10
  -5  -1  -8  143.26   10.98
  -5  -1  -8  126.96   10.09
  -6  -1  -8   28.75    7.56
  -6  -1  -8   35.72    8.31
  -7  -1  -8  229.74   15.70
  -7  -1  -8  211.09   15.01
  -8  -1  -8   52.36   11.15
  -8  -1  -8   34.87    9.54
  -4   2   8  258.57   16.81
  -4   2   8  252.20   15.31
  -3   2   8  352.02   18.43
  -3   2   8  322.85   15.68
  -2   2   8   12.68    5.99
  -2   2   8   16.05    7.61
   1  -2  -8 1166.17   27.74
   1  -2  -8 1173.24   23.18
  -1   2   8 1156.63   24.62
   0  -2  -8   43.04    4.88
   0   2   8   50.30    5.58
   0  -2  -8   39.01    5.85
  -1  -2  -8  326.90   12.88
  -1  -2  -8  358.25   10.31
  -2  -2  -8   17.82    3.78
  -2  -2  -8   15.73    4.24
  -2  -2  -8   15.88    4.37
  -3  -2  -8  239.82   11.71
  -3  -2  -8  243.29   10.67
  -3  -2  -8  225.79   10.14
  -4  -2  -8  233.34   11.68
  -4  -2  -8  235.41   12.60
  -5  -2  -8   73.22    8.75
  -5  -2  -8   84.94    9.42
  -6  -2  -8   83.66   10.20
  -6  -2  -8   77.63    9.88
  -7  -2  -8    0.67    6.56
  -7  -2  -8    9.43    6.86
  -8  -2  -8   97.03   13.49
  -8  -2  -8  108.78   12.68
  -5   3   8   77.50   12.30
  -4   3   8  119.72   14.54
  -3   3   8   44.69    9.78
  -2   3   8  633.55   22.08
   2  -3  -8  604.54   17.52
  -1   3   8   79.75    9.60
   1  -3  -8   89.61    7.58
   0   3   8   26.55    6.91
   0  -3  -8   32.40    5.18
  -1  -3  -8    6.16    3.81
  -2  -3  -8 1137.12   25.37
  -3  -3  -8  442.02   15.47
  -3  -3  -8  441.40   13.39
  -4  -3  -8  223.49   11.03
  -4  -3  -8  191.65   11.84
  -5  -3  -8   20.26    6.38
  -5  -3  -8   24.60    6.05
  -6  -3  -8   72.19    9.53
  -6  -3  -8   44.25    8.68
  -7  -3  -8  265.21   16.12
  -7  -3  -8  266.19   16.54
  -8  -3  -8   10.17    7.45
  -8  -3  -8   -1.94    7.09
  -5   4   8  -14.53    7.88
  -4   4   8  110.68   12.85
   3  -4  -8 1164.05   27.77
  -3   4   8 1086.37   31.25
  -2   4   8  650.45   23.33
   2  -4  -8  669.32   19.50
  -1   4   8   37.13    8.47
   1  -4  -8   42.35    6.78
   0   4   8  116.14   11.98
   0  -4  -8  133.58    9.63
   1   4   8  545.43   18.50
  -1  -4  -8  569.76   17.20
  -2  -4  -8   18.23    5.15
   2   4   8   13.17    5.89
  -3  -4  -8  122.83    9.63
   3   4   8  123.86   10.51
  -4  -4  -8   58.47    8.26
  -5  -4  -8   99.19    9.52
  -6  -4  -8   59.59    9.28
  -6  -4  -8   71.73    9.42
  -7  -4  -8   25.47    7.69
  -8  -4  -8    5.06    7.25
  -5   5   8   48.58   11.29
   4  -5  -8    5.94    7.78
  -4   5   8    9.71    8.82
  -3   5   8   -2.63    7.35
   3  -5  -8    2.21    6.91
   2  -5  -8   78.70    9.48
  -2   5   8   98.59   11.41
   1  -5  -8  318.62   13.92
  -1   5   8  310.98   16.86
   0   5   8   24.54    7.71
   0  -5  -8   28.76    6.53
   1   5   8  276.67   14.70
  -1  -5  -8  286.66   13.06
   2   5   8   74.08    8.65
  -2  -5  -8   81.84    8.97
   3   5   8    2.92    5.68
  -3  -5  -8   -2.84    4.81
  -4  -5  -8   15.23    6.16
  -5  -5  -8   78.29    8.91
  -6  -5  -8  134.76   11.87
  -7  -5  -8    4.16    6.21
   5  -6  -8   36.06   10.11
  -5   6   8   36.44   10.94
   4  -6  -8   68.72   10.99
  -4   6   8   57.99   11.20
   3  -6  -8   69.98    9.97
  -3   6   8   56.87   10.50
  -2   6   8   67.45   10.43
   2  -6  -8   37.88    8.29
  -1   6   8  335.02   18.17
   1  -6  -8  358.59   16.39
   0  -6  -8   60.76    8.77
   0   6   8   42.94    9.01
  -1  -6  -8  220.37   12.77
   1   6   8  217.17   14.32
  -2  -6  -8  187.96   12.15
   2   6   8  195.87   13.49
  -3  -6  -8  374.27   15.85
   3   6   8  399.75   15.83
  -4  -6  -8   89.30    9.81
  -5  -6  -8  151.64   11.89
  -6  -6  -8    1.75    5.92
  -7  -6  -8   17.44    7.41
   5  -7  -8   72.86   13.11
  -5   7   8   86.13   13.28
   4  -7  -8   13.28    8.60
  -4   7   8   -4.76    8.14
  -3   7   8   86.22   12.04
   3  -7  -8   70.45   10.89
  -2   7   8   -1.03    7.00
   2  -7  -8  -11.17    6.36
   1  -7  -8   86.21   10.19
  -1   7   8   87.07   10.77
   0   7   8  107.09   12.18
   0  -7  -8  109.67   11.17
   1   7   8  125.35   12.82
  -1  -7  -8  121.29   11.45
  -2  -7  -8  159.64   12.16
   2   7   8  168.00   13.19
  -3  -7  -8  105.09    9.89
  -4  -7  -8  235.95   13.99
  -5  -7  -8    6.33    6.36
  -6  -7  -8   52.28    9.35
  -7  -7  -8    5.79    7.46
  -5   8   8   12.48    9.94
   5  -8  -8   11.09   10.30
   4  -8  -8   40.54   10.77
  -4   8   8   15.80    9.30
   3  -8  -8   63.14   10.98
  -3   8   8   64.33   11.39
  -2   8   8   31.59    9.42
   2  -8  -8   16.12    8.08
   1  -8  -8    4.58    7.23
  -1   8   8    4.71    7.49
   0   8   8  204.04   14.54
   0  -8  -8  195.80   13.41
   1   8   8   12.12    7.55
  -1  -8  -8   13.61    7.38
  -2  -8  -8   -3.06    5.80
   2   8   8    2.85    6.41
  -3  -8  -8   45.94    8.52
  -4  -8  -8   58.76    9.53
  -5  -8  -8  119.44   11.83
  -6  -8  -8   21.66    8.02
  -4   9   8   30.91   10.78
   4  -9  -8    6.41    9.82
   3  -9  -8  -11.99    7.87
  -3   9   8    2.18    8.40
  -2   9   8   28.36    9.54
   2  -9  -8   44.15   10.15
   1  -9  -8   78.68   11.12
  -1   9   8   86.01   11.59
   0  -9  -8    9.19    7.59
   0   9   8   -7.79    6.86
  -1  -9  -8   19.92    8.19
   1   9   8    5.54    7.20
  -2  -9  -8    4.94    5.93
   2   9   8   -9.76    5.84
  -3  -9  -8   -6.81    5.95
  -4  -9  -8   -3.27    6.19
  -5  -9  -8  175.12   14.00
  -6  -9  -8   83.85   11.95
   3 -10  -8   19.01   10.28
  -3  10   8   -5.26    8.02
  -2  10   8   10.80    8.50
   2 -10  -8   19.22    9.56
  -1  10   8   39.42    9.96
   1 -10  -8   47.30   10.58
   0  10   8    6.02    7.78
   0 -10  -8   -3.84    7.06
   1  10   8  207.38   14.89
  -1 -10  -8  176.06   14.28
  -2 -10  -8  128.32   12.54
   2  10   8  119.20   12.44
  -3 -10  -8    2.26    7.04
  -4 -10  -8    4.94    7.22
  -5 -10  -8   65.60   11.09
   2 -11  -8    4.30    9.95
  -2  11   8   -6.93    7.86
   1 -11  -8   11.91    9.61
  -1  11   8   12.31    8.86
   0  11   8   37.46    9.98
   0 -11  -8   17.82    8.80
  -1 -11  -8   -3.30    7.45
   1  11   8  -16.94    6.67
  -2 -11  -8   -0.54    7.36
   2  11   8   -5.36    6.78
  -3 -11  -8    2.49    7.65
  -4 -11  -8    7.64    7.91
   0  12   8   90.85   12.88
   0 -12  -8   87.78   13.42
  -1 -12  -8   29.74   10.24
   1  12   8   44.96   10.36
  -2 -12  -8   41.51   11.10
  -3 -12  -8    3.25    8.62
  -1  -8   9   13.32   12.57
   1   8  -9    8.17    6.37
   0  -8   9   44.59   12.20
  -1   8  -9   19.34    7.15
   1  -8   9   43.98   12.71
  -2   8  -9    5.26    6.40
  -2  -7   9    4.66   10.96
   2   7  -9    1.95    5.26
  -1  -7   9   34.71   12.32
   1   7  -9   31.66    7.96
   0   7  -9   -3.62    4.85
   0  -7   9   10.23    9.32
  -1   7  -9    1.65    5.11
   1  -7   9   26.67    9.64
  -2   7  -9   -0.44    5.72
  -2   7  -9    2.69    9.18
  -3   7  -9   93.75   13.21
  -3   7  -9   88.73   11.64
  -4   7  -9   35.41   11.39
  -4   7  -9   70.09   11.11
  -3  -6   9  -10.33   10.21
   3   6  -9    4.90    5.27
   2   6  -9  347.83   17.42
  -2  -6   9  331.34   21.87
  -1  -6   9   21.01   11.14
   1   6  -9   35.56    7.59
   0  -6   9    3.95    9.56
   0   6  -9    2.68    5.24
   1  -6   9   79.77   12.66
  -1   6  -9   88.08   10.46
  -2   6  -9   49.05    8.74
  -2   6  -9   55.91   11.24
  -3   6  -9  126.48   13.88
  -3   6  -9  107.60   11.62
  -4   6  -9   95.59   11.55
  -4   6  -9   97.96   13.89
  -5   6  -9   30.41   10.86
  -4  -5   9   46.57   13.29
   3   5  -9    2.95    4.90
  -3  -5   9   -0.03    9.64
  -2  -5   9  128.70   15.87
   2   5  -9  138.03   11.52
   1   5  -9    7.54    5.38
  -1  -5   9    8.59    9.66
   0  -5   9    7.57    9.35
   0   5  -9   -0.63    4.68
  -1   5  -9   -2.35    4.76
   1  -5   9   23.61    9.50
  -2   5  -9  222.36   15.58
  -2   5  -9  206.10   13.64
  -3   5  -9    9.82    5.87
  -3   5  -9    1.61    7.17
  -4   5  -9  333.53   17.31
  -4   5  -9  332.17   19.31
  -5   5  -9    4.57    8.32
  -5  -4   9    3.73   11.29
  -4  -4   9   22.01   10.79
   3   4  -9    8.18    4.95
  -3  -4   9    0.47    8.18
  -2  -4   9   -4.19    8.71
   2   4  -9    8.84    5.30
  -1  -4   9  239.73   16.88
   1   4  -9  256.60   14.00
   0   4  -9  137.52   10.95
   0  -4   9  132.01   13.74
  -1   4  -9  160.53   11.99
  -2   4  -9   24.42    7.55
  -2   4  -9   19.44    6.44
  -3   4  -9   64.25   10.62
  -3   4  -9   77.58    9.60
  -4   4  -9   -5.04    6.78
  -4   4  -9    2.56    5.69
   5  -4   9   84.10   11.13
  -5   4  -9   60.20   11.22
   6  -4   9   56.96   11.24
  -6   4  -9   37.20   10.80
  -5  -3   9   57.22   13.43
  -4  -3   9  -15.50    8.21
  -3  -3   9   18.32    9.80
   3   3  -9   19.50    6.08
  -2  -3   9   74.55   11.71
   2   3  -9  107.84   10.03
   1   3  -9   10.71    5.26
  -1  -3   9    9.78    7.68
   0   3  -9   16.78    5.33
   0  -3   9   12.05    8.26
  -1   3  -9  237.76   14.17
  -1   3  -9  217.25   12.86
  -2   3  -9   14.29    6.65
  -2   3  -9   10.63    5.18
  -3   3  -9   94.23    9.88
  -3   3  -9   71.75   10.27
  -4   3  -9  326.13   17.65
  -4   3  -9  359.10   16.34
  -5   3  -9   10.09    7.76
  -5   3  -9   14.30    7.49
  -6   3  -9   11.99    8.23
  -5  -2   9   36.93   11.80
  -4  -2   9   28.99   10.70
   4   2  -9   28.38    6.83
   3   2  -9   66.75    8.60
  -3  -2   9   63.87   11.22
  -2  -2   9   98.62   11.75
   2   2  -9  102.47    9.85
  -1  -2   9  120.77   13.27
   1   2  -9  117.11   10.28
   0   2  -9  156.98   11.28
   0  -2   9  139.80   13.00
  -1   2  -9   90.22    9.69
  -1   2  -9   80.07    9.83
  -2   2  -9    2.23    4.72
  -2   2  -9   11.17    6.39
  -3   2  -9   86.63   10.40
  -3   2  -9   98.67    8.31
  -3   2  -9  107.91    9.93
  -4   2  -9  275.16   15.73
  -4   2  -9  273.34   13.52
  -4   2  -9  300.62   14.45
  -5   2  -9   39.97    8.38
  -5   2  -9   54.84   10.24
  -6   2  -9   18.38    8.54
  -6   2  -9   14.21    7.40
  -7   2  -9    4.31    8.36
  -6  -1   9   35.75   12.20
  -5  -1   9   34.52   11.06
   4   1  -9  116.44   11.77
  -4  -1   9  119.09   13.88
  -3  -1   9   66.43   10.76
   3   1  -9   84.77    9.55
  -2  -1   9  416.52   18.80
   2   1  -9  413.74   17.03
  -1  -1   9   19.74    8.56
   1   1  -9   24.68    6.33
   0  -1   9  265.44   14.37
   0   1  -9  295.48   13.97
  -1   1  -9   18.23    5.67
  -1   1  -9   21.21    6.10
  -2   1  -9  149.30   10.80
  -2   1  -9  128.65   10.32
  -2   1  -9  142.64    8.56
  -3   1  -9   -0.26    4.07
  -3   1  -9    1.68    4.58
  -3   1  -9   -0.43    5.17
  -4   1  -9   49.47    7.13
  -4   1  -9   53.48    7.90
  -4   1  -9   58.05    9.01
  -5   1  -9   18.23    7.22
  -5   1  -9   18.51    6.64
  -6   1  -9  103.50   12.29
  -6   1  -9  117.86   11.85
  -7   1  -9   -4.39    6.85
  -7   1  -9   18.50    9.10
  -6   0   9   15.89   11.03
  -5   0   9    1.93    8.30
  -4   0   9  120.67   13.98
  -3   0   9   -4.93    6.76
   3   0  -9    2.94    4.90
   2   0  -9  802.45   23.77
  -2   0   9  782.06   24.12
   1   0  -9   89.87    9.33
  -1   0   9   76.97    9.77
   0   0   9    4.10    6.44
   0   0  -9    4.08    4.52
  -1   0  -9  273.32   13.14
  -2   0  -9  455.83   16.27
  -2   0  -9  464.58   16.19
  -2   0  -9  456.37   14.11
  -3   0  -9   62.84    7.40
  -3   0  -9   76.43    9.31
  -3   0  -9   74.50    8.39
  -4   0  -9    6.83    5.33
  -4   0  -9    4.64    3.17
  -4   0  -9    5.98    5.54
  -5   0  -9  114.52   10.62
  -5   0  -9  121.16   11.32
  -6   0  -9   13.73    6.99
  -6   0  -9    7.79    6.66
  -7   0  -9   61.88   11.30
  -7   0  -9   51.99   10.25
  -4   1   9   67.14   11.18
  -4   1   9   63.53   10.59
  -3   1   9   37.51    8.65
   2  -1  -9   25.45    6.37
  -2   1   9   10.97    7.36
   1  -1  -9  228.17   12.68
  -1   1   9  243.14   12.85
   0   1   9    1.94    5.51
   0  -1  -9    3.19    4.70
  -1  -1  -9  183.16   11.04
  -1  -1  -9  207.17    9.04
  -2  -1  -9  324.22   12.62
  -2  -1  -9  315.58   13.49
  -3  -1  -9   17.53    4.86
  -3  -1  -9   14.34    5.53
  -4  -1  -9   96.92    9.37
  -4  -1  -9   90.18    9.17
  -5  -1  -9   81.04   10.17
  -5  -1  -9   90.32    9.86
  -6  -1  -9   -1.02    5.83
  -6  -1  -9   -1.64    6.12
  -7  -1  -9  125.40   13.00
  -7  -1  -9  146.89   13.59
  -4   2   9   30.91   10.24
  -3   2   9  106.10   12.21
  -2   2   9  164.72   14.65
   1  -2  -9   22.02    5.94
   0  -2  -9   37.24    4.94
   0  -2  -9   37.82    6.48
  -1  -2  -9  243.34   12.16
  -1  -2  -9  232.26    9.89
  -2  -2  -9  106.55    7.81
  -2  -2  -9  111.25    7.35
  -2  -2  -9   94.71    8.62
  -3  -2  -9  820.59   20.77
  -3  -2  -9  793.83   20.84
  -3  -2  -9  812.48   21.83
  -4  -2  -9    4.68    5.18
  -4  -2  -9    2.62    2.81
  -5  -2  -9  260.04   13.80
  -5  -2  -9  256.51   14.16
  -6  -2  -9   -3.38    5.61
  -6  -2  -9    0.30    5.94
  -7  -2  -9   36.83    9.06
  -7  -2  -9   32.76    8.76
  -5   3   9   43.67   11.46
  -4   3   9  157.38   15.93
  -3   3   9   25.71    9.19
  -2   3   9  193.99   15.33
   1  -3  -9    1.17    4.53
  -1   3   9    0.13    7.01
   0   3   9   30.46    7.91
   0  -3  -9   28.22    4.95
  -1  -3  -9  312.38   12.32
  -2  -3  -9   36.77    5.86
  -2  -3  -9   29.64    5.68
  -3  -3  -9  296.14   13.37
  -4  -3  -9  170.55   11.52
  -5  -3  -9   62.85    8.88
  -6  -3  -9   22.76    7.24
  -6  -3  -9   19.28    7.18
  -7  -3  -9    7.72    6.72
  -5   4   9   -7.95    9.12
  -4   4   9  210.42   17.40
  -3   4   9    4.38    8.38
  -2   4   9   22.18    9.36
   1  -4  -9   32.45    6.58
  -1   4   9   19.67    8.74
   0  -4  -9   65.77    7.53
   0   4   9   58.05    9.26
  -1  -4  -9   50.76    6.92
   1   4   9   55.95    8.55
   2   4   9  540.40   18.96
  -2  -4  -9  555.66   17.60
   3   4   9  506.40   17.63
  -3  -4  -9  513.85   17.81
  -4  -4  -9  384.77   16.55
  -5  -4  -9    2.82    5.81
  -6  -4  -9    8.33    6.36
  -7  -4  -9   54.93    9.93
  -5   5   9    2.84    9.53
  -4   5   9   62.54   12.15
  -3   5   9   46.61   10.55
   3  -5  -9   41.25    8.55
   2  -5  -9    2.57    6.06
  -2   5   9  -11.60    7.11
  -1   5   9  182.25   15.12
   1  -5  -9  236.57   13.09
   0  -5  -9   14.36    6.55
   0   5   9   20.16    8.45
   1   5   9   87.57   10.10
  -1  -5  -9   81.76    9.07
   2   5   9   -5.40    6.38
  -2  -5  -9   -4.61    5.08
  -3  -5  -9  381.19   16.09
   3   5   9  381.03   15.99
  -4  -5  -9    7.46    5.50
  -5  -5  -9  102.73   10.84
  -6  -5  -9    4.09    6.41
  -7  -5  -9  117.68   12.42
  -5   6   9   13.20   10.69
   4  -6  -9   74.18   11.23
  -4   6   9   68.10   12.33
  -3   6   9   50.49   10.80
   3  -6  -9   68.87   10.55
  -2   6   9    6.15    7.85
   2  -6  -9  -13.18    5.26
   1  -6  -9  164.26   11.97
  -1   6   9  161.60   14.42
   0   6   9   22.61    8.45
   0  -6  -9   22.31    7.06
  -1  -6  -9  207.26   12.75
   1   6   9  200.11   14.57
  -2  -6  -9  304.80   15.11
   2   6   9  329.71   16.03
   3   6   9    3.70    6.43
  -3  -6  -9    1.41    5.69
  -4  -6  -9  179.08   12.00
  -5  -6  -9  112.02   11.33
  -6  -6  -9    2.35    5.85
  -7  -6  -9   50.10   10.07
  -5   7   9   -5.05    9.73
  -4   7   9   18.05   10.19
   4  -7  -9   32.61    9.72
   3  -7  -9    2.82    7.43
  -3   7   9   -7.28    7.66
   2  -7  -9   -9.30    6.15
  -2   7   9    0.23    7.54
   1  -7  -9  225.09   13.89
  -1   7   9  247.61   16.03
   0   7   9   32.15    9.11
   0  -7  -9   30.67    7.74
   1   7   9  119.57   12.71
  -1  -7  -9  121.08   11.28
  -2  -7  -9  162.64   12.31
   2   7   9  162.61   13.31
  -3  -7  -9    6.37    5.98
  -4  -7  -9  184.06   13.30
  -5  -7  -9    6.28    6.08
  -6  -7  -9   -4.04    5.82
  -7  -7  -9    3.27    6.88
   4  -8  -9   53.47   11.28
  -4   8   9   64.36   12.43
  -3   8   9    5.65    9.00
   3  -8  -9    8.96    9.08
  -2   8   9   18.57    9.04
   2  -8  -9   16.12    8.07
   1  -8  -9   15.14    7.88
  -1   8   9    1.67    7.83
   0  -8  -9    7.69    7.02
   0   8   9   15.74    8.26
  -1  -8  -9  121.54   11.78
   1   8   9  118.71   12.61
   2   8   9    8.35    7.15
  -2  -8  -9   12.17    6.89
  -3  -8  -9   -0.87    6.30
  -4  -8  -9   21.92    7.35
  -5  -8  -9   -0.34    5.95
  -6  -8  -9   35.92    9.08
   4  -9  -9   17.08   10.96
  -4   9   9   18.04   10.70
  -3   9   9   15.69    9.65
   3  -9  -9   27.11   10.24
  -2   9   9   -2.23    8.20
   2  -9  -9   -6.10    7.45
  -1   9   9   21.23    9.20
   1  -9  -9   13.08    8.07
   0  -9  -9   -1.48    6.84
   0   9   9  -12.27    6.95
   1   9   9   35.25    9.13
  -1  -9  -9   23.22    8.50
  -2  -9  -9   10.12    7.22
   2   9   9   -5.06    6.57
  -3  -9  -9    7.36    6.29
  -4  -9  -9   13.45    7.22
  -5  -9  -9   23.78    8.19
  -6  -9  -9   -5.43    6.65
  -3  10   9   67.20   13.01
   3 -10  -9   86.07   13.93
   2 -10  -9   25.73   10.12
  -2  10   9   14.07    9.45
  -1  10   9   96.15   12.87
   1 -10  -9   91.73   12.33
   0  10   9  -14.76    6.85
   0 -10  -9   -6.28    7.22
   1  10   9   18.02    8.42
  -1 -10  -9   17.96    8.63
  -2 -10  -9   14.77    7.80
   2  10   9   12.28    7.76
  -3 -10  -9    3.08    6.85
  -4 -10  -9   33.39    9.08
  -5 -10  -9   63.22   11.55
   2 -11  -9   12.45   10.10
  -2  11   9    9.89    9.60
  -1  11   9   60.61   11.63
   1 -11  -9   51.95   11.76
   0  11   9    6.00    8.64
   0 -11  -9   -7.08    8.17
   1  11   9   -1.16    7.87
  -1 -11  -9    0.28    7.85
  -2 -11  -9   43.84   10.12
   2  11   9   32.87    9.53
  -3 -11  -9   51.19   10.66
  -4 -11  -9   -9.76    6.96
   0 -12  -9   -6.76    8.39
   0  12   9  -14.29    7.84
   1  12   9    4.31    8.65
  -1 -12  -9    5.42    9.17
   1   7 -10    0.18    5.26
  -1  -7  10    8.36   11.93
   0   7 -10   18.15    6.99
   0  -7  10   12.62   11.17
   1  -7  10  112.46   15.72
  -1   7 -10   90.84   11.88
  -2   7 -10    6.13    6.97
  -3   7 -10   -0.94    9.65
  -3   7 -10    3.54    7.19
   3   6 -10    2.54    5.47
  -3  -6  10   -2.82   11.21
   2   6 -10   25.15    7.13
  -2  -6  10    9.47   11.73
  -1  -6  10    1.15   10.45
   1   6 -10   11.95    5.97
   0   6 -10   26.10    7.10
   0  -6  10   25.64   11.21
  -1   6 -10   48.30    8.90
   1  -6  10   70.46   12.24
  -2   6 -10    9.07    6.26
  -2   6 -10  -10.48    7.38
  -3   6 -10    6.51    6.70
  -3   6 -10   -4.02    7.37
  -4   6 -10  173.34   15.92
  -4   6 -10  188.68   15.03
  -3  -5  10   -3.31   10.46
   3   5 -10    3.30    5.36
   2   5 -10    4.15    5.46
  -2  -5  10  -12.89    8.90
  -1  -5  10  -17.98    8.24
   1   5 -10    5.93    5.44
   0  -5  10   91.48   13.38
   0   5 -10  102.15   10.31
   1  -5  10    3.03    8.08
  -1   5 -10    0.96    5.36
  -2   5 -10  101.05   11.26
  -2   5 -10   86.37   12.50
  -3   5 -10   16.48    7.08
  -3   5 -10   10.76    8.56
  -4   5 -10  115.92   12.41
  -4   5 -10  149.06   14.82
  -5   5 -10    8.71    9.40
  -4  -4  10    0.69   10.76
   3   4 -10   19.13    6.61
  -3  -4  10   29.12   11.27
   2   4 -10  198.40   13.40
  -2  -4  10  139.62   15.74
   1   4 -10   13.10    5.52
  -1  -4  10   13.52    9.86
   0   4 -10    6.31    5.13
   0  -4  10   -6.26    8.37
   1  -4  10   60.01   11.18
  -1   4 -10   56.51    8.66
  -2   4 -10   16.70    8.00
  -2   4 -10   16.09    6.47
  -3   4 -10   17.50    6.78
  -3   4 -10   20.03    8.44
  -4   4 -10    3.58    7.67
  -4   4 -10    3.15    5.97
  -5   4 -10   36.92   10.19
  -6   4 -10   14.33    9.72
  -4  -3  10   20.14   10.66
   3   3 -10   22.32    6.44
  -3  -3  10    5.52    9.24
  -2  -3  10   24.85    9.72
   2   3 -10   34.44    7.11
  -1  -3  10   30.62    9.91
   1   3 -10   18.64    6.21
   0  -3  10   22.83    9.02
   0   3 -10    9.97    5.32
   1  -3  10  146.31   13.35
  -1   3 -10  151.27   11.57
  -2   3 -10    2.54    6.33
  -2   3 -10   -1.45    4.80
  -3   3 -10   34.09    8.48
  -3   3 -10   44.44    8.10
  -4   3 -10   25.50    8.39
  -4   3 -10   18.57    6.56
  -5   3 -10   53.54   10.61
  -6   3 -10    2.59    8.14
  -5  -2  10    7.67   10.50
  -4  -2  10   10.98    9.67
   4   2 -10   -9.24    4.73
   3   2 -10   66.22    9.09
  -3  -2  10   54.35   11.43
   2   2 -10  107.69   10.67
  -2  -2  10  111.64   13.27
  -1  -2  10  478.94   20.70
   1   2 -10  535.17   19.78
   0  -2  10  -11.13    7.16
   0   2 -10    2.47    4.47
   1  -2  10   63.81    9.65
  -1   2 -10   45.34    7.71
  -2   2 -10   55.83    8.24
  -2   2 -10   40.88    8.31
  -3   2 -10   15.67    6.03
  -3   2 -10   14.57    7.04
  -4   2 -10    5.29    6.44
  -4   2 -10   17.25    6.14
  -5   2 -10    0.77    6.14
  -5   2 -10   -4.77    6.52
  -6   2 -10    8.91    7.87
  -6   2 -10   16.91    8.63
  -5  -1  10   24.40   10.97
   4   1 -10   12.71    6.95
  -4  -1  10   19.82    9.35
   3   1 -10    9.07    5.73
  -3  -1  10   15.78    9.02
  -2  -1  10  145.27   14.30
   2   1 -10  142.25   11.43
   1   1 -10  170.37   12.18
  -1  -1  10  193.49   14.35
   0  -1  10  115.51   12.00
   0   1 -10  133.98   10.98
  -1   1 -10  101.64    9.86
   1  -1  10   91.39   10.88
  -2   1 -10  289.82   14.32
  -2   1 -10  266.08   13.97
  -3   1 -10   62.07    8.30
  -3   1 -10   49.80    8.40
  -4   1 -10  567.07   21.70
  -4   1 -10  567.65   19.73
  -4   1 -10  562.35   19.42
  -5   1 -10   -5.28    5.54
  -5   1 -10    0.39    6.96
  -6   1 -10   70.73   10.74
  -6   1 -10   99.42   12.99
  -7   1 -10   44.56   10.19
  -7   1 -10   49.61   11.30
  -4   0  10  183.57   15.54
   3   0 -10   58.80    8.67
  -3   0  10   48.05   10.02
  -2   0  10  768.82   24.66
   2   0 -10  751.15   23.88
  -1   0  10  205.23   14.37
   1   0 -10  183.05   12.30
   0   0 -10  233.66   13.45
   0   0  10  240.97   14.16
  -1   0 -10   23.92    6.27
   1   0  10   21.20    7.11
  -2   0 -10  190.60   11.94
  -2   0 -10  196.92   11.46
  -3   0 -10   12.21    5.24
  -3   0 -10    3.47    5.39
  -3   0 -10    6.31    4.62
  -4   0 -10  505.41   18.45
  -4   0 -10  524.86   18.09
  -4   0 -10  516.48   19.65
  -5   0 -10   10.90    6.16
  -5   0 -10   -1.99    5.73
  -6   0 -10    9.71    7.55
  -6   0 -10    7.81    6.68
  -7   0 -10  165.15   14.51
  -7   0 -10  195.27   16.15
  -4   1  10   35.50   10.76
   2  -1 -10   29.56    6.84
   1  -1 -10  131.42   11.10
   0   1  10   55.55    8.41
   0  -1 -10   47.44    7.67
  -1  -1 -10    2.53    4.81
   1   1  10    4.52    5.71
  -2  -1 -10   29.88    6.43
  -2  -1 -10   24.98    5.83
  -2  -1 -10   31.30    5.69
  -3  -1 -10   53.06    7.48
  -3  -1 -10   48.78    7.28
  -4  -1 -10  187.70   11.82
  -4  -1 -10  191.51   12.50
  -5  -1 -10  163.08   12.47
  -5  -1 -10  140.69   11.63
  -6  -1 -10   15.80    6.89
  -6  -1 -10    5.62    6.58
  -7  -1 -10   41.07   10.05
  -7  -1 -10   29.87    8.93
  -4   2  10    5.03    9.64
  -3   2  10  161.80   15.45
   1  -2 -10  138.57   11.39
   0  -2 -10   48.34    7.72
  -1  -2 -10   24.26    5.19
  -1  -2 -10   16.62    5.70
  -2  -2 -10   10.86    4.95
  -2  -2 -10   14.43    5.66
  -3  -2 -10  194.94   11.22
  -3  -2 -10  181.65   11.18
  -4  -2 -10   42.24    7.52
  -5  -2 -10  136.34   11.49
  -6  -2 -10    4.82    6.72
  -7  -2 -10   76.64   11.39
  -5   3  10   36.07   11.91
  -4   3  10   47.56   11.35
  -3   3  10    2.05    8.60
  -2   3  10  116.41   14.14
  -1   3  10  161.42   14.27
   0  -3 -10   -1.36    4.21
  -1  -3 -10   67.04    6.83
  -1  -3 -10   60.38    7.83
  -2  -3 -10  166.26   11.49
  -2  -3 -10  182.97   10.76
  -3  -3 -10    4.66    4.86
  -3  -3 -10    5.53    4.51
  -4  -3 -10  565.42   19.83
  -5  -3 -10   49.57    8.67
  -6  -3 -10    9.75    6.65
  -7  -3 -10    7.91    7.35
  -5   4  10   21.55   11.60
  -4   4  10   67.36   12.56
  -3   4  10   -6.51    8.16
  -2   4  10    2.99    7.99
  -1   4  10   89.57   11.34
   1  -4 -10   83.71    7.88
   0  -4 -10  189.68   11.17
   0   4  10  174.02   14.80
  -1  -4 -10   20.70    6.09
   1   4  10   24.45    8.26
   2   4  10   39.89    8.31
  -2  -4 -10   48.64    7.32
   3   4  10   39.99    7.79
  -3  -4 -10   20.42    6.12
  -4  -4 -10  101.14   10.18
  -5  -4 -10   30.50    7.69
  -6  -4 -10    3.90    6.21
  -7  -4 -10   29.11    8.78
  -5   5  10  -14.67    9.51
  -4   5  10   67.39   12.65
  -3   5  10   -9.95    8.12
  -2   5  10  120.91   14.44
   2  -5 -10  153.80   11.65
  -1   5  10    5.95    8.05
   1  -5 -10    3.28    6.02
   0  -5 -10   15.63    6.37
   0   5  10   26.87    8.94
   1   5  10   74.70   10.44
  -1  -5 -10   88.11    9.60
   2   5  10   17.18    7.73
  -2  -5 -10   18.94    6.34
  -3  -5 -10    8.33    5.51
   3   5  10   -2.38    6.12
  -4  -5 -10   -2.09    4.52
  -5  -5 -10   94.00   10.21
  -6  -5 -10    8.80    6.88
  -7  -5 -10   55.44   10.53
  -5   6  10    0.05   10.31
  -4   6  10   13.89    9.81
  -3   6  10   25.54   10.29
   3  -6 -10   24.52    8.85
  -2   6  10  194.01   16.27
   2  -6 -10  199.08   13.65
  -1   6  10   86.02   11.56
   1  -6 -10   71.05    9.32
   0   6  10   -4.61    7.05
   0  -6 -10    0.88    5.91
   1   6  10  350.37   17.71
  -1  -6 -10  321.13   15.28
   2   6  10  160.43   13.58
  -2  -6 -10  154.61   11.84
   3   6  10   16.77    7.00
  -3  -6 -10   16.54    6.50
  -4  -6 -10   49.47    8.44
  -5  -6 -10  125.03   12.10
  -6  -6 -10   -2.67    6.26
  -7  -6 -10   53.18   10.52
  -4   7  10   -1.22    9.92
  -3   7  10   37.00   10.90
   3  -7 -10   42.19    9.77
   2  -7 -10   15.78    7.64
  -2   7  10    6.47    8.75
   1  -7 -10  166.01   12.35
  -1   7  10  123.45   14.24
   0  -7 -10   16.63    7.83
   0   7  10   15.02    8.82
   1   7  10   97.48   11.40
  -1  -7 -10   84.07   10.16
   2   7  10   16.44    7.84
  -2  -7 -10   17.72    6.78
  -3  -7 -10  117.49   11.32
  -4  -7 -10   -3.51    5.80
  -5  -7 -10   58.72    9.89
  -6  -7 -10  101.74   12.04
   4  -8 -10    5.83    9.27
  -4   8  10    3.26   10.46
   3  -8 -10   27.79   10.04
  -3   8  10    9.40    9.79
  -2   8  10  188.07   16.42
   2  -8 -10  201.32   14.90
   1  -8 -10  110.47   12.37
  -1   8  10  105.63   12.78
   0   8  10   39.72    9.77
   0  -8 -10   32.43    8.67
  -1  -8 -10   29.26    8.39
   1   8  10   53.86    9.97
  -2  -8 -10  285.11   16.14
   2   8  10  287.58   16.38
  -3  -8 -10  129.38   12.13
  -4  -8 -10   12.76    7.29
  -5  -8 -10    4.54    6.32
  -6  -8 -10   51.85   10.63
   3  -9 -10    2.41    9.59
  -3   9  10   -1.54    9.21
   2  -9 -10    2.09    8.15
  -2   9  10    7.27    9.12
  -1   9  10   10.97    9.15
   1  -9 -10    8.38    7.90
   0  -9 -10   -5.07    6.90
   0   9  10  -11.12    7.26
   1   9  10   46.80   10.08
  -1  -9 -10   41.98    9.39
  -2  -9 -10   99.20   12.03
   2   9  10   96.92   11.66
  -3  -9 -10   27.54    8.54
  -4  -9 -10    0.57    6.04
  -5  -9 -10   42.19    9.22
   2 -10 -10    7.30    9.05
  -2  10  10   -3.92    8.67
  -1  10  10   23.90   10.03
   1 -10 -10   31.58    9.90
   0  10  10   29.40    9.87
   0 -10 -10   19.31    8.91
   1  10  10   -2.87    7.45
  -1 -10 -10    2.85    6.75
  -2 -10 -10    3.15    7.82
   2  10  10    3.88    7.70
  -3 -10 -10  143.38   13.77
  -4 -10 -10    5.31    7.46
  -5 -10 -10   30.15    9.31
  -1  11  10   31.24   10.82
   1 -11 -10    9.59    9.79
   0 -11 -10   20.23    9.98
   0  11  10   18.72   10.05
  -1 -11 -10   65.04   11.69
   1  11  10   63.59   11.87
  -2 -11 -10    0.72    8.25
  -3 -11 -10   72.52   12.00
  -4 -11 -10   20.35    9.21
  -1  -6  11    7.97   11.60
   1   6 -11    8.41    5.86
   0   6 -11    6.34    6.03
   0  -6  11    9.51   10.76
   1  -6  11   22.70   10.30
  -1   6 -11   15.96    6.96
   2  -6  11   19.03   10.92
  -2   6 -11    8.76    6.46
  -3   6 -11    1.70    8.36
  -3   6 -11   14.57    7.58
   2   5 -11   35.61    8.08
  -2  -5  11   42.84   12.83
   1   5 -11    4.05    5.04
  -1  -5  11    9.33   10.40
   0  -5  11   13.53   10.08
   0   5 -11   11.84    6.12
   1  -5  11   65.83   12.51
  -1   5 -11   98.87   11.09
  -2   5 -11   27.71    7.65
  -3   5 -11   -2.78    8.38
  -3   5 -11    3.88    6.11
  -4   5 -11   56.62   10.20
  -4   5 -11   46.55   11.93
   3   4 -11   16.08    6.46
  -3  -4  11    6.19   10.70
   2   4 -11  127.29   11.82
  -2  -4  11   92.11   14.00
   1   4 -11    3.14    5.03
  -1  -4  11    0.79    9.27
   0  -4  11   56.23   11.98
   0   4 -11   49.60    8.36
  -1   4 -11   70.38    9.87
   1  -4  11   68.10   11.85
  -2   4 -11   31.72    9.90
  -2   4 -11   41.38    8.20
  -3   4 -11  -10.35    7.14
  -3   4 -11    2.37    6.10
  -4   4 -11   46.71    9.27
  -4   4 -11   51.75   10.87
  -5   4 -11    2.36    8.71
  -4  -3  11   28.13   11.91
  -3  -3  11   26.08   10.99
   3   3 -11   51.75    9.11
   2   3 -11  117.45   11.50
  -2  -3  11  132.29   15.25
  -1  -3  11  255.88   17.72
   1   3 -11  230.48   14.33
   0  -3  11   12.08    9.08
   0   3 -11   19.86    6.27
   1  -3  11  204.46   15.50
  -1   3 -11  195.16   13.39
  -2   3 -11   -7.89    6.43
  -2   3 -11    2.95    5.26
  -3   3 -11    9.85    6.35
  -3   3 -11   13.33    7.63
  -4   3 -11   42.85    8.53
  -4   3 -11   30.09    9.58
  -5   3 -11    8.83    8.46
  -6   3 -11    1.44    8.75
  -4  -2  11  -11.90    8.97
   4   2 -11    0.62    5.82
  -3  -2  11   49.87   11.42
   3   2 -11   58.08    8.91
   2   2 -11   16.37    6.33
  -2  -2  11   15.44    9.22
   1   2 -11   28.73    7.10
  -1  -2  11   33.95    9.74
   0  -2  11   -5.03    7.71
   0   2 -11   -3.42    4.11
   1  -2  11   77.19   10.64
  -1   2 -11   79.62    9.78
  -2   2 -11   12.32    6.03
  -2   2 -11   11.21    6.73
  -3   2 -11   69.43   10.38
  -3   2 -11   56.66    8.68
  -4   2 -11    7.06    5.92
  -4   2 -11    2.60    7.51
  -5   2 -11   -0.78    7.20
  -6   2 -11    2.81    8.01
  -6   2 -11   14.43    9.41
   4   1 -11  -10.92    5.66
  -3  -1  11   -4.22    8.52
   3   1 -11   -2.33    4.93
  -2  -1  11   84.47   11.90
   2   1 -11   68.71    9.30
   1   1 -11   22.06    6.58
  -1  -1  11   27.53    8.93
   0  -1  11    6.60    7.87
   0   1 -11    6.03    5.31
  -1   1 -11   24.99    6.60
   1  -1  11   25.87    7.67
  -2   1 -11   76.66    9.40
  -2   1 -11  109.28   10.59
  -3   1 -11  133.18   11.26
  -3   1 -11  142.21   12.02
  -4   1 -11    9.26    5.77
  -4   1 -11   15.44    7.37
  -5   1 -11  109.25   11.43
  -5   1 -11  113.45   12.46
  -6   1 -11   54.00   10.08
  -6   1 -11   50.13   10.87
   3   0 -11   10.10    6.76
   2   0 -11    5.45    5.56
   1   0 -11   22.70    6.50
   0   0 -11  105.95   10.66
   0   0  11  109.34   11.87
   1   0  11   10.85    6.33
  -1   0 -11   15.15    5.88
  -2   0 -11  331.02   14.75
  -2   0 -11  325.00   15.83
  -3   0 -11    6.88    5.17
  -3   0 -11    6.29    6.21
  -4   0 -11  552.67   19.48
  -4   0 -11  604.87   21.69
  -4   0 -11  547.61   19.86
  -5   0 -11    1.79    6.50
  -5   0 -11   12.29    6.46
  -6   0 -11   72.74   11.48
  -6   0 -11   82.28   11.18
  -7   0 -11   26.64    9.78
  -7   0 -11   33.20    9.44
  -4   1  11   66.42   12.71
   2  -1 -11  115.94   11.73
   1  -1 -11   -1.46    4.48
   0  -1 -11    9.90    5.70
  -1  -1 -11   13.79    6.00
  -2  -1 -11  182.94   12.46
  -3  -1 -11  140.75   11.16
  -3  -1 -11  138.89   10.19
  -4  -1 -11  252.02   13.97
  -5  -1 -11    3.22    6.50
  -6  -1 -11   12.52    7.71
  -7  -1 -11  104.88   13.39
  -4   2  11   -4.30    9.05
  -3   2  11  173.19   16.39
   1  -2 -11   -1.49    5.16
   0  -2 -11   -6.07    4.50
  -1  -2 -11   68.21    8.78
  -2  -2 -11   -0.35    2.57
  -2  -2 -11    3.94    5.13
  -3  -2 -11   38.57    7.11
  -3  -2 -11   39.63    6.86
  -4  -2 -11  116.20   10.84
  -5  -2 -11   91.51   10.40
  -6  -2 -11   11.11    7.02
  -7  -2 -11   66.63   11.47
  -4   3  11    3.66    9.85
  -3   3  11    1.47    8.78
  -2   3  11   13.44    8.79
  -1   3  11   67.02   10.67
  -1  -3 -11  110.98    8.52
  -1  -3 -11  122.44   11.27
  -2  -3 -11  247.09   12.35
  -2  -3 -11  223.99   13.57
  -3  -3 -11   -2.49    4.81
  -3  -3 -11   -2.84    4.56
  -4  -3 -11  141.63   11.28
  -5  -3 -11  127.30   11.74
  -6  -3 -11    4.22    6.40
  -7  -3 -11   18.01    8.56
  -5   4  11   52.88   13.66
  -4   4  11   32.24   11.43
  -3   4  11   16.93    9.85
  -2   4  11  302.52   18.86
  -1   4  11  448.87   20.52
  -1  -4 -11   27.82    6.46
   1   4  11   10.00    7.85
   2   4  11  391.50   17.68
  -2  -4 -11  388.14   15.56
   3   4  11   29.37    7.70
  -3  -4 -11   15.78    6.15
  -4  -4 -11   56.66    9.04
  -5  -4 -11   23.42    7.58
  -6  -4 -11   25.55    8.30
  -7  -4 -11   -0.18    7.01
  -4   5  11  102.38   14.87
  -3   5  11    3.79    9.43
  -2   5  11   56.55   11.30
  -1   5  11    0.64    7.62
   1  -5 -11    4.28    6.10
   0  -5 -11   76.41    8.72
   0   5  11   69.23   10.60
  -1  -5 -11  100.73   10.17
   1   5  11  101.43   11.33
  -2  -5 -11  265.12   14.02
   2   5  11  241.40   15.36
  -3  -5 -11   61.33    8.89
   3   5  11   79.65    9.56
  -4  -5 -11    3.65    5.96
  -5  -5 -11   96.22   11.21
  -6  -5 -11   11.35    7.08
  -7  -5 -11   21.05    8.67
  -4   6  11   27.55   11.00
  -3   6  11  112.05   14.61
  -2   6  11    3.04    8.76
  -1   6  11   82.32   12.02
   1  -6 -11   88.86   10.97
   0   6  11    0.56    7.79
   0  -6 -11    4.16    5.92
   1   6  11   62.78   10.36
  -1  -6 -11   42.99    8.01
  -2  -6 -11   -4.03    5.57
   2   6  11   -6.16    6.51
   3   6  11   11.75    7.33
  -3  -6 -11   16.53    6.79
  -4  -6 -11   24.69    7.43
  -5  -6 -11  115.52   12.25
  -6  -6 -11    5.94    7.36
  -4   7  11  -10.57    9.55
  -3   7  11   13.97   10.17
  -2   7  11   10.97    9.28
   2  -7 -11    6.69    7.18
  -1   7  11   -3.71    8.25
   1  -7 -11   23.38    8.04
   0  -7 -11   78.66   10.42
   0   7  11   79.46   11.68
   1   7  11   71.22   10.87
  -1  -7 -11   67.56    9.78
   2   7  11   -2.27    7.46
  -2  -7 -11    0.34    6.08
  -3  -7 -11   -2.23    5.88
  -4  -7 -11  -12.89    5.41
  -5  -7 -11  123.12   12.83
  -6  -7 -11   -7.14    6.77
  -3   8  11   -9.30    8.87
   3  -8 -11  -14.23    8.43
  -2   8  11  -13.28    8.05
   2  -8 -11   -1.92    7.69
  -1   8  11    5.00    8.51
   1  -8 -11   -7.71    6.60
   0  -8 -11   45.13    9.81
   0   8  11   34.38    9.72
   1   8  11   64.82   11.01
  -1  -8 -11   49.81    9.62
   2   8  11   18.52    8.66
  -2  -8 -11   15.85    7.66
  -3  -8 -11   33.12    8.47
  -4  -8 -11   64.15   10.34
  -6  -8 -11   23.02    8.84
  -3   9  11  -14.05    9.60
   3  -9 -11  -10.91    8.31
   2  -9 -11   61.39   12.08
  -2   9  11   68.82   13.03
   1  -9 -11  -12.39    7.00
  -1   9  11  -15.77    7.87
   0   9  11   13.09    8.91
   0  -9 -11   25.66    9.00
  -1  -9 -11   10.20    7.90
   1   9  11    0.53    8.06
  -2  -9 -11   32.86    9.15
   2   9  11   22.54    9.27
  -3  -9 -11    7.97    7.65
  -4  -9 -11    4.04    7.36
  -5  -9 -11   20.63    8.27
   2 -10 -11   -9.58    8.47
   1 -10 -11    2.85    8.57
  -1  10  11    4.59    9.37
   0 -10 -11   -3.45    7.55
   0  10  11  -16.85    7.60
   1  10  11   44.18   10.75
  -1 -10 -11   70.73   11.60
  -2 -10 -11   26.24    9.41
   2  10  11   22.59    9.38
  -3 -10 -11   14.65    8.93
  -4 -10 -11   -5.81    6.93
   0  11  11  -11.45    8.34
   0 -11 -11    5.46    9.61
  -1 -11 -11   47.59   11.62
   1  11  11   37.51   10.79
  -2 -11 -11    2.33    8.78
  -3 -11 -11    1.87    8.65
   1   5 -12   81.32   11.36
  -1  -5  12   60.68   14.27
   0   5 -12    4.83    6.04
   0  -5  12   23.27   11.50
  -1   5 -12   10.57    6.57
   1  -5  12    3.45   10.05
  -2   5 -12   -1.38    6.40
   2  -5  12   14.89   10.72
  -3   5 -12   -8.74    9.51
  -3   5 -12    8.30    7.13
  -2  -4  12   87.79   14.70
   2   4 -12  100.47   12.15
   1   4 -12   46.76    8.93
  -1  -4  12   28.97   11.04
   0   4 -12   82.10   10.84
   0  -4  12  100.45   14.11
  -1   4 -12    6.57    5.96
   1  -4  12    9.04    9.34
  -2   4 -12   83.78   10.96
  -3   4 -12    1.64    6.49
  -3   4 -12   -5.49    8.46
  -4   4 -12  104.82   14.71
  -4   4 -12  101.99   12.53
  -3  -3  12   69.08   13.74
   3   3 -12   83.65   11.27
  -2  -3  12  227.84   18.25
   2   3 -12  218.52   15.25
  -1  -3  12    9.08    9.63
   1   3 -12   27.49    7.14
   0  -3  12   31.13   10.45
   0   3 -12   13.92    6.04
   1  -3  12   20.57    9.49
  -1   3 -12   13.71    6.65
  -2   3 -12   35.98    7.97
  -3   3 -12   40.19    8.53
  -3   3 -12   47.96   10.82
  -4   3 -12  162.96   13.95
  -4   3 -12  155.49   15.11
  -5   3 -12   61.94   12.46
  -3  -2  12   40.66   12.62
   3   2 -12   41.36    8.86
  -2  -2  12   43.53   10.99
   2   2 -12   17.44    6.67
  -1  -2  12  114.46   14.22
   1   2 -12  138.80   12.47
   0  -2  12   58.35   11.17
   0   2 -12   59.57    9.28
  -1   2 -12  181.47   13.15
   1  -2  12  213.37   15.27
  -2   2 -12    0.35    7.28
  -2   2 -12    8.15    6.06
  -3   2 -12    1.85    7.05
  -3   2 -12   -0.63    5.67
  -4   2 -12   -6.01    7.06
  -4   2 -12    7.20    6.44
  -5   2 -12  130.71   14.35
   3   1 -12    4.31    6.14
   2   1 -12    4.43    5.60
   1   1 -12  122.29   11.73
   0  -1  12   20.56    9.17
   0   1 -12   31.54    7.53
  -1   1 -12  159.21   12.81
   1  -1  12  147.86   13.73
  -2   1 -12   10.38    6.12
  -2   1 -12   -4.33    6.36
  -3   1 -12   25.83    7.46
  -3   1 -12   42.31    9.04
  -4   1 -12  312.35   16.40
  -4   1 -12  320.63   18.12
  -5   1 -12   17.81    8.47
  -6   1 -12   22.60   10.16
  -4   0  12   16.84   11.24
   3   0 -12   18.57    7.82
   2   0 -12   59.29    9.47
   1   0 -12   37.91    7.73
   0   0 -12   22.67    6.95
  -1   0 -12   16.41    6.68
  -2   0 -12   68.89    9.49
  -3   0 -12   12.16    6.00
  -4   0 -12  250.79   14.81
  -5   0 -12    3.40    6.01
  -6   0 -12   85.44   11.85
  -4   1  12  108.10   15.28
   2  -1 -12   14.76    7.03
   1  -1 -12  108.03   11.29
   0  -1 -12   35.50    7.75
  -1  -1 -12   33.17    7.66
  -2  -1 -12   90.04   10.62
  -3  -1 -12   -4.01    4.68
  -4  -1 -12   13.93    6.84
  -5  -1 -12   63.13    9.77
  -6  -1 -12   12.68    7.46
  -4   2  12   29.24   11.77
  -3   2  12   19.48    9.91
  -2   2  12   72.81   11.68
   1  -2 -12   37.66    8.36
   0  -2 -12   -3.90    5.00
  -1  -2 -12   42.37    8.23
  -2  -2 -12   13.78    6.34
  -3  -2 -12   28.40    6.60
  -3  -2 -12   14.22    6.07
  -4  -2 -12   -6.77    5.55
  -5  -2 -12   15.17    7.38
  -6  -2 -12    1.71    6.71
  -4   3  12   24.43   11.31
  -3   3  12   38.66   11.13
  -2   3  12   14.28    9.27
  -1   3  12   25.41    9.19
  -1  -3 -12  253.48   15.21
  -2  -3 -12    1.13    4.90
  -2  -3 -12   -4.41    5.29
  -3  -3 -12   -0.12    5.61
  -3  -3 -12    9.31    6.07
  -4  -3 -12   43.47    8.19
  -5  -3 -12   11.05    7.20
  -6  -3 -12    8.99    7.36
  -4   4  12   -6.92   10.20
  -3   4  12  142.99   16.90
  -2   4  12    7.37    9.10
  -1   4  12   18.65    8.70
   0   4  12   87.23   11.89
   1   4  12   76.24   10.98
  -1  -4 -12   92.24    8.94
  -2  -4 -12  211.36   12.59
   2   4  12  215.55   14.95
  -3  -4 -12   -3.69    5.00
   3   4  12   -0.83    6.52
  -4  -4 -12  234.52   14.44
  -5  -4 -12   60.67    9.81
  -6  -4 -12   28.53    8.75
  -4   5  12   45.30   13.46
  -3   5  12   -9.64    9.55
  -2   5  12   64.91   12.17
  -1   5  12    3.69    8.15
   0   5  12   93.52   12.20
   1   5  12   -8.36    7.15
  -1  -5 -12   -5.78    4.81
  -2  -5 -12  142.37   11.12
   2   5  12  130.07   13.56
  -3  -5 -12   37.10    7.74
   3   5  12   33.73    8.79
  -4  -5 -12  176.99   13.40
  -5  -5 -12    2.44    6.78
  -6  -5 -12   36.42    9.24
  -3   6  12    0.48   10.26
  -2   6  12  166.21   16.10
  -1   6  12   19.92    9.58
   0   6  12   -5.64    7.97
   0  -6 -12   -2.19    6.23
   1   6  12   14.59    8.58
  -1  -6 -12   17.43    7.16
  -2  -6 -12   30.36    7.86
   2   6  12   54.39   10.48
  -3  -6 -12   68.16    9.70
  -4  -6 -12   28.21    7.67
  -5  -6 -12   61.17   10.49
  -6  -6 -12   -1.54    7.17
  -3   7  12   78.61   14.00
  -2   7  12    5.27    9.51
   1  -7 -12   10.96    8.00
  -1   7  12   23.06    9.36
   0   7  12   11.93    9.24
   0  -7 -12    7.77    7.34
  -1  -7 -12    8.39    7.01
   1   7  12   13.63    8.59
   2   7  12    0.51    7.68
  -2  -7 -12    1.15    7.01
  -3  -7 -12  119.08   11.93
  -4  -7 -12   -1.37    6.28
  -5  -7 -12   84.59   11.72
  -6  -7 -12    6.71    8.09
  -3   8  12   34.06   11.99
   2  -8 -12  134.16   13.65
  -2   8  12  145.11   16.91
   1  -8 -12    1.51    8.08
  -1   8  12    7.67    9.42
   0   8  12   36.23   10.55
   0  -8 -12   45.69   10.13
   1   8  12   -1.70    8.12
  -1  -8 -12   -0.60    6.97
  -2  -8 -12   12.91    7.95
   2   8  12   23.28    9.68
  -3  -8 -12   -8.75    5.95
  -4  -8 -12    8.26    7.69
  -5  -8 -12   12.65    8.29
   2  -9 -12   50.15   11.47
  -2   9  12   34.16   12.15
  -1   9  12   -6.36    8.78
   1  -9 -12   16.57    9.76
   0   9  12   29.68   10.49
   0  -9 -12   22.45    9.32
   1   9  12   -5.47    8.15
  -1  -9 -12    1.89    7.38
  -2  -9 -12   63.83   10.83
   2   9  12   65.50   11.54
  -3  -9 -12   37.60    9.33
  -5  -9 -12  -11.11    6.92
  -1  10  12    0.93    9.79
   1 -10 -12   -7.64    8.21
   0 -10 -12   14.44    9.30
   0  10  12   33.61   11.14
  -1 -10 -12  -10.47    7.59
   1  10  12   -1.90    8.94
  -2 -10 -12   26.53   10.15
   2  10  12   23.91   10.55
  -3 -10 -12   18.31    9.19
  -4 -10 -12    0.83    7.89
  -1  -4  13   32.77   11.94
   1   4 -13   20.14    7.35
   0   4 -13   17.44    7.13
   0  -4  13   14.33   10.99
  -1   4 -13   -5.11    5.76
   1  -4  13   15.39   10.26
   2  -4  13   33.98   11.23
  -2   4 -13   18.60    7.72
  -3   4 -13    5.67    6.63
  -3   4 -13  -12.96    8.72
   2   3 -13   37.41    8.82
  -2  -3  13   18.26   11.37
  -1  -3  13   27.38   11.16
   1   3 -13   17.78    7.38
   0  -3  13   23.84   11.00
   0   3 -13   25.76    7.77
  -1   3 -13   77.21   10.72
   1  -3  13   84.33   13.29
  -2   3 -13   26.71    7.95
   2  -3  13   25.14   10.00
  -3   3 -13   56.10    9.98
  -3   3 -13   48.21   11.62
  -4   3 -13  155.96   14.47
  -4   3 -13  129.58   16.19
   2   2 -13   11.02    6.77
   1   2 -13   40.38    8.80
   0   2 -13   53.33    9.08
  -1   2 -13    6.98    6.14
   1  -2  13   -1.58    7.88
  -2   2 -13    5.15    5.73
   2  -2  13   -0.58    7.68
  -3   2 -13   26.87    9.88
  -4   2 -13   18.32    9.45
  -4   2 -13   21.44    7.83
  -5   2 -13   18.45   10.20
   3   1 -13   -4.31    6.25
   2   1 -13   -2.50    5.39
   1   1 -13    0.16    5.33
   0   1 -13   14.37    7.02
  -1   1 -13   41.51    8.78
  -2   1 -13    0.18    5.67
  -3   1 -13   22.62    7.35
  -4   1 -13    8.29    6.62
   3   0 -13  -14.52    6.10
   2   0 -13   -6.47    5.63
   1   0 -13   95.03   11.03
   0   0 -13  123.74   12.12
  -1   0 -13  117.83   12.21
  -2   0 -13   22.85    7.68
  -3   0 -13    6.88    6.54
  -3   1  13    6.39    9.97
   2  -1 -13   -2.95    6.38
   1  -1 -13   -1.66    5.73
   0  -1 -13  189.69   14.20
  -1  -1 -13   -4.49    5.40
  -2  -1 -13   43.97    8.62
  -3  -1 -13  173.43   13.55
  -6  -1 -13   21.95    8.97
  -3   2  13   46.20   12.32
  -2   2  13    8.58    8.88
   1  -2 -13  190.33   14.94
   0  -2 -13   11.01    6.85
  -1  -2 -13  183.98   14.21
  -2  -2 -13    0.98    5.78
  -3  -2 -13   32.25    8.01
  -5  -2 -13   10.80    7.38
  -6  -2 -13   -3.56    7.40
  -3   3  13   46.24   12.30
  -2   3  13   56.56   12.07
  -1   3  13  125.38   14.64
  -1  -3 -13   99.63   12.05
  -2  -3 -13   -9.31    5.13
  -3  -3 -13    7.20    6.54
  -4  -3 -13    4.41    6.36
  -5  -3 -13   61.30    9.86
  -6  -3 -13   14.24    8.47
  -3   4  13   -0.86   10.25
  -2   4  13   30.02   10.79
  -1   4  13   18.57    9.17
   0   4  13  206.07   16.57
   1   4  13   17.64    8.81
   2   4  13   36.75    9.38
   3   4  13   30.01    8.62
  -3  -4 -13   16.56    6.93
  -4  -4 -13   34.12    8.12
  -5  -4 -13   15.60    7.49
  -6  -4 -13   71.84   11.45
  -3   5  13    5.10   10.55
  -2   5  13  160.65   17.08
  -1   5  13   22.88    9.89
   0   5  13   78.19   12.34
   1   5  13    2.17    8.14
   2   5  13   88.95   11.79
  -2  -5 -13   96.35   10.68
   3   5  13    5.35    7.73
  -3  -5 -13   -3.00    5.82
  -4  -5 -13   70.46   10.25
  -5  -5 -13    7.29    7.29
  -6  -5 -13   37.00    9.62
  -3   6  13   64.80   14.06
  -2   6  13   14.63   10.44
  -1   6  13   -7.16    8.18
   0   6  13    6.18    8.93
   1   6  13   13.93    8.89
  -1  -6 -13   11.30    6.57
  -2  -6 -13  114.18   11.27
   2   6  13  138.97   14.62
  -3  -6 -13    7.83    6.62
  -4  -6 -13   87.64   11.78
  -5  -6 -13    8.48    7.98
  -6  -6 -13    4.95    7.88
  -2   7  13    5.28   10.30
  -1   7  13   10.55    9.73
   0  -7 -13   -8.80    6.61
   0   7  13   -8.52    8.30
  -1  -7 -13   -3.30    6.50
   1   7  13   -1.38    8.14
   2   7  13    0.61    7.74
  -2  -7 -13   -2.69    6.64
  -3  -7 -13    0.62    6.68
  -4  -7 -13   52.95    9.99
  -5  -7 -13   16.24    8.63
  -2   8  13  -22.97    9.01
  -1   8  13   89.07   14.00
   1  -8 -13   70.68   11.97
   0   8  13   -0.73    8.95
   0  -8 -13   -2.75    7.23
  -1  -8 -13    8.49    8.18
   1   8  13    7.65    9.25
   2   8  13   74.42   12.08
  -2  -8 -13   63.50   10.90
  -4  -8 -13   45.46   10.02
  -5  -8 -13    9.09    9.04
   1  -9 -13   -4.26    8.36
  -1   9  13    2.98   10.06
   0  -9 -13   45.02   10.71
   0   9  13   34.94   11.69
   1   9  13    1.32    9.25
  -1  -9 -13    7.25    8.56
   2   9  13  118.69   14.02
  -2  -9 -13   85.66   12.64
  -3  -9 -13   -9.81    7.09
  -4  -9 -13   49.47   11.02
   1  10  13    6.31    9.80
  -1 -10 -13    8.55    8.99
  -2 -10 -13  -17.97    8.04
   0   3 -14   17.85    7.43
  -1   3 -14   24.70    8.14
  -2   3 -14   90.20   12.18
   1   2 -14   40.21    9.36
   0   2 -14    6.41    6.17
  -1   2 -14   20.50    8.14
  -2   2 -14   13.70    7.40
  -3   2 -14   85.24   12.04
  -4   2 -14   48.92   10.07
   2   1 -14   -1.97    6.11
   1   1 -14   38.76    8.75
   0   1 -14   18.52    7.63
  -1   1 -14   59.15   10.21
  -2   1 -14    0.25    6.58
  -3   1 -14    9.28    7.18
   2   0 -14   -0.61    6.58
   1   0 -14    2.00    6.00
   0   0 -14    0.88    5.94
  -1   0 -14   58.64   10.03
  -2   0 -14   12.54    7.22
  -3   0 -14   -3.40    6.31
   2  -1 -14   13.12    8.24
   1  -1 -14   13.22    7.39
   0  -1 -14   -9.89    5.66
  -1  -1 -14   -4.77    5.52
  -2  -1 -14   66.32   10.59
  -3  -1 -14   -2.22    6.33
  -3   2  14   21.10   11.94
  -2   2  14  218.46   18.52
   0  -2 -14   46.91    9.86
  -1  -2 -14  120.40   13.12
  -2  -2 -14   75.23   10.94
  -3  -2 -14   24.57    8.36
  -3   3  14   75.59   15.21
  -2   3  14   47.54   12.36
  -1   3  14   73.52   12.58
  -2  -3 -14    1.78    6.63
  -3  -3 -14  117.01   13.48
  -5  -3 -14   41.13    9.64
  -2   4  14   48.91   12.99
  -1   4  14   98.10   13.98
   0   4  14   16.32    9.49
   1   4  14   39.98   10.58
   2   4  14    3.70    7.88
   3   4  14   54.07   10.52
  -4  -4 -14   15.73    7.97
  -5  -4 -14    8.57    7.52
  -2   5  14   19.38   11.02
  -1   5  14  -12.07    8.33
   0   5  14    3.15    8.94
   1   5  14   -1.76    8.19
   2   5  14   90.02   12.47
   3   5  14   -4.37    7.44
  -3  -5 -14   -0.05    6.46
  -4  -5 -14  143.99   13.91
  -5  -5 -14   17.95    8.23
  -2   6  14   23.64   11.44
  -1   6  14   72.80   13.40
   0   6  14  135.61   15.94
   1   6  14   15.39    9.59
   2   6  14   44.46   10.79
  -2  -6 -14   50.43    9.20
  -3  -6 -14   50.60    9.39
  -4  -6 -14   93.13   12.35
  -5  -6 -14   -6.30    7.81
  -1   7  14   -1.67    9.52
   0   7  14   -7.68    8.62
   1   7  14   13.75    9.68
  -1  -7 -14   18.71    7.85
   2   7  14    4.25    8.57
  -2  -7 -14    0.13    6.44
  -3  -7 -14   71.18   10.97
  -4  -7 -14   25.50    9.20
  -1   8  14   24.42   11.87
   0   8  14    8.41   10.47
   1   8  14   11.22    9.63
  -1  -8 -14   23.81    8.69
  -2  -8 -14   -3.80    7.38
   2   8  14   -4.12    8.88
  -3  -8 -14   11.82    8.07
  -4  -8 -14   23.71    9.31
  -1  -9 -14   23.42    9.51
   1   9  14   19.66   11.08
   2   9  14   -8.82    9.33
  -2  -9 -14    2.87    8.34
  -3  -9 -14    0.13    7.99
   0   1 -15    6.85    7.65
  -1   1 -15   31.21    9.33
  -2   1 -15   30.34    9.15
  -3   1 -15   19.62    8.42
   1   0 -15   69.69   11.63
   0   0 -15   35.34    9.17
  -1   0 -15   11.64    7.40
  -2   0 -15   24.18    8.52
  -3   0 -15    0.58    7.24
   1  -1 -15   11.09    8.31
   0  -1 -15  196.70   16.32
  -1  -1 -15    6.31    7.61
  -2  -1 -15   75.97   11.65
  -3  -1 -15   -5.83    6.39
   0  -2 -15    0.63    7.79
  -1  -2 -15   -1.60    7.25
  -2  -2 -15   39.56    9.89
  -3  -2 -15   12.90    8.49
  -1   3  15   14.48   10.15
   0   3  15    9.82    9.20
  -2  -3 -15    3.02    7.56
  -3  -3 -15    5.03    8.38
  -1   4  15   12.46    9.73
   0   4  15    5.79    9.17
   1   4  15   -1.76    8.37
   2   4  15   14.96    9.49
   3   4  15   55.45   11.60
  -1   5  15   -4.60    9.35
   0   5  15   42.81   11.91
   1   5  15    6.05    9.45
   2   5  15   15.81    9.64
  -1   6  15  -15.18    9.23
   0   6  15   -1.84   10.13
   1   6  15   19.15   10.47
   2   6  15   -2.43    9.48
  -4  -6 -15   88.82   12.51
   0   7  15   37.43   11.94
   1   7  15   -6.45    9.24
   2   7  15   21.70   10.60
  -3  -7 -15   24.20    9.16
   1   8  15   35.04   12.27
  -2  -8 -15   -5.59    7.38
   2   8  15  -13.79    8.92
  -1  -1 -16   40.96   10.93
  -2  -1 -16    2.87    7.99
  -1  -2 -16  -10.20    7.45
  -2  -2 -16   14.53    9.37
  -3  -2 -16   16.19    9.68
   0   3  16   47.28   11.79
   0   4  16   39.11   12.19
   1   4  16   -0.42    9.59
   2   4  16    3.09    9.35
   1   5  16   23.70   11.37
   2   5  16   15.40   10.63
   2   6  16   43.00   12.10
   0   0   0    0.00    0.00
;
_shelx_hkl_checksum              95416
_shelx_res_file
;
    130525_0m.res created by SHELXL-2014/7
TITL 130525_0m in P-1
CELL 0.71073 6.6611 9.8335 12.6115 74.277 79.224 84.609
ZERR 2 0.0033 0.0049 0.0063 0.006 0.006 0.007
LATT 1
SFAC C H N O Ca
UNIT 24 32 4 18 2
DELU O9 O9A
SIMU 0.04 0.08 1.7 O9 O9A
EADP O9 O9A
L.S. 22
PLAN  7
SIZE 0.05 0.05 0.1
TEMP 20
FREE C1 Ca1
BOND $H
CONF
fmap 2
acta
EQIV $1_1-x,2-y,2-z
EQIV $2_2+x,y,-1+z
EQIV $3_1+x,y,-1+z
EQIV $4_1-x,1-y,2-z
EQIV $5_1+x,1+y,-1+z
EQIV $6_1+x,1+y,z
EQIV $7_x,y,-1+z
HTAB N1 O4_$4
HTAB N2 O3_$1
HTAB O7 O6_$3
HTAB O7 O5_$2
HTAB O8 O9_$6
HTAB O8 O9A_$6
HTAB O8 O4_$5
HTAB O9 O5_$3
HTAB O9 O6_$7
HTAB C11 O4
mpla O3 C3 N1
MPLA C4 C5 C6 C7 C8 C9
MPLA O4 C10 N2
WGHT    0.037000    0.295400
FVAR       0.85943   0.84272
PART 4
CA1   5    1.258635    1.114124    0.454540    11.00000    0.01605    0.02985 =
         0.02644   -0.00434   -0.00507   -0.00160
O1    4    1.379744    0.910713    0.593669    11.00000    0.01730    0.03441 =
         0.03136   -0.00045   -0.00041   -0.00761
O2    4    1.054882    0.877956    0.603799    11.00000    0.01882    0.04925 =
         0.03867   -0.01033   -0.01219    0.00247
C1    1    1.216438    0.851360    0.642737    11.00000    0.01680    0.02448 =
         0.02488   -0.00716   -0.00244    0.00087
C2    1    1.226520    0.742609    0.753216    11.00000    0.02169    0.03277 =
         0.03198    0.00089   -0.00104    0.00079
AFIX  23
H2A   2    1.286898    0.654776    0.737929    11.00000   -1.20000
H2B   2    1.316785    0.775172    0.792377    11.00000   -1.20000
AFIX   0
N1    3    1.031894    0.714060    0.825973    11.00000    0.02932    0.02464 =
         0.03358   -0.00445    0.00868   -0.00790
AFIX  43
H1    2    0.984019    0.631496    0.840930    11.00000   -1.20000
AFIX   0
O3    4    0.988113    0.931311    0.855233    11.00000    0.03369    0.02836 =
         0.04752   -0.01055   -0.00399   -0.00785
C10   1    0.141376    0.668897    1.150248    11.00000    0.02598    0.03078 =
         0.02206   -0.00721   -0.00383   -0.00461
C7    1    0.342268    0.707292    1.076765    11.00000    0.02485    0.02846 =
         0.02381   -0.00761   -0.00296   -0.00488
C8    1    0.370013    0.837923    0.999097    11.00000    0.02765    0.02850 =
         0.03415   -0.00229   -0.00346    0.00205
AFIX  43
H8    2    0.261327    0.904566    0.992002    11.00000   -1.20000
AFIX   0
C3    1    0.924494    0.812459    0.870564    11.00000    0.02361    0.02907 =
         0.02517   -0.00449   -0.00360   -0.00167
C4    1    0.721796    0.771114    0.941609    11.00000    0.02496    0.02983 =
         0.02515   -0.00852   -0.00287   -0.00415
C9    1    0.557683    0.868977    0.932685    11.00000    0.03350    0.02899 =
         0.02908    0.00008   -0.00249   -0.00263
AFIX  43
H9    2    0.574496    0.956667    0.881231    11.00000   -1.20000
AFIX   0
C5    1    0.693578    0.639955    1.017838    11.00000    0.02814    0.03094 =
         0.03219   -0.00558   -0.00325    0.00158
AFIX  43
H5    2    0.801724    0.572790    1.023992    11.00000   -1.20000
AFIX   0
C6    1    0.506085    0.608913    1.084376    11.00000    0.03090    0.02847 =
         0.02955   -0.00176   -0.00085   -0.00303
AFIX  43
H6    2    0.489039    0.520745    1.135136    11.00000   -1.20000
AFIX   0
O4    4    0.097627    0.543035    1.188746    11.00000    0.03554    0.02606 =
         0.04459   -0.00431    0.00158   -0.00828
N2    3    0.012752    0.773725    1.171116    11.00000    0.02737    0.02981 =
         0.03466   -0.01264    0.00524   -0.00499
AFIX  43
H2    2    0.049295    0.859293    1.142037    11.00000   -1.20000
AFIX   0
C11   1   -0.185417    0.750276    1.240388    11.00000    0.02462    0.04672 =
         0.03737   -0.01958   -0.00143   -0.00294
AFIX  23
H11A  2   -0.219397    0.653561    1.249397    11.00000   -1.20000
H11B  2   -0.286041    0.811976    1.201698    11.00000   -1.20000
AFIX   0
C12   1   -0.203125    0.775037    1.354547    11.00000    0.02259    0.02296 =
         0.03441   -0.00652   -0.00351   -0.00095
O5    4   -0.379521    0.773736    1.411581    11.00000    0.02083    0.04379 =
         0.03333   -0.01441   -0.00122   -0.00038
O6    4   -0.047271    0.797220    1.389162    11.00000    0.02277    0.04838 =
         0.04026   -0.01542   -0.00657   -0.00720
O7    4    1.307693    0.957353    0.334179    11.00000    0.02319    0.04248 =
         0.03890   -0.01219   -0.00899   -0.00133
AFIX   3
H7A   2    1.196343    0.907853    0.342719    11.00000   -1.20000
H7B   2    1.403223    0.888653    0.353009    11.00000   -1.20000
AFIX   0
O8    4    1.287226    1.357941    0.357706    11.00000    0.05570    0.03679 =
         0.05298   -0.00031   -0.02152   -0.00308
AFIX   3
H8A   2    1.276016    1.413321    0.405116    11.00000   -1.20000
H8B   2    1.181246    1.390941    0.321466    11.00000   -1.20000
AFIX   0
PART 0
PART 1
O9    4    0.283542    0.572627    0.470508    21.00000    0.06101    0.04514 =
         0.15244   -0.02156   -0.04079   -0.00211
PART 0
AFIX   3
H9A   2    0.379092    0.610197    0.487198    11.00000   -1.20000
H9B   2    0.185992    0.633617    0.457448    11.00000   -1.20000
AFIX   0
PART 2
O9A   4    0.313600    0.604413    0.401589   -21.00000    0.06101    0.04514 =
         0.15244   -0.02156   -0.04079   -0.00211
HKLF 4
REM  130525_0m in P-1
REM R1 =  0.0417 for    2466 Fo > 4sig(Fo)  and  0.0747 for all    3500 data
REM    221 parameters refined using      6 restraints
END
WGHT      0.0413      0.1277
REM Highest difference peak  0.262,  deepest hole -0.383,  1-sigma level  0.060
Q1    1   1.1617  1.3487  0.4012  11.00000  0.05    0.26
Q2    1   0.4381  0.6656  1.0478  11.00000  0.05    0.26
Q3    1   0.6532  0.8327  0.8958  11.00000  0.05    0.25
Q4    1   1.4522  0.8870  0.6432  11.00000  0.05    0.25
Q5    1   1.2846  1.3941  0.2798  11.00000  0.05    0.24
Q6    1   0.7030  0.7187  0.9736  11.00000  0.05    0.24
Q7    1   0.2713  0.9052  0.9430  11.00000  0.05    0.24
;
_shelx_res_checksum              44974
loop_
_space_group_symop_operation_xyz
'x, y, z'
'-x, -y, -z'
loop_
_atom_site_type_symbol
_atom_site_label
_atom_site_fract_x
_atom_site_fract_y
_atom_site_fract_z
_atom_site_U_iso_or_equiv
_atom_site_adp_type
_atom_site_calc_flag
_atom_site_occupancy
_atom_site_disorder_assembly
_atom_site_disorder_group
Ca Ca1 1.25863(7) 1.11412(5) 0.45454(4) 0.02446(13) Uani d 1 A 4
O O1 1.3797(2) 0.91071(17) 0.59367(14) 0.0294(4) Uani d 1 A 4
O O2 1.0549(2) 0.87796(19) 0.60380(14) 0.0351(4) Uani d 1 A 4
C C1 1.2164(3) 0.8514(2) 0.64274(19) 0.0222(5) Uani d 1 A 4
C C2 1.2265(4) 0.7426(3) 0.7532(2) 0.0313(6) Uani d 1 A 4
H H2A 1.2869 0.6548 0.7379 0.038 Uiso calc 1 A 4
H H2B 1.3168 0.7752 0.7924 0.038 Uiso calc 1 A 4
N N1 1.0319(3) 0.7141(2) 0.82597(17) 0.0312(5) Uani d 1 A 4
H H1 0.9840 0.6315 0.8409 0.037 Uiso calc 1 A 4
O O3 0.9881(3) 0.93131(18) 0.85523(15) 0.0363(4) Uani d 1 A 4
C C10 0.1414(4) 0.6689(3) 1.15025(19) 0.0260(5) Uani d 1 A 4
C C7 0.3423(4) 0.7073(2) 1.07676(19) 0.0254(5) Uani d 1 A 4
C C8 0.3700(4) 0.8379(2) 0.9991(2) 0.0317(6) Uani d 1 A 4
H H8 0.2613 0.9046 0.9920 0.038 Uiso calc 1 A 4
C C3 0.9245(3) 0.8125(2) 0.87056(19) 0.0265(5) Uani d 1 A 4
C C4 0.7218(3) 0.7711(2) 0.9416(2) 0.0264(5) Uani d 1 A 4
C C9 0.5577(4) 0.8690(3) 0.9327(2) 0.0323(6) Uani d 1 A 4
H H9 0.5745 0.9567 0.8812 0.039 Uiso calc 1 A 4
C C5 0.6936(4) 0.6400(3) 1.0178(2) 0.0314(6) Uani d 1 A 4
H H5 0.8017 0.5728 1.0240 0.038 Uiso calc 1 A 4
C C6 0.5061(4) 0.6089(3) 1.0844(2) 0.0312(6) Uani d 1 A 4
H H6 0.4890 0.5207 1.1351 0.037 Uiso calc 1 A 4
O O4 0.0976(3) 0.54303(17) 1.18875(15) 0.0370(4) Uani d 1 A 4
N N2 0.0128(3) 0.7737(2) 1.17112(17) 0.0309(5) Uani d 1 A 4
H H2 0.0493 0.8593 1.1420 0.037 Uiso calc 1 A 4
C C11 -0.1854(4) 0.7503(3) 1.2404(2) 0.0349(6) Uani d 1 A 4
H H11A -0.2194 0.6536 1.2494 0.042 Uiso calc 1 A 4
H H11B -0.2860 0.8120 1.2017 0.042 Uiso calc 1 A 4
C C12 -0.2031(3) 0.7750(2) 1.3545(2) 0.0270(5) Uani d 1 A 4
O O5 -0.3795(2) 0.77374(18) 1.41158(14) 0.0323(4) Uani d 1 A 4
O O6 -0.0473(2) 0.79722(19) 1.38916(15) 0.0358(4) Uani d 1 A 4
O O7 1.3077(2) 0.95735(18) 0.33418(14) 0.0340(4) Uani d 1 A 4
H H7A 1.1963 0.9079 0.3427 0.041 Uiso d 1 A 4
H H7B 1.4032 0.8887 0.3530 0.041 Uiso d 1 A 4
O O8 1.2872(3) 1.35794(19) 0.35771(17) 0.0490(5) Uani d 1 A 4
H H8A 1.2760 1.4133 0.4051 0.059 Uiso d 1 A 4
H H8B 1.1812 1.3909 0.3215 0.059 Uiso d 1 A 4
O O9 0.2835(6) 0.5726(5) 0.4705(9) 0.084(2) Uani d 0.843(18) B 1
H H9A 0.3791 0.6102 0.4872 0.101 Uiso d 1 . .
H H9B 0.1860 0.6336 0.4574 0.101 Uiso d 1 . .
O O9A 0.314(4) 0.604(3) 0.402(4) 0.084(2) Uani d 0.157(18) B 2
loop_
_atom_site_aniso_label
_atom_site_aniso_U_11
_atom_site_aniso_U_22
_atom_site_aniso_U_33
_atom_site_aniso_U_12
_atom_site_aniso_U_13
_atom_site_aniso_U_23
Ca1 0.0161(2) 0.0298(3) 0.0264(3) -0.00160(18) -0.00507(19) -0.0043(2)
O1 0.0173(8) 0.0344(9) 0.0314(9) -0.0076(7) -0.0004(7) -0.0004(7)
O2 0.0188(8) 0.0493(11) 0.0387(10) 0.0025(7) -0.0122(8) -0.0103(9)
C1 0.0168(11) 0.0245(12) 0.0249(12) 0.0009(9) -0.0024(10) -0.0072(10)
C2 0.0217(12) 0.0328(13) 0.0320(14) 0.0008(10) -0.0010(11) 0.0009(11)
N1 0.0293(11) 0.0246(11) 0.0336(12) -0.0079(9) 0.0087(9) -0.0044(9)
O3 0.0337(10) 0.0284(9) 0.0475(12) -0.0079(8) -0.0040(9) -0.0105(8)
C10 0.0260(12) 0.0308(13) 0.0221(12) -0.0046(10) -0.0038(10) -0.0072(10)
C7 0.0248(12) 0.0285(12) 0.0238(13) -0.0049(10) -0.0030(10) -0.0076(10)
C8 0.0276(13) 0.0285(13) 0.0341(15) 0.0021(10) -0.0035(11) -0.0023(11)
C3 0.0236(12) 0.0291(13) 0.0252(13) -0.0017(10) -0.0036(10) -0.0045(10)
C4 0.0250(12) 0.0298(13) 0.0252(13) -0.0042(10) -0.0029(10) -0.0085(10)
C9 0.0335(14) 0.0290(13) 0.0291(14) -0.0026(11) -0.0025(11) 0.0001(11)
C5 0.0281(13) 0.0309(13) 0.0322(14) 0.0016(11) -0.0032(11) -0.0056(11)
C6 0.0309(14) 0.0285(13) 0.0295(14) -0.0030(10) -0.0009(11) -0.0018(11)
O4 0.0355(10) 0.0261(9) 0.0446(11) -0.0083(8) 0.0016(9) -0.0043(8)
N2 0.0274(11) 0.0298(11) 0.0347(12) -0.0050(9) 0.0052(9) -0.0126(9)
C11 0.0246(13) 0.0467(16) 0.0374(15) -0.0029(11) -0.0014(12) -0.0196(13)
C12 0.0226(12) 0.0230(12) 0.0344(14) -0.0009(9) -0.0035(11) -0.0065(10)
O5 0.0208(9) 0.0438(10) 0.0333(10) -0.0004(7) -0.0012(8) -0.0144(8)
O6 0.0228(9) 0.0484(11) 0.0403(11) -0.0072(8) -0.0066(8) -0.0154(9)
O7 0.0232(9) 0.0425(10) 0.0389(11) -0.0013(7) -0.0090(8) -0.0122(8)
O8 0.0557(13) 0.0368(11) 0.0530(13) -0.0031(9) -0.0215(11) -0.0003(9)
O9 0.061(2) 0.045(2) 0.152(7) -0.0021(15) -0.041(3) -0.022(3)
O9A 0.061(2) 0.045(2) 0.152(7) -0.0021(15) -0.041(3) -0.022(3)
loop_
_atom_type_symbol
_atom_type_description
_atom_type_scat_dispersion_real
_atom_type_scat_dispersion_imag
_atom_type_scat_source
C C 0.0033 0.0016 'International Tables Vol C Tables 4.2.6.8 and 6.1.1.4'
H H 0.0000 0.0000 'International Tables Vol C Tables 4.2.6.8 and 6.1.1.4'
N N 0.0061 0.0033 'International Tables Vol C Tables 4.2.6.8 and 6.1.1.4'
O O 0.0106 0.0060 'International Tables Vol C Tables 4.2.6.8 and 6.1.1.4'
Ca Ca 0.2262 0.3064 'International Tables Vol C Tables 4.2.6.8 and 6.1.1.4'
loop_
_geom_angle_atom_site_label_1
_geom_angle_atom_site_label_2
_geom_angle_atom_site_label_3
_geom_angle_site_symmetry_1
_geom_angle_site_symmetry_3
_geom_angle
_geom_angle_publ_flag
O2 Ca1 O1 2_776 2_876 146.09(7) ?
O2 Ca1 O8 2_776 . 88.29(7) ?
O1 Ca1 O8 2_876 . 87.29(6) ?
O2 Ca1 O7 2_776 . 75.07(6) ?
O1 Ca1 O7 2_876 . 76.19(6) ?
O8 Ca1 O7 . . 114.08(8) ?
O2 Ca1 O1 2_776 . 122.68(6) ?
O1 Ca1 O1 2_876 . 72.02(6) ?
O8 Ca1 O1 . . 147.67(7) ?
O7 Ca1 O1 . . 85.41(7) ?
O2 Ca1 O6 2_776 2_677 83.43(7) ?
O1 Ca1 O6 2_876 2_677 129.57(6) ?
O8 Ca1 O6 . 2_677 85.23(7) ?
O7 Ca1 O6 . 2_677 150.14(6) ?
O1 Ca1 O6 . 2_677 89.15(7) ?
O2 Ca1 O5 2_776 2_677 132.81(6) ?
O1 Ca1 O5 2_876 2_677 78.00(6) ?
O8 Ca1 O5 . 2_677 75.16(7) ?
O7 Ca1 O5 . 2_677 151.98(6) ?
O1 Ca1 O5 . 2_677 76.37(7) ?
O6 Ca1 O5 2_677 2_677 51.89(6) ?
O2 Ca1 O2 2_776 . 75.37(7) ?
O1 Ca1 O2 2_876 . 117.18(5) ?
O8 Ca1 O2 . . 154.46(6) ?
O7 Ca1 O2 . . 80.94(7) ?
O1 Ca1 O2 . . 48.26(5) ?
O6 Ca1 O2 2_677 . 73.66(6) ?
O5 Ca1 O2 2_677 . 101.55(6) ?
O2 Ca1 C12 2_776 2_677 109.22(7) ?
O1 Ca1 C12 2_876 2_677 103.45(6) ?
O8 Ca1 C12 . 2_677 82.29(8) ?
O7 Ca1 C12 . 2_677 163.46(6) ?
O1 Ca1 C12 . 2_677 78.88(7) ?
O6 Ca1 C12 2_677 2_677 26.12(6) ?
O5 Ca1 C12 2_677 2_677 26.14(6) ?
O2 Ca1 C12 . 2_677 84.72(7) ?
O2 Ca1 Ca1 2_776 2_876 147.52(5) ?
O1 Ca1 Ca1 2_876 2_876 36.72(4) ?
O8 Ca1 Ca1 . 2_876 120.16(6) ?
O7 Ca1 Ca1 . 2_876 78.74(5) ?
O1 Ca1 Ca1 . 2_876 35.30(4) ?
O6 Ca1 Ca1 2_677 2_876 112.19(5) ?
O5 Ca1 Ca1 2_677 2_876 74.07(5) ?
O2 Ca1 Ca1 . 2_876 81.89(5) ?
C12 Ca1 Ca1 2_677 2_876 91.15(5) ?
O2 Ca1 Ca1 2_776 2_776 42.03(5) ?
O1 Ca1 Ca1 2_876 2_776 141.95(5) ?
O8 Ca1 Ca1 . 2_776 127.40(5) ?
O7 Ca1 Ca1 . 2_776 75.20(5) ?
O1 Ca1 Ca1 . 2_776 81.14(5) ?
O6 Ca1 Ca1 2_677 2_776 74.95(5) ?
O5 Ca1 Ca1 2_677 2_776 121.64(5) ?
O2 Ca1 Ca1 . 2_776 33.34(3) ?
C12 Ca1 Ca1 2_677 2_776 97.09(5) ?
Ca1 Ca1 Ca1 2_876 2_776 112.43(4) ?
C1 O1 Ca1 . 2_876 146.93(14) ?
C1 O1 Ca1 . . 102.32(13) ?
Ca1 O1 Ca1 2_876 . 107.98(6) ?
C1 O2 Ca1 . 2_776 169.89(17) ?
C1 O2 Ca1 . . 84.81(14) ?
Ca1 O2 Ca1 2_776 . 104.63(6) ?
O2 C1 O1 . . 122.7(2) ?
O2 C1 C2 . . 121.0(2) ?
O1 C1 C2 . . 116.26(19) ?
N1 C2 C1 . . 114.88(19) ?
N1 C2 H2A . . 108.5 ?
C1 C2 H2A . . 108.5 ?
N1 C2 H2B . . 108.5 ?
C1 C2 H2B . . 108.5 ?
H2A C2 H2B . . 107.5 ?
C3 N1 C2 . . 121.7(2) ?
C3 N1 H1 . . 119.2 ?
C2 N1 H1 . . 119.2 ?
O4 C10 N2 . . 121.9(2) ?
O4 C10 C7 . . 120.5(2) ?
N2 C10 C7 . . 117.6(2) ?
C6 C7 C8 . . 118.6(2) ?
C6 C7 C10 . . 119.2(2) ?
C8 C7 C10 . . 122.2(2) ?
C9 C8 C7 . . 120.3(2) ?
C9 C8 H8 . . 119.8 ?
C7 C8 H8 . . 119.8 ?
O3 C3 N1 . . 122.2(2) ?
O3 C3 C4 . . 121.3(2) ?
N1 C3 C4 . . 116.5(2) ?
C9 C4 C5 . . 118.9(2) ?
C9 C4 C3 . . 118.6(2) ?
C5 C4 C3 . . 122.5(2) ?
C8 C9 C4 . . 120.8(2) ?
C8 C9 H9 . . 119.6 ?
C4 C9 H9 . . 119.6 ?
C6 C5 C4 . . 120.3(2) ?
C6 C5 H5 . . 119.9 ?
C4 C5 H5 . . 119.9 ?
C5 C6 C7 . . 121.0(2) ?
C5 C6 H6 . . 119.5 ?
C7 C6 H6 . . 119.5 ?
C10 N2 C11 . . 122.8(2) ?
C10 N2 H2 . . 118.6 ?
C11 N2 H2 . . 118.6 ?
N2 C11 C12 . . 115.2(2) ?
N2 C11 H11A . . 108.5 ?
C12 C11 H11A . . 108.5 ?
N2 C11 H11B . . 108.5 ?
C12 C11 H11B . . 108.5 ?
H11A C11 H11B . . 107.5 ?
O6 C12 O5 . . 122.5(2) ?
O6 C12 C11 . . 120.6(2) ?
O5 C12 C11 . . 116.8(2) ?
O6 C12 Ca1 . 2_677 61.47(13) ?
O5 C12 Ca1 . 2_677 62.46(13) ?
C11 C12 Ca1 . 2_677 167.11(17) ?
C12 O5 Ca1 . 2_677 91.40(14) ?
C12 O6 Ca1 . 2_677 92.41(15) ?
Ca1 O7 H7A . . 112.0 ?
Ca1 O7 H7B . . 111.4 ?
H7A O7 H7B . . 102.2 ?
Ca1 O8 H8A . . 111.9 ?
Ca1 O8 H8B . . 111.6 ?
H8A O8 H8B . . 102.1 ?
H9A O9 H9B . . 109.5 ?
H9A O9A H9B . . 72.9 ?
loop_
_geom_bond_atom_site_label_1
_geom_bond_atom_site_label_2
_geom_bond_site_symmetry_2
_geom_bond_distance
_geom_bond_publ_flag
Ca1 O2 2_776 2.3284(19) y
Ca1 O1 2_876 2.3778(19) y
Ca1 O8 . 2.385(2) y
Ca1 O7 . 2.403(2) y
Ca1 O1 . 2.4606(18) y
Ca1 O6 2_677 2.508(2) y
Ca1 O5 2_677 2.5297(19) y
Ca1 O2 . 2.837(2) y
Ca1 C12 2_677 2.852(3) y
Ca1 Ca1 2_876 3.9140(17) y
Ca1 Ca1 2_776 4.0994(19) y
O1 C1 . 1.256(3) ?
O1 Ca1 2_876 2.3778(19) ?
O2 C1 . 1.242(3) ?
O2 Ca1 2_776 2.3285(19) ?
C1 C2 . 1.518(3) ?
C2 N1 . 1.444(3) ?
C2 H2A . 0.9700 ?
C2 H2B . 0.9700 ?
N1 C3 . 1.334(3) ?
N1 H1 . 0.8600 ?
O3 C3 . 1.234(3) ?
C10 O4 . 1.242(3) ?
C10 N2 . 1.328(3) ?
C10 C7 . 1.495(3) ?
C7 C6 . 1.388(3) ?
C7 C8 . 1.392(3) ?
C8 C9 . 1.378(3) ?
C8 H8 . 0.9300 ?
C3 C4 . 1.498(3) ?
C4 C9 . 1.387(3) ?
C4 C5 . 1.389(3) ?
C9 H9 . 0.9300 ?
C5 C6 . 1.378(3) ?
C5 H5 . 0.9300 ?
C6 H6 . 0.9300 ?
N2 C11 . 1.441(3) ?
N2 H2 . 0.8600 ?
C11 C12 . 1.506(4) ?
C11 H11A . 0.9700 ?
C11 H11B . 0.9700 ?
C12 O6 . 1.257(3) ?
C12 O5 . 1.257(3) ?
C12 Ca1 2_677 2.852(3) ?
O5 Ca1 2_677 2.5297(19) ?
O6 Ca1 2_677 2.508(2) ?
O7 H7A . 0.8990 ?
O7 H7B . 0.8980 ?
O8 H8A . 0.9010 ?
O8 H8B . 0.8999 ?
O9 H9A . 0.8499 ?
O9 H9B . 0.8499 ?
O9A H9A . 1.2543 ?
O9A H9B . 1.0682 ?
loop_
_geom_hbond_atom_site_label_D
_geom_hbond_atom_site_label_H
_geom_hbond_atom_site_label_A
_geom_hbond_site_symmetry_A
_geom_hbond_distance_DH
_geom_hbond_distance_HA
_geom_hbond_distance_DA
_geom_hbond_angle_DHA
N1 H1 O4 2_667 0.86 2.00 2.810(3) 157.6
N2 H2 O3 2_677 0.86 2.06 2.828(3) 148.4
O7 H7A O6 1_654 0.90 1.95 2.837(3) 169.9
O7 H7B O5 1_754 0.90 1.89 2.766(2) 166.2
O8 H8B O4 1_664 0.90 2.05 2.814(3) 142.7
C11 H11A O4 . 0.97 2.38 2.769(3) 103.7
O8 H8A O9 1_665 0.90 1.97 2.843(8) 164
O8 H8A O9A 1_665 0.90 1.90 2.660(3) 140
O9 H9A O5 1_654 0.85 2.27 2.986(6) 142
O9 H9B O6 1_554 0.85 2.24 3.080(6) 169
loop_
_geom_torsion_atom_site_label_1
_geom_torsion_atom_site_label_2
_geom_torsion_atom_site_label_3
_geom_torsion_atom_site_label_4
_geom_torsion_site_symmetry_1
_geom_torsion_site_symmetry_2
_geom_torsion_site_symmetry_3
_geom_torsion_site_symmetry_4
_geom_torsion
_geom_torsion_publ_flag
Ca1 O2 C1 O1 2_776 . . . 146.1(8) ?
Ca1 O2 C1 O1 . . . . -13.2(2) ?
Ca1 O2 C1 C2 2_776 . . . -33.3(10) ?
Ca1 O2 C1 C2 . . . . 167.4(2) ?
Ca1 O1 C1 O2 2_876 . . . -140.5(2) ?
Ca1 O1 C1 O2 . . . . 15.6(3) ?
Ca1 O1 C1 C2 2_876 . . . 38.9(4) ?
Ca1 O1 C1 C2 . . . . -164.99(17) ?
O2 C1 C2 N1 . . . . -21.9(3) y
O1 C1 C2 N1 . . . . 158.7(2) ?
C1 C2 N1 C3 . . . . -65.6(3) y
O4 C10 C7 C6 . . . . -23.9(3) ?
N2 C10 C7 C6 . . . . 156.9(2) y
O4 C10 C7 C8 . . . . 154.8(2) ?
N2 C10 C7 C8 . . . . -24.4(3) y
C6 C7 C8 C9 . . . . -1.0(4) ?
C10 C7 C8 C9 . . . . -179.8(2) ?
C2 N1 C3 O3 . . . . -2.4(4) ?
C2 N1 C3 C4 . . . . 178.1(2) ?
O3 C3 C4 C9 . . . . 40.8(3) ?
N1 C3 C4 C9 . . . . -139.7(2) y
O3 C3 C4 C5 . . . . -137.6(3) ?
N1 C3 C4 C5 . . . . 41.9(3) y
C7 C8 C9 C4 . . . . 0.2(4) ?
C5 C4 C9 C8 . . . . 0.8(4) ?
C3 C4 C9 C8 . . . . -177.6(2) ?
C9 C4 C5 C6 . . . . -0.9(4) ?
C3 C4 C5 C6 . . . . 177.5(2) ?
C4 C5 C6 C7 . . . . 0.0(4) ?
C8 C7 C6 C5 . . . . 0.9(4) ?
C10 C7 C6 C5 . . . . 179.8(2) ?
O4 C10 N2 C11 . . . . 0.6(4) ?
C7 C10 N2 C11 . . . . 179.8(2) ?
C10 N2 C11 C12 . . . . 106.1(3) ?
N2 C11 C12 O6 . . . . -8.3(3) ?
N2 C11 C12 O5 . . . . 171.0(2) ?
N2 C11 C12 Ca1 . . . 2_677 87.4(7) ?
O6 C12 O5 Ca1 . . . 2_677 13.8(2) ?
C11 C12 O5 Ca1 . . . 2_677 -165.52(19) ?
O5 C12 O6 Ca1 . . . 2_677 -13.9(2) ?
C11 C12 O6 Ca1 . . . 2_677 165.4(2) ?

_cod_database_fobs_code 2312027
