#------------------------------------------------------------------------------
#$Date: 2017-05-31 16:59:38 +0300 (Wed, 31 May 2017) $
#$Revision: 197073 $
#$URL: file:///home/coder/svn-repositories/cod/cif/3/00/01/3000125.cif $
#------------------------------------------------------------------------------
#
# This file is available in the Crystallography Open Database (COD),
# http://www.crystallography.net/
#
# All data on this site have been placed in the public domain by the
# contributors.
#
data_3000125
loop_
_publ_author_name
'Matyskin, Artem V.'
'Ylmen, Rikard'
'Lagerkvist, Petra'
'Rameb\"ack, Henrik'
'Ekberg, Christian'
_publ_section_title
;
 Crystal structure of radium sulfate: An X-ray powder diffraction and
 density functional theory study
;
_journal_name_full               'Journal of Solid State Chemistry'
_journal_page_first              15
_journal_page_last               20
_journal_paper_doi               10.1016/j.jssc.2017.05.024
_journal_volume                  253
_journal_year                    2017
_chemical_formula_moiety         'Ba O16 Ra3 S4'
_chemical_formula_sum            'Ba O16 Ra3 S4'
_chemical_formula_weight         1199.58
_chemical_name_common            'radium-barium sulfate'
_space_group_IT_number           62
_symmetry_cell_setting           orthorhombic
_symmetry_space_group_name_Hall  '-P 2ac 2n'
_symmetry_space_group_name_H-M   'P n m a'
_cell_angle_alpha                90.00000
_cell_angle_beta                 90.00000
_cell_angle_gamma                90.00000
_cell_formula_units_Z            1
_cell_length_a                   9.06956(14)
_cell_length_b                   5.51771(15)
_cell_length_c                   7.27476(12)
_cell_measurement_temperature    303
_cell_volume                     364.052(13)
_computing_cell_refinement       FULLPROF
_computing_data_collection       'DIFFRAC.SUITE EVA'
_computing_data_reduction        'WinPLOTR Conventional smoothing'
_computing_molecular_graphics    Vesta
_computing_publication_material  pubCIF
_computing_structure_refinement  FULLPROF
_computing_structure_solution    Treor
_diffrn_ambient_temperature      303
_diffrn_detector_type            LynxEye
_diffrn_measurement_device_type  'Bruker D2 Phaser'
_diffrn_measurement_method       \q/2\q
_diffrn_radiation_monochromator  'Ni filter'
_diffrn_radiation_type           'Cu K\a'
_diffrn_radiation_wavelength     1.5418
_diffrn_source                   'sealed X-ray tube'
_diffrn_source_target            Cu
_exptl_crystal_colour            yellow
_exptl_crystal_density_diffrn    5.472
_exptl_crystal_density_method    'not measured'
_pd_char_colour                  yellowish
_pd_instr_location
'Nuclear Chemistry, Chalmers University of Technology'
_pd_meas_2theta_range_inc        0.004031
_pd_meas_2theta_range_max        70.89040
_pd_meas_2theta_range_min        10.02229
_pd_meas_number_of_points        15101
_pd_meas_scan_method             cont
_pd_proc_2theta_range_inc        0.004031
_pd_proc_2theta_range_max        70.8904
_pd_proc_2theta_range_min        10.0223
_pd_proc_ls_background_function  '12-coefficients polynomal function'
_pd_proc_ls_pref_orient_corr     'March-Dollase Multiaxial Function'
_pd_proc_ls_profile_function     Pseudo-Voigt
_pd_proc_ls_prof_R_factor        6.2422
_pd_proc_ls_prof_wR_expected     7.2891
_pd_proc_ls_prof_wR_factor       8.5045
_pd_proc_number_of_points        15101
_pd_proc_wavelength              1.540560
_pd_spec_mounting
;
Approximately 1 mg of fine RaSO~4~ powder was placed on a low background
silicon air-tight sample holder, without cavities, inside the glove box.
Three drops of ethanol were added to evenly distribute the powder on the sample
holder.
;
_pd_spec_mount_mode              reflection
_pd_spec_shape                   irregular
_refine_ls_goodness_of_fit_all   1.507
_refine_ls_number_parameters     9
_refine_ls_number_reflns         516
_refine_ls_number_restraints     5
_refine_ls_R_I_factor            7.2267
_refine_ls_shift/su_max          0.002
_cod_data_source_file            RaSO4.cif
_cod_data_source_block           radiumbariumsulfate
_cod_depositor_comments
'Releasing structure 3000125 into public domain as published material.'
_cod_original_cell_volume        364.05(1)
_cod_database_code               3000125
_pd_proc_ls_prof_cr_factor       17.0805
_pd_proc_ls_prof_cwr_factor      18.4000
_pd_proc_ls_prof_cwr_expected    15.7704
_pd_proc_ls_prof_chi2            1.3613
_pd_proc_ls_prof_echi2           1.3613
loop_
_symmetry_equiv_pos_as_xyz
x,y,z
x+1/2,-y+1/2,-z+1/2
-x,y+1/2,-z
-x+1/2,-y,z+1/2
-x,-y,-z
-x+1/2,y+1/2,z+1/2
x,-y+1/2,z
x+1/2,y,-z+1/2
loop_
_atom_site_label
_atom_site_fract_x
_atom_site_fract_y
_atom_site_fract_z
_atom_site_U_iso_or_equiv
_atom_site_occupancy
_atom_site_adp_type
_atom_site_type_symbol
S1 0.4531(3) 0.75000 0.2189(3) 0.00000 1.00000 Uiso S
Ra1 0.18448 0.25000 0.15557 0.00000 0.75000 Uiso Ra
O1 0.5892(6) 0.75000 0.1118(11) 0.00000 1.00000 Uiso O
O2 0.3589(8) 0.75000 0.0528(8) 0.00000 1.00000 Uiso O
O3 0.4283(11) 0.9775(13) 0.3248(15) 0.00000 1.00000 Uiso O
Ba1 0.18448 0.25000 0.15557 0.00000 0.25000 Uiso Ba
loop_
_atom_type_symbol
_atom_type_scat_Cromer_Mann_a1
_atom_type_scat_Cromer_Mann_b1
_atom_type_scat_Cromer_Mann_a2
_atom_type_scat_Cromer_Mann_b2
_atom_type_scat_Cromer_Mann_a3
_atom_type_scat_Cromer_Mann_b3
_atom_type_scat_Cromer_Mann_a4
_atom_type_scat_Cromer_Mann_b4
_atom_type_scat_Cromer_Mann_c
_atom_type_scat_dispersion_real
_atom_type_scat_dispersion_imag
_atom_type_scat_source
S 6.90530 1.46790 5.20340 22.21510 1.43790 0.25360 1.58630 56.17200 0.86690
0.31900 0.55700
International_Tables_for_Crystallography_Vol.C(1991)_Tables_6.1.1.4_and_6.1.1.5
Ra 35.76300 0.61634 22.90640 3.87135 12.47390 19.98870 3.21097 142.32500
13.62110 -4.89800 11.29600
International_Tables_for_Crystallography_Vol.C(1991)_Tables_6.1.1.4_and_6.1.1.5
O 3.04850 13.27710 2.28680 5.70110 1.54630 0.32390 0.86700 32.90890 0.25080
0.04700 0.03200
International_Tables_for_Crystallography_Vol.C(1991)_Tables_6.1.1.4_and_6.1.1.5
Ba 20.33610 3.21600 19.29700 0.27560 10.88800 20.20730 2.69590 167.20200
2.77310 -1.33400 8.46000
International_Tables_for_Crystallography_Vol.C(1991)_Tables_6.1.1.4_and_6.1.1.5
loop_
_geom_angle_atom_site_label_1
_geom_angle_atom_site_label_2
_geom_angle_atom_site_label_3
_geom_angle
_geom_angle_site_symmetry_1
_geom_angle_site_symmetry_3
Ra1 S1 Ra1 96.12(4) 1_555 1_565
Ra1 S1 Ra1 81.01(4) 1_555 2_555
Ra1 S1 Ra1 171.37(4) 1_555 2_565
Ra1 S1 Ra1 82.87(5) 1_555 4_565
Ra1 S1 O1 119.3(3) 1_555 1_555
Ra1 S1 O1 55.13(12) 1_555 2_465
Ra1 S1 O1 114.07(12) 1_555 3_655
Ra1 S1 O2 61.3(3) 1_555 1_555
Ra1 S1 O2 71.94(15) 1_555 3_645
Ra1 S1 O2 140.39(15) 1_555 3_655
Ra1 S1 O3 126.3(5) 1_555 1_555
Ra1 S1 O3 90.0(3) 1_555 3_646
Ra1 S1 O3 126.1(3) 1_555 5_676
Ra1 S1 O3 48.6(4) 1_555 7_565
Ra1 S1 Ba1 96.12(4) 1_555 1_565
Ra1 S1 Ba1 81.01(4) 1_555 2_555
Ra1 S1 Ba1 171.37(4) 1_555 2_565
Ra1 S1 Ba1 82.87(5) 1_555 4_565
Ra1 S1 Ra1 171.37(4) 1_565 2_555
Ra1 S1 Ra1 81.01(4) 1_565 2_565
Ra1 S1 Ra1 82.87(5) 1_565 4_565
Ra1 S1 O1 119.3(3) 1_565 1_555
Ra1 S1 O1 55.13(12) 1_565 2_465
Ra1 S1 O1 114.07(12) 1_565 3_645
Ra1 S1 O2 61.3(3) 1_565 1_555
Ra1 S1 O2 140.39(15) 1_565 3_645
Ra1 S1 O2 71.94(15) 1_565 3_655
Ra1 S1 O3 48.6(4) 1_565 1_555
Ra1 S1 O3 126.1(3) 1_565 3_646
Ra1 S1 O3 90.0(3) 1_565 5_676
Ra1 S1 O3 126.3(5) 1_565 7_565
Ra1 S1 Ba1 96.12(4) 1_565 1_555
Ra1 S1 Ba1 171.37(4) 1_565 2_555
Ra1 S1 Ba1 81.01(4) 1_565 2_565
Ra1 S1 Ba1 82.87(5) 1_565 4_565
Ra1 S1 Ra1 100.63(4) 2_555 2_565
Ra1 S1 Ra1 88.69(5) 2_555 4_565
Ra1 S1 O1 68.9(3) 2_555 1_555
Ra1 S1 O1 117.37(17) 2_555 2_465
Ra1 S1 O1 69.54(16) 2_555 3_645
Ra1 S1 O1 143.52(16) 2_555 3_655
Ra1 S1 O2 123.1(4) 2_555 1_555
Ra1 S1 O2 46.42(10) 2_555 3_645
Ra1 S1 O2 115.36(10) 2_555 3_655
Ra1 S1 O3 127.2(5) 2_555 1_555
Ra1 S1 O3 46.1(2) 2_555 3_646
Ra1 S1 O3 85.2(2) 2_555 5_676
Ra1 S1 O3 46.2(4) 2_555 7_565
Ra1 S1 Ba1 81.01(4) 2_555 1_555
Ra1 S1 Ba1 171.37(4) 2_555 1_565
Ra1 S1 Ba1 100.63(4) 2_555 2_565
Ra1 S1 Ba1 88.69(5) 2_555 4_565
Ra1 S1 Ra1 88.69(5) 2_565 4_565
Ra1 S1 O1 68.9(3) 2_565 1_555
Ra1 S1 O1 117.37(17) 2_565 2_465
Ra1 S1 O1 143.52(16) 2_565 3_645
Ra1 S1 O1 69.54(16) 2_565 3_655
Ra1 S1 O2 123.1(4) 2_565 1_555
Ra1 S1 O2 115.36(10) 2_565 3_645
Ra1 S1 O2 46.42(10) 2_565 3_655
Ra1 S1 O3 46.2(4) 2_565 1_555
Ra1 S1 O3 85.2(2) 2_565 3_646
Ra1 S1 O3 46.1(2) 2_565 5_676
Ra1 S1 O3 127.2(5) 2_565 7_565
Ra1 S1 Ba1 171.37(4) 2_565 1_555
Ra1 S1 Ba1 81.01(4) 2_565 1_565
Ra1 S1 Ba1 100.63(4) 2_565 2_555
Ra1 S1 Ba1 88.69(5) 2_565 4_565
Ra1 S1 O1 143.7(5) 4_565 1_555
Ra1 S1 O1 48.11(14) 4_565 2_465
Ra1 S1 O1 124.8(2) 4_565 3_645
Ra1 S1 O1 124.8(2) 4_565 3_655
Ra1 S1 O2 123.3(4) 4_565 1_555
Ra1 S1 O2 130.44(18) 4_565 3_645
Ra1 S1 O2 130.44(18) 4_565 3_655
Ra1 S1 O3 57.6(5) 4_565 1_555
Ra1 S1 O3 57.6(5) 4_565 7_565
Ra1 S1 Ba1 82.87(5) 4_565 1_555
Ra1 S1 Ba1 82.87(5) 4_565 1_565
Ra1 S1 Ba1 88.69(5) 4_565 2_555
Ra1 S1 Ba1 88.69(5) 4_565 2_565
O1 S1 O1 168.2(5) 1_555 2_465
O1 S1 O1 74.9(4) 1_555 3_645
O1 S1 O1 74.9(4) 1_555 3_655
O1 S1 O2 93.0(6) 1_555 1_555
O1 S1 O2 48.9(3) 1_555 3_645
O1 S1 O2 48.9(3) 1_555 3_655
O1 S1 O3 113.8(4) 1_555 1_555
O1 S1 O3 103.1(7) 1_555 3_646
O1 S1 O3 103.1(7) 1_555 5_676
O1 S1 O3 113.8(9) 1_555 7_565
O1 S1 Ba1 119.3(3) 1_555 1_555
O1 S1 Ba1 119.3(3) 1_555 1_565
O1 S1 Ba1 68.9(3) 1_555 2_555
O1 S1 Ba1 68.9(3) 1_555 2_565
O1 S1 Ba1 143.7(5) 1_555 4_565
O1 S1 O1 97.5(2) 2_465 3_645
O1 S1 O1 97.5(2) 2_465 3_655
O1 S1 O2 75.2(5) 2_465 1_555
O1 S1 O2 127.1(3) 2_465 3_645
O1 S1 O2 127.1(3) 2_465 3_655
O1 S1 O3 71.2(5) 2_465 1_555
O1 S1 O3 87.7(3) 2_465 3_646
O1 S1 O3 87.7(3) 2_465 5_676
O1 S1 O3 71.2(5) 2_465 7_565
O1 S1 Ba1 55.13(12) 2_465 1_555
O1 S1 Ba1 55.13(12) 2_465 1_565
O1 S1 Ba1 117.37(17) 2_465 2_555
O1 S1 Ba1 117.37(17) 2_465 2_565
O1 S1 Ba1 48.11(14) 2_465 4_565
O1 S1 O1 97.10(12) 3_645 3_655
O1 S1 O2 53.6(3) 3_645 1_555
O1 S1 O2 104.52(14) 3_645 3_655
O1 S1 O3 162.5(6) 3_645 1_555
O1 S1 O3 107.7(4) 3_645 3_646
O1 S1 O3 153.8(4) 3_645 5_676
O1 S1 O3 72.0(6) 3_645 7_565
O1 S1 Ba1 114.07(12) 3_645 1_565
O1 S1 Ba1 69.54(16) 3_645 2_555
O1 S1 Ba1 143.52(16) 3_645 2_565
O1 S1 Ba1 124.8(2) 3_645 4_565
O1 S1 O2 53.6(3) 3_655 1_555
O1 S1 O2 104.52(14) 3_655 3_645
O1 S1 O3 72.0(6) 3_655 1_555
O1 S1 O3 153.8(4) 3_655 3_646
O1 S1 O3 107.7(4) 3_655 5_676
O1 S1 O3 162.5(6) 3_655 7_565
O1 S1 Ba1 114.07(12) 3_655 1_555
O1 S1 Ba1 143.52(16) 3_655 2_555
O1 S1 Ba1 69.54(16) 3_655 2_565
O1 S1 Ba1 124.8(2) 3_655 4_565
O2 S1 O2 80.4(4) 1_555 3_645
O2 S1 O2 80.4(4) 1_555 3_655
O2 S1 O3 109.6(8) 1_555 1_555
O2 S1 O3 151.3(7) 1_555 3_646
O2 S1 O3 151.3(7) 1_555 5_676
O2 S1 O3 109.6(8) 1_555 7_565
O2 S1 Ba1 61.3(3) 1_555 1_555
O2 S1 Ba1 61.3(3) 1_555 1_565
O2 S1 Ba1 123.1(4) 1_555 2_555
O2 S1 Ba1 123.1(4) 1_555 2_565
O2 S1 Ba1 123.3(4) 1_555 4_565
O2 S1 O2 93.14(10) 3_645 3_655
O2 S1 O3 161.6(6) 3_645 1_555
O2 S1 O3 92.3(3) 3_645 3_646
O2 S1 O3 127.9(3) 3_645 5_676
O2 S1 O3 74.0(5) 3_645 7_565
O2 S1 Ba1 71.94(15) 3_645 1_555
O2 S1 Ba1 140.39(15) 3_645 1_565
O2 S1 Ba1 46.42(10) 3_645 2_555
O2 S1 Ba1 115.36(10) 3_645 2_565
O2 S1 Ba1 130.44(18) 3_645 4_565
O2 S1 O3 74.0(5) 3_655 1_555
O2 S1 O3 127.9(3) 3_655 3_646
O2 S1 O3 92.3(3) 3_655 5_676
O2 S1 O3 161.6(6) 3_655 7_565
O2 S1 Ba1 140.39(15) 3_655 1_555
O2 S1 Ba1 71.94(15) 3_655 1_565
O2 S1 Ba1 115.36(10) 3_655 2_555
O2 S1 Ba1 46.42(10) 3_655 2_565
O2 S1 Ba1 130.44(18) 3_655 4_565
O3 S1 O3 85.7(6) 1_555 3_646
O3 S1 O3 114.8(8) 1_555 7_565
O3 S1 Ba1 126.3(5) 1_555 1_555
O3 S1 Ba1 48.6(4) 1_555 1_565
O3 S1 Ba1 127.2(5) 1_555 2_555
O3 S1 Ba1 46.2(4) 1_555 2_565
O3 S1 Ba1 57.6(5) 1_555 4_565
O3 S1 O3 46.6(3) 3_646 5_676
O3 S1 Ba1 90.0(3) 3_646 1_555
O3 S1 Ba1 126.1(3) 3_646 1_565
O3 S1 Ba1 46.1(2) 3_646 2_555
O3 S1 Ba1 85.2(2) 3_646 2_565
O3 S1 O3 85.7(6) 5_676 7_565
O3 S1 Ba1 126.1(3) 5_676 1_555
O3 S1 Ba1 90.0(3) 5_676 1_565
O3 S1 Ba1 85.2(2) 5_676 2_555
O3 S1 Ba1 46.1(2) 5_676 2_565
O3 S1 Ba1 48.6(4) 7_565 1_555
O3 S1 Ba1 126.3(5) 7_565 1_565
O3 S1 Ba1 46.2(4) 7_565 2_555
O3 S1 Ba1 127.2(5) 7_565 2_565
O3 S1 Ba1 57.6(5) 7_565 4_565
Ba1 S1 Ba1 96.12(4) 1_555 1_565
Ba1 S1 Ba1 81.01(4) 1_555 2_555
Ba1 S1 Ba1 171.37(4) 1_555 2_565
Ba1 S1 Ba1 82.87(5) 1_555 4_565
Ba1 S1 Ba1 171.37(4) 1_565 2_555
Ba1 S1 Ba1 81.01(4) 1_565 2_565
Ba1 S1 Ba1 82.87(5) 1_565 4_565
Ba1 S1 Ba1 100.63(4) 2_555 2_565
Ba1 S1 Ba1 88.69(5) 2_555 4_565
Ba1 S1 Ba1 88.69(5) 2_565 4_565
S1 Ra1 S1 96.12(4) 1_545 1_555
S1 Ra1 S1 77.32(8) 1_545 2_455
S1 Ra1 S1 157.72(8) 1_545 2_465
S1 Ra1 S1 110.84(9) 1_545 4_564
S1 Ra1 O1 59.60(13) 1_545 2_455
S1 Ra1 O1 135.98(13) 1_545 2_465
S1 Ra1 O1 66.98(18) 1_545 3_645
S1 Ra1 O2 109.80(9) 1_545 1_555
S1 Ra1 O2 88.01(18) 1_545 4_565
S1 Ra1 O3 161.4(4) 1_545 2_465
S1 Ra1 O3 90.7(3) 1_545 4_564
S1 Ra1 O3 131.1(4) 1_545 6_544
S1 Ra1 O3 80.5(3) 1_545 7_565
S1 Ra1 O3 98.1(3) 1_545 8_445
S1 Ra1 S1 157.72(8) 1_555 2_455
S1 Ra1 S1 77.32(8) 1_555 2_465
S1 Ra1 S1 110.84(9) 1_555 4_564
S1 Ra1 O1 135.98(13) 1_555 2_455
S1 Ra1 O1 59.60(13) 1_555 2_465
S1 Ra1 O1 66.98(18) 1_555 3_645
S1 Ra1 O2 109.80(9) 1_555 1_545
S1 Ra1 O2 88.01(18) 1_555 4_565
S1 Ra1 O3 80.5(3) 1_555 1_545
S1 Ra1 O3 98.1(3) 1_555 2_465
S1 Ra1 O3 131.1(4) 1_555 4_564
S1 Ra1 O3 90.7(3) 1_555 6_544
S1 Ra1 O3 161.4(4) 1_555 8_445
S1 Ra1 S1 100.63(4) 2_455 2_465
S1 Ra1 S1 91.31(8) 2_455 4_564
S1 Ra1 O1 110.74(9) 2_455 2_465
S1 Ra1 O1 126.9(2) 2_455 3_645
S1 Ra1 O2 72.06(16) 2_455 1_545
S1 Ra1 O2 172.62(16) 2_455 1_555
S1 Ra1 O2 70.66(15) 2_455 4_565
S1 Ra1 O3 86.6(3) 2_455 1_545
S1 Ra1 O3 85.0(3) 2_455 2_465
S1 Ra1 O3 70.8(3) 2_455 4_564
S1 Ra1 O3 109.8(3) 2_455 6_544
S1 Ra1 O3 136.6(3) 2_455 7_565
S1 Ra1 S1 91.31(8) 2_465 4_564
S1 Ra1 O1 110.74(9) 2_465 2_455
S1 Ra1 O1 126.9(2) 2_465 3_645
S1 Ra1 O2 172.62(16) 2_465 1_545
S1 Ra1 O2 72.06(16) 2_465 1_555
S1 Ra1 O2 70.66(15) 2_465 4_565
S1 Ra1 O3 136.6(3) 2_465 1_545
S1 Ra1 O3 109.8(3) 2_465 4_564
S1 Ra1 O3 70.8(3) 2_465 6_544
S1 Ra1 O3 86.6(3) 2_465 7_565
S1 Ra1 O3 85.0(3) 2_465 8_445
S1 Ra1 O1 112.1(2) 4_564 2_455
S1 Ra1 O1 112.1(2) 4_564 2_465
S1 Ra1 O1 67.98(20) 4_564 3_645
S1 Ra1 O2 87.93(16) 4_564 1_545
S1 Ra1 O2 87.93(16) 4_564 1_555
S1 Ra1 O2 150.8(3) 4_564 4_565
S1 Ra1 O3 131.6(4) 4_564 1_545
S1 Ra1 O3 75.0(3) 4_564 2_465
S1 Ra1 O3 131.6(4) 4_564 7_565
S1 Ra1 O3 75.0(3) 4_564 8_445
O1 Ra1 O1 110.88(10) 2_455 2_465
O1 Ra1 O1 122.3(3) 2_455 3_645
O1 Ra1 O2 62.94(20) 2_455 1_545
O1 Ra1 O2 159.39(20) 2_455 1_555
O1 Ra1 O2 57.63(15) 2_455 4_565
O1 Ra1 O3 64.0(3) 2_455 1_545
O1 Ra1 O3 101.8(3) 2_455 2_465
O1 Ra1 O3 88.4(4) 2_455 4_564
O1 Ra1 O3 133.2(4) 2_455 6_544
O1 Ra1 O3 113.8(3) 2_455 7_565
O1 Ra1 O3 46.5(3) 2_455 8_445
O1 Ra1 O1 122.3(3) 2_465 3_645
O1 Ra1 O2 159.39(20) 2_465 1_545
O1 Ra1 O2 62.94(20) 2_465 1_555
O1 Ra1 O2 57.63(15) 2_465 4_565
O1 Ra1 O3 113.8(3) 2_465 1_545
O1 Ra1 O3 46.5(3) 2_465 2_465
O1 Ra1 O3 133.2(4) 2_465 4_564
O1 Ra1 O3 88.4(4) 2_465 6_544
O1 Ra1 O3 64.0(3) 2_465 7_565
O1 Ra1 O3 101.8(3) 2_465 8_445
O1 Ra1 O2 59.41(17) 3_645 1_545
O1 Ra1 O2 59.41(17) 3_645 1_555
O1 Ra1 O2 141.2(4) 3_645 4_565
O1 Ra1 O3 75.1(4) 3_645 1_545
O1 Ra1 O3 130.1(5) 3_645 2_465
O1 Ra1 O3 71.7(4) 3_645 4_564
O1 Ra1 O3 71.7(4) 3_645 6_544
O1 Ra1 O3 75.1(4) 3_645 7_565
O1 Ra1 O3 130.1(5) 3_645 8_445
O2 Ra1 O2 115.23(9) 1_545 1_555
O2 Ra1 O2 107.0(3) 1_545 4_565
O2 Ra1 O3 45.6(3) 1_545 1_545
O2 Ra1 O3 151.1(4) 1_545 2_465
O2 Ra1 O3 67.4(3) 1_545 4_564
O2 Ra1 O3 110.3(4) 1_545 6_544
O2 Ra1 O3 99.4(3) 1_545 7_565
O2 Ra1 O3 87.7(4) 1_545 8_445
O2 Ra1 O2 107.0(3) 1_555 4_565
O2 Ra1 O3 99.4(3) 1_555 1_545
O2 Ra1 O3 87.7(4) 1_555 2_465
O2 Ra1 O3 110.3(4) 1_555 4_564
O2 Ra1 O3 67.4(3) 1_555 6_544
O2 Ra1 O3 45.6(3) 1_555 7_565
O2 Ra1 O3 151.1(4) 1_555 8_445
O2 Ra1 O3 71.7(3) 4_565 1_545
O2 Ra1 O3 80.6(4) 4_565 2_465
O2 Ra1 O3 140.8(5) 4_565 4_564
O2 Ra1 O3 140.8(5) 4_565 6_544
O2 Ra1 O3 71.7(3) 4_565 7_565
O2 Ra1 O3 80.6(4) 4_565 8_445
O3 Ra1 O3 152.3(6) 1_545 2_465
O3 Ra1 O3 113.0(6) 1_545 4_564
O3 Ra1 O3 146.4(6) 1_545 6_544
O3 Ra1 O3 61.4(3) 1_545 7_565
O3 Ra1 O3 109.3(5) 1_545 8_445
O3 Ra1 O3 89.0(5) 2_465 4_564
O3 Ra1 O3 60.8(4) 2_465 6_544
O3 Ra1 O3 109.3(5) 2_465 7_565
O3 Ra1 O3 65.7(4) 2_465 8_445
O3 Ra1 O3 51.3(3) 4_564 6_544
O3 Ra1 O3 146.4(6) 4_564 7_565
O3 Ra1 O3 60.8(4) 4_564 8_445
O3 Ra1 O3 113.0(6) 6_544 7_565
O3 Ra1 O3 89.0(5) 6_544 8_445
O3 Ra1 O3 152.3(6) 7_565 8_445
S1 O1 S1 127.3(3) 1_555 2_565
S1 O1 S1 105.1(3) 1_555 3_645
S1 O1 S1 105.1(3) 1_555 3_655
S1 O1 Ra1 87.0(3) 1_555 2_555
S1 O1 Ra1 87.0(3) 1_555 2_565
S1 O1 Ra1 168.8(3) 1_555 3_655
S1 O1 O1 82.0(4) 1_555 3_645
S1 O1 O1 82.0(4) 1_555 3_655
S1 O1 O2 102.8(5) 1_555 2_565
S1 O1 O2 109.9(4) 1_555 3_645
S1 O1 O2 109.9(4) 1_555 3_655
S1 O1 O3 134.6(6) 1_555 2_565
S1 O1 O3 116.4(6) 1_555 3_645
S1 O1 O3 116.4(6) 1_555 5_675
S1 O1 O3 134.6(6) 1_555 8_555
S1 O1 Ba1 87.0(3) 1_555 2_555
S1 O1 Ba1 87.0(3) 1_555 2_565
S1 O1 Ba1 168.8(3) 1_555 3_655
S1 O1 S1 109.02(16) 2_565 3_645
S1 O1 S1 109.02(16) 2_565 3_655
S1 O1 Ra1 65.27(13) 2_565 2_555
S1 O1 Ra1 65.27(13) 2_565 2_565
S1 O1 Ra1 63.92(18) 2_565 3_655
S1 O1 O1 125.5(2) 2_565 3_645
S1 O1 O1 125.5(2) 2_565 3_655
S1 O1 O2 171.2(4) 2_565 1_555
S1 O1 O2 89.58(19) 2_565 3_645
S1 O1 O2 89.58(19) 2_565 3_655
S1 O1 O3 109.5(4) 2_565 1_555
S1 O1 O3 111.0(4) 2_565 3_645
S1 O1 O3 111.0(4) 2_565 5_675
S1 O1 O3 109.5(4) 2_565 7_565
S1 O1 Ba1 65.27(13) 2_565 2_555
S1 O1 Ba1 65.27(13) 2_565 2_565
S1 O1 Ba1 63.92(18) 2_565 3_655
S1 O1 S1 97.10(12) 3_645 3_655
S1 O1 Ra1 74.92(12) 3_645 2_555
S1 O1 Ra1 167.00(12) 3_645 2_565
S1 O1 Ra1 68.02(17) 3_645 3_655
S1 O1 O1 103.47(14) 3_645 3_655
S1 O1 O2 76.5(3) 3_645 1_555
S1 O1 O2 122.4(2) 3_645 2_565
S1 O1 O2 115.99(13) 3_645 3_655
S1 O1 O3 136.8(4) 3_645 1_555
S1 O1 O3 84.5(3) 3_645 2_565
S1 O1 O3 74.1(3) 3_645 5_675
S1 O1 O3 88.2(4) 3_645 7_565
S1 O1 O3 117.8(3) 3_645 8_555
S1 O1 Ba1 74.92(12) 3_645 2_555
S1 O1 Ba1 167.00(12) 3_645 2_565
S1 O1 Ba1 68.02(17) 3_645 3_655
S1 O1 Ra1 167.00(12) 3_655 2_555
S1 O1 Ra1 74.92(12) 3_655 2_565
S1 O1 Ra1 68.02(17) 3_655 3_655
S1 O1 O1 103.47(14) 3_655 3_645
S1 O1 O2 76.5(3) 3_655 1_555
S1 O1 O2 122.4(2) 3_655 2_565
S1 O1 O2 115.99(13) 3_655 3_645
S1 O1 O3 88.2(4) 3_655 1_555
S1 O1 O3 117.8(3) 3_655 2_565
S1 O1 O3 74.1(3) 3_655 3_645
S1 O1 O3 136.8(4) 3_655 7_565
S1 O1 O3 84.5(3) 3_655 8_555
S1 O1 Ba1 167.00(12) 3_655 2_555
S1 O1 Ba1 74.92(12) 3_655 2_565
S1 O1 Ba1 68.02(17) 3_655 3_655
Ra1 O1 Ra1 110.88(10) 2_555 2_565
Ra1 O1 Ra1 99.22(16) 2_555 3_655
Ra1 O1 O1 73.27(19) 2_555 3_645
Ra1 O1 O1 168.11(19) 2_555 3_655
Ra1 O1 O2 110.8(3) 2_555 1_555
Ra1 O1 O2 57.36(18) 2_555 2_565
Ra1 O1 O2 54.02(14) 2_555 3_645
Ra1 O1 O2 154.85(14) 2_555 3_655
Ra1 O1 O3 104.7(4) 2_555 1_555
Ra1 O1 O3 52.1(2) 2_555 2_565
Ra1 O1 O3 96.6(3) 2_555 3_645
Ra1 O1 O3 145.1(4) 2_555 5_675
Ra1 O1 O3 54.4(3) 2_555 7_565
Ra1 O1 O3 90.1(3) 2_555 8_555
Ra1 O1 Ba1 110.88(10) 2_555 2_565
Ra1 O1 Ba1 99.22(16) 2_555 3_655
Ra1 O1 Ra1 99.22(16) 2_565 3_655
Ra1 O1 O1 168.11(19) 2_565 3_645
Ra1 O1 O1 73.27(19) 2_565 3_655
Ra1 O1 O2 110.8(3) 2_565 1_555
Ra1 O1 O2 57.36(18) 2_565 2_565
Ra1 O1 O2 154.85(14) 2_565 3_645
Ra1 O1 O2 54.02(14) 2_565 3_655
Ra1 O1 O3 54.4(3) 2_565 1_555
Ra1 O1 O3 90.1(3) 2_565 2_565
Ra1 O1 O3 145.1(4) 2_565 3_645
Ra1 O1 O3 96.6(3) 2_565 5_675
Ra1 O1 O3 104.7(4) 2_565 7_565
Ra1 O1 O3 52.1(2) 2_565 8_555
Ra1 O1 Ba1 110.88(10) 2_565 2_555
Ra1 O1 Ba1 99.22(16) 2_565 3_655
Ra1 O1 O1 90.9(2) 3_655 3_645
Ra1 O1 O1 90.9(2) 3_655 3_655
Ra1 O1 O2 124.9(4) 3_655 1_555
Ra1 O1 O2 88.4(3) 3_655 2_565
Ra1 O1 O2 67.49(18) 3_655 3_645
Ra1 O1 O2 67.49(18) 3_655 3_655
Ra1 O1 O3 149.3(5) 3_655 1_555
Ra1 O1 O3 55.2(3) 3_655 2_565
Ra1 O1 O3 53.9(3) 3_655 3_645
Ra1 O1 O3 53.9(3) 3_655 5_675
Ra1 O1 O3 149.3(5) 3_655 7_565
Ra1 O1 O3 55.2(3) 3_655 8_555
Ra1 O1 Ba1 99.22(16) 3_655 2_555
Ra1 O1 Ba1 99.22(16) 3_655 2_565
O1 O1 O1 100.50(14) 3_645 3_655
O1 O1 O2 57.8(3) 3_645 1_555
O1 O1 O2 129.7(3) 3_645 2_565
O1 O1 O2 126.03(16) 3_645 3_655
O1 O1 O3 114.1(4) 3_645 1_555
O1 O1 O3 100.8(4) 3_645 2_565
O1 O1 O3 84.2(3) 3_645 5_675
O1 O1 O3 68.1(4) 3_645 7_565
O1 O1 O3 139.8(4) 3_645 8_555
O1 O1 Ba1 73.27(19) 3_645 2_555
O1 O1 Ba1 168.11(19) 3_645 2_565
O1 O1 Ba1 90.9(2) 3_645 3_655
O1 O1 O2 57.8(3) 3_655 1_555
O1 O1 O2 129.7(3) 3_655 2_565
O1 O1 O2 126.03(16) 3_655 3_645
O1 O1 O3 68.1(4) 3_655 1_555
O1 O1 O3 139.8(4) 3_655 2_565
O1 O1 O3 84.2(3) 3_655 3_645
O1 O1 O3 114.1(4) 3_655 7_565
O1 O1 O3 100.8(4) 3_655 8_555
O1 O1 Ba1 168.11(19) 3_655 2_555
O1 O1 Ba1 73.27(19) 3_655 2_565
O1 O1 Ba1 90.9(2) 3_655 3_655
O2 O1 O2 146.7(5) 1_555 2_565
O2 O1 O2 94.1(4) 1_555 3_645
O2 O1 O2 94.1(4) 1_555 3_655
O2 O1 O3 63.1(5) 1_555 1_555
O2 O1 O3 157.8(6) 1_555 2_565
O2 O1 O3 77.0(5) 1_555 3_645
O2 O1 O3 77.0(5) 1_555 5_675
O2 O1 O3 63.1(5) 1_555 7_565
O2 O1 O3 157.8(6) 1_555 8_555
O2 O1 Ba1 110.8(3) 1_555 2_555
O2 O1 Ba1 110.8(3) 1_555 2_565
O2 O1 Ba1 124.9(4) 1_555 3_655
O2 O1 O2 99.7(3) 2_565 3_645
O2 O1 O2 99.7(3) 2_565 3_655
O2 O1 O3 88.6(5) 2_565 1_555
O2 O1 O3 132.0(4) 2_565 3_645
O2 O1 O3 132.0(4) 2_565 5_675
O2 O1 O3 88.6(5) 2_565 7_565
O2 O1 Ba1 57.36(18) 2_565 2_555
O2 O1 Ba1 57.36(18) 2_565 2_565
O2 O1 Ba1 88.4(3) 2_565 3_655
O2 O1 O2 129.99(11) 3_645 3_655
O2 O1 O3 143.0(5) 3_645 1_555
O2 O1 O3 64.7(3) 3_645 2_565
O2 O1 O3 92.2(3) 3_645 5_675
O2 O1 O3 83.0(4) 3_645 7_565
O2 O1 O3 104.6(3) 3_645 8_555
O2 O1 Ba1 54.02(14) 3_645 2_555
O2 O1 Ba1 154.85(14) 3_645 2_565
O2 O1 Ba1 67.49(18) 3_645 3_655
O2 O1 O3 83.0(4) 3_655 1_555
O2 O1 O3 104.6(3) 3_655 2_565
O2 O1 O3 92.2(3) 3_655 3_645
O2 O1 O3 143.0(5) 3_655 7_565
O2 O1 O3 64.7(3) 3_655 8_555
O2 O1 Ba1 154.85(14) 3_655 2_555
O2 O1 Ba1 54.02(14) 3_655 2_565
O2 O1 Ba1 67.49(18) 3_655 3_655
O3 O1 O3 130.2(6) 1_555 2_565
O3 O1 O3 139.2(6) 1_555 3_645
O3 O1 O3 108.8(6) 1_555 5_675
O3 O1 O3 61.0(4) 1_555 7_565
O3 O1 O3 105.4(6) 1_555 8_555
O3 O1 Ba1 104.7(4) 1_555 2_555
O3 O1 Ba1 54.4(3) 1_555 2_565
O3 O1 Ba1 149.3(5) 1_555 3_655
O3 O1 O3 90.3(4) 2_565 3_645
O3 O1 O3 109.0(5) 2_565 5_675
O3 O1 O3 105.4(6) 2_565 7_565
O3 O1 Ba1 52.1(2) 2_565 2_555
O3 O1 Ba1 90.1(3) 2_565 2_565
O3 O1 Ba1 55.2(3) 2_565 3_655
O3 O1 O3 50.6(3) 3_645 5_675
O3 O1 O3 108.8(6) 3_645 7_565
O3 O1 O3 109.0(5) 3_645 8_555
O3 O1 Ba1 96.6(3) 3_645 2_555
O3 O1 Ba1 145.1(4) 3_645 2_565
O3 O1 Ba1 53.9(3) 3_645 3_655
O3 O1 O3 139.2(6) 5_675 7_565
O3 O1 O3 90.3(4) 5_675 8_555
O3 O1 Ba1 145.1(4) 5_675 2_555
O3 O1 Ba1 96.6(3) 5_675 2_565
O3 O1 Ba1 53.9(3) 5_675 3_655
O3 O1 O3 130.2(6) 7_565 8_555
O3 O1 Ba1 54.4(3) 7_565 2_555
O3 O1 Ba1 104.7(4) 7_565 2_565
O3 O1 Ba1 149.3(5) 7_565 3_655
O3 O1 Ba1 90.1(3) 8_555 2_555
O3 O1 Ba1 52.1(2) 8_555 2_565
O3 O1 Ba1 55.2(3) 8_555 3_655
Ba1 O1 Ba1 110.88(10) 2_555 2_565
Ba1 O1 Ba1 99.22(16) 2_555 3_655
Ba1 O1 Ba1 99.22(16) 2_565 3_655
S1 O2 S1 99.6(3) 1_555 3_645
S1 O2 S1 99.6(3) 1_555 3_655
S1 O2 Ra1 95.3(3) 1_555 1_555
S1 O2 Ra1 95.3(3) 1_555 1_565
S1 O2 Ra1 152.5(3) 1_555 4_564
S1 O2 O1 80.3(4) 1_555 2_465
S1 O2 O1 103.4(4) 1_555 3_645
S1 O2 O1 103.4(4) 1_555 3_655
S1 O2 O2 77.2(3) 1_555 3_645
S1 O2 O2 77.2(3) 1_555 3_655
S1 O2 O3 107.9(6) 1_555 3_645
S1 O2 O3 146.3(6) 1_555 4_574
S1 O2 O3 107.9(6) 1_555 5_675
S1 O2 O3 146.3(6) 1_555 6_544
S1 O2 Ba1 95.3(3) 1_555 1_555
S1 O2 Ba1 95.3(3) 1_555 1_565
S1 O2 Ba1 152.5(3) 1_555 4_564
S1 O2 S1 93.14(10) 3_645 3_655
S1 O2 Ra1 73.94(11) 3_645 1_555
S1 O2 Ra1 161.78(11) 3_645 1_565
S1 O2 Ra1 62.93(14) 3_645 4_564
S1 O2 O1 70.4(3) 3_645 1_555
S1 O2 O1 133.3(3) 3_645 2_465
S1 O2 O1 112.58(12) 3_645 3_655
S1 O2 O2 96.79(13) 3_645 3_655
S1 O2 O3 133.1(4) 3_645 1_555
S1 O2 O3 114.0(3) 3_645 4_574
S1 O2 O3 70.9(2) 3_645 5_675
S1 O2 O3 76.8(3) 3_645 6_544
S1 O2 O3 86.1(4) 3_645 7_565
S1 O2 Ba1 73.94(11) 3_645 1_555
S1 O2 Ba1 161.78(11) 3_645 1_565
S1 O2 Ba1 62.93(14) 3_645 4_564
S1 O2 Ra1 161.78(11) 3_655 1_555
S1 O2 Ra1 73.94(11) 3_655 1_565
S1 O2 Ra1 62.93(14) 3_655 4_564
S1 O2 O1 70.4(3) 3_655 1_555
S1 O2 O1 133.3(3) 3_655 2_465
S1 O2 O1 112.58(12) 3_655 3_645
S1 O2 O2 96.79(13) 3_655 3_645
S1 O2 O3 86.1(4) 3_655 1_555
S1 O2 O3 70.9(2) 3_655 3_645
S1 O2 O3 76.8(3) 3_655 4_574
S1 O2 O3 114.0(3) 3_655 6_544
S1 O2 O3 133.1(4) 3_655 7_565
S1 O2 Ba1 161.78(11) 3_655 1_555
S1 O2 Ba1 73.94(11) 3_655 1_565
S1 O2 Ba1 62.93(14) 3_655 4_564
Ra1 O2 Ra1 115.23(9) 1_555 1_565
Ra1 O2 Ra1 99.29(13) 1_555 4_564
Ra1 O2 O1 115.4(3) 1_555 1_555
Ra1 O2 O1 59.71(19) 1_555 2_465
Ra1 O2 O1 53.10(15) 1_555 3_645
Ra1 O2 O1 158.47(15) 1_555 3_655
Ra1 O2 O2 76.22(19) 1_555 3_645
Ra1 O2 O2 167.17(19) 1_555 3_655
Ra1 O2 O3 112.1(4) 1_555 1_555
Ra1 O2 O3 94.6(3) 1_555 3_645
Ra1 O2 O3 96.5(3) 1_555 4_574
Ra1 O2 O3 140.4(3) 1_555 5_675
Ra1 O2 O3 51.2(3) 1_555 6_544
Ra1 O2 O3 60.1(3) 1_555 7_565
Ra1 O2 Ba1 115.23(9) 1_555 1_565
Ra1 O2 Ba1 99.29(13) 1_555 4_564
Ra1 O2 Ra1 99.29(13) 1_565 4_564
Ra1 O2 O1 115.4(3) 1_565 1_555
Ra1 O2 O1 59.71(19) 1_565 2_465
Ra1 O2 O1 158.47(15) 1_565 3_645
Ra1 O2 O1 53.10(15) 1_565 3_655
Ra1 O2 O2 167.17(19) 1_565 3_645
Ra1 O2 O2 76.22(19) 1_565 3_655
Ra1 O2 O3 60.1(3) 1_565 1_555
Ra1 O2 O3 140.4(3) 1_565 3_645
Ra1 O2 O3 51.2(3) 1_565 4_574
Ra1 O2 O3 94.6(3) 1_565 5_675
Ra1 O2 O3 96.5(3) 1_565 6_544
Ra1 O2 O3 112.1(4) 1_565 7_565
Ra1 O2 Ba1 115.23(9) 1_565 1_555
Ra1 O2 Ba1 99.29(13) 1_565 4_564
Ra1 O2 O1 109.4(4) 4_564 1_555
Ra1 O2 O1 127.2(3) 4_564 2_465
Ra1 O2 O1 68.35(17) 4_564 3_645
Ra1 O2 O1 68.35(17) 4_564 3_655
Ra1 O2 O2 83.8(2) 4_564 3_645
Ra1 O2 O2 83.8(2) 4_564 3_655
Ra1 O2 O3 147.5(5) 4_564 1_555
Ra1 O2 O3 48.0(3) 4_564 3_645
Ra1 O2 O3 54.5(3) 4_564 4_574
Ra1 O2 O3 48.0(3) 4_564 5_675
Ra1 O2 O3 54.5(3) 4_564 6_544
Ra1 O2 O3 147.5(5) 4_564 7_565
Ra1 O2 Ba1 99.29(13) 4_564 1_555
Ra1 O2 Ba1 99.29(13) 4_564 1_565
O1 O2 O1 123.5(4) 1_555 2_465
O1 O2 O1 85.9(3) 1_555 3_645
O1 O2 O1 85.9(3) 1_555 3_655
O1 O2 O2 52.2(3) 1_555 3_645
O1 O2 O2 52.2(3) 1_555 3_655
O1 O2 O3 65.3(5) 1_555 1_555
O1 O2 O3 68.7(4) 1_555 3_645
O1 O2 O3 147.1(6) 1_555 4_574
O1 O2 O3 68.7(4) 1_555 5_675
O1 O2 O3 147.1(6) 1_555 6_544
O1 O2 O3 65.3(5) 1_555 7_565
O1 O2 Ba1 115.4(3) 1_555 1_555
O1 O2 Ba1 115.4(3) 1_555 1_565
O1 O2 Ba1 109.4(4) 1_555 4_564
O1 O2 O1 112.8(3) 2_465 3_645
O1 O2 O1 112.8(3) 2_465 3_655
O1 O2 O2 127.8(3) 2_465 3_645
O1 O2 O2 127.8(3) 2_465 3_655
O1 O2 O3 66.9(4) 2_465 1_555
O1 O2 O3 154.0(5) 2_465 3_645
O1 O2 O3 78.7(4) 2_465 4_574
O1 O2 O3 154.0(5) 2_465 5_675
O1 O2 O3 78.7(4) 2_465 6_544
O1 O2 O3 66.9(4) 2_465 7_565
O1 O2 Ba1 59.71(19) 2_465 1_555
O1 O2 Ba1 59.71(19) 2_465 1_565
O1 O2 Ba1 127.2(3) 2_465 4_564
O1 O2 O1 129.99(11) 3_645 3_655
O1 O2 O2 117.99(16) 3_645 3_655
O1 O2 O3 138.6(5) 3_645 1_555
O1 O2 O3 108.9(3) 3_645 4_574
O1 O2 O3 89.7(3) 3_645 5_675
O1 O2 O3 62.0(3) 3_645 6_544
O1 O2 O3 79.2(4) 3_645 7_565
O1 O2 Ba1 53.10(15) 3_645 1_555
O1 O2 Ba1 158.47(15) 3_645 1_565
O1 O2 Ba1 68.35(17) 3_645 4_564
O1 O2 O2 117.99(16) 3_655 3_645
O1 O2 O3 79.2(4) 3_655 1_555
O1 O2 O3 89.7(3) 3_655 3_645
O1 O2 O3 62.0(3) 3_655 4_574
O1 O2 O3 108.9(3) 3_655 6_544
O1 O2 O3 138.6(5) 3_655 7_565
O1 O2 Ba1 158.47(15) 3_655 1_555
O1 O2 Ba1 53.10(15) 3_655 1_565
O1 O2 Ba1 68.35(17) 3_655 4_564
O2 O2 O2 91.83(15) 3_645 3_655
O2 O2 O3 111.2(4) 3_645 1_555
O2 O2 O3 136.3(4) 3_645 4_574
O2 O2 O3 78.1(3) 3_645 5_675
O2 O2 O3 95.4(4) 3_645 6_544
O2 O2 O3 67.6(4) 3_645 7_565
O2 O2 Ba1 76.22(19) 3_645 1_555
O2 O2 Ba1 167.17(19) 3_645 1_565
O2 O2 Ba1 83.8(2) 3_645 4_564
O2 O2 O3 67.6(4) 3_655 1_555
O2 O2 O3 78.1(3) 3_655 3_645
O2 O2 O3 95.4(4) 3_655 4_574
O2 O2 O3 136.3(4) 3_655 6_544
O2 O2 O3 111.2(4) 3_655 7_565
O2 O2 Ba1 167.17(19) 3_655 1_555
O2 O2 Ba1 76.22(19) 3_655 1_565
O2 O2 Ba1 83.8(2) 3_655 4_564
O3 O2 O3 133.2(6) 1_555 3_645
O3 O2 O3 111.3(6) 1_555 4_574
O3 O2 O3 105.2(6) 1_555 5_675
O3 O2 O3 144.8(6) 1_555 6_544
O3 O2 O3 62.3(4) 1_555 7_565
O3 O2 Ba1 112.1(4) 1_555 1_555
O3 O2 Ba1 60.1(3) 1_555 1_565
O3 O2 Ba1 147.5(5) 1_555 4_564
O3 O2 O3 102.5(4) 3_645 4_574
O3 O2 O3 48.2(3) 3_645 5_675
O3 O2 O3 81.9(4) 3_645 6_544
O3 O2 O3 105.2(6) 3_645 7_565
O3 O2 Ba1 94.6(3) 3_645 1_555
O3 O2 Ba1 140.4(3) 3_645 1_565
O3 O2 Ba1 48.0(3) 3_645 4_564
O3 O2 O3 81.9(4) 4_574 5_675
O3 O2 O3 51.9(3) 4_574 6_544
O3 O2 O3 144.8(6) 4_574 7_565
O3 O2 Ba1 96.5(3) 4_574 1_555
O3 O2 Ba1 51.2(3) 4_574 1_565
O3 O2 Ba1 54.5(3) 4_574 4_564
O3 O2 O3 102.5(4) 5_675 6_544
O3 O2 O3 133.2(6) 5_675 7_565
O3 O2 Ba1 140.4(3) 5_675 1_555
O3 O2 Ba1 94.6(3) 5_675 1_565
O3 O2 Ba1 48.0(3) 5_675 4_564
O3 O2 O3 111.3(6) 6_544 7_565
O3 O2 Ba1 51.2(3) 6_544 1_555
O3 O2 Ba1 96.5(3) 6_544 1_565
O3 O2 Ba1 54.5(3) 6_544 4_564
O3 O2 Ba1 60.1(3) 7_565 1_555
O3 O2 Ba1 112.1(4) 7_565 1_565
O3 O2 Ba1 147.5(5) 7_565 4_564
Ba1 O2 Ba1 115.23(9) 1_555 1_565
Ba1 O2 Ba1 99.29(13) 1_555 4_564
Ba1 O2 Ba1 99.29(13) 1_565 4_564
S1 O3 S1 137.9(4) 1_555 3_656
S1 O3 Ra1 109.1(4) 1_555 1_565
S1 O3 Ra1 110.9(4) 1_555 2_565
S1 O3 Ra1 96.7(4) 1_555 4_565
S1 O3 O1 83.9(5) 1_555 2_465
S1 O3 O1 84.3(4) 1_555 3_655
S1 O3 O2 83.0(4) 1_555 3_655
S1 O3 O2 137.1(5) 1_555 4_575
S1 O3 O3 72.4(5) 1_555 3_646
S1 O3 O3 150.1(6) 1_555 3_656
S1 O3 O3 117.6(7) 1_555 5_676
S1 O3 O3 147.4(6) 1_555 7_575
S1 O3 Ba1 109.1(4) 1_555 1_565
S1 O3 Ba1 110.9(4) 1_555 2_565
S1 O3 Ba1 96.7(4) 1_555 4_565
S1 O3 Ra1 112.1(3) 3_656 1_565
S1 O3 Ra1 60.2(3) 3_656 2_565
S1 O3 Ra1 63.0(3) 3_656 4_565
S1 O3 O1 125.5(4) 3_656 1_555
S1 O3 O1 106.8(3) 3_656 2_465
S1 O3 O1 129.2(3) 3_656 3_655
S1 O3 O2 172.2(4) 3_656 1_555
S1 O3 O2 110.0(3) 3_656 3_655
S1 O3 O2 67.7(3) 3_656 4_575
S1 O3 O3 67.8(3) 3_656 3_646
S1 O3 O3 113.3(4) 3_656 7_565
S1 O3 O3 66.7(3) 3_656 7_575
S1 O3 Ba1 112.1(3) 3_656 1_565
S1 O3 Ba1 60.2(3) 3_656 2_565
S1 O3 Ba1 63.0(3) 3_656 4_565
Ra1 O3 Ra1 112.0(3) 1_565 2_565
Ra1 O3 Ra1 107.7(3) 1_565 4_565
Ra1 O3 O1 116.1(4) 1_565 1_555
Ra1 O3 O1 63.9(3) 1_565 2_465
Ra1 O3 O1 51.0(3) 1_565 3_655
Ra1 O3 O2 74.2(3) 1_565 1_555
Ra1 O3 O2 82.7(3) 1_565 3_655
Ra1 O3 O2 53.8(3) 1_565 4_575
Ra1 O3 O3 150.3(4) 1_565 3_646
Ra1 O3 O3 99.2(4) 1_565 3_656
Ra1 O3 O3 131.9(5) 1_565 5_676
Ra1 O3 O3 120.7(4) 1_565 7_565
Ra1 O3 O3 59.3(3) 1_565 7_575
Ra1 O3 Ba1 112.0(3) 1_565 2_565
Ra1 O3 Ba1 107.7(3) 1_565 4_565
Ra1 O3 Ra1 119.2(3) 2_565 4_565
Ra1 O3 O1 79.2(3) 2_565 1_555
Ra1 O3 O1 164.8(3) 2_565 2_465
Ra1 O3 O1 81.5(3) 2_565 3_655
Ra1 O3 O2 122.7(4) 2_565 1_555
Ra1 O3 O2 51.4(3) 2_565 3_655
Ra1 O3 O2 111.9(4) 2_565 4_575
Ra1 O3 O3 94.0(3) 2_565 3_646
Ra1 O3 O3 46.8(3) 2_565 3_656
Ra1 O3 O3 61.8(4) 2_565 5_676
Ra1 O3 O3 122.8(4) 2_565 7_565
Ra1 O3 O3 57.2(3) 2_565 7_575
Ra1 O3 Ba1 112.0(3) 2_565 1_565
Ra1 O3 Ba1 119.2(3) 2_565 4_565
Ra1 O3 O1 120.6(4) 4_565 1_555
Ra1 O3 O1 53.2(3) 4_565 2_465
Ra1 O3 O1 156.7(4) 4_565 3_655
Ra1 O3 O2 111.2(4) 4_565 1_555
Ra1 O3 O2 168.9(3) 4_565 3_655
Ra1 O3 O2 61.4(3) 4_565 4_575
Ra1 O3 O3 83.4(3) 4_565 3_656
Ra1 O3 O3 57.4(4) 4_565 5_676
Ra1 O3 O3 64.3(4) 4_565 7_565
Ra1 O3 O3 115.7(4) 4_565 7_575
Ra1 O3 Ba1 107.7(3) 4_565 1_565
Ra1 O3 Ba1 119.2(3) 4_565 2_565
O1 O3 O1 116.0(4) 1_555 2_465
O1 O3 O1 71.2(4) 1_555 3_655
O1 O3 O2 51.6(4) 1_555 1_555
O1 O3 O2 55.2(3) 1_555 3_655
O1 O3 O2 166.7(5) 1_555 4_575
O1 O3 O3 81.7(5) 1_555 3_646
O1 O3 O3 124.1(5) 1_555 3_656
O1 O3 O3 109.4(6) 1_555 5_676
O1 O3 O3 59.5(4) 1_555 7_565
O1 O3 O3 120.5(5) 1_555 7_575
O1 O3 Ba1 116.1(4) 1_555 1_565
O1 O3 Ba1 79.2(3) 1_555 2_565
O1 O3 Ba1 120.6(4) 1_555 4_565
O1 O3 O1 104.1(4) 2_465 3_655
O1 O3 O2 71.4(4) 2_465 1_555
O1 O3 O2 137.5(4) 2_465 3_655
O1 O3 O2 53.3(3) 2_465 4_575
O1 O3 O3 87.3(4) 2_465 3_646
O1 O3 O3 118.2(4) 2_465 3_656
O1 O3 O3 109.0(5) 2_465 5_676
O1 O3 O3 68.0(4) 2_465 7_565
O1 O3 O3 112.0(4) 2_465 7_575
O1 O3 Ba1 63.9(3) 2_465 1_565
O1 O3 Ba1 164.8(3) 2_465 2_565
O1 O3 Ba1 53.2(3) 2_465 4_565
O1 O3 O2 58.2(3) 3_655 1_555
O1 O3 O2 102.4(4) 3_655 4_575
O1 O3 O3 152.9(4) 3_655 3_646
O1 O3 O3 107.3(4) 3_655 3_656
O1 O3 O3 141.7(6) 3_655 5_676
O1 O3 O3 115.3(5) 3_655 7_565
O1 O3 O3 64.7(4) 3_655 7_575
O1 O3 Ba1 51.0(3) 3_655 1_565
O1 O3 Ba1 81.5(3) 3_655 2_565
O1 O3 Ba1 156.7(4) 3_655 4_565
O2 O3 O2 74.8(4) 1_555 3_655
O2 O3 O2 115.1(4) 1_555 4_575
O2 O3 O3 104.4(5) 1_555 3_646
O2 O3 O3 165.2(5) 1_555 3_656
O2 O3 O3 152.3(6) 1_555 5_676
O2 O3 O3 58.9(4) 1_555 7_565
O2 O3 O3 121.1(5) 1_555 7_575
O2 O3 Ba1 74.2(3) 1_555 1_565
O2 O3 Ba1 122.7(4) 1_555 2_565
O2 O3 Ba1 111.2(4) 1_555 4_565
O2 O3 O2 125.4(4) 3_655 4_575
O2 O3 O3 126.2(4) 3_655 3_646
O2 O3 O3 91.3(4) 3_655 3_656
O2 O3 O3 112.9(5) 3_655 5_676
O2 O3 O3 114.1(4) 3_655 7_565
O2 O3 O3 65.9(3) 3_655 7_575
O2 O3 Ba1 82.7(3) 3_655 1_565
O2 O3 Ba1 51.4(3) 3_655 2_565
O2 O3 Ba1 168.9(3) 3_655 4_565
O2 O3 O3 104.1(4) 4_575 3_646
O2 O3 O3 68.6(3) 4_575 3_656
O2 O3 O3 83.0(5) 4_575 5_676
O2 O3 O3 116.0(4) 4_575 7_565
O2 O3 O3 64.0(4) 4_575 7_575
O2 O3 Ba1 53.8(3) 4_575 1_565
O2 O3 Ba1 111.9(4) 4_575 2_565
O2 O3 Ba1 61.4(3) 4_575 4_565
O3 O3 O3 87.9(3) 3_646 3_656
O3 O3 O3 48.9(4) 3_646 5_676
O3 O3 O3 46.0(4) 3_646 7_565
O3 O3 O3 134.0(4) 3_646 7_575
O3 O3 Ba1 150.3(4) 3_646 1_565
O3 O3 Ba1 94.0(3) 3_646 2_565
O3 O3 O3 134.0(5) 3_656 7_565
O3 O3 O3 46.0(3) 3_656 7_575
O3 O3 Ba1 99.2(4) 3_656 1_565
O3 O3 Ba1 46.8(3) 3_656 2_565
O3 O3 Ba1 83.4(3) 3_656 4_565
O3 O3 O3 95.0(6) 5_676 7_565
O3 O3 O3 85.0(5) 5_676 7_575
O3 O3 Ba1 131.9(5) 5_676 1_565
O3 O3 Ba1 61.8(4) 5_676 2_565
O3 O3 Ba1 57.4(4) 5_676 4_565
O3 O3 O3 180.0(5) 7_565 7_575
O3 O3 Ba1 120.7(4) 7_565 1_565
O3 O3 Ba1 122.8(4) 7_565 2_565
O3 O3 Ba1 64.3(4) 7_565 4_565
O3 O3 Ba1 59.3(3) 7_575 1_565
O3 O3 Ba1 57.2(3) 7_575 2_565
O3 O3 Ba1 115.7(4) 7_575 4_565
Ba1 O3 Ba1 112.0(3) 1_565 2_565
Ba1 O3 Ba1 107.7(3) 1_565 4_565
Ba1 O3 Ba1 119.2(3) 2_565 4_565
S1 Ba1 S1 96.12(4) 1_545 1_555
S1 Ba1 S1 77.32(8) 1_545 2_455
S1 Ba1 S1 157.72(8) 1_545 2_465
S1 Ba1 S1 110.84(9) 1_545 4_564
S1 Ba1 O1 59.60(13) 1_545 2_455
S1 Ba1 O1 135.98(13) 1_545 2_465
S1 Ba1 O1 66.98(18) 1_545 3_645
S1 Ba1 O2 109.80(9) 1_545 1_555
S1 Ba1 O2 88.01(18) 1_545 4_565
S1 Ba1 O3 161.4(4) 1_545 2_465
S1 Ba1 O3 90.7(3) 1_545 4_564
S1 Ba1 O3 131.1(4) 1_545 6_544
S1 Ba1 O3 80.5(3) 1_545 7_565
S1 Ba1 O3 98.1(3) 1_545 8_445
S1 Ba1 S1 157.72(8) 1_555 2_455
S1 Ba1 S1 77.32(8) 1_555 2_465
S1 Ba1 S1 110.84(9) 1_555 4_564
S1 Ba1 O1 135.98(13) 1_555 2_455
S1 Ba1 O1 59.60(13) 1_555 2_465
S1 Ba1 O1 66.98(18) 1_555 3_645
S1 Ba1 O2 109.80(9) 1_555 1_545
S1 Ba1 O2 88.01(18) 1_555 4_565
S1 Ba1 O3 80.5(3) 1_555 1_545
S1 Ba1 O3 98.1(3) 1_555 2_465
S1 Ba1 O3 131.1(4) 1_555 4_564
S1 Ba1 O3 90.7(3) 1_555 6_544
S1 Ba1 O3 161.4(4) 1_555 8_445
S1 Ba1 S1 100.63(4) 2_455 2_465
S1 Ba1 S1 91.31(8) 2_455 4_564
S1 Ba1 O1 110.74(9) 2_455 2_465
S1 Ba1 O1 126.9(2) 2_455 3_645
S1 Ba1 O2 72.06(16) 2_455 1_545
S1 Ba1 O2 172.62(16) 2_455 1_555
S1 Ba1 O2 70.66(15) 2_455 4_565
S1 Ba1 O3 86.6(3) 2_455 1_545
S1 Ba1 O3 85.0(3) 2_455 2_465
S1 Ba1 O3 70.8(3) 2_455 4_564
S1 Ba1 O3 109.8(3) 2_455 6_544
S1 Ba1 O3 136.6(3) 2_455 7_565
S1 Ba1 S1 91.31(8) 2_465 4_564
S1 Ba1 O1 110.74(9) 2_465 2_455
S1 Ba1 O1 126.9(2) 2_465 3_645
S1 Ba1 O2 172.62(16) 2_465 1_545
S1 Ba1 O2 72.06(16) 2_465 1_555
S1 Ba1 O2 70.66(15) 2_465 4_565
S1 Ba1 O3 136.6(3) 2_465 1_545
S1 Ba1 O3 109.8(3) 2_465 4_564
S1 Ba1 O3 70.8(3) 2_465 6_544
S1 Ba1 O3 86.6(3) 2_465 7_565
S1 Ba1 O3 85.0(3) 2_465 8_445
S1 Ba1 O1 112.1(2) 4_564 2_455
S1 Ba1 O1 112.1(2) 4_564 2_465
S1 Ba1 O1 67.98(20) 4_564 3_645
S1 Ba1 O2 87.93(16) 4_564 1_545
S1 Ba1 O2 87.93(16) 4_564 1_555
S1 Ba1 O2 150.8(3) 4_564 4_565
S1 Ba1 O3 131.6(4) 4_564 1_545
S1 Ba1 O3 75.0(3) 4_564 2_465
S1 Ba1 O3 131.6(4) 4_564 7_565
S1 Ba1 O3 75.0(3) 4_564 8_445
O1 Ba1 O1 110.88(10) 2_455 2_465
O1 Ba1 O1 122.3(3) 2_455 3_645
O1 Ba1 O2 62.94(20) 2_455 1_545
O1 Ba1 O2 159.39(20) 2_455 1_555
O1 Ba1 O2 57.63(15) 2_455 4_565
O1 Ba1 O3 64.0(3) 2_455 1_545
O1 Ba1 O3 101.8(3) 2_455 2_465
O1 Ba1 O3 88.4(4) 2_455 4_564
O1 Ba1 O3 133.2(4) 2_455 6_544
O1 Ba1 O3 113.8(3) 2_455 7_565
O1 Ba1 O3 46.5(3) 2_455 8_445
O1 Ba1 O1 122.3(3) 2_465 3_645
O1 Ba1 O2 159.39(20) 2_465 1_545
O1 Ba1 O2 62.94(20) 2_465 1_555
O1 Ba1 O2 57.63(15) 2_465 4_565
O1 Ba1 O3 113.8(3) 2_465 1_545
O1 Ba1 O3 46.5(3) 2_465 2_465
O1 Ba1 O3 133.2(4) 2_465 4_564
O1 Ba1 O3 88.4(4) 2_465 6_544
O1 Ba1 O3 64.0(3) 2_465 7_565
O1 Ba1 O3 101.8(3) 2_465 8_445
O1 Ba1 O2 59.41(17) 3_645 1_545
O1 Ba1 O2 59.41(17) 3_645 1_555
O1 Ba1 O2 141.2(4) 3_645 4_565
O1 Ba1 O3 75.1(4) 3_645 1_545
O1 Ba1 O3 130.1(5) 3_645 2_465
O1 Ba1 O3 71.7(4) 3_645 4_564
O1 Ba1 O3 71.7(4) 3_645 6_544
O1 Ba1 O3 75.1(4) 3_645 7_565
O1 Ba1 O3 130.1(5) 3_645 8_445
O2 Ba1 O2 115.23(9) 1_545 1_555
O2 Ba1 O2 107.0(3) 1_545 4_565
O2 Ba1 O3 45.6(3) 1_545 1_545
O2 Ba1 O3 151.1(4) 1_545 2_465
O2 Ba1 O3 67.4(3) 1_545 4_564
O2 Ba1 O3 110.3(4) 1_545 6_544
O2 Ba1 O3 99.4(3) 1_545 7_565
O2 Ba1 O3 87.7(4) 1_545 8_445
O2 Ba1 O2 107.0(3) 1_555 4_565
O2 Ba1 O3 99.4(3) 1_555 1_545
O2 Ba1 O3 87.7(4) 1_555 2_465
O2 Ba1 O3 110.3(4) 1_555 4_564
O2 Ba1 O3 67.4(3) 1_555 6_544
O2 Ba1 O3 45.6(3) 1_555 7_565
O2 Ba1 O3 151.1(4) 1_555 8_445
O2 Ba1 O3 71.7(3) 4_565 1_545
O2 Ba1 O3 80.6(4) 4_565 2_465
O2 Ba1 O3 140.8(5) 4_565 4_564
O2 Ba1 O3 140.8(5) 4_565 6_544
O2 Ba1 O3 71.7(3) 4_565 7_565
O2 Ba1 O3 80.6(4) 4_565 8_445
O3 Ba1 O3 152.3(6) 1_545 2_465
O3 Ba1 O3 113.0(6) 1_545 4_564
O3 Ba1 O3 146.4(6) 1_545 6_544
O3 Ba1 O3 61.4(3) 1_545 7_565
O3 Ba1 O3 109.3(5) 1_545 8_445
O3 Ba1 O3 89.0(5) 2_465 4_564
O3 Ba1 O3 60.8(4) 2_465 6_544
O3 Ba1 O3 109.3(5) 2_465 7_565
O3 Ba1 O3 65.7(4) 2_465 8_445
O3 Ba1 O3 51.3(3) 4_564 6_544
O3 Ba1 O3 146.4(6) 4_564 7_565
O3 Ba1 O3 60.8(4) 4_564 8_445
O3 Ba1 O3 113.0(6) 6_544 7_565
O3 Ba1 O3 89.0(5) 6_544 8_445
O3 Ba1 O3 152.3(6) 7_565 8_445
loop_
_geom_bond_atom_site_label_1
_geom_bond_atom_site_label_2
_geom_bond_distance
_geom_bond_site_symmetry_2
S1 Ra1 3.7088(18) 1_555
S1 Ra1 3.7088(18) 1_565
S1 Ra1 3.5849(17) 2_555
S1 Ra1 3.5849(17) 2_565
S1 Ra1 3.412(2) 4_565
S1 O1 1.461(7) 1_555
S1 O1 3.522(6) 2_465
S1 O1 3.681(5) 3_645
S1 O1 3.681(5) 3_655
S1 O2 1.480(7) 1_555
S1 O2 3.799(5) 3_645
S1 O2 3.799(5) 3_655
S1 O3 1.490(8) 1_555
S1 O3 3.799(11) 3_646
S1 O3 3.799(11) 5_676
S1 O3 1.490(8) 7_565
S1 Ba1 3.7088(18) 1_555
S1 Ba1 3.7088(18) 1_565
S1 Ba1 3.5849(17) 2_555
S1 Ba1 3.5849(17) 2_565
S1 Ba1 3.412(2) 4_565
Ra1 S1 3.7088(18) 1_545
Ra1 S1 3.7088(18) 1_555
Ra1 S1 3.5849(17) 2_455
Ra1 S1 3.5849(17) 2_465
Ra1 S1 3.412(2) 4_564
Ra1 O1 3.350(4) 2_455
Ra1 O1 3.350(4) 2_465
Ra1 O1 2.828(7) 3_645
Ra1 O2 3.267(4) 1_545
Ra1 O2 3.267(4) 1_555
Ra1 O2 2.916(6) 4_565
Ra1 O3 2.943(10) 1_545
Ra1 O3 2.772(9) 2_465
Ra1 O3 2.899(10) 4_564
Ra1 O3 2.899(10) 6_544
Ra1 O3 2.943(10) 7_565
Ra1 O3 2.772(9) 8_445
O1 S1 1.461(7) 1_555
O1 S1 3.522(6) 2_565
O1 S1 3.681(5) 3_645
O1 S1 3.681(5) 3_655
O1 Ra1 3.350(4) 2_555
O1 Ra1 3.350(4) 2_565
O1 Ra1 2.828(7) 3_655
O1 O1 3.588(6) 3_645
O1 O1 3.588(6) 3_655
O1 O2 2.132(9) 1_555
O1 O2 3.455(9) 2_565
O1 O2 3.044(4) 3_645
O1 O2 3.044(4) 3_655
O1 O3 2.472(11) 1_555
O1 O3 3.353(11) 2_565
O1 O3 3.518(13) 3_645
O1 O3 3.518(13) 5_675
O1 O3 2.472(11) 7_565
O1 O3 3.353(11) 8_555
O1 Ba1 3.350(4) 2_555
O1 Ba1 3.350(4) 2_565
O1 Ba1 2.828(7) 3_655
O2 S1 1.480(7) 1_555
O2 S1 3.799(5) 3_645
O2 S1 3.799(5) 3_655
O2 Ra1 3.267(4) 1_555
O2 Ra1 3.267(4) 1_565
O2 Ra1 2.916(6) 4_564
O2 O1 2.132(9) 1_555
O2 O1 3.455(9) 2_465
O2 O1 3.044(4) 3_645
O2 O1 3.044(4) 3_655
O2 O2 3.841(7) 3_645
O2 O2 3.841(7) 3_655
O2 O3 2.427(11) 1_555
O2 O3 3.680(12) 3_645
O2 O3 3.434(12) 4_574
O2 O3 3.680(12) 5_675
O2 O3 3.434(12) 6_544
O2 O3 2.427(11) 7_565
O2 Ba1 3.267(4) 1_555
O2 Ba1 3.267(4) 1_565
O2 Ba1 2.916(6) 4_564
O3 S1 1.490(8) 1_555
O3 S1 3.799(11) 3_656
O3 Ra1 2.943(10) 1_565
O3 Ra1 2.772(9) 2_565
O3 Ra1 2.899(10) 4_565
O3 O1 2.472(11) 1_555
O3 O1 3.353(11) 2_465
O3 O1 3.518(13) 3_655
O3 O2 2.427(11) 1_555
O3 O2 3.680(12) 3_655
O3 O2 3.434(12) 4_575
O3 O3 3.975(13) 3_646
O3 O3 3.975(13) 3_656
O3 O3 2.872(15) 5_676
O3 O3 2.511(10) 7_565
O3 O3 3.007(10) 7_575
O3 Ba1 2.943(10) 1_565
O3 Ba1 2.772(9) 2_565
O3 Ba1 2.899(10) 4_565
Ba1 S1 3.7088(18) 1_545
Ba1 S1 3.7088(18) 1_555
Ba1 S1 3.5849(17) 2_455
Ba1 S1 3.5849(17) 2_465
Ba1 S1 3.412(2) 4_564
Ba1 O1 3.350(4) 2_455
Ba1 O1 3.350(4) 2_465
Ba1 O1 2.828(7) 3_645
Ba1 O2 3.267(4) 1_545
Ba1 O2 3.267(4) 1_555
Ba1 O2 2.916(6) 4_565
Ba1 O3 2.943(10) 1_545
Ba1 O3 2.772(9) 2_465
Ba1 O3 2.899(10) 4_564
Ba1 O3 2.899(10) 6_544
Ba1 O3 2.943(10) 7_565
Ba1 O3 2.772(9) 8_445
loop_
_pd_proc_point_id
_pd_proc_2theta_corrected
_pd_proc_intensity_total
_pd_calc_intensity_total
_pd_proc_intensity_bkg_calc
1 10.0223 198(14) 189.8336 189.8336
2 10.0263 198(14) 189.7231 189.7231
3 10.0304 198(14) 189.6128 189.6128
4 10.0344 197(14) 189.5027 189.5027
5 10.0384 197(14) 189.3927 189.3927
6 10.0424 197(14) 189.2831 189.2831
7 10.0465 197(14) 189.1735 189.1735
8 10.0505 197(14) 189.0642 189.0642
9 10.0545 197(14) 188.9552 188.9552
10 10.0586 197(14) 188.8461 188.8461
11 10.0626 197(14) 188.7374 188.7374
12 10.0666 197(14) 188.6289 188.6289
13 10.0707 197(14) 188.5205 188.5205
14 10.0747 197(14) 188.4124 188.4124
15 10.0787 197(14) 188.3044 188.3044
16 10.0828 197(14) 188.1966 188.1966
17 10.0868 197(14) 188.0891 188.0891
18 10.0908 197(14) 187.9817 187.9817
19 10.0948 197(14) 187.8745 187.8745
20 10.0989 196(14) 187.7675 187.7675
21 10.1029 196(14) 187.6607 187.6607
22 10.1069 196(14) 187.5541 187.5541
23 10.1110 196(14) 187.4476 187.4476
24 10.1150 196(14) 187.3415 187.3415
25 10.1190 196(14) 187.2355 187.2355
26 10.1231 196(14) 187.1296 187.1296
27 10.1271 196(14) 187.0239 187.0239
28 10.1311 195(14) 186.9185 186.9185
29 10.1352 195(14) 186.8131 186.8131
30 10.1392 195(14) 186.7081 186.7081
31 10.1432 195(14) 186.6033 186.6033
32 10.1473 195(14) 186.4985 186.4985
33 10.1513 195(14) 186.3941 186.3941
34 10.1553 195(14) 186.2897 186.2897
35 10.1593 195(14) 186.1855 186.1855
36 10.1634 195(14) 186.0817 186.0817
37 10.1674 195(14) 185.9780 185.9780
38 10.1714 195(14) 185.8744 185.8744
39 10.1755 194(14) 185.7710 185.7710
40 10.1795 194(14) 185.6677 185.6677
41 10.1835 194(14) 185.5648 185.5648
42 10.1876 194(14) 185.4620 185.4620
43 10.1916 194(14) 185.3594 185.3594
44 10.1956 194(14) 185.2570 185.2570
45 10.1997 194(14) 185.1547 185.1547
46 10.2037 194(14) 185.0526 185.0526
47 10.2077 194(14) 184.9508 184.9508
48 10.2117 194(14) 184.8491 184.8491
49 10.2158 194(14) 184.7476 184.7476
50 10.2198 194(14) 184.6464 184.6464
51 10.2238 194(14) 184.5452 184.5452
52 10.2279 194(14) 184.4443 184.4443
53 10.2319 194(14) 184.3435 184.3435
54 10.2359 194(14) 184.2429 184.2429
55 10.2400 194(14) 184.1426 184.1426
56 10.2440 194(14) 184.0423 184.0423
57 10.2480 194(14) 183.9424 183.9424
58 10.2521 194(14) 183.8426 183.8426
59 10.2561 194(14) 183.7429 183.7429
60 10.2601 194(14) 183.6434 183.6434
61 10.2642 194(14) 183.5442 183.5442
62 10.2682 194(14) 183.4450 183.4450
63 10.2722 193(14) 183.3462 183.3462
64 10.2762 193(14) 183.2475 183.2475
65 10.2803 193(14) 183.1489 183.1489
66 10.2843 193(14) 183.0506 183.0506
67 10.2883 193(14) 182.9524 182.9524
68 10.2924 193(14) 182.8543 182.8543
69 10.2964 193(14) 182.7566 182.7566
70 10.3004 193(14) 182.6590 182.6590
71 10.3045 193(14) 182.5615 182.5615
72 10.3085 192(14) 182.4643 182.4643
73 10.3125 192(14) 182.3672 182.3672
74 10.3166 192(14) 182.2702 182.2702
75 10.3206 192(14) 182.1736 182.1736
76 10.3246 192(14) 182.0770 182.0770
77 10.3286 192(14) 181.9807 181.9807
78 10.3327 192(14) 181.8846 181.8846
79 10.3367 192(14) 181.7885 181.7885
80 10.3407 191(14) 181.6926 181.6926
81 10.3448 191(14) 181.5970 181.5970
82 10.3488 191(14) 181.5015 181.5015
83 10.3528 191(14) 181.4063 181.4063
84 10.3569 191(14) 181.3112 181.3112
85 10.3609 191(14) 181.2162 181.2162
86 10.3649 191(14) 181.1216 181.1216
87 10.3690 191(14) 181.0269 181.0269
88 10.3730 191(14) 180.9325 180.9325
89 10.3770 191(14) 180.8383 180.8383
90 10.3810 191(14) 180.7443 180.7443
91 10.3851 191(14) 180.6504 180.6504
92 10.3891 191(14) 180.5567 180.5567
93 10.3931 190(14) 180.4632 180.4632
94 10.3972 190(14) 180.3699 180.3699
95 10.4012 190(14) 180.2768 180.2768
96 10.4052 190(14) 180.1838 180.1838
97 10.4093 190(14) 180.0910 180.0910
98 10.4133 190(14) 179.9983 179.9983
99 10.4173 190(14) 179.9059 179.9059
100 10.4214 189(14) 179.8137 179.8137
101 10.4254 189(14) 179.7216 179.7216
102 10.4294 189(14) 179.6296 179.6296
103 10.4335 189(14) 179.5379 179.5379
104 10.4375 189(14) 179.4463 179.4463
105 10.4415 188(14) 179.3550 179.3550
106 10.4455 188(14) 179.2638 179.2638
107 10.4496 188(14) 179.1726 179.1726
108 10.4536 188(14) 179.0818 179.0818
109 10.4576 188(14) 178.9911 178.9911
110 10.4617 187(14) 178.9006 178.9006
111 10.4657 187(14) 178.8102 178.8102
112 10.4697 187(14) 178.7200 178.7200
113 10.4738 187(14) 178.6301 178.6301
114 10.4778 187(14) 178.5403 178.5403
115 10.4818 187(14) 178.4505 178.4505
116 10.4859 187(14) 178.3611 178.3611
117 10.4899 187(14) 178.2717 178.2717
118 10.4939 187(14) 178.1826 178.1826
119 10.4979 187(14) 178.0936 178.0936
120 10.5020 186(14) 178.0048 178.0048
121 10.5060 186(14) 177.9162 177.9162
122 10.5100 186(14) 177.8277 177.8277
123 10.5141 186(14) 177.7393 177.7393
124 10.5181 186(14) 177.6512 177.6512
125 10.5221 186(14) 177.5633 177.5633
126 10.5262 186(14) 177.4755 177.4755
127 10.5302 186(14) 177.3880 177.3880
128 10.5342 186(14) 177.3004 177.3004
129 10.5383 186(14) 177.2132 177.2132
130 10.5423 186(14) 177.1261 177.1261
131 10.5463 186(14) 177.0392 177.0392
132 10.5504 186(14) 176.9524 176.9524
133 10.5544 186(14) 176.8658 176.8658
134 10.5584 186(14) 176.7794 176.7794
135 10.5624 186(14) 176.6931 176.6931
136 10.5665 186(14) 176.6071 176.6071
137 10.5705 186(14) 176.5210 176.5210
138 10.5745 186(14) 176.4353 176.4353
139 10.5786 186(14) 176.3497 176.3497
140 10.5826 186(14) 176.2643 176.2643
141 10.5866 186(14) 176.1791 176.1791
142 10.5907 186(14) 176.0939 176.0939
143 10.5947 185(14) 176.0090 176.0090
144 10.5987 185(14) 175.9243 175.9243
145 10.6028 185(14) 175.8397 175.8397
146 10.6068 185(14) 175.7552 175.7552
147 10.6108 185(14) 175.6710 175.6710
148 10.6148 185(14) 175.5869 175.5869
149 10.6189 185(14) 175.5029 175.5029
150 10.6229 185(14) 175.4192 175.4192
151 10.6269 184(14) 175.3356 175.3356
152 10.6310 184(14) 175.2522 175.2522
153 10.6350 184(14) 175.1689 175.1689
154 10.6390 184(14) 175.0858 175.0858
155 10.6431 184(14) 175.0028 175.0028
156 10.6471 183(14) 174.9200 174.9200
157 10.6511 183(14) 174.8374 174.8374
158 10.6552 183(14) 174.7550 174.7550
159 10.6592 183(14) 174.6727 174.6727
160 10.6632 183(14) 174.5906 174.5906
161 10.6673 182(13) 174.5086 174.5086
162 10.6713 182(13) 174.4268 174.4268
163 10.6753 182(13) 174.3452 174.3452
164 10.6793 182(13) 174.2637 174.2637
165 10.6834 181(13) 174.1824 174.1824
166 10.6874 181(13) 174.1012 174.1012
167 10.6914 181(13) 174.0202 174.0202
168 10.6955 181(13) 173.9394 173.9394
169 10.6995 181(13) 173.8588 173.8588
170 10.7035 180(13) 173.7781 173.7781
171 10.7076 180(13) 173.6978 173.6978
172 10.7116 180(13) 173.6177 173.6177
173 10.7156 180(13) 173.5376 173.5376
174 10.7197 180(13) 173.4578 173.4578
175 10.7237 180(13) 173.3781 173.3781
176 10.7277 179(13) 173.2985 173.2985
177 10.7317 179(13) 173.2192 173.2192
178 10.7358 179(13) 173.1400 173.1400
179 10.7398 179(13) 173.0609 173.0609
180 10.7438 179(13) 172.9820 172.9820
181 10.7479 179(13) 172.9032 172.9032
182 10.7519 179(13) 172.8246 172.8246
183 10.7559 179(13) 172.7462 172.7462
184 10.7600 179(13) 172.6679 172.6679
185 10.7640 178(13) 172.5898 172.5898
186 10.7680 178(13) 172.5118 172.5118
187 10.7721 178(13) 172.4340 172.4340
188 10.7761 178(13) 172.3564 172.3564
189 10.7801 178(13) 172.2789 172.2789
190 10.7841 178(13) 172.2015 172.2015
191 10.7882 178(13) 172.1244 172.1244
192 10.7922 178(13) 172.0473 172.0473
193 10.7962 178(13) 171.9705 171.9705
194 10.8003 177(13) 171.8939 171.8939
195 10.8043 177(13) 171.8172 171.8172
196 10.8083 177(13) 171.7408 171.7408
197 10.8124 177(13) 171.6646 171.6646
198 10.8164 177(13) 171.5885 171.5885
199 10.8204 177(13) 171.5126 171.5126
200 10.8245 177(13) 171.4368 171.4368
201 10.8285 177(13) 171.3612 171.3612
202 10.8325 177(13) 171.2858 171.2858
203 10.8366 177(13) 171.2104 171.2104
204 10.8406 177(13) 171.1353 171.1353
205 10.8446 177(13) 171.0604 171.0604
206 10.8486 177(13) 170.9854 170.9854
207 10.8527 177(13) 170.9108 170.9108
208 10.8567 177(13) 170.8362 170.8362
209 10.8607 177(13) 170.7618 170.7618
210 10.8648 177(13) 170.6876 170.6876
211 10.8688 177(13) 170.6135 170.6135
212 10.8728 177(13) 170.5396 170.5396
213 10.8769 177(13) 170.4659 170.4659
214 10.8809 177(13) 170.3922 170.3922
215 10.8849 177(13) 170.3188 170.3188
216 10.8890 177(13) 170.2455 170.2455
217 10.8930 177(13) 170.1723 170.1723
218 10.8970 177(13) 170.0993 170.0993
219 10.9010 177(13) 170.0264 170.0264
220 10.9051 176(13) 169.9536 169.9536
221 10.9091 176(13) 169.8811 169.8811
222 10.9131 176(13) 169.8087 169.8087
223 10.9172 176(13) 169.7364 169.7364
224 10.9212 176(13) 169.6643 169.6643
225 10.9252 176(13) 169.5924 169.5924
226 10.9293 176(13) 169.5206 169.5206
227 10.9333 175(13) 169.4489 169.4489
228 10.9373 175(13) 169.3774 169.3774
229 10.9414 175(13) 169.3060 169.3060
230 10.9454 175(13) 169.2348 169.2348
231 10.9494 175(13) 169.1638 169.1638
232 10.9535 174(13) 169.0929 169.0929
233 10.9575 174(13) 169.0220 169.0220
234 10.9615 174(13) 168.9515 168.9515
235 10.9655 174(13) 168.8810 168.8810
236 10.9696 173(13) 168.8107 168.8107
237 10.9736 173(13) 168.7406 168.7406
238 10.9776 173(13) 168.6705 168.6705
239 10.9817 173(13) 168.6006 168.6006
240 10.9857 173(13) 168.5309 168.5309
241 10.9897 172(13) 168.4614 168.4614
242 10.9938 172(13) 168.3919 168.3919
243 10.9978 172(13) 168.3226 168.3226
244 11.0018 172(13) 168.2535 168.2535
245 11.0059 172(13) 168.1845 168.1845
246 11.0099 172(13) 168.1156 168.1156
247 11.0139 172(13) 168.0469 168.0469
248 11.0179 172(13) 167.9784 167.9784
249 11.0220 172(13) 167.9100 167.9100
250 11.0260 172(13) 167.8417 167.8417
251 11.0300 172(13) 167.7736 167.7736
252 11.0341 172(13) 167.7057 167.7057
253 11.0381 172(13) 167.6378 167.6378
254 11.0421 172(13) 167.5701 167.5701
255 11.0462 172(13) 167.5025 167.5025
256 11.0502 172(13) 167.4352 167.4352
257 11.0542 172(13) 167.3679 167.3679
258 11.0583 172(13) 167.3008 167.3008
259 11.0623 172(13) 167.2339 167.2339
260 11.0663 172(13) 167.1671 167.1671
261 11.0704 172(13) 167.1003 167.1003
262 11.0744 172(13) 167.0338 167.0338
263 11.0784 172(13) 166.9674 166.9674
264 11.0824 172(13) 166.9011 166.9011
265 11.0865 172(13) 166.8351 166.8351
266 11.0905 172(13) 166.7691 166.7691
267 11.0945 172(13) 166.7033 166.7033
268 11.0986 172(13) 166.6376 166.6376
269 11.1026 172(13) 166.5721 166.5721
270 11.1066 172(13) 166.5067 166.5067
271 11.1107 172(13) 166.4414 166.4414
272 11.1147 171(13) 166.3763 166.3763
273 11.1187 171(13) 166.3113 166.3113
274 11.1228 171(13) 166.2466 166.2466
275 11.1268 171(13) 166.1819 166.1819
276 11.1308 171(13) 166.1173 166.1173
277 11.1348 171(13) 166.0528 166.0528
278 11.1389 170(13) 165.9886 165.9886
279 11.1429 170(13) 165.9245 165.9245
280 11.1469 170(13) 165.8605 165.8605
281 11.1510 170(13) 165.7967 165.7967
282 11.1550 169(13) 165.7330 165.7330
283 11.1590 169(13) 165.6694 165.6694
284 11.1631 169(13) 165.6060 165.6060
285 11.1671 169(13) 165.5427 165.5427
286 11.1711 168(13) 165.4795 165.4795
287 11.1752 168(13) 165.4165 165.4165
288 11.1792 168(13) 165.3537 165.3537
289 11.1832 168(13) 165.2909 165.2909
290 11.1872 168(13) 165.2284 165.2284
291 11.1913 167(13) 165.1659 165.1659
292 11.1953 167(13) 165.1035 165.1035
293 11.1993 167(13) 165.0414 165.0414
294 11.2034 167(13) 164.9794 164.9794
295 11.2074 166(13) 164.9175 164.9175
296 11.2114 166(13) 164.8556 164.8556
297 11.2155 166(13) 164.7940 164.7940
298 11.2195 166(13) 164.7326 164.7326
299 11.2235 165(13) 164.6711 164.6711
300 11.2276 165(13) 164.6099 164.6099
301 11.2316 165(13) 164.5488 164.5488
302 11.2356 165(13) 164.4879 164.4879
303 11.2397 164(13) 164.4270 164.4270
304 11.2437 164(13) 164.3665 164.3665
305 11.2477 164(13) 164.3059 164.3059
306 11.2517 164(13) 164.2454 164.2454
307 11.2558 163(13) 164.1852 164.1852
308 11.2598 163(13) 164.1251 164.1251
309 11.2638 163(13) 164.0651 164.0651
310 11.2679 162(13) 164.0052 164.0052
311 11.2719 162(13) 163.9454 163.9454
312 11.2759 162(13) 163.8858 163.8858
313 11.2800 161(13) 163.8264 163.8264
314 11.2840 161(13) 163.7671 163.7671
315 11.2880 161(13) 163.7078 163.7078
316 11.2921 160(13) 163.6488 163.6488
317 11.2961 160(13) 163.5899 163.5899
318 11.3001 160(13) 163.5311 163.5311
319 11.3041 159(13) 163.4724 163.4724
320 11.3082 159(13) 163.4138 163.4138
321 11.3122 159(13) 163.3555 163.3555
322 11.3162 159(13) 163.2972 163.2972
323 11.3203 158(13) 163.2390 163.2390
324 11.3243 158(13) 163.1810 163.1810
325 11.3283 158(13) 163.1232 163.1232
326 11.3324 157(13) 163.0655 163.0655
327 11.3364 157(13) 163.0078 163.0078
328 11.3404 157(13) 162.9504 162.9504
329 11.3445 157(13) 162.8930 162.8930
330 11.3485 156(12) 162.8358 162.8358
331 11.3525 156(12) 162.7788 162.7788
332 11.3566 156(12) 162.7218 162.7218
333 11.3606 156(12) 162.6650 162.6650
334 11.3646 155(12) 162.6083 162.6083
335 11.3686 155(12) 162.5518 162.5518
336 11.3727 155(12) 162.4953 162.4953
337 11.3767 155(12) 162.4390 162.4390
338 11.3807 155(12) 162.3829 162.3829
339 11.3848 155(12) 162.3268 162.3268
340 11.3888 154(12) 162.2709 162.2709
341 11.3928 154(12) 162.2151 162.2151
342 11.3969 154(12) 162.1595 162.1595
343 11.4009 154(12) 162.1039 162.1039
344 11.4049 154(12) 162.0485 162.0485
345 11.4090 154(12) 161.9933 161.9933
346 11.4130 154(12) 161.9382 161.9382
347 11.4170 154(12) 161.8831 161.8831
348 11.4210 154(12) 161.8282 161.8282
349 11.4251 154(12) 161.7735 161.7735
350 11.4291 154(12) 161.7188 161.7188
351 11.4331 154(12) 161.6643 161.6643
352 11.4372 154(12) 161.6100 161.6100
353 11.4412 154(12) 161.5557 161.5557
354 11.4452 154(12) 161.5016 161.5016
355 11.4493 154(12) 161.4476 161.4476
356 11.4533 154(12) 161.3937 161.3937
357 11.4573 154(12) 161.3400 161.3400
358 11.4614 154(12) 161.2863 161.2863
359 11.4654 153(12) 161.2329 161.2329
360 11.4694 153(12) 161.1796 161.1796
361 11.4735 153(12) 161.1263 161.1263
362 11.4775 153(12) 161.0732 161.0732
363 11.4815 153(12) 161.0203 161.0203
364 11.4855 153(12) 160.9674 160.9674
365 11.4896 153(12) 160.9147 160.9147
366 11.4936 153(12) 160.8620 160.8620
367 11.4976 153(12) 160.8096 160.8096
368 11.5017 152(12) 160.7572 160.7572
369 11.5057 152(12) 160.7050 160.7050
370 11.5097 152(12) 160.6528 160.6528
371 11.5138 152(12) 160.6009 160.6009
372 11.5178 152(12) 160.5490 160.5490
373 11.5218 152(12) 160.4973 160.4973
374 11.5259 152(12) 160.4457 160.4457
375 11.5299 152(12) 160.3942 160.3942
376 11.5339 152(12) 160.3428 160.3428
377 11.5379 152(12) 160.2916 160.2916
378 11.5420 152(12) 160.2404 160.2404
379 11.5460 152(12) 160.1895 160.1895
380 11.5500 152(12) 160.1385 160.1385
381 11.5541 152(12) 160.0879 160.0879
382 11.5581 152(12) 160.0372 160.0372
383 11.5621 152(12) 159.9867 159.9867
384 11.5662 152(12) 159.9363 159.9363
385 11.5702 152(12) 159.8860 159.8860
386 11.5742 152(12) 159.8358 159.8358
387 11.5783 152(12) 159.7859 159.7859
388 11.5823 152(12) 159.7360 159.7360
389 11.5863 152(12) 159.6862 159.6862
390 11.5903 152(12) 159.6366 159.6366
391 11.5944 152(12) 159.5870 159.5870
392 11.5984 152(12) 159.5376 159.5376
393 11.6024 152(12) 159.4883 159.4883
394 11.6065 152(12) 159.4391 159.4391
395 11.6105 152(12) 159.3901 159.3901
396 11.6145 152(12) 159.3412 159.3412
397 11.6186 152(12) 159.2924 159.2924
398 11.6226 152(12) 159.2436 159.2436
399 11.6266 152(12) 159.1950 159.1950
400 11.6307 152(12) 159.1466 159.1466
401 11.6347 152(12) 159.0983 159.0983
402 11.6387 151(12) 159.0500 159.0500
403 11.6428 151(12) 159.0019 159.0019
404 11.6468 151(12) 158.9539 158.9539
405 11.6508 151(12) 158.9061 158.9061
406 11.6548 151(12) 158.8584 158.8584
407 11.6589 151(12) 158.8108 158.8108
408 11.6629 151(12) 158.7632 158.7632
409 11.6669 151(12) 158.7159 158.7159
410 11.6710 151(12) 158.6686 158.6686
411 11.6750 150(12) 158.6214 158.6214
412 11.6790 150(12) 158.5744 158.5744
413 11.6831 150(12) 158.5274 158.5274
414 11.6871 150(12) 158.4807 158.4807
415 11.6911 150(12) 158.4340 158.4340
416 11.6952 150(12) 158.3874 158.3874
417 11.6992 150(12) 158.3410 158.3410
418 11.7032 150(12) 158.2947 158.2947
419 11.7072 150(12) 158.2484 158.2484
420 11.7113 150(12) 158.2023 158.2023
421 11.7153 150(12) 158.1564 158.1564
422 11.7193 150(12) 158.1105 158.1105
423 11.7234 150(12) 158.0648 158.0648
424 11.7274 150(12) 158.0191 158.0191
425 11.7314 150(12) 157.9736 157.9736
426 11.7355 150(12) 157.9282 157.9282
427 11.7395 150(12) 157.8828 157.8828
428 11.7435 150(12) 157.8377 157.8377
429 11.7476 149(12) 157.7926 157.7926
430 11.7516 149(12) 157.7477 157.7477
431 11.7556 149(12) 157.7029 157.7029
432 11.7597 149(12) 157.6581 157.6581
433 11.7637 149(12) 157.6135 157.6135
434 11.7677 149(12) 157.5690 157.5690
435 11.7717 149(12) 157.5246 157.5246
436 11.7758 149(12) 157.4804 157.4804
437 11.7798 149(12) 157.4362 157.4362
438 11.7838 149(12) 157.3922 157.3922
439 11.7879 149(12) 157.3483 157.3483
440 11.7919 149(12) 157.3045 157.3045
441 11.7959 149(12) 157.2607 157.2607
442 11.8000 148(12) 157.2172 157.2172
443 11.8040 148(12) 157.1737 157.1737
444 11.8080 148(12) 157.1304 157.1304
445 11.8121 148(12) 157.0871 157.0871
446 11.8161 148(12) 157.0439 157.0439
447 11.8201 148(12) 157.0009 157.0009
448 11.8241 148(12) 156.9580 156.9580
449 11.8282 148(12) 156.9152 156.9152
450 11.8322 148(12) 156.8725 156.8725
451 11.8362 148(12) 156.8300 156.8300
452 11.8403 148(12) 156.7875 156.7875
453 11.8443 148(12) 156.7452 156.7452
454 11.8483 147(12) 156.7029 156.7029
455 11.8524 147(12) 156.6608 156.6608
456 11.8564 147(12) 156.6187 156.6187
457 11.8604 147(12) 156.5768 156.5768
458 11.8645 147(12) 156.5350 156.5350
459 11.8685 147(12) 156.4933 156.4933
460 11.8725 147(12) 156.4517 156.4517
461 11.8766 147(12) 156.4102 156.4102
462 11.8806 147(12) 156.3689 156.3689
463 11.8846 147(12) 156.3277 156.3277
464 11.8886 147(12) 156.2865 156.2865
465 11.8927 146(12) 156.2454 156.2454
466 11.8967 146(12) 156.2045 156.2045
467 11.9007 146(12) 156.1637 156.1637
468 11.9048 146(12) 156.1230 156.1230
469 11.9088 146(12) 156.0824 156.0824
470 11.9128 146(12) 156.0419 156.0419
471 11.9169 146(12) 156.0015 156.0015
472 11.9209 146(12) 155.9612 155.9612
473 11.9249 146(12) 155.9211 155.9211
474 11.9290 146(12) 155.8810 155.8810
475 11.9330 146(12) 155.8411 155.8411
476 11.9370 146(12) 155.8012 155.8012
477 11.9410 146(12) 155.7614 155.7614
478 11.9451 146(12) 155.7219 155.7219
479 11.9491 146(12) 155.6823 155.6823
480 11.9531 146(12) 155.6429 155.6429
481 11.9572 146(12) 155.6036 155.6036
482 11.9612 146(12) 155.5644 155.5644
483 11.9652 146(12) 155.5362 155.5253
484 11.9693 146(12) 155.4973 155.4863
485 11.9733 146(12) 155.4583 155.4473
486 11.9773 146(12) 155.4196 155.4086
487 11.9814 146(12) 155.3809 155.3699
488 11.9854 146(12) 155.3424 155.3314
489 11.9894 146(12) 155.3040 155.2929
490 11.9934 146(12) 155.2657 155.2546
491 11.9975 146(12) 155.2275 155.2163
492 12.0015 146(12) 155.1893 155.1781
493 12.0055 146(12) 155.1567 155.1401
494 12.0096 146(12) 155.1188 155.1022
495 12.0136 146(12) 155.0811 155.0644
496 12.0176 146(12) 155.0434 155.0266
497 12.0217 146(12) 155.0058 154.9890
498 12.0257 146(12) 154.9683 154.9514
499 12.0297 146(12) 154.9309 154.9141
500 12.0338 146(12) 154.8936 154.8768
501 12.0378 146(12) 154.8565 154.8395
502 12.0418 146(12) 154.8194 154.8024
503 12.0459 146(12) 154.7825 154.7655
504 12.0499 146(12) 154.7455 154.7285
505 12.0539 145(12) 154.7088 154.6917
506 12.0579 145(12) 154.6722 154.6551
507 12.0620 145(12) 154.6356 154.6184
508 12.0660 146(12) 154.5992 154.5820
509 12.0700 146(12) 154.5629 154.5456
510 12.0741 146(12) 154.5266 154.5093
511 12.0781 146(12) 154.4904 154.4731
512 12.0821 146(12) 154.4544 154.4371
513 12.0862 146(12) 154.4185 154.4011
514 12.0902 146(12) 154.3826 154.3652
515 12.0942 146(12) 154.3469 154.3295
516 12.0983 146(12) 154.3112 154.2937
517 12.1023 146(12) 154.2758 154.2582
518 12.1063 146(12) 154.2403 154.2227
519 12.1103 146(12) 154.2050 154.1874
520 12.1144 146(12) 154.1698 154.1521
521 12.1184 147(12) 154.1346 154.1169
522 12.1224 147(12) 154.0997 154.0819
523 12.1265 147(12) 154.0647 154.0470
524 12.1305 147(12) 154.0299 154.0120
525 12.1345 147(12) 153.9951 153.9773
526 12.1386 147(12) 153.9605 153.9426
527 12.1426 147(12) 153.9260 153.9081
528 12.1466 147(12) 153.8916 153.8736
529 12.1507 147(12) 153.8573 153.8392
530 12.1547 147(12) 153.8231 153.8050
531 12.1587 147(12) 153.7890 153.7708
532 12.1628 147(12) 153.7550 153.7368
533 12.1668 147(12) 153.7210 153.7028
534 12.1708 147(12) 153.6872 153.6689
535 12.1748 147(12) 153.6535 153.6352
536 12.1789 147(12) 153.6199 153.6015
537 12.1829 147(12) 153.5863 153.5679
538 12.1869 147(12) 153.5529 153.5345
539 12.1910 146(12) 153.5196 153.5011
540 12.1950 146(12) 153.4863 153.4678
541 12.1990 146(12) 153.4532 153.4346
542 12.2031 146(12) 153.4202 153.4016
543 12.2071 146(12) 153.3872 153.3686
544 12.2111 146(12) 153.3544 153.3357
545 12.2152 146(12) 153.3216 153.3029
546 12.2192 146(12) 153.2890 153.2702
547 12.2232 145(12) 153.2565 153.2377
548 12.2272 145(12) 153.2240 153.2051
549 12.2313 145(12) 153.1916 153.1727
550 12.2353 145(12) 153.1594 153.1404
551 12.2393 145(12) 153.1272 153.1082
552 12.2434 145(12) 153.0952 153.0761
553 12.2474 145(12) 153.0632 153.0441
554 12.2514 145(12) 153.0313 153.0122
555 12.2555 145(12) 152.9996 152.9804
556 12.2595 145(12) 152.9679 152.9486
557 12.2635 144(12) 152.9363 152.9170
558 12.2676 144(12) 152.9048 152.8855
559 12.2716 144(12) 152.8734 152.8540
560 12.2756 144(12) 152.8421 152.8227
561 12.2797 144(12) 152.8109 152.7915
562 12.2837 144(12) 152.7798 152.7603
563 12.2877 144(12) 152.7488 152.7292
564 12.2917 144(12) 152.7178 152.6982
565 12.2958 144(12) 152.6870 152.6674
566 12.2998 144(12) 152.6564 152.6367
567 12.3038 144(12) 152.6257 152.6060
568 12.3079 144(12) 152.5951 152.5753
569 12.3119 144(12) 152.5647 152.5449
570 12.3159 144(12) 152.5344 152.5145
571 12.3200 144(12) 152.5041 152.4842
572 12.3240 144(12) 152.4740 152.4540
573 12.3280 144(12) 152.4439 152.4239
574 12.3321 144(12) 152.4140 152.3939
575 12.3361 144(12) 152.3840 152.3639
576 12.3401 145(12) 152.3542 152.3341
577 12.3441 145(12) 152.3246 152.3043
578 12.3482 145(12) 152.2950 152.2747
579 12.3522 145(12) 152.2654 152.2451
580 12.3562 145(12) 152.2360 152.2156
581 12.3603 145(12) 152.2067 152.1862
582 12.3643 145(12) 152.1775 152.1570
583 12.3683 145(12) 152.1483 152.1278
584 12.3724 145(12) 152.1193 152.0987
585 12.3764 145(12) 152.0903 152.0697
586 12.3804 146(12) 152.0615 152.0408
587 12.3845 146(12) 152.0327 152.0119
588 12.3885 146(12) 152.0040 151.9832
589 12.3925 146(12) 151.9754 151.9546
590 12.3965 146(12) 151.9469 151.9260
591 12.4006 146(12) 151.9185 151.8976
592 12.4046 146(12) 151.8902 151.8692
593 12.4086 146(12) 151.8620 151.8409
594 12.4127 146(12) 151.8339 151.8128
595 12.4167 146(12) 151.8058 151.7847
596 12.4207 146(12) 151.7779 151.7567
597 12.4248 146(12) 151.7500 151.7287
598 12.4288 146(12) 151.7223 151.7009
599 12.4328 146(12) 151.6946 151.6732
600 12.4369 146(12) 151.6670 151.6456
601 12.4409 146(12) 151.6395 151.6180
602 12.4449 146(12) 151.6121 151.5905
603 12.4490 146(12) 151.5848 151.5632
604 12.4530 146(12) 151.5575 151.5359
605 12.4570 146(12) 151.5304 151.5087
606 12.4610 146(12) 151.5034 151.4816
607 12.4651 146(12) 151.4764 151.4546
608 12.4691 146(12) 151.4495 151.4276
609 12.4731 146(12) 151.4227 151.4008
610 12.4772 146(12) 151.3960 151.3740
611 12.4812 146(12) 151.3694 151.3474
612 12.4852 146(12) 151.3429 151.3208
613 12.4893 146(12) 151.3165 151.2944
614 12.4933 146(12) 151.2901 151.2679
615 12.4973 146(12) 151.2639 151.2416
616 12.5014 146(12) 151.2377 151.2154
617 12.5054 146(12) 151.2116 151.1892
618 12.5094 146(12) 151.1856 151.1632
619 12.5134 146(12) 151.1597 151.1372
620 12.5175 146(12) 151.1339 151.1114
621 12.5215 147(12) 151.1082 151.0855
622 12.5255 147(12) 151.0826 151.0599
623 12.5296 147(12) 151.0570 151.0342
624 12.5336 147(12) 151.0315 151.0087
625 12.5376 147(12) 151.0061 150.9833
626 12.5417 147(12) 150.9809 150.9579
627 12.5457 147(12) 150.9556 150.9326
628 12.5497 147(12) 150.9305 150.9075
629 12.5538 147(12) 150.9055 150.8824
630 12.5578 147(12) 150.8805 150.8574
631 12.5618 147(12) 150.8557 150.8325
632 12.5659 147(12) 150.8309 150.8076
633 12.5699 147(12) 150.8062 150.7829
634 12.5739 147(12) 150.7816 150.7582
635 12.5779 146(12) 150.7571 150.7336
636 12.5820 146(12) 150.7326 150.7091
637 12.5860 146(12) 150.7083 150.6847
638 12.5900 146(12) 150.6841 150.6604
639 12.5941 146(12) 150.6599 150.6361
640 12.5981 146(12) 150.6357 150.6119
641 12.6021 145(12) 150.6118 150.5879
642 12.6062 145(12) 150.5878 150.5639
643 12.6102 145(12) 150.5640 150.5400
644 12.6142 145(12) 150.5402 150.5162
645 12.6183 145(12) 150.5165 150.4924
646 12.6223 144(12) 150.4930 150.4688
647 12.6263 144(12) 150.4694 150.4452
648 12.6303 144(12) 150.4460 150.4217
649 12.6344 144(12) 150.4227 150.3983
650 12.6384 144(12) 150.3995 150.3750
651 12.6424 144(12) 150.3763 150.3518
652 12.6465 144(12) 150.3532 150.3286
653 12.6505 144(12) 150.3302 150.3055
654 12.6545 144(12) 150.3073 150.2826
655 12.6586 144(12) 150.2844 150.2597
656 12.6626 144(12) 150.2617 150.2368
657 12.6666 144(12) 150.2390 150.2141
658 12.6707 144(12) 150.2164 150.1914
659 12.6747 144(12) 150.1939 150.1689
660 12.6787 144(12) 150.1715 150.1464
661 12.6828 144(12) 150.1492 150.1240
662 12.6868 144(12) 150.1269 150.1016
663 12.6908 144(12) 150.1047 150.0794
664 12.6948 144(12) 150.0826 150.0572
665 12.6989 144(12) 150.0605 150.0351
666 12.7029 144(12) 150.0386 150.0131
667 12.7069 144(12) 150.0168 149.9912
668 12.7110 144(12) 149.9950 149.9693
669 12.7150 145(12) 149.9733 149.9476
670 12.7190 145(12) 149.9518 149.9259
671 12.7231 145(12) 149.9302 149.9043
672 12.7271 145(12) 149.9088 149.8828
673 12.7311 145(12) 149.8874 149.8614
674 12.7352 145(12) 149.8661 149.8400
675 12.7392 145(12) 149.8449 149.8188
676 12.7432 145(12) 149.8238 149.7975
677 12.7472 145(12) 149.8028 149.7765
678 12.7513 144(12) 149.7817 149.7553
679 12.7553 144(12) 149.7609 149.7344
680 12.7593 144(12) 149.7401 149.7136
681 12.7634 144(12) 149.7194 149.6928
682 12.7674 144(12) 149.6987 149.6721
683 12.7714 144(12) 149.6782 149.6514
684 12.7755 144(12) 149.6577 149.6308
685 12.7795 144(12) 149.6373 149.6104
686 12.7835 143(12) 149.6169 149.5899
687 12.7876 143(12) 149.5967 149.5696
688 12.7916 143(12) 149.5765 149.5494
689 12.7956 143(12) 149.5564 149.5292
690 12.7996 143(12) 149.5364 149.5091
691 12.8037 143(12) 149.5165 149.4891
692 12.8077 143(12) 149.4966 149.4691
693 12.8117 143(12) 149.4769 149.4493
694 12.8158 143(12) 149.4572 149.4295
695 12.8198 143(12) 149.4375 149.4098
696 12.8238 143(12) 149.4180 149.3902
697 12.8279 143(12) 149.3985 149.3707
698 12.8319 143(12) 149.3791 149.3512
699 12.8359 143(12) 149.3598 149.3318
700 12.8400 143(12) 149.3406 149.3125
701 12.8440 143(12) 149.3214 149.2932
702 12.8480 143(12) 149.3024 149.2741
703 12.8521 143(12) 149.2834 149.2550
704 12.8561 143(12) 149.2644 149.2360
705 12.8601 143(12) 149.2456 149.2171
706 12.8641 143(12) 149.2268 149.1982
707 12.8682 143(12) 149.2081 149.1795
708 12.8722 143(12) 149.1895 149.1608
709 12.8762 143(12) 149.1710 149.1421
710 12.8803 144(12) 149.1525 149.1236
711 12.8843 144(12) 149.1341 149.1051
712 12.8883 144(12) 149.1158 149.0867
713 12.8924 144(12) 149.0975 149.0684
714 12.8964 144(12) 149.0794 149.0501
715 12.9004 144(12) 149.0613 149.0320
716 12.9045 144(12) 149.0433 149.0139
717 12.9085 144(12) 149.0253 148.9958
718 12.9125 144(12) 149.0075 148.9779
719 12.9165 144(12) 148.9897 148.9600
720 12.9206 143(12) 148.9720 148.9422
721 12.9246 143(12) 148.9544 148.9245
722 12.9286 143(12) 148.9369 148.9069
723 12.9327 143(12) 148.9194 148.8893
724 12.9367 143(12) 148.9019 148.8718
725 12.9407 143(12) 148.8846 148.8543
726 12.9448 143(12) 148.8674 148.8370
727 12.9488 143(12) 148.8502 148.8197
728 12.9528 143(12) 148.8331 148.8025
729 12.9569 143(12) 148.8160 148.7854
730 12.9609 143(12) 148.7991 148.7684
731 12.9649 143(12) 148.7821 148.7513
732 12.9690 143(12) 148.7654 148.7345
733 12.9730 143(12) 148.7486 148.7176
734 12.9770 143(12) 148.7320 148.7009
735 12.9810 143(12) 148.7154 148.6842
736 12.9851 143(12) 148.6988 148.6675
737 12.9891 143(12) 148.6824 148.6510
738 12.9931 143(12) 148.6660 148.6345
739 12.9972 143(12) 148.6497 148.6181
740 13.0012 143(12) 148.6335 148.6018
741 13.0052 144(12) 148.6173 148.5855
742 13.0093 144(12) 148.6013 148.5694
743 13.0133 144(12) 148.5852 148.5533
744 13.0173 144(12) 148.5693 148.5372
745 13.0214 144(12) 148.5534 148.5212
746 13.0254 144(12) 148.5376 148.5053
747 13.0294 144(12) 148.5219 148.4895
748 13.0334 144(12) 148.5062 148.4738
749 13.0375 144(12) 148.4907 148.4581
750 13.0415 144(12) 148.4751 148.4425
751 13.0455 144(12) 148.4597 148.4270
752 13.0496 144(12) 148.4444 148.4115
753 13.0536 144(12) 148.4291 148.3961
754 13.0576 144(12) 148.4138 148.3808
755 13.0617 144(12) 148.3987 148.3655
756 13.0657 144(12) 148.3836 148.3503
757 13.0697 144(12) 148.3686 148.3352
758 13.0738 144(12) 148.3537 148.3202
759 13.0778 144(12) 148.3388 148.3052
760 13.0818 144(12) 148.3240 148.2903
761 13.0859 144(12) 148.3093 148.2755
762 13.0899 144(12) 148.2946 148.2607
763 13.0939 144(12) 148.2800 148.2460
764 13.0979 144(12) 148.2655 148.2314
765 13.1020 144(12) 148.2511 148.2168
766 13.1060 144(12) 148.2367 148.2023
767 13.1100 144(12) 148.2224 148.1879
768 13.1141 143(12) 148.2082 148.1736
769 13.1181 143(12) 148.1940 148.1592
770 13.1221 143(12) 148.1799 148.1451
771 13.1262 143(12) 148.1658 148.1309
772 13.1302 143(12) 148.1519 148.1169
773 13.1342 143(12) 148.1380 148.1029
774 13.1383 143(12) 148.1242 148.0889
775 13.1423 143(12) 148.1105 148.0751
776 13.1463 143(12) 148.0967 148.0612
777 13.1503 143(12) 148.0831 148.0475
778 13.1544 143(12) 148.0696 148.0339
779 13.1584 143(12) 148.0561 148.0203
780 13.1624 143(12) 148.0427 148.0068
781 13.1665 143(12) 148.0293 147.9932
782 13.1705 143(12) 148.0161 147.9799
783 13.1745 143(12) 148.0029 147.9665
784 13.1786 143(12) 147.9898 147.9533
785 13.1826 143(12) 147.9767 147.9401
786 13.1866 143(12) 147.9637 147.9270
787 13.1907 143(12) 147.9508 147.9140
788 13.1947 143(12) 147.9379 147.9009
789 13.1987 143(12) 147.9251 147.8880
790 13.2027 143(12) 147.9124 147.8752
791 13.2068 144(12) 147.8997 147.8624
792 13.2108 144(12) 147.8871 147.8497
793 13.2148 144(12) 147.8746 147.8370
794 13.2189 144(12) 147.8621 147.8244
795 13.2229 144(12) 147.8497 147.8119
796 13.2269 144(12) 147.8374 147.7994
797 13.2310 145(12) 147.8251 147.7870
798 13.2350 145(12) 147.8129 147.7747
799 13.2390 145(12) 147.8008 147.7625
800 13.2431 145(12) 147.7887 147.7503
801 13.2471 145(12) 147.7767 147.7381
802 13.2511 145(12) 147.7648 147.7260
803 13.2552 145(12) 147.7529 147.7141
804 13.2592 146(12) 147.7411 147.7022
805 13.2632 146(12) 147.7294 147.6903
806 13.2672 146(12) 147.7177 147.6785
807 13.2713 146(12) 147.7062 147.6668
808 13.2753 146(12) 147.6946 147.6551
809 13.2793 146(12) 147.6831 147.6435
810 13.2834 146(12) 147.6718 147.6320
811 13.2874 146(12) 147.6604 147.6204
812 13.2914 146(12) 147.6491 147.6091
813 13.2955 146(12) 147.6379 147.5977
814 13.2995 146(12) 147.6267 147.5863
815 13.3035 146(12) 147.6157 147.5752
816 13.3076 146(12) 147.6047 147.5640
817 13.3116 146(12) 147.5937 147.5529
818 13.3156 146(12) 147.5828 147.5419
819 13.3196 146(12) 147.5720 147.5309
820 13.3237 146(12) 147.5612 147.5200
821 13.3277 146(12) 147.5505 147.5092
822 13.3317 146(12) 147.5399 147.4984
823 13.3358 146(12) 147.5293 147.4877
824 13.3398 146(12) 147.5189 147.4771
825 13.3438 146(12) 147.5084 147.4665
826 13.3479 146(12) 147.4980 147.4559
827 13.3519 146(12) 147.4878 147.4455
828 13.3559 146(12) 147.4774 147.4350
829 13.3600 146(12) 147.4673 147.4247
830 13.3640 146(12) 147.4571 147.4144
831 13.3680 146(12) 147.4471 147.4042
832 13.3721 146(12) 147.4371 147.3941
833 13.3761 146(12) 147.4271 147.3839
834 13.3801 146(12) 147.4173 147.3740
835 13.3841 146(12) 147.4075 147.3640
836 13.3882 146(12) 147.3977 147.3541
837 13.3922 145(12) 147.3880 147.3442
838 13.3962 145(12) 147.3784 147.3345
839 13.4003 145(12) 147.3689 147.3248
840 13.4043 145(12) 147.3594 147.3151
841 13.4083 145(12) 147.3499 147.3055
842 13.4124 145(12) 147.3405 147.2960
843 13.4164 145(12) 147.3312 147.2865
844 13.4204 145(12) 147.3219 147.2770
845 13.4245 145(12) 147.3128 147.2678
846 13.4285 145(12) 147.3037 147.2585
847 13.4325 145(12) 147.2946 147.2492
848 13.4365 145(12) 147.2856 147.2401
849 13.4406 145(12) 147.2767 147.2309
850 13.4446 145(12) 147.2678 147.2219
851 13.4486 145(12) 147.2590 147.2129
852 13.4527 145(12) 147.2502 147.2039
853 13.4567 145(12) 147.2415 147.1951
854 13.4607 145(12) 147.2329 147.1863
855 13.4648 145(12) 147.2243 147.1775
856 13.4688 145(12) 147.2157 147.1688
857 13.4728 145(12) 147.2073 147.1602
858 13.4769 145(12) 147.1989 147.1516
859 13.4809 145(12) 147.1906 147.1431
860 13.4849 145(12) 147.1823 147.1346
861 13.4890 145(12) 147.1741 147.1263
862 13.4930 146(12) 147.1660 147.1179
863 13.4970 146(12) 147.1579 147.1097
864 13.5010 146(12) 147.1499 147.1015
865 13.5051 146(12) 147.1419 147.0933
866 13.5091 146(12) 147.1340 147.0852
867 13.5131 146(12) 147.1261 147.0771
868 13.5172 146(12) 147.1183 147.0692
869 13.5212 147(12) 147.1106 147.0613
870 13.5252 147(12) 147.1029 147.0534
871 13.5293 147(12) 147.0953 147.0456
872 13.5333 147(12) 147.0877 147.0378
873 13.5373 147(12) 147.0803 147.0302
874 13.5414 147(12) 147.0728 147.0225
875 13.5454 148(12) 147.0654 147.0149
876 13.5494 148(12) 147.0581 147.0074
877 13.5534 148(12) 147.0509 147.0000
878 13.5575 148(12) 147.0437 146.9926
879 13.5615 148(12) 147.0365 146.9852
880 13.5655 148(12) 147.0294 146.9779
881 13.5696 148(12) 147.0224 146.9707
882 13.5736 148(12) 147.0154 146.9635
883 13.5776 148(12) 147.0085 146.9564
884 13.5817 148(12) 147.0016 146.9493
885 13.5857 148(12) 146.9948 146.9423
886 13.5897 148(12) 146.9882 146.9354
887 13.5938 148(12) 146.9814 146.9285
888 13.5978 148(12) 146.9748 146.9217
889 13.6018 148(12) 146.9682 146.9149
890 13.6058 148(12) 146.9617 146.9082
891 13.6099 148(12) 146.9553 146.9015
892 13.6139 148(12) 146.9489 146.8949
893 13.6179 148(12) 146.9426 146.8884
894 13.6220 148(12) 146.9363 146.8818
895 13.6260 147(12) 146.9301 146.8754
896 13.6300 147(12) 146.9239 146.8690
897 13.6341 147(12) 146.9178 146.8627
898 13.6381 147(12) 146.9117 146.8564
899 13.6421 147(12) 146.9057 146.8502
900 13.6462 147(12) 146.8998 146.8440
901 13.6502 147(12) 146.8939 146.8379
902 13.6542 147(12) 146.8881 146.8319
903 13.6583 147(12) 146.8824 146.8259
904 13.6623 147(12) 146.8766 146.8199
905 13.6663 147(12) 146.8710 146.8141
906 13.6703 147(12) 146.8654 146.8082
907 13.6744 147(12) 146.8598 146.8024
908 13.6784 147(12) 146.8543 146.7967
909 13.6824 147(12) 146.8489 146.7910
910 13.6865 147(12) 146.8436 146.7854
911 13.6905 147(12) 146.8382 146.7798
912 13.6945 147(12) 146.8329 146.7743
913 13.6986 147(12) 146.8277 146.7689
914 13.7026 147(12) 146.8226 146.7635
915 13.7066 147(12) 146.8175 146.7582
916 13.7107 147(12) 146.8125 146.7528
917 13.7147 147(12) 146.8075 146.7476
918 13.7187 147(12) 146.8026 146.7424
919 13.7227 147(12) 146.7976 146.7372
920 13.7268 147(12) 146.7928 146.7322
921 13.7308 147(12) 146.7881 146.7272
922 13.7348 147(12) 146.7834 146.7222
923 13.7389 147(12) 146.7787 146.7173
924 13.7429 148(12) 146.7741 146.7124
925 13.7469 148(12) 146.7695 146.7076
926 13.7510 148(12) 146.7650 146.7028
927 13.7550 148(12) 146.7606 146.6981
928 13.7590 148(12) 146.7562 146.6935
929 13.7631 148(12) 146.7519 146.6889
930 13.7671 148(12) 146.7477 146.6844
931 13.7711 148(12) 146.7433 146.6798
932 13.7752 148(12) 146.7392 146.6754
933 13.7792 148(12) 146.7351 146.6710
934 13.7832 148(12) 146.7310 146.6666
935 13.7872 148(12) 146.7271 146.6624
936 13.7913 148(12) 146.7231 146.6581
937 13.7953 148(12) 146.7192 146.6539
938 13.7993 148(12) 146.7153 146.6498
939 13.8034 148(12) 146.7116 146.6457
940 13.8074 148(12) 146.7078 146.6417
941 13.8114 148(12) 146.7041 146.6377
942 13.8155 148(12) 146.7005 146.6338
943 13.8195 148(12) 146.6969 146.6299
944 13.8235 148(12) 146.6934 146.6260
945 13.8276 148(12) 146.6900 146.6223
946 13.8316 147(12) 146.6865 146.6186
947 13.8356 147(12) 146.6832 146.6149
948 13.8396 147(12) 146.6798 146.6112
949 13.8437 147(12) 146.6765 146.6077
950 13.8477 147(12) 146.6733 146.6041
951 13.8517 147(12) 146.6702 146.6006
952 13.8558 147(12) 146.6671 146.5972
953 13.8598 147(12) 146.6640 146.5939
954 13.8638 147(12) 146.6610 146.5906
955 13.8679 147(12) 146.6581 146.5873
956 13.8719 147(12) 146.6552 146.5841
957 13.8759 147(12) 146.6523 146.5809
958 13.8800 147(12) 146.6495 146.5777
959 13.8840 148(12) 146.6468 146.5747
960 13.8880 148(12) 146.6441 146.5717
961 13.8921 148(12) 146.6415 146.5687
962 13.8961 148(12) 146.6389 146.5658
963 13.9001 148(12) 146.6364 146.5629
964 13.9041 148(12) 146.6339 146.5601
965 13.9082 148(12) 146.6315 146.5573
966 13.9122 148(12) 146.6291 146.5546
967 13.9162 148(12) 146.6268 146.5519
968 13.9203 148(12) 146.6245 146.5492
969 13.9243 148(12) 146.6222 146.5467
970 13.9283 148(12) 146.6201 146.5442
971 13.9324 149(12) 146.6179 146.5416
972 13.9364 149(12) 146.6159 146.5392
973 13.9404 149(12) 146.6138 146.5368
974 13.9445 149(12) 146.6118 146.5344
975 13.9485 149(12) 146.6100 146.5322
976 13.9525 149(12) 146.6081 146.5300
977 13.9565 149(12) 146.6063 146.5278
978 13.9606 149(12) 146.6045 146.5256
979 13.9646 149(12) 146.6028 146.5235
980 13.9686 149(12) 146.6012 146.5215
981 13.9727 149(12) 146.5995 146.5195
982 13.9767 149(12) 146.5980 146.5175
983 13.9807 149(12) 146.5965 146.5156
984 13.9848 149(12) 146.5950 146.5137
985 13.9888 149(12) 146.5936 146.5119
986 13.9928 149(12) 146.5923 146.5102
987 13.9969 149(12) 146.5909 146.5084
988 14.0009 149(12) 146.5897 146.5068
989 14.0049 149(12) 146.5885 146.5052
990 14.0089 149(12) 146.5873 146.5036
991 14.0130 149(12) 146.5862 146.5020
992 14.0170 149(12) 146.5851 146.5005
993 14.0210 149(12) 146.5841 146.4991
994 14.0251 149(12) 146.5832 146.4977
995 14.0291 149(12) 146.5822 146.4964
996 14.0331 149(12) 146.5814 146.4951
997 14.0372 149(12) 146.5806 146.4938
998 14.0412 149(12) 146.5798 146.4926
999 14.0452 149(12) 146.5791 146.4915
1000 14.0493 149(12) 146.5784 146.4903
1001 14.0533 149(12) 146.5778 146.4893
1002 14.0573 149(12) 146.5772 146.4882
1003 14.0614 149(12) 146.5767 146.4872
1004 14.0654 149(12) 146.5762 146.4863
1005 14.0694 149(12) 146.5758 146.4854
1006 14.0734 149(12) 146.5755 146.4846
1007 14.0775 149(12) 146.5752 146.4838
1008 14.0815 149(12) 146.5749 146.4830
1009 14.0855 149(12) 146.5746 146.4823
1010 14.0896 149(12) 146.5745 146.4817
1011 14.0936 149(12) 146.5744 146.4811
1012 14.0976 149(12) 146.5743 146.4805
1013 14.1017 149(12) 146.5742 146.4800
1014 14.1057 149(12) 146.5743 146.4795
1015 14.1097 149(12) 146.5743 146.4790
1016 14.1138 149(12) 146.5745 146.4787
1017 14.1178 149(12) 146.5746 146.4783
1018 14.1218 149(12) 146.5748 146.4780
1019 14.1258 149(12) 146.5751 146.4778
1020 14.1299 148(12) 146.5755 146.4776
1021 14.1339 148(12) 146.5758 146.4774
1022 14.1379 148(12) 146.5762 146.4772
1023 14.1420 148(12) 146.5766 146.4772
1024 14.1460 148(12) 146.5772 146.4772
1025 14.1500 148(12) 146.5777 146.4772
1026 14.1541 147(12) 146.5783 146.4772
1027 14.1581 147(12) 146.5790 146.4773
1028 14.1621 147(12) 146.5797 146.4774
1029 14.1662 147(12) 146.5804 146.4776
1030 14.1702 147(12) 146.5812 146.4778
1031 14.1742 147(12) 146.5820 146.4781
1032 14.1783 146(12) 146.5830 146.4784
1033 14.1823 146(12) 146.5839 146.4788
1034 14.1863 146(12) 146.5849 146.4792
1035 14.1903 146(12) 146.5859 146.4796
1036 14.1944 146(12) 146.5870 146.4801
1037 14.1984 146(12) 146.5881 146.4806
1038 14.2024 145(12) 146.5893 146.4812
1039 14.2065 145(12) 146.5906 146.4818
1040 14.2105 145(12) 146.5918 146.4825
1041 14.2145 145(12) 146.5931 146.4831
1042 14.2186 145(12) 146.5945 146.4839
1043 14.2226 145(12) 146.5959 146.4846
1044 14.2266 145(12) 146.5974 146.4855
1045 14.2307 145(12) 146.5989 146.4864
1046 14.2347 145(12) 146.6005 146.4873
1047 14.2387 144(12) 146.6021 146.4882
1048 14.2427 144(12) 146.6038 146.4892
1049 14.2468 144(12) 146.6055 146.4902
1050 14.2508 144(12) 146.6072 146.4913
1051 14.2548 144(12) 146.6091 146.4924
1052 14.2589 144(12) 146.6109 146.4936
1053 14.2629 144(12) 146.6128 146.4948
1054 14.2669 144(12) 146.6147 146.4960
1055 14.2710 144(12) 146.6167 146.4973
1056 14.2750 144(12) 146.6188 146.4987
1057 14.2790 144(12) 146.6208 146.5000
1058 14.2831 144(12) 146.6230 146.5014
1059 14.2871 144(12) 146.6252 146.5028
1060 14.2911 145(12) 146.6274 146.5043
1061 14.2952 145(12) 146.6296 146.5058
1062 14.2992 145(12) 146.6320 146.5074
1063 14.3032 145(12) 146.6344 146.5090
1064 14.3072 145(12) 146.6368 146.5107
1065 14.3113 145(12) 146.6392 146.5124
1066 14.3153 145(12) 146.6418 146.5141
1067 14.3193 145(12) 146.6443 146.5159
1068 14.3234 145(12) 146.6469 146.5177
1069 14.3274 146(12) 146.6496 146.5195
1070 14.3314 146(12) 146.6523 146.5215
1071 14.3355 146(12) 146.6550 146.5233
1072 14.3395 146(12) 146.6579 146.5253
1073 14.3435 146(12) 146.6607 146.5273
1074 14.3476 146(12) 146.6636 146.5294
1075 14.3516 146(12) 146.6665 146.5315
1076 14.3556 146(12) 146.6696 146.5337
1077 14.3596 147(12) 146.6726 146.5358
1078 14.3637 147(12) 146.6757 146.5380
1079 14.3677 147(12) 146.6788 146.5402
1080 14.3717 147(12) 146.6819 146.5425
1081 14.3758 147(12) 146.6852 146.5449
1082 14.3798 147(12) 146.6885 146.5472
1083 14.3838 147(12) 146.6918 146.5497
1084 14.3879 147(12) 146.6952 146.5521
1085 14.3919 147(12) 146.6986 146.5546
1086 14.3959 147(12) 146.7021 146.5571
1087 14.4000 147(12) 146.7056 146.5596
1088 14.4040 147(12) 146.7092 146.5622
1089 14.4080 147(12) 146.7128 146.5649
1090 14.4120 147(12) 146.7165 146.5676
1091 14.4161 147(12) 146.7201 146.5703
1092 14.4201 147(12) 146.7239 146.5730
1093 14.4241 147(12) 146.7277 146.5758
1094 14.4282 147(12) 146.7316 146.5786
1095 14.4322 146(12) 146.7355 146.5815
1096 14.4362 146(12) 146.7394 146.5844
1097 14.4403 146(12) 146.7435 146.5874
1098 14.4443 146(12) 146.7475 146.5903
1099 14.4483 146(12) 146.7516 146.5933
1100 14.4524 146(12) 146.7557 146.5964
1101 14.4564 146(12) 146.7599 146.5995
1102 14.4604 146(12) 146.7642 146.6027
1103 14.4645 146(12) 146.7685 146.6058
1104 14.4685 146(12) 146.7729 146.6091
1105 14.4725 146(12) 146.7773 146.6123
1106 14.4765 146(12) 146.7817 146.6156
1107 14.4806 146(12) 146.7862 146.6189
1108 14.4846 146(12) 146.7907 146.6222
1109 14.4886 146(12) 146.7953 146.6256
1110 14.4927 146(12) 146.8000 146.6290
1111 14.4967 146(12) 146.8046 146.6325
1112 14.5007 146(12) 146.8094 146.6360
1113 14.5048 146(12) 146.8142 146.6396
1114 14.5088 146(12) 146.8190 146.6431
1115 14.5128 146(12) 146.8239 146.6468
1116 14.5169 146(12) 146.8289 146.6504
1117 14.5209 146(12) 146.8339 146.6541
1118 14.5249 146(12) 146.8389 146.6578
1119 14.5289 146(12) 146.8440 146.6615
1120 14.5330 146(12) 146.8492 146.6653
1121 14.5370 146(12) 146.8544 146.6692
1122 14.5410 146(12) 146.8596 146.6730
1123 14.5451 146(12) 146.8649 146.6770
1124 14.5491 146(12) 146.8703 146.6809
1125 14.5531 146(12) 146.8757 146.6849
1126 14.5572 147(12) 146.8811 146.6889
1127 14.5612 147(12) 146.8866 146.6929
1128 14.5652 147(12) 146.8922 146.6970
1129 14.5693 147(12) 146.8978 146.7011
1130 14.5733 147(12) 146.9035 146.7053
1131 14.5773 147(12) 146.9092 146.7094
1132 14.5814 147(12) 146.9149 146.7137
1133 14.5854 147(12) 146.9208 146.7179
1134 14.5894 147(12) 146.9267 146.7222
1135 14.5934 147(12) 146.9326 146.7266
1136 14.5975 147(12) 146.9386 146.7309
1137 14.6015 148(12) 146.9446 146.7353
1138 14.6055 148(12) 146.9507 146.7398
1139 14.6096 148(12) 146.9568 146.7442
1140 14.6136 148(12) 146.9631 146.7487
1141 14.6176 148(12) 146.9693 146.7533
1142 14.6217 148(12) 146.9757 146.7578
1143 14.6257 148(12) 146.9820 146.7625
1144 14.6297 148(12) 146.9884 146.7671
1145 14.6338 149(12) 146.9949 146.7717
1146 14.6378 149(12) 147.0015 146.7765
1147 14.6418 149(12) 147.0081 146.7812
1148 14.6458 149(12) 147.0147 146.7860
1149 14.6499 149(12) 147.0214 146.7908
1150 14.6539 149(12) 147.0282 146.7956
1151 14.6579 149(12) 147.0350 146.8005
1152 14.6620 149(12) 147.0419 146.8054
1153 14.6660 150(12) 147.0488 146.8104
1154 14.6700 150(12) 147.0559 146.8154
1155 14.6741 150(12) 147.0629 146.8204
1156 14.6781 150(12) 147.0700 146.8254
1157 14.6821 150(12) 147.0772 146.8305
1158 14.6862 150(12) 147.0844 146.8356
1159 14.6902 150(12) 147.0917 146.8407
1160 14.6942 150(12) 147.0991 146.8459
1161 14.6982 150(12) 147.1065 146.8511
1162 14.7023 150(12) 147.1140 146.8564
1163 14.7063 150(12) 147.1215 146.8616
1164 14.7103 150(12) 147.1291 146.8669
1165 14.7144 150(12) 147.1368 146.8723
1166 14.7184 150(12) 147.1445 146.8777
1167 14.7224 150(12) 147.1523 146.8831
1168 14.7265 150(12) 147.1602 146.8885
1169 14.7305 150(12) 147.1682 146.8940
1170 14.7345 150(12) 147.1762 146.8995
1171 14.7386 150(12) 147.1842 146.9051
1172 14.7426 150(12) 147.1924 146.9106
1173 14.7466 150(12) 147.2006 146.9162
1174 14.7507 150(12) 147.2088 146.9218
1175 14.7547 150(12) 147.2171 146.9275
1176 14.7587 151(12) 147.2255 146.9332
1177 14.7627 151(12) 147.2340 146.9390
1178 14.7668 151(12) 147.2426 146.9447
1179 14.7708 151(12) 147.2512 146.9505
1180 14.7748 151(12) 147.2599 146.9563
1181 14.7789 151(12) 147.2687 146.9622
1182 14.7829 151(12) 147.2775 146.9681
1183 14.7869 151(12) 147.2864 146.9740
1184 14.7910 151(12) 147.2954 146.9800
1185 14.7950 151(12) 147.3044 146.9859
1186 14.7990 151(12) 147.3135 146.9919
1187 14.8031 151(12) 147.3228 146.9980
1188 14.8071 152(12) 147.3320 147.0041
1189 14.8111 152(12) 147.3414 147.0102
1190 14.8151 152(12) 147.3509 147.0163
1191 14.8192 152(12) 147.3604 147.0225
1192 14.8232 152(12) 147.3700 147.0287
1193 14.8272 152(12) 147.3797 147.0350
1194 14.8313 152(12) 147.3895 147.0412
1195 14.8353 152(12) 147.3993 147.0475
1196 14.8393 152(12) 147.4093 147.0538
1197 14.8434 152(12) 147.4193 147.0602
1198 14.8474 152(12) 147.4294 147.0666
1199 14.8514 152(12) 147.4396 147.0730
1200 14.8555 152(12) 147.4500 147.0795
1201 14.8595 152(12) 147.4603 147.0859
1202 14.8635 152(12) 147.4708 147.0924
1203 14.8676 152(12) 147.4814 147.0989
1204 14.8716 152(12) 147.4920 147.1055
1205 14.8756 152(12) 147.5028 147.1121
1206 14.8796 152(12) 147.5136 147.1187
1207 14.8837 151(12) 147.5246 147.1254
1208 14.8877 151(12) 147.5357 147.1321
1209 14.8917 151(12) 147.5468 147.1388
1210 14.8958 151(12) 147.5581 147.1455
1211 14.8998 151(12) 147.5695 147.1523
1212 14.9038 151(12) 147.5809 147.1591
1213 14.9079 151(12) 147.5925 147.1660
1214 14.9119 150(12) 147.6042 147.1728
1215 14.9159 150(12) 147.6160 147.1797
1216 14.9200 150(12) 147.6279 147.1866
1217 14.9240 150(12) 147.6400 147.1936
1218 14.9280 150(12) 147.6521 147.2006
1219 14.9320 150(12) 147.6644 147.2076
1220 14.9361 150(12) 147.6768 147.2146
1221 14.9401 149(12) 147.6893 147.2217
1222 14.9441 149(12) 147.7020 147.2288
1223 14.9482 149(12) 147.7147 147.2359
1224 14.9522 149(12) 147.7276 147.2431
1225 14.9562 149(12) 147.7406 147.2502
1226 14.9603 149(12) 147.7538 147.2574
1227 14.9643 149(12) 147.7671 147.2646
1228 14.9683 149(12) 147.7805 147.2719
1229 14.9724 149(12) 147.7941 147.2793
1230 14.9764 149(12) 147.8078 147.2866
1231 14.9804 149(12) 147.8217 147.2939
1232 14.9845 149(12) 147.8357 147.3013
1233 14.9885 149(12) 147.8499 147.3087
1234 14.9925 149(12) 147.8642 147.3161
1235 14.9965 150(12) 147.8787 147.3236
1236 15.0006 150(12) 147.8934 147.3311
1237 15.0046 150(12) 147.9082 147.3386
1238 15.0086 150(12) 147.9232 147.3462
1239 15.0127 150(12) 147.9384 147.3537
1240 15.0167 150(12) 147.9537 147.3614
1241 15.0207 150(12) 147.9692 147.3690
1242 15.0248 150(12) 147.9849 147.3766
1243 15.0288 150(12) 148.0008 147.3843
1244 15.0328 150(12) 148.0169 147.3920
1245 15.0369 150(12) 148.0332 147.3998
1246 15.0409 150(12) 148.0497 147.4075
1247 15.0449 150(12) 148.0664 147.4153
1248 15.0489 150(12) 148.0833 147.4231
1249 15.0530 151(12) 148.1004 147.4310
1250 15.0570 151(12) 148.1178 147.4389
1251 15.0610 151(12) 148.1354 147.4468
1252 15.0651 151(12) 148.1532 147.4547
1253 15.0691 151(12) 148.1712 147.4626
1254 15.0731 151(12) 148.1895 147.4706
1255 15.0772 151(12) 148.2081 147.4786
1256 15.0812 151(12) 148.2269 147.4867
1257 15.0852 151(12) 148.2459 147.4948
1258 15.0893 151(12) 148.2653 147.5028
1259 15.0933 151(12) 148.2849 147.5110
1260 15.0973 151(12) 148.3048 147.5191
1261 15.1014 151(12) 148.3250 147.5272
1262 15.1054 151(12) 148.3455 147.5355
1263 15.1094 151(12) 148.3663 147.5437
1264 15.1134 151(12) 148.3875 147.5519
1265 15.1175 151(12) 148.4089 147.5602
1266 15.1215 151(12) 148.4307 147.5685
1267 15.1255 151(12) 148.4529 147.5768
1268 15.1296 151(12) 148.4754 147.5852
1269 15.1336 152(12) 148.4982 147.5935
1270 15.1376 152(12) 148.5215 147.6019
1271 15.1417 152(12) 148.5451 147.6104
1272 15.1457 152(12) 148.5691 147.6188
1273 15.1497 152(12) 148.5936 147.6273
1274 15.1538 152(12) 148.6185 147.6358
1275 15.1578 152(12) 148.6438 147.6443
1276 15.1618 152(12) 148.6696 147.6529
1277 15.1658 152(12) 148.6958 147.6614
1278 15.1699 152(12) 148.7225 147.6700
1279 15.1739 152(12) 148.7498 147.6787
1280 15.1779 153(12) 148.7775 147.6873
1281 15.1820 153(12) 148.8058 147.6960
1282 15.1860 153(12) 148.8346 147.7047
1283 15.1900 153(12) 148.8640 147.7134
1284 15.1941 153(12) 148.8940 147.7222
1285 15.1981 153(12) 148.9246 147.7310
1286 15.2021 153(12) 148.9558 147.7398
1287 15.2062 153(12) 148.9877 147.7486
1288 15.2102 153(12) 149.0203 147.7575
1289 15.2142 153(12) 149.0536 147.7663
1290 15.2182 153(12) 149.0875 147.7752
1291 15.2223 153(12) 149.1223 147.7841
1292 15.2263 153(12) 149.1579 147.7931
1293 15.2303 153(12) 149.1943 147.8020
1294 15.2344 154(12) 149.2315 147.8111
1295 15.2384 154(12) 149.2697 147.8201
1296 15.2424 154(12) 149.3088 147.8291
1297 15.2465 154(12) 149.3489 147.8382
1298 15.2505 154(12) 149.3899 147.8473
1299 15.2545 154(12) 149.4321 147.8564
1300 15.2586 154(12) 149.4754 147.8656
1301 15.2626 153(12) 149.5199 147.8747
1302 15.2666 153(12) 149.5657 147.8839
1303 15.2707 153(12) 149.6128 147.8931
1304 15.2747 153(12) 149.6613 147.9023
1305 15.2787 153(12) 149.7114 147.9116
1306 15.2827 153(12) 149.7631 147.9209
1307 15.2868 153(12) 149.8165 147.9301
1308 15.2908 153(12) 149.8718 147.9395
1309 15.2948 153(12) 149.9291 147.9489
1310 15.2989 152(12) 149.9886 147.9583
1311 15.3029 152(12) 150.0504 147.9676
1312 15.3069 152(12) 150.1147 147.9771
1313 15.3110 152(12) 150.1820 147.9865
1314 15.3150 152(12) 150.2522 147.9960
1315 15.3190 152(12) 150.3259 148.0055
1316 15.3231 152(12) 150.4032 148.0150
1317 15.3271 152(12) 150.4846 148.0245
1318 15.3311 152(12) 150.5706 148.0341
1319 15.3351 151(12) 150.6616 148.0437
1320 15.3392 151(12) 150.7581 148.0533
1321 15.3432 151(12) 150.8608 148.0629
1322 15.3472 152(12) 150.9703 148.0725
1323 15.3513 152(12) 151.0875 148.0822
1324 15.3553 152(12) 151.2130 148.0919
1325 15.3593 152(12) 151.3480 148.1016
1326 15.3634 152(12) 151.4933 148.1113
1327 15.3674 152(12) 151.6503 148.1211
1328 15.3714 153(12) 151.8201 148.1309
1329 15.3755 153(12) 152.0041 148.1407
1330 15.3795 154(12) 152.2038 148.1505
1331 15.3835 154(12) 152.4208 148.1604
1332 15.3876 155(12) 152.6570 148.1702
1333 15.3916 155(12) 152.9142 148.1801
1334 15.3956 156(12) 153.1945 148.1900
1335 15.3996 157(13) 153.5000 148.2000
1336 15.4037 158(13) 153.8332 148.2099
1337 15.4077 158(13) 154.1964 148.2199
1338 15.4117 159(13) 154.5924 148.2299
1339 15.4158 160(13) 155.0238 148.2399
1340 15.4198 161(13) 155.4935 148.2500
1341 15.4238 163(13) 156.0043 148.2600
1342 15.4279 164(13) 156.5595 148.2701
1343 15.4319 165(13) 157.1619 148.2802
1344 15.4359 166(13) 157.8149 148.2903
1345 15.4400 168(13) 158.5216 148.3005
1346 15.4440 169(13) 159.2848 148.3106
1347 15.4480 171(13) 160.1083 148.3209
1348 15.4520 172(13) 160.9942 148.3311
1349 15.4561 174(13) 161.9461 148.3413
1350 15.4601 175(13) 162.9666 148.3515
1351 15.4641 177(13) 164.0578 148.3618
1352 15.4682 179(13) 165.2227 148.3721
1353 15.4722 181(13) 166.4624 148.3824
1354 15.4762 183(14) 167.7792 148.3928
1355 15.4803 185(14) 169.1741 148.4031
1356 15.4843 187(14) 170.6475 148.4135
1357 15.4883 189(14) 172.2007 148.4239
1358 15.4924 191(14) 173.8319 148.4343
1359 15.4964 193(14) 175.5415 148.4448
1360 15.5004 195(14) 177.3275 148.4552
1361 15.5044 198(14) 179.1872 148.4657
1362 15.5085 200(14) 181.1191 148.4762
1363 15.5125 202(14) 183.1176 148.4867
1364 15.5165 205(14) 185.1795 148.4972
1365 15.5206 207(14) 187.2990 148.5078
1366 15.5246 209(14) 189.4692 148.5184
1367 15.5286 212(15) 191.6846 148.5290
1368 15.5327 214(15) 193.9348 148.5396
1369 15.5367 217(15) 196.2122 148.5502
1370 15.5407 219(15) 198.5063 148.5609
1371 15.5448 221(15) 200.8058 148.5715
1372 15.5488 223(15) 203.0986 148.5822
1373 15.5528 225(15) 205.3710 148.5930
1374 15.5569 227(15) 207.6101 148.6037
1375 15.5609 229(15) 209.8004 148.6145
1376 15.5649 231(15) 211.9263 148.6252
1377 15.5689 233(15) 213.9715 148.6360
1378 15.5730 234(15) 215.9191 148.6468
1379 15.5770 236(15) 217.7538 148.6577
1380 15.5810 237(15) 219.4572 148.6685
1381 15.5851 238(15) 221.0147 148.6794
1382 15.5891 239(15) 222.4108 148.6903
1383 15.5931 240(15) 223.6312 148.7012
1384 15.5972 240(15) 224.6645 148.7121
1385 15.6012 240(15) 225.4994 148.7230
1386 15.6052 240(15) 226.1283 148.7340
1387 15.6093 240(15) 226.5449 148.7450
1388 15.6133 240(15) 226.7458 148.7560
1389 15.6173 239(15) 226.7299 148.7670
1390 15.6213 239(15) 226.4984 148.7780
1391 15.6254 238(15) 226.0549 148.7891
1392 15.6294 237(15) 225.4049 148.8002
1393 15.6334 235(15) 224.5562 148.8113
1394 15.6375 234(15) 223.5175 148.8224
1395 15.6415 232(15) 222.3006 148.8335
1396 15.6455 230(15) 220.9167 148.8446
1397 15.6496 228(15) 219.3795 148.8558
1398 15.6536 226(15) 217.7036 148.8670
1399 15.6576 224(15) 215.9024 148.8782
1400 15.6617 222(15) 213.9929 148.8894
1401 15.6657 219(15) 211.9892 148.9007
1402 15.6697 217(15) 209.9073 148.9119
1403 15.6738 215(15) 207.7629 148.9232
1404 15.6778 212(15) 205.5692 148.9345
1405 15.6818 210(14) 203.3426 148.9458
1406 15.6858 207(14) 201.0952 148.9571
1407 15.6899 205(14) 198.8403 148.9685
1408 15.6939 202(14) 196.5898 148.9798
1409 15.6979 200(14) 194.3547 148.9912
1410 15.7020 198(14) 192.1457 149.0026
1411 15.7060 196(14) 189.9709 149.0140
1412 15.7100 193(14) 187.8389 149.0254
1413 15.7141 191(14) 185.7570 149.0369
1414 15.7181 189(14) 183.7314 149.0484
1415 15.7221 187(14) 181.7682 149.0598
1416 15.7262 185(14) 179.8708 149.0714
1417 15.7302 183(14) 178.0435 149.0829
1418 15.7342 182(13) 176.2893 149.0944
1419 15.7382 180(13) 174.6103 149.1060
1420 15.7423 178(13) 173.0085 149.1175
1421 15.7463 177(13) 171.4837 149.1291
1422 15.7503 176(13) 170.0375 149.1407
1423 15.7544 174(13) 168.6687 149.1523
1424 15.7584 173(13) 167.3769 149.1640
1425 15.7624 172(13) 166.1613 149.1756
1426 15.7665 171(13) 165.0193 149.1873
1427 15.7705 170(13) 163.9502 149.1990
1428 15.7745 169(13) 162.9509 149.2107
1429 15.7786 168(13) 162.0194 149.2224
1430 15.7826 167(13) 161.1531 149.2341
1431 15.7866 167(13) 160.3486 149.2459
1432 15.7907 166(13) 159.6038 149.2577
1433 15.7947 165(13) 158.9151 149.2694
1434 15.7987 165(13) 158.2796 149.2812
1435 15.8027 164(13) 157.6944 149.2931
1436 15.8068 163(13) 157.1559 149.3049
1437 15.8108 163(13) 156.6618 149.3167
1438 15.8148 162(13) 156.2086 149.3286
1439 15.8189 162(13) 155.7938 149.3405
1440 15.8229 162(13) 155.4143 149.3524
1441 15.8269 161(13) 155.0674 149.3643
1442 15.8310 161(13) 154.7509 149.3762
1443 15.8350 160(13) 154.4621 149.3882
1444 15.8390 160(13) 154.1986 149.4001
1445 15.8431 160(13) 153.9585 149.4121
1446 15.8471 159(13) 153.7395 149.4241
1447 15.8511 159(13) 153.5400 149.4361
1448 15.8551 159(13) 153.3580 149.4481
1449 15.8592 159(13) 153.1919 149.4602
1450 15.8632 158(13) 153.0403 149.4722
1451 15.8672 158(13) 152.9018 149.4843
1452 15.8713 158(13) 152.7751 149.4964
1453 15.8753 157(13) 152.6590 149.5085
1454 15.8793 157(13) 152.5526 149.5206
1455 15.8834 157(13) 152.4548 149.5327
1456 15.8874 157(13) 152.3649 149.5449
1457 15.8914 156(12) 152.2820 149.5570
1458 15.8955 156(12) 152.2053 149.5692
1459 15.8995 156(12) 152.1345 149.5814
1460 15.9035 155(12) 152.0688 149.5936
1461 15.9076 155(12) 152.0077 149.6058
1462 15.9116 155(12) 151.9509 149.6180
1463 15.9156 155(12) 151.8979 149.6303
1464 15.9196 154(12) 151.8485 149.6426
1465 15.9237 154(12) 151.8021 149.6548
1466 15.9277 154(12) 151.7586 149.6671
1467 15.9317 153(12) 151.7178 149.6794
1468 15.9358 153(12) 151.6795 149.6917
1469 15.9398 153(12) 151.6434 149.7041
1470 15.9438 152(12) 151.6093 149.7165
1471 15.9479 152(12) 151.5771 149.7288
1472 15.9519 152(12) 151.5467 149.7412
1473 15.9559 151(12) 151.5179 149.7536
1474 15.9600 151(12) 151.4907 149.7660
1475 15.9640 151(12) 151.4649 149.7784
1476 15.9680 150(12) 151.4406 149.7909
1477 15.9720 150(12) 151.4174 149.8033
1478 15.9761 150(12) 151.3955 149.8158
1479 15.9801 149(12) 151.3747 149.8282
1480 15.9841 149(12) 151.3550 149.8407
1481 15.9882 149(12) 151.3364 149.8532
1482 15.9922 149(12) 151.3187 149.8657
1483 15.9962 149(12) 151.3020 149.8783
1484 16.0003 148(12) 151.2862 149.8909
1485 16.0043 148(12) 151.2712 149.9034
1486 16.0083 148(12) 151.2570 149.9160
1487 16.0124 148(12) 151.2437 149.9286
1488 16.0164 148(12) 151.2311 149.9412
1489 16.0204 148(12) 151.2192 149.9538
1490 16.0244 148(12) 151.2080 149.9664
1491 16.0285 148(12) 151.1975 149.9791
1492 16.0325 148(12) 151.1877 149.9917
1493 16.0365 148(12) 151.1784 150.0043
1494 16.0406 148(12) 151.1698 150.0170
1495 16.0446 148(12) 151.1618 150.0297
1496 16.0486 148(12) 151.1543 150.0424
1497 16.0527 148(12) 151.1474 150.0552
1498 16.0567 148(12) 151.1410 150.0679
1499 16.0607 148(12) 151.1350 150.0807
1500 16.0648 148(12) 151.1296 150.0934
1501 16.0688 148(12) 151.1246 150.1062
1502 16.0728 149(12) 151.1202 150.1190
1503 16.0769 149(12) 151.1161 150.1317
1504 16.0809 149(12) 151.1125 150.1446
1505 16.0849 149(12) 151.1093 150.1574
1506 16.0889 148(12) 151.1066 150.1703
1507 16.0930 148(12) 151.1041 150.1831
1508 16.0970 148(12) 151.1021 150.1960
1509 16.1010 148(12) 151.1004 150.2088
1510 16.1051 148(12) 151.0992 150.2217
1511 16.1091 148(12) 151.0982 150.2346
1512 16.1131 148(12) 151.0976 150.2475
1513 16.1172 148(12) 151.0973 150.2604
1514 16.1212 148(12) 151.0973 150.2734
1515 16.1252 148(12) 151.0976 150.2863
1516 16.1293 147(12) 151.0983 150.2993
1517 16.1333 147(12) 151.0991 150.3123
1518 16.1373 147(12) 151.1003 150.3252
1519 16.1413 147(12) 151.1018 150.3383
1520 16.1454 147(12) 151.1035 150.3513
1521 16.1494 147(12) 151.1055 150.3643
1522 16.1534 147(12) 151.1078 150.3773
1523 16.1575 147(12) 151.1102 150.3904
1524 16.1615 146(12) 151.1129 150.4034
1525 16.1655 146(12) 151.1159 150.4165
1526 16.1696 146(12) 151.1191 150.4296
1527 16.1736 146(12) 151.1225 150.4426
1528 16.1776 146(12) 151.1261 150.4557
1529 16.1817 146(12) 151.1299 150.4689
1530 16.1857 146(12) 151.1339 150.4820
1531 16.1897 146(12) 151.1382 150.4951
1532 16.1938 146(12) 151.1426 150.5083
1533 16.1978 146(12) 151.4522 150.5215
1534 16.2018 146(12) 151.4577 150.5346
1535 16.2058 146(12) 151.4634 150.5478
1536 16.2099 147(12) 151.4692 150.5610
1537 16.2139 147(12) 151.4753 150.5742
1538 16.2179 147(12) 151.4815 150.5874
1539 16.2220 147(12) 151.4878 150.6006
1540 16.2260 147(12) 151.4944 150.6139
1541 16.2300 147(12) 151.5011 150.6272
1542 16.2341 147(12) 151.5079 150.6404
1543 16.2381 148(12) 151.5149 150.6537
1544 16.2421 148(12) 151.5220 150.6669
1545 16.2462 148(12) 151.6813 150.6803
1546 16.2502 148(12) 151.6890 150.6936
1547 16.2542 148(12) 151.6969 150.7069
1548 16.2582 148(12) 151.7050 150.7202
1549 16.2623 149(12) 151.7132 150.7335
1550 16.2663 149(12) 151.7215 150.7469
1551 16.2703 149(12) 151.7299 150.7603
1552 16.2744 149(12) 151.7385 150.7737
1553 16.2784 149(12) 151.7472 150.7870
1554 16.2824 149(12) 151.7560 150.8004
1555 16.2865 149(12) 151.7649 150.8138
1556 16.2905 149(12) 151.7740 150.8272
1557 16.2945 149(12) 151.7831 150.8406
1558 16.2986 149(12) 151.7923 150.8540
1559 16.3026 149(12) 151.8017 150.8675
1560 16.3066 149(12) 151.8112 150.8810
1561 16.3106 149(12) 151.8207 150.8944
1562 16.3147 149(12) 151.8304 150.9079
1563 16.3187 149(12) 151.8402 150.9214
1564 16.3227 149(12) 151.8500 150.9349
1565 16.3268 149(12) 151.8600 150.9484
1566 16.3308 149(12) 151.8700 150.9619
1567 16.3348 149(12) 151.8802 150.9754
1568 16.3389 149(12) 151.8904 150.9890
1569 16.3429 150(12) 151.9007 151.0025
1570 16.3469 150(12) 151.9111 151.0161
1571 16.3510 150(12) 151.9216 151.0296
1572 16.3550 150(12) 151.9322 151.0432
1573 16.3590 150(12) 151.9429 151.0568
1574 16.3631 150(12) 151.9536 151.0703
1575 16.3671 150(12) 151.9644 151.0840
1576 16.3711 150(12) 151.9753 151.0975
1577 16.3751 150(12) 151.9862 151.1112
1578 16.3792 150(12) 151.9973 151.1248
1579 16.3832 150(12) 152.0084 151.1385
1580 16.3872 150(12) 152.0196 151.1521
1581 16.3913 150(12) 152.0309 151.1658
1582 16.3953 150(12) 152.0422 151.1794
1583 16.3993 150(12) 152.0536 151.1931
1584 16.4034 150(12) 152.0651 151.2068
1585 16.4074 150(12) 152.0766 151.2205
1586 16.4114 150(12) 152.0883 151.2342
1587 16.4155 150(12) 152.0999 151.2479
1588 16.4195 150(12) 152.1116 151.2616
1589 16.4235 150(12) 152.1234 151.2753
1590 16.4275 150(12) 152.1353 151.2891
1591 16.4316 150(12) 152.1472 151.3028
1592 16.4356 150(12) 152.1592 151.3166
1593 16.4396 150(12) 152.1712 151.3304
1594 16.4437 150(12) 152.1833 151.3442
1595 16.4477 150(12) 152.1955 151.3579
1596 16.4517 150(12) 152.2076 151.3717
1597 16.4558 150(12) 152.2199 151.3855
1598 16.4598 150(12) 152.2322 151.3993
1599 16.4638 149(12) 152.2446 151.4131
1600 16.4679 149(12) 152.2570 151.4270
1601 16.4719 149(12) 152.2695 151.4408
1602 16.4759 149(12) 152.2820 151.4547
1603 16.4800 149(12) 152.2946 151.4685
1604 16.4840 149(12) 152.3073 151.4824
1605 16.4880 149(12) 152.3199 151.4962
1606 16.4920 149(12) 152.3327 151.5101
1607 16.4961 149(12) 152.3455 151.5240
1608 16.5001 149(12) 152.3583 151.5379
1609 16.5041 149(12) 152.3712 151.5518
1610 16.5082 149(12) 152.3841 151.5657
1611 16.5122 149(12) 152.3970 151.5796
1612 16.5162 149(12) 152.4100 151.5935
1613 16.5203 149(12) 152.4231 151.6075
1614 16.5243 149(12) 152.4362 151.6214
1615 16.5283 149(12) 152.4494 151.6354
1616 16.5324 149(12) 152.4625 151.6493
1617 16.5364 149(12) 152.4758 151.6633
1618 16.5404 149(12) 152.4891 151.6773
1619 16.5444 149(12) 152.5024 151.6913
1620 16.5485 149(12) 152.5157 151.7053
1621 16.5525 150(12) 152.5291 151.7192
1622 16.5565 150(12) 152.5426 151.7332
1623 16.5606 150(12) 152.5560 151.7473
1624 16.5646 150(12) 152.5695 151.7613
1625 16.5686 150(12) 152.5831 151.7753
1626 16.5727 150(12) 152.5967 151.7893
1627 16.5767 151(12) 152.6103 151.8034
1628 16.5807 151(12) 152.6240 151.8174
1629 16.5848 151(12) 152.6377 151.8315
1630 16.5888 151(12) 152.6515 151.8456
1631 16.5928 151(12) 152.6652 151.8596
1632 16.5969 151(12) 152.6790 151.8737
1633 16.6009 152(12) 152.6929 151.8878
1634 16.6049 152(12) 152.7068 151.9019
1635 16.6089 152(12) 152.7207 151.9160
1636 16.6130 152(12) 152.7347 151.9301
1637 16.6170 152(12) 152.7487 151.9442
1638 16.6210 152(12) 152.7627 151.9583
1639 16.6251 152(12) 152.7768 151.9724
1640 16.6291 152(12) 152.7909 151.9866
1641 16.6331 152(12) 152.8050 152.0007
1642 16.6372 152(12) 152.8191 152.0149
1643 16.6412 152(12) 152.8334 152.0291
1644 16.6452 152(12) 152.8476 152.0432
1645 16.6493 152(12) 152.8619 152.0574
1646 16.6533 152(12) 152.8761 152.0716
1647 16.6573 152(12) 152.8905 152.0858
1648 16.6613 152(12) 152.9048 152.0999
1649 16.6654 151(12) 152.9192 152.1141
1650 16.6694 151(12) 152.9336 152.1283
1651 16.6734 151(12) 152.9481 152.1426
1652 16.6775 151(12) 152.9625 152.1568
1653 16.6815 151(12) 152.9770 152.1710
1654 16.6855 151(12) 152.9915 152.1852
1655 16.6896 150(12) 153.0061 152.1994
1656 16.6936 150(12) 153.0207 152.2137
1657 16.6976 150(12) 153.0353 152.2280
1658 16.7017 150(12) 153.0500 152.2422
1659 16.7057 150(12) 153.0647 152.2565
1660 16.7097 150(12) 153.0794 152.2707
1661 16.7138 149(12) 153.0941 152.2850
1662 16.7178 149(12) 153.1089 152.2993
1663 16.7218 149(12) 153.1237 152.3136
1664 16.7258 149(12) 153.1385 152.3279
1665 16.7299 149(12) 153.1533 152.3422
1666 16.7339 149(12) 153.1682 152.3565
1667 16.7379 149(12) 153.1831 152.3708
1668 16.7420 149(12) 153.1980 152.3851
1669 16.7460 149(12) 153.2129 152.3994
1670 16.7500 149(12) 153.2279 152.4137
1671 16.7541 148(12) 153.2430 152.4281
1672 16.7581 148(12) 153.2580 152.4424
1673 16.7621 148(12) 153.2730 152.4567
1674 16.7662 148(12) 153.2881 152.4711
1675 16.7702 148(12) 153.3032 152.4854
1676 16.7742 148(12) 153.3184 152.4998
1677 16.7782 148(12) 153.3335 152.5142
1678 16.7823 148(12) 153.3487 152.5286
1679 16.7863 148(12) 153.3639 152.5429
1680 16.7903 148(12) 153.3792 152.5573
1681 16.7944 148(12) 153.3944 152.5717
1682 16.7984 148(12) 153.4097 152.5861
1683 16.8024 148(12) 153.4250 152.6005
1684 16.8065 148(12) 153.4403 152.6149
1685 16.8105 148(12) 153.4557 152.6293
1686 16.8145 148(12) 153.4711 152.6437
1687 16.8186 148(12) 153.4865 152.6581
1688 16.8226 148(12) 153.5018 152.6725
1689 16.8266 148(12) 153.5173 152.6870
1690 16.8307 148(12) 153.5328 152.7015
1691 16.8347 148(12) 153.5483 152.7159
1692 16.8387 148(12) 153.5638 152.7303
1693 16.8427 147(12) 153.6644 152.7447
1694 16.8468 147(12) 153.6802 152.7592
1695 16.8508 147(12) 153.6960 152.7737
1696 16.8548 147(12) 153.7119 152.7882
1697 16.8589 147(12) 153.7277 152.8026
1698 16.8629 147(12) 153.7436 152.8171
1699 16.8669 147(12) 153.7595 152.8316
1700 16.8710 147(12) 153.7754 152.8461
1701 16.8750 147(12) 153.7913 152.8605
1702 16.8790 147(12) 153.8073 152.8750
1703 16.8831 147(12) 153.8233 152.8895
1704 16.8871 147(12) 153.8393 152.9041
1705 16.8911 147(12) 153.8553 152.9185
1706 16.8951 147(12) 153.9138 152.9331
1707 16.8992 147(12) 153.9300 152.9476
1708 16.9032 147(12) 153.9462 152.9621
1709 16.9072 147(12) 153.9624 152.9766
1710 16.9113 147(12) 153.9787 152.9912
1711 16.9153 147(12) 153.9949 153.0057
1712 16.9193 147(12) 154.0112 153.0202
1713 16.9234 147(12) 154.0276 153.0348
1714 16.9274 147(12) 154.0439 153.0493
1715 16.9314 147(12) 154.0602 153.0639
1716 16.9355 147(12) 154.0766 153.0784
1717 16.9395 147(12) 154.0931 153.0930
1718 16.9435 147(12) 154.1095 153.1076
1719 16.9475 147(12) 154.1259 153.1221
1720 16.9516 147(12) 154.1424 153.1367
1721 16.9556 148(12) 154.1589 153.1513
1722 16.9596 148(12) 154.1754 153.1658
1723 16.9637 148(12) 154.1919 153.1804
1724 16.9677 148(12) 154.2085 153.1950
1725 16.9717 148(12) 154.2251 153.2096
1726 16.9758 148(12) 154.2417 153.2242
1727 16.9798 148(12) 154.2583 153.2388
1728 16.9838 149(12) 154.2749 153.2534
1729 16.9879 149(12) 154.2916 153.2680
1730 16.9919 149(12) 154.3083 153.2826
1731 16.9959 149(12) 154.3250 153.2972
1732 17.0000 149(12) 154.3418 153.3118
1733 17.0040 149(12) 154.3586 153.3265
1734 17.0080 149(12) 154.3754 153.3411
1735 17.0120 149(12) 154.3921 153.3557
1736 17.0161 149(12) 154.4090 153.3704
1737 17.0201 149(12) 154.4258 153.3850
1738 17.0241 149(12) 154.4427 153.3996
1739 17.0282 149(12) 154.4596 153.4143
1740 17.0322 149(12) 154.4765 153.4290
1741 17.0362 149(12) 154.4934 153.4436
1742 17.0403 149(12) 154.5104 153.4582
1743 17.0443 149(12) 154.5274 153.4729
1744 17.0483 149(12) 154.5444 153.4875
1745 17.0524 149(12) 154.5614 153.5022
1746 17.0564 149(12) 154.5784 153.5169
1747 17.0604 149(12) 154.5955 153.5316
1748 17.0644 149(12) 154.6126 153.5462
1749 17.0685 149(12) 154.6297 153.5609
1750 17.0725 149(12) 154.6468 153.5755
1751 17.0765 149(12) 154.6640 153.5902
1752 17.0806 149(12) 154.6812 153.6049
1753 17.0846 149(12) 154.6984 153.6196
1754 17.0886 149(12) 154.7156 153.6343
1755 17.0927 150(12) 154.7328 153.6490
1756 17.0967 150(12) 154.7501 153.6637
1757 17.1007 150(12) 154.7674 153.6784
1758 17.1048 150(12) 154.7847 153.6931
1759 17.1088 150(12) 154.8020 153.7078
1760 17.1128 150(12) 154.8194 153.7225
1761 17.1168 151(12) 154.8368 153.7372
1762 17.1209 151(12) 154.8541 153.7519
1763 17.1249 151(12) 154.8716 153.7666
1764 17.1289 151(12) 154.8890 153.7814
1765 17.1330 151(12) 154.9065 153.7961
1766 17.1370 151(12) 154.9240 153.8108
1767 17.1410 152(12) 154.9415 153.8255
1768 17.1451 152(12) 154.9590 153.8402
1769 17.1491 152(12) 154.9766 153.8550
1770 17.1531 152(12) 154.9941 153.8697
1771 17.1572 152(12) 155.0117 153.8844
1772 17.1612 152(12) 155.0293 153.8992
1773 17.1652 152(12) 155.0470 153.9139
1774 17.1693 152(12) 155.0647 153.9286
1775 17.1733 152(12) 155.0824 153.9434
1776 17.1773 152(12) 155.1000 153.9581
1777 17.1813 152(12) 155.1177 153.9728
1778 17.1854 152(12) 155.1355 153.9876
1779 17.1894 152(12) 155.1533 154.0024
1780 17.1934 152(12) 155.1711 154.0171
1781 17.1975 152(12) 155.1889 154.0319
1782 17.2015 152(12) 155.2068 154.0466
1783 17.2055 152(12) 155.2246 154.0614
1784 17.2096 152(12) 155.2425 154.0761
1785 17.2136 152(12) 155.2604 154.0909
1786 17.2176 152(12) 155.2784 154.1057
1787 17.2217 152(12) 155.2963 154.1205
1788 17.2257 152(12) 155.3143 154.1352
1789 17.2297 152(12) 155.3323 154.1500
1790 17.2337 151(12) 155.3503 154.1648
1791 17.2378 151(12) 155.3684 154.1795
1792 17.2418 151(12) 155.3865 154.1943
1793 17.2458 151(12) 155.4046 154.2091
1794 17.2499 151(12) 155.4227 154.2238
1795 17.2539 151(12) 155.4408 154.2386
1796 17.2579 151(12) 155.4590 154.2534
1797 17.2620 151(12) 155.4772 154.2682
1798 17.2660 151(12) 155.4954 154.2830
1799 17.2700 151(12) 155.5137 154.2978
1800 17.2741 151(12) 155.5319 154.3126
1801 17.2781 151(12) 155.5502 154.3273
1802 17.2821 151(12) 155.5685 154.3421
1803 17.2862 151(12) 155.5868 154.3569
1804 17.2902 151(12) 155.6052 154.3717
1805 17.2942 151(12) 155.6236 154.3865
1806 17.2982 151(12) 155.6420 154.4014
1807 17.3023 151(12) 155.6604 154.4161
1808 17.3063 151(12) 155.6789 154.4309
1809 17.3103 151(12) 155.6974 154.4457
1810 17.3144 151(12) 155.7159 154.4605
1811 17.3184 151(12) 155.7344 154.4753
1812 17.3224 151(12) 155.7530 154.4901
1813 17.3265 152(12) 155.7716 154.5049
1814 17.3305 152(12) 155.7902 154.5197
1815 17.3345 152(12) 155.8088 154.5345
1816 17.3386 152(12) 155.8274 154.5493
1817 17.3426 152(12) 155.8461 154.5642
1818 17.3466 153(12) 155.8649 154.5790
1819 17.3506 153(12) 155.8836 154.5938
1820 17.3547 153(12) 155.9023 154.6086
1821 17.3587 153(12) 155.9211 154.6234
1822 17.3627 153(12) 155.9399 154.6382
1823 17.3668 154(12) 155.9588 154.6530
1824 17.3708 154(12) 155.9776 154.6678
1825 17.3748 154(12) 155.9965 154.6827
1826 17.3789 154(12) 156.0154 154.6975
1827 17.3829 154(12) 156.0344 154.7123
1828 17.3869 155(12) 156.0534 154.7271
1829 17.3910 155(12) 156.0724 154.7419
1830 17.3950 155(12) 156.0914 154.7567
1831 17.3990 155(12) 156.1105 154.7716
1832 17.4031 155(12) 156.1295 154.7864
1833 17.4071 155(12) 156.1486 154.8012
1834 17.4111 155(12) 156.1678 154.8160
1835 17.4151 155(12) 156.1869 154.8308
1836 17.4192 155(12) 156.2061 154.8457
1837 17.4232 155(12) 156.2253 154.8605
1838 17.4272 155(12) 156.2446 154.8753
1839 17.4313 155(12) 156.2638 154.8901
1840 17.4353 155(12) 156.2831 154.9050
1841 17.4393 155(12) 156.3025 154.9198
1842 17.4434 155(12) 156.3218 154.9346
1843 17.4474 155(12) 156.3412 154.9494
1844 17.4514 155(12) 156.3606 154.9642
1845 17.4555 155(12) 156.3801 154.9791
1846 17.4595 155(12) 156.3995 154.9939
1847 17.4635 155(12) 156.4190 155.0087
1848 17.4675 155(12) 156.4386 155.0235
1849 17.4716 156(12) 156.4581 155.0384
1850 17.4756 156(12) 156.4777 155.0532
1851 17.4796 156(12) 156.4973 155.0680
1852 17.4837 156(12) 156.5170 155.0828
1853 17.4877 156(12) 156.5367 155.0977
1854 17.4917 156(12) 156.5564 155.1125
1855 17.4958 156(12) 156.5762 155.1273
1856 17.4998 156(12) 156.5959 155.1421
1857 17.5038 157(13) 156.6157 155.1570
1858 17.5079 157(13) 156.6356 155.1718
1859 17.5119 157(13) 156.6554 155.1866
1860 17.5159 157(13) 156.6753 155.2014
1861 17.5200 158(13) 156.6953 155.2162
1862 17.5240 158(13) 156.7152 155.2311
1863 17.5280 158(13) 156.7352 155.2459
1864 17.5320 158(13) 156.7553 155.2607
1865 17.5361 159(13) 156.7753 155.2755
1866 17.5401 159(13) 156.7954 155.2904
1867 17.5441 160(13) 156.8155 155.3051
1868 17.5482 160(13) 156.8357 155.3200
1869 17.5522 160(13) 156.8559 155.3348
1870 17.5562 161(13) 156.8761 155.3496
1871 17.5603 161(13) 156.8964 155.3645
1872 17.5643 161(13) 156.9167 155.3793
1873 17.5683 162(13) 156.9371 155.3941
1874 17.5724 162(13) 156.9574 155.4089
1875 17.5764 162(13) 156.9778 155.4237
1876 17.5804 163(13) 156.9982 155.4385
1877 17.5844 163(13) 157.0187 155.4534
1878 17.5885 163(13) 157.0392 155.4682
1879 17.5925 164(13) 157.0598 155.4830
1880 17.5965 164(13) 157.0803 155.4978
1881 17.6006 164(13) 157.1010 155.5126
1882 17.6046 165(13) 157.1216 155.5274
1883 17.6086 165(13) 157.1423 155.5422
1884 17.6127 165(13) 157.1630 155.5570
1885 17.6167 165(13) 157.1838 155.5718
1886 17.6207 165(13) 157.2046 155.5866
1887 17.6248 166(13) 157.2254 155.6014
1888 17.6288 166(13) 157.2463 155.6162
1889 17.6328 166(13) 157.2672 155.6311
1890 17.6368 166(13) 157.2881 155.6458
1891 17.6409 166(13) 157.3092 155.6607
1892 17.6449 166(13) 157.3302 155.6755
1893 17.6489 166(13) 157.3512 155.6902
1894 17.6530 166(13) 157.3723 155.7050
1895 17.6570 166(13) 157.3935 155.7198
1896 17.6610 166(13) 157.4147 155.7346
1897 17.6651 166(13) 157.4359 155.7494
1898 17.6691 166(13) 157.4572 155.7642
1899 17.6731 165(13) 157.4785 155.7790
1900 17.6772 165(13) 157.4998 155.7938
1901 17.6812 165(13) 157.5213 155.8086
1902 17.6852 165(13) 157.5427 155.8234
1903 17.6893 164(13) 157.5641 155.8382
1904 17.6933 164(13) 157.5857 155.8530
1905 17.6973 164(13) 157.6073 155.8677
1906 17.7013 163(13) 157.6288 155.8825
1907 17.7054 163(13) 157.6505 155.8973
1908 17.7094 162(13) 157.6722 155.9121
1909 17.7134 162(13) 157.6940 155.9269
1910 17.7175 162(13) 157.7158 155.9417
1911 17.7215 161(13) 157.7376 155.9564
1912 17.7255 161(13) 157.7594 155.9712
1913 17.7296 160(13) 157.7813 155.9859
1914 17.7336 160(13) 157.8033 156.0007
1915 17.7376 159(13) 157.8254 156.0155
1916 17.7417 159(13) 157.8474 156.0303
1917 17.7457 159(13) 157.8695 156.0450
1918 17.7497 158(13) 157.8917 156.0598
1919 17.7537 158(13) 157.9139 156.0745
1920 17.7578 157(13) 157.9362 156.0893
1921 17.7618 157(13) 157.9584 156.1040
1922 17.7658 157(13) 157.9808 156.1188
1923 17.7699 156(12) 158.0032 156.1336
1924 17.7739 156(12) 158.0256 156.1483
1925 17.7779 156(12) 158.0482 156.1630
1926 17.7820 156(12) 158.0707 156.1778
1927 17.7860 155(12) 158.0933 156.1925
1928 17.7900 155(12) 158.1160 156.2073
1929 17.7941 155(12) 158.1387 156.2220
1930 17.7981 155(12) 158.1615 156.2368
1931 17.8021 155(12) 158.1843 156.2515
1932 17.8062 155(12) 158.2072 156.2663
1933 17.8102 155(12) 158.2301 156.2810
1934 17.8142 155(12) 158.2531 156.2957
1935 17.8182 154(12) 158.2761 156.3104
1936 17.8223 154(12) 158.2992 156.3252
1937 17.8263 154(12) 158.3223 156.3399
1938 17.8303 154(12) 158.3455 156.3546
1939 17.8344 154(12) 158.3688 156.3693
1940 17.8384 154(12) 158.3921 156.3840
1941 17.8424 154(12) 158.4155 156.3988
1942 17.8465 154(12) 158.4389 156.4135
1943 17.8505 154(12) 158.4624 156.4282
1944 17.8545 154(12) 158.4859 156.4429
1945 17.8586 154(12) 158.5095 156.4576
1946 17.8626 154(12) 158.5332 156.4723
1947 17.8666 154(12) 158.5569 156.4870
1948 17.8706 154(12) 158.5807 156.5017
1949 17.8747 154(12) 158.6046 156.5164
1950 17.8787 154(12) 158.6285 156.5311
1951 17.8827 154(12) 158.6525 156.5458
1952 17.8868 154(12) 158.6765 156.5604
1953 17.8908 154(12) 158.7006 156.5751
1954 17.8948 154(12) 158.7248 156.5898
1955 17.8989 154(12) 158.7491 156.6045
1956 17.9029 154(12) 158.7734 156.6192
1957 17.9069 154(12) 158.7977 156.6338
1958 17.9110 154(12) 158.8222 156.6485
1959 17.9150 154(12) 158.8467 156.6632
1960 17.9190 154(12) 158.8713 156.6779
1961 17.9230 154(12) 158.8959 156.6925
1962 17.9271 154(12) 158.9206 156.7072
1963 17.9311 154(12) 158.9454 156.7218
1964 17.9351 154(12) 158.9703 156.7365
1965 17.9392 154(12) 158.9952 156.7511
1966 17.9432 154(12) 159.0202 156.7658
1967 17.9472 154(12) 159.0453 156.7804
1968 17.9513 154(12) 159.0705 156.7951
1969 17.9553 154(12) 159.0957 156.8098
1970 17.9593 154(12) 159.1210 156.8244
1971 17.9634 154(12) 159.1464 156.8390
1972 17.9674 154(12) 159.1719 156.8536
1973 17.9714 154(12) 159.1974 156.8682
1974 17.9755 154(12) 159.2230 156.8829
1975 17.9795 154(12) 159.2487 156.8975
1976 17.9835 154(12) 159.2745 156.9121
1977 17.9875 154(12) 159.3003 156.9267
1978 17.9916 154(12) 159.3262 156.9413
1979 17.9956 154(12) 159.3523 156.9560
1980 17.9996 154(12) 159.3784 156.9706
1981 18.0037 154(12) 159.4046 156.9852
1982 18.0077 154(12) 159.4308 156.9998
1983 18.0117 154(12) 159.4572 157.0143
1984 18.0158 154(12) 159.4836 157.0289
1985 18.0198 154(12) 159.5102 157.0435
1986 18.0238 154(12) 159.5368 157.0581
1987 18.0279 154(12) 159.5635 157.0727
1988 18.0319 154(12) 159.5903 157.0873
1989 18.0359 154(12) 159.6172 157.1019
1990 18.0399 154(12) 159.6442 157.1164
1991 18.0440 154(12) 159.6713 157.1310
1992 18.0480 154(12) 159.6984 157.1455
1993 18.0520 154(12) 159.7257 157.1601
1994 18.0561 154(12) 159.7531 157.1747
1995 18.0601 154(12) 159.7806 157.1892
1996 18.0641 154(12) 159.8081 157.2038
1997 18.0682 154(12) 159.8358 157.2183
1998 18.0722 154(12) 159.8635 157.2329
1999 18.0762 154(12) 159.8914 157.2474
2000 18.0803 154(12) 159.9194 157.2620
2001 18.0843 154(12) 159.9474 157.2765
2002 18.0883 154(12) 159.9756 157.2910
2003 18.0924 154(12) 160.0039 157.3055
2004 18.0964 154(12) 160.0323 157.3201
2005 18.1004 154(12) 160.0608 157.3346
2006 18.1044 154(12) 160.0894 157.3491
2007 18.1085 154(12) 160.1181 157.3636
2008 18.1125 154(12) 160.1469 157.3781
2009 18.1165 154(12) 160.1759 157.3926
2010 18.1206 154(12) 160.2049 157.4071
2011 18.1246 155(12) 160.2341 157.4216
2012 18.1286 155(12) 160.2634 157.4361
2013 18.1327 155(12) 160.2928 157.4506
2014 18.1367 155(12) 160.3223 157.4651
2015 18.1407 156(12) 160.3519 157.4796
2016 18.1448 156(12) 160.3817 157.4940
2017 18.1488 156(12) 160.4116 157.5085
2018 18.1528 157(13) 160.4416 157.5229
2019 18.1568 157(13) 160.4718 157.5374
2020 18.1609 157(13) 160.5021 157.5519
2021 18.1649 158(13) 160.5325 157.5664
2022 18.1689 158(13) 160.5630 157.5808
2023 18.1730 158(13) 160.5936 157.5952
2024 18.1770 159(13) 160.6244 157.6097
2025 18.1810 159(13) 160.6553 157.6241
2026 18.1851 159(13) 160.6864 157.6386
2027 18.1891 160(13) 160.7176 157.6530
2028 18.1931 160(13) 160.7489 157.6674
2029 18.1972 160(13) 160.7804 157.6818
2030 18.2012 160(13) 160.8121 157.6962
2031 18.2052 161(13) 160.8438 157.7107
2032 18.2093 161(13) 160.8757 157.7251
2033 18.2133 161(13) 160.9078 157.7395
2034 18.2173 161(13) 160.9401 157.7539
2035 18.2213 161(13) 160.9724 157.7683
2036 18.2254 161(13) 161.0049 157.7827
2037 18.2294 161(13) 161.0376 157.7971
2038 18.2334 162(13) 161.0704 157.8114
2039 18.2375 162(13) 161.1034 157.8258
2040 18.2415 162(13) 161.1366 157.8402
2041 18.2455 162(13) 161.1699 157.8546
2042 18.2496 161(13) 161.2034 157.8689
2043 18.2536 161(13) 161.2370 157.8833
2044 18.2576 161(13) 161.2708 157.8976
2045 18.2617 161(13) 161.3048 157.9120
2046 18.2657 161(13) 161.3390 157.9263
2047 18.2697 161(13) 161.3733 157.9407
2048 18.2737 161(13) 161.4078 157.9550
2049 18.2778 161(13) 161.4425 157.9694
2050 18.2818 161(13) 161.4774 157.9837
2051 18.2858 160(13) 161.5124 157.9980
2052 18.2899 160(13) 161.5477 158.0123
2053 18.2939 160(13) 161.5831 158.0266
2054 18.2979 160(13) 161.6187 158.0409
2055 18.3020 160(13) 161.6545 158.0553
2056 18.3060 159(13) 161.6905 158.0695
2057 18.3100 159(13) 161.7267 158.0838
2058 18.3141 159(13) 161.7632 158.0981
2059 18.3181 159(13) 161.7997 158.1124
2060 18.3221 159(13) 161.8366 158.1267
2061 18.3262 159(13) 161.8736 158.1410
2062 18.3302 158(13) 161.9108 158.1552
2063 18.3342 158(13) 161.9483 158.1695
2064 18.3382 158(13) 161.9859 158.1837
2065 18.3423 158(13) 162.0238 158.1980
2066 18.3463 158(13) 162.0619 158.2123
2067 18.3503 157(13) 162.1003 158.2265
2068 18.3544 157(13) 162.1388 158.2407
2069 18.3584 157(13) 162.1776 158.2550
2070 18.3624 157(13) 162.2166 158.2692
2071 18.3665 157(13) 162.2559 158.2835
2072 18.3705 156(12) 162.2954 158.2976
2073 18.3745 156(12) 162.3352 158.3119
2074 18.3786 156(12) 162.3751 158.3261
2075 18.3826 156(12) 162.4154 158.3403
2076 18.3866 156(12) 162.4559 158.3545
2077 18.3906 156(12) 162.4967 158.3687
2078 18.3947 155(12) 162.5376 158.3829
2079 18.3987 155(12) 162.5789 158.3970
2080 18.4027 155(12) 162.6205 158.4112
2081 18.4068 155(12) 162.6622 158.4254
2082 18.4108 155(12) 162.7043 158.4396
2083 18.4148 155(12) 162.7467 158.4537
2084 18.4189 155(12) 162.7894 158.4679
2085 18.4229 155(12) 162.8323 158.4820
2086 18.4269 154(12) 162.8755 158.4962
2087 18.4310 154(12) 162.9191 158.5103
2088 18.4350 154(12) 162.9629 158.5245
2089 18.4390 155(12) 163.0070 158.5386
2090 18.4431 155(12) 163.0514 158.5527
2091 18.4471 155(12) 163.0961 158.5668
2092 18.4511 155(12) 163.1412 158.5810
2093 18.4551 155(12) 163.1866 158.5951
2094 18.4592 155(12) 163.2323 158.6092
2095 18.4632 155(12) 163.2783 158.6233
2096 18.4672 156(12) 163.3247 158.6374
2097 18.4713 156(12) 163.3714 158.6514
2098 18.4753 156(12) 163.4184 158.6655
2099 18.4793 156(12) 163.4658 158.6796
2100 18.4834 157(13) 163.5135 158.6936
2101 18.4874 157(13) 163.5617 158.7078
2102 18.4914 157(13) 163.6101 158.7218
2103 18.4955 158(13) 163.6590 158.7359
2104 18.4995 158(13) 163.7082 158.7499
2105 18.5035 159(13) 163.7578 158.7639
2106 18.5075 159(13) 163.8078 158.7780
2107 18.5116 160(13) 163.8581 158.7920
2108 18.5156 160(13) 163.9089 158.8060
2109 18.5196 161(13) 163.9600 158.8200
2110 18.5237 161(13) 164.0116 158.8340
2111 18.5277 162(13) 164.0637 158.8481
2112 18.5317 163(13) 164.1161 158.8621
2113 18.5358 163(13) 164.1689 158.8761
2114 18.5398 164(13) 164.2222 158.8900
2115 18.5438 165(13) 164.2759 158.9040
2116 18.5479 165(13) 164.3301 158.9180
2117 18.5519 166(13) 164.3848 158.9320
2118 18.5559 167(13) 164.4399 158.9460
2119 18.5599 168(13) 164.4954 158.9599
2120 18.5640 169(13) 164.5515 158.9739
2121 18.5680 170(13) 164.6080 158.9878
2122 18.5720 170(13) 164.6651 159.0018
2123 18.5761 171(13) 164.7226 159.0157
2124 18.5801 172(13) 164.7807 159.0296
2125 18.5841 173(13) 164.8392 159.0436
2126 18.5882 175(13) 164.8983 159.0575
2127 18.5922 176(13) 164.9579 159.0714
2128 18.5962 177(13) 165.0181 159.0853
2129 18.6003 178(13) 165.0788 159.0992
2130 18.6043 179(13) 165.1401 159.1131
2131 18.6083 180(13) 165.2019 159.1270
2132 18.6124 182(13) 165.2643 159.1409
2133 18.6164 183(14) 165.3274 159.1547
2134 18.6204 184(14) 165.3910 159.1686
2135 18.6244 185(14) 165.4552 159.1825
2136 18.6285 187(14) 165.5201 159.1964
2137 18.6325 188(14) 165.5855 159.2102
2138 18.6365 189(14) 165.6516 159.2240
2139 18.6406 190(14) 165.7184 159.2378
2140 18.6446 191(14) 165.7858 159.2517
2141 18.6486 193(14) 165.8539 159.2655
2142 18.6527 194(14) 165.9227 159.2793
2143 18.6567 195(14) 165.9922 159.2932
2144 18.6607 196(14) 166.0624 159.3070
2145 18.6648 197(14) 166.1333 159.3208
2146 18.6688 198(14) 166.2049 159.3345
2147 18.6728 198(14) 166.2773 159.3483
2148 18.6768 199(14) 166.3505 159.3621
2149 18.6809 200(14) 166.4244 159.3759
2150 18.6849 200(14) 166.4991 159.3897
2151 18.6889 201(14) 166.5746 159.4034
2152 18.6930 201(14) 166.6509 159.4172
2153 18.6970 202(14) 166.7281 159.4309
2154 18.7010 202(14) 166.8062 159.4447
2155 18.7051 202(14) 166.8850 159.4584
2156 18.7091 202(14) 166.9647 159.4721
2157 18.7131 202(14) 167.0454 159.4859
2158 18.7172 202(14) 167.1269 159.4996
2159 18.7212 202(14) 167.2094 159.5133
2160 18.7252 202(14) 167.2929 159.5270
2161 18.7293 202(14) 167.3773 159.5407
2162 18.7333 202(14) 167.4626 159.5544
2163 18.7373 201(14) 167.5489 159.5681
2164 18.7413 201(14) 167.6363 159.5818
2165 18.7454 201(14) 167.7247 159.5954
2166 18.7494 200(14) 167.8142 159.6091
2167 18.7534 200(14) 167.9047 159.6227
2168 18.7575 199(14) 167.9964 159.6364
2169 18.7615 199(14) 168.0892 159.6501
2170 18.7655 198(14) 168.1830 159.6637
2171 18.7696 198(14) 168.2781 159.6773
2172 18.7736 197(14) 168.3743 159.6909
2173 18.7776 197(14) 168.4718 159.7046
2174 18.7817 196(14) 168.5705 159.7182
2175 18.7857 195(14) 168.6705 159.7318
2176 18.7897 195(14) 168.7717 159.7453
2177 18.7937 194(14) 168.8742 159.7589
2178 18.7978 194(14) 168.9781 159.7725
2179 18.8018 193(14) 169.0833 159.7861
2180 18.8058 193(14) 169.1900 159.7997
2181 18.8099 192(14) 169.2981 159.8133
2182 18.8139 192(14) 169.4075 159.8268
2183 18.8179 191(14) 169.5185 159.8404
2184 18.8220 191(14) 169.6310 159.8539
2185 18.8260 191(14) 169.7450 159.8674
2186 18.8300 190(14) 169.8606 159.8810
2187 18.8341 190(14) 169.9778 159.8945
2188 18.8381 189(14) 170.0967 159.9080
2189 18.8421 189(14) 170.2172 159.9215
2190 18.8461 189(14) 170.3395 159.9350
2191 18.8502 188(14) 170.4635 159.9485
2192 18.8542 188(14) 170.5893 159.9620
2193 18.8582 187(14) 170.7169 159.9754
2194 18.8623 187(14) 170.8464 159.9889
2195 18.8663 187(14) 170.9777 160.0024
2196 18.8703 186(14) 171.1111 160.0158
2197 18.8744 186(14) 171.2465 160.0293
2198 18.8784 186(14) 171.3839 160.0428
2199 18.8824 185(14) 171.5234 160.0562
2200 18.8865 185(14) 171.6649 160.0696
2201 18.8905 185(14) 171.8088 160.0830
2202 18.8945 184(14) 171.9548 160.0964
2203 18.8986 184(14) 172.1031 160.1098
2204 18.9026 184(14) 172.2538 160.1232
2205 18.9066 183(14) 172.4068 160.1366
2206 18.9106 183(14) 172.5623 160.1500
2207 18.9147 183(14) 172.7204 160.1634
2208 18.9187 182(13) 172.8810 160.1768
2209 18.9227 182(13) 173.0443 160.1901
2210 18.9268 182(13) 173.2101 160.2035
2211 18.9308 182(13) 173.3789 160.2168
2212 18.9348 181(13) 173.5504 160.2302
2213 18.9389 181(13) 173.7248 160.2435
2214 18.9429 181(13) 173.9022 160.2568
2215 18.9469 181(13) 174.0826 160.2701
2216 18.9510 181(13) 174.2661 160.2834
2217 18.9550 180(13) 174.4530 160.2968
2218 18.9590 180(13) 174.6431 160.3100
2219 18.9630 180(13) 174.8365 160.3233
2220 18.9671 180(13) 175.0333 160.3366
2221 18.9711 180(13) 175.2338 160.3499
2222 18.9751 180(13) 175.4378 160.3632
2223 18.9792 180(13) 175.6455 160.3764
2224 18.9832 180(13) 175.8572 160.3897
2225 18.9872 180(13) 176.0728 160.4029
2226 18.9913 180(13) 176.2922 160.4162
2227 18.9953 180(13) 176.5160 160.4294
2228 18.9993 180(13) 176.7440 160.4426
2229 19.0034 180(13) 176.9763 160.4558
2230 19.0074 180(13) 177.2131 160.4690
2231 19.0114 180(13) 177.4547 160.4823
2232 19.0155 180(13) 177.7008 160.4954
2233 19.0195 181(13) 177.9519 160.5086
2234 19.0235 181(13) 178.2080 160.5218
2235 19.0275 181(13) 178.4694 160.5350
2236 19.0316 181(13) 178.7358 160.5482
2237 19.0356 181(13) 179.0079 160.5613
2238 19.0396 182(13) 179.2856 160.5744
2239 19.0437 182(13) 179.5690 160.5876
2240 19.0477 182(13) 179.8583 160.6007
2241 19.0517 182(13) 180.1539 160.6138
2242 19.0558 183(14) 180.4557 160.6269
2243 19.0598 183(14) 180.7640 160.6401
2244 19.0638 183(14) 181.0791 160.6531
2245 19.0679 184(14) 181.4011 160.6662
2246 19.0719 184(14) 181.7301 160.6793
2247 19.0759 184(14) 182.0664 160.6924
2248 19.0799 185(14) 182.4105 160.7054
2249 19.0840 185(14) 182.7622 160.7185
2250 19.0880 186(14) 183.1219 160.7316
2251 19.0920 186(14) 183.4901 160.7446
2252 19.0961 187(14) 183.8668 160.7576
2253 19.1001 187(14) 184.2523 160.7707
2254 19.1041 188(14) 184.6470 160.7837
2255 19.1082 188(14) 185.0513 160.7967
2256 19.1122 189(14) 185.4652 160.8097
2257 19.1162 189(14) 185.8891 160.8227
2258 19.1203 190(14) 186.3236 160.8357
2259 19.1243 191(14) 186.7687 160.8487
2260 19.1283 191(14) 187.2250 160.8616
2261 19.1324 192(14) 187.6931 160.8746
2262 19.1364 193(14) 188.1730 160.8876
2263 19.1404 193(14) 188.6649 160.9005
2264 19.1444 194(14) 189.1701 160.9135
2265 19.1485 195(14) 189.6885 160.9264
2266 19.1525 195(14) 190.2204 160.9393
2267 19.1565 196(14) 190.7666 160.9523
2268 19.1606 197(14) 191.3277 160.9652
2269 19.1646 198(14) 192.0397 160.9781
2270 19.1686 199(14) 192.6322 160.9910
2271 19.1727 200(14) 193.2414 161.0038
2272 19.1767 201(14) 193.8677 161.0167
2273 19.1807 202(14) 194.5113 161.0296
2274 19.1848 203(14) 195.1740 161.0424
2275 19.1888 204(14) 195.8559 161.0553
2276 19.1928 206(14) 196.5575 161.0681
2277 19.1968 207(14) 197.2799 161.0810
2278 19.2009 208(14) 198.0243 161.0938
2279 19.2049 210(14) 198.7910 161.1066
2280 19.2089 211(15) 199.5812 161.1194
2281 19.2130 213(15) 200.3964 161.1322
2282 19.2170 215(15) 201.2374 161.1450
2283 19.2210 216(15) 202.1724 161.1578
2284 19.2251 218(15) 203.0681 161.1706
2285 19.2291 220(15) 203.9937 161.1834
2286 19.2331 222(15) 204.9497 161.1961
2287 19.2372 225(15) 205.9383 161.2089
2288 19.2412 227(15) 206.9615 161.2216
2289 19.2452 230(15) 208.0095 161.2344
2290 19.2492 232(15) 209.1065 161.2471
2291 19.2533 235(15) 210.2443 161.2598
2292 19.2573 238(15) 211.4250 161.2725
2293 19.2613 241(16) 212.6508 161.2852
2294 19.2654 245(16) 213.9251 161.2979
2295 19.2694 248(16) 215.2520 161.3106
2296 19.2734 252(16) 216.6340 161.3233
2297 19.2775 256(16) 218.0760 161.3360
2298 19.2815 260(16) 219.5780 161.3486
2299 19.2855 265(16) 221.1556 161.3613
2300 19.2896 270(16) 222.8077 161.3739
2301 19.2936 275(17) 224.5443 161.3866
2302 19.2976 280(17) 226.3716 161.3992
2303 19.3017 286(17) 228.2971 161.4118
2304 19.3057 292(17) 230.3315 161.4244
2305 19.3097 298(17) 232.4869 161.4370
2306 19.3137 305(17) 234.7734 161.4496
2307 19.3178 312(18) 237.2061 161.4622
2308 19.3218 319(18) 239.8019 161.4748
2309 19.3258 327(18) 242.5769 161.4874
2310 19.3299 336(18) 245.5480 161.4999
2311 19.3339 345(19) 248.7425 161.5125
2312 19.3379 354(19) 252.1818 161.5250
2313 19.3420 364(19) 255.8911 161.5376
2314 19.3460 374(19) 259.9012 161.5500
2315 19.3500 385(20) 264.2473 161.5626
2316 19.3541 397(20) 268.9605 161.5751
2317 19.3581 409(20) 274.0820 161.5876
2318 19.3621 422(21) 279.6567 161.6001
2319 19.3661 435(21) 285.7282 161.6126
2320 19.3702 449(21) 292.3427 161.6250
2321 19.3742 464(22) 299.5559 161.6375
2322 19.3782 479(22) 307.4280 161.6500
2323 19.3823 496(22) 316.0114 161.6624
2324 19.3863 513(23) 325.3726 161.6749
2325 19.3903 530(23) 335.5830 161.6873
2326 19.3944 549(23) 346.7017 161.6997
2327 19.3984 568(24) 358.8045 161.7121
2328 19.4024 588(24) 371.9709 161.7245
2329 19.4065 609(25) 386.2701 161.7369
2330 19.4105 630(25) 401.7694 161.7493
2331 19.4145 653(26) 418.5506 161.7617
2332 19.4186 676(26) 436.6966 161.7741
2333 19.4226 699(26) 456.2627 161.7864
2334 19.4266 724(27) 477.3269 161.7988
2335 19.4306 749(27) 499.9660 161.8111
2336 19.4347 775(28) 524.2198 161.8235
2337 19.4387 801(28) 550.1532 161.8358
2338 19.4427 828(29) 577.8273 161.8481
2339 19.4468 856(29) 607.2689 161.8604
2340 19.4508 884(30) 638.4918 161.8727
2341 19.4548 913(30) 671.5270 161.8850
2342 19.4589 941(31) 706.3959 161.8973
2343 19.4629 971(31) 743.0558 161.9096
2344 19.4669 1000(32) 781.4982 161.9218
2345 19.4710 1029(32) 821.6998 161.9341
2346 19.4750 1059(33) 863.5820 161.9463
2347 19.4790 1088(33) 907.0214 161.9585
2348 19.4830 1118(33) 951.9969 161.9708
2349 19.4871 1147(34) 998.3412 161.9830
2350 19.4911 1176(34) 1045.8795 161.9952
2351 19.4951 1204(35) 1094.4535 162.0074
2352 19.4992 1232(35) 1143.8790 162.0196
2353 19.5032 1259(35) 1193.8710 162.0318
2354 19.5072 1285(36) 1244.1826 162.0440
2355 19.5113 1310(36) 1294.5363 162.0561
2356 19.5153 1334(37) 1344.5723 162.0683
2357 19.5193 1357(37) 1393.8801 162.0804
2358 19.5234 1379(37) 1442.1593 162.0925
2359 19.5274 1399(37) 1488.9453 162.1047
2360 19.5314 1418(38) 1533.7811 162.1168
2361 19.5354 1435(38) 1576.2456 162.1289
2362 19.5395 1451(38) 1615.9137 162.1411
2363 19.5435 1465(38) 1652.3168 162.1531
2364 19.5475 1477(38) 1685.0710 162.1652
2365 19.5516 1487(39) 1713.8230 162.1773
2366 19.5556 1495(39) 1738.2415 162.1894
2367 19.5596 1501(39) 1758.0623 162.2014
2368 19.5637 1505(39) 1773.1099 162.2134
2369 19.5677 1507(39) 1783.2690 162.2255
2370 19.5717 1507(39) 1788.4791 162.2375
2371 19.5758 1505(39) 1788.7581 162.2495
2372 19.5798 1501(39) 1784.1736 162.2615
2373 19.5838 1494(39) 1774.8479 162.2736
2374 19.5879 1486(39) 1760.9406 162.2856
2375 19.5919 1475(38) 1742.6353 162.2975
2376 19.5959 1463(38) 1720.1594 162.3095
2377 19.5999 1449(38) 1693.7717 162.3215
2378 19.6040 1433(38) 1663.7296 162.3334
2379 19.6080 1415(38) 1630.3031 162.3454
2380 19.6120 1395(37) 1593.8290 162.3573
2381 19.6161 1374(37) 1554.6146 162.3692
2382 19.6201 1352(37) 1512.9768 162.3812
2383 19.6241 1328(36) 1469.2814 162.3931
2384 19.6282 1303(36) 1423.9279 162.4049
2385 19.6322 1277(36) 1377.1865 162.4168
2386 19.6362 1250(35) 1329.4513 162.4288
2387 19.6403 1222(35) 1281.0879 162.4406
2388 19.6443 1194(35) 1232.4004 162.4525
2389 19.6483 1165(34) 1183.6731 162.4643
2390 19.6523 1135(34) 1135.2369 162.4762
2391 19.6564 1105(33) 1087.3281 162.4880
2392 19.6604 1075(33) 1040.1575 162.4998
2393 19.6644 1045(32) 993.9536 162.5117
2394 19.6685 1014(32) 948.9378 162.5234
2395 19.6725 984(31) 905.1774 162.5353
2396 19.6765 954(31) 862.8434 162.5470
2397 19.6806 924(30) 822.0586 162.5588
2398 19.6846 895(30) 782.8845 162.5706
2399 19.6886 866(29) 745.3649 162.5824
2400 19.6927 837(29) 709.5779 162.5941
2401 19.6967 809(28) 675.5306 162.6059
2402 19.7007 782(28) 643.2183 162.6176
2403 19.7048 755(27) 612.6531 162.6293
2404 19.7088 729(27) 583.8322 162.6410
2405 19.7128 704(27) 556.7135 162.6527
2406 19.7168 679(26) 531.2485 162.6644
2407 19.7209 655(26) 507.4164 162.6761
2408 19.7249 632(25) 485.1532 162.6878
2409 19.7289 610(25) 464.3919 162.6994
2410 19.7330 589(24) 445.0903 162.7111
2411 19.7370 569(24) 427.1730 162.7227
2412 19.7410 549(23) 410.5644 162.7344
2413 19.7451 530(23) 395.2037 162.7460
2414 19.7491 512(23) 381.0270 162.7577
2415 19.7531 495(22) 367.9561 162.7692
2416 19.7572 478(22) 355.9162 162.7809
2417 19.7612 462(21) 344.8497 162.7924
2418 19.7652 448(21) 334.6839 162.8040
2419 19.7692 433(21) 325.3496 162.8156
2420 19.7733 420(20) 316.7893 162.8271
2421 19.7773 407(20) 308.9503 162.8387
2422 19.7813 395(20) 301.7606 162.8502
2423 19.7854 383(20) 295.1745 162.8618
2424 19.7894 372(19) 289.1437 162.8733
2425 19.7934 362(19) 283.6178 162.8848
2426 19.7975 352(19) 278.6516 162.8963
2427 19.8015 343(19) 274.0062 162.9078
2428 19.8055 334(18) 269.7423 162.9193
2429 19.8096 326(18) 265.8235 162.9308
2430 19.8136 318(18) 262.2196 162.9422
2431 19.8176 311(18) 258.9047 162.9537
2432 19.8217 304(17) 255.8456 162.9651
2433 19.8257 297(17) 253.0218 162.9766
2434 19.8297 291(17) 250.4125 162.9880
2435 19.8337 286(17) 247.9967 162.9994
2436 19.8378 281(17) 245.7559 163.0108
2437 19.8418 276(17) 243.6765 163.0222
2438 19.8458 271(16) 241.7431 163.0336
2439 19.8499 267(16) 239.9427 163.0450
2440 19.8539 263(16) 238.2649 163.0564
2441 19.8579 259(16) 236.7513 163.0677
2442 19.8620 256(16) 235.2912 163.0791
2443 19.8660 253(16) 233.9268 163.0904
2444 19.8700 250(16) 232.6528 163.1017
2445 19.8741 247(16) 231.4626 163.1131
2446 19.8781 245(16) 230.3506 163.1244
2447 19.8821 243(16) 229.3134 163.1357
2448 19.8861 241(16) 228.3468 163.1469
2449 19.8902 239(15) 227.4471 163.1582
2450 19.8942 237(15) 226.6119 163.1695
2451 19.8982 236(15) 225.8396 163.1808
2452 19.9023 234(15) 225.1278 163.1920
2453 19.9063 233(15) 224.4751 163.2032
2454 19.9103 232(15) 223.8809 163.2145
2455 19.9144 231(15) 223.3446 163.2257
2456 19.9184 231(15) 222.8658 163.2369
2457 19.9224 230(15) 222.4450 163.2481
2458 19.9265 230(15) 222.0832 163.2593
2459 19.9305 230(15) 221.7809 163.2705
2460 19.9345 229(15) 221.5400 163.2817
2461 19.9386 230(15) 221.3628 163.2928
2462 19.9426 230(15) 221.2515 163.3040
2463 19.9466 230(15) 221.2095 163.3152
2464 19.9506 231(15) 221.2403 163.3263
2465 19.9547 231(15) 221.3483 163.3374
2466 19.9587 232(15) 221.5385 163.3485
2467 19.9627 233(15) 221.8166 163.3596
2468 19.9668 234(15) 222.1888 163.3707
2469 19.9708 236(15) 222.6630 163.3818
2470 19.9748 237(15) 223.2470 163.3929
2471 19.9789 239(15) 223.9495 163.4039
2472 19.9829 241(16) 224.7805 163.4150
2473 19.9869 243(16) 225.7516 163.4260
2474 19.9910 246(16) 226.8736 163.4370
2475 19.9950 249(16) 228.1597 163.4481
2476 19.9990 251(16) 229.6246 163.4591
2477 20.0030 255(16) 231.2824 163.4701
2478 20.0071 258(16) 233.1480 163.4811
2479 20.0111 262(16) 235.2387 163.4921
2480 20.0151 266(16) 237.5732 163.5031
2481 20.0192 270(16) 240.1675 163.5140
2482 20.0232 275(17) 243.0415 163.5249
2483 20.0272 280(17) 246.2161 163.5359
2484 20.0313 285(17) 249.7079 163.5468
2485 20.0353 290(17) 253.5384 163.5578
2486 20.0393 296(17) 257.7296 163.5687
2487 20.0434 302(17) 262.2991 163.5796
2488 20.0474 308(18) 267.2640 163.5905
2489 20.0514 315(18) 272.6444 163.6013
2490 20.0555 322(18) 278.4608 163.6123
2491 20.0595 329(18) 284.7234 163.6231
2492 20.0635 337(18) 291.4493 163.6339
2493 20.0675 345(19) 298.6541 163.6448
2494 20.0716 353(19) 306.3410 163.6556
2495 20.0756 361(19) 314.5204 163.6664
2496 20.0796 370(19) 323.2004 163.6773
2497 20.0837 378(19) 332.3779 163.6881
2498 20.0877 387(20) 342.0446 163.6989
2499 20.0917 396(20) 352.1972 163.7097
2500 20.0958 405(20) 362.8282 163.7204
2501 20.0998 415(20) 373.9100 163.7312
2502 20.1038 424(21) 385.4240 163.7419
2503 20.1079 434(21) 397.3466 163.7527
2504 20.1119 443(21) 409.6364 163.7634
2505 20.1159 452(21) 422.2378 163.7741
2506 20.1199 462(21) 435.1237 163.7848
2507 20.1240 471(22) 448.2234 163.7956
2508 20.1280 480(22) 461.4624 163.8062
2509 20.1320 489(22) 474.7706 163.8169
2510 20.1361 498(22) 488.0684 163.8276
2511 20.1401 506(22) 501.2484 163.8382
2512 20.1441 514(23) 514.2138 163.8489
2513 20.1482 522(23) 526.8597 163.8595
2514 20.1522 529(23) 539.0626 163.8702
2515 20.1562 536(23) 550.6908 163.8808
2516 20.1603 542(23) 561.6434 163.8914
2517 20.1643 548(23) 571.7884 163.9020
2518 20.1683 553(24) 581.0060 163.9126
2519 20.1723 558(24) 589.1946 163.9232
2520 20.1764 562(24) 596.2635 163.9337
2521 20.1804 565(24) 602.1280 163.9443
2522 20.1844 568(24) 606.7312 163.9548
2523 20.1885 570(24) 610.0338 163.9654
2524 20.1925 572(24) 612.0115 163.9759
2525 20.1965 572(24) 612.6611 163.9864
2526 20.2006 572(24) 611.9974 163.9969
2527 20.2046 572(24) 610.0471 164.0075
2528 20.2086 570(24) 606.8511 164.0180
2529 20.2127 568(24) 602.4579 164.0284
2530 20.2167 565(24) 596.9207 164.0389
2531 20.2207 562(24) 590.3071 164.0493
2532 20.2248 558(24) 582.6822 164.0598
2533 20.2288 553(24) 574.1140 164.0702
2534 20.2328 548(23) 564.6830 164.0806
2535 20.2368 542(23) 554.4758 164.0910
2536 20.2409 535(23) 543.5742 164.1015
2537 20.2449 528(23) 532.0621 164.1119
2538 20.2489 520(23) 520.0437 164.1222
2539 20.2530 513(23) 507.6080 164.1326
2540 20.2570 504(22) 494.8437 164.1430
2541 20.2610 495(22) 481.8503 164.1534
2542 20.2651 486(22) 468.7308 164.1637
2543 20.2691 477(22) 455.5471 164.1740
2544 20.2731 468(22) 442.3920 164.1843
2545 20.2772 458(21) 429.3465 164.1946
2546 20.2812 448(21) 416.4717 164.2049
2547 20.2852 438(21) 403.8216 164.2152
2548 20.2892 428(21) 391.4610 164.2255
2549 20.2933 418(20) 379.4289 164.2358
2550 20.2973 408(20) 367.7581 164.2460
2551 20.3013 398(20) 356.4857 164.2563
2552 20.3054 388(20) 345.6471 164.2665
2553 20.3094 378(19) 335.2408 164.2767
2554 20.3134 369(19) 325.2912 164.2870
2555 20.3175 359(19) 315.8116 164.2972
2556 20.3215 350(19) 306.8017 164.3074
2557 20.3255 341(18) 298.2580 164.3176
2558 20.3296 333(18) 290.1857 164.3277
2559 20.3336 324(18) 282.5743 164.3379
2560 20.3376 316(18) 275.4120 164.3481
2561 20.3417 308(18) 268.6910 164.3582
2562 20.3457 300(17) 262.4012 164.3683
2563 20.3497 293(17) 256.5244 164.3785
2564 20.3537 286(17) 251.0419 164.3886
2565 20.3578 279(17) 245.9416 164.3987
2566 20.3618 273(17) 241.2031 164.4088
2567 20.3658 267(16) 236.8056 164.4189
2568 20.3699 261(16) 232.7346 164.4289
2569 20.3739 256(16) 228.9689 164.4390
2570 20.3779 250(16) 225.4883 164.4490
2571 20.3820 246(16) 222.2759 164.4591
2572 20.3860 241(16) 219.3148 164.4691
2573 20.3900 237(15) 216.5860 164.4791
2574 20.3941 233(15) 214.0710 164.4891
2575 20.3981 229(15) 211.7561 164.4991
2576 20.4021 225(15) 209.6242 164.5091
2577 20.4061 222(15) 207.6597 164.5191
2578 20.4102 219(15) 205.8496 164.5291
2579 20.4142 216(15) 204.1823 164.5390
2580 20.4182 213(15) 202.6425 164.5490
2581 20.4223 210(14) 201.2202 164.5589
2582 20.4263 208(14) 199.9055 164.5688
2583 20.4303 206(14) 198.6879 164.5787
2584 20.4344 204(14) 197.5580 164.5887
2585 20.4384 202(14) 196.5085 164.5985
2586 20.4424 200(14) 195.5316 164.6084
2587 20.4465 198(14) 194.6199 164.6183
2588 20.4505 197(14) 193.7676 164.6281
2589 20.4545 195(14) 192.9700 164.6380
2590 20.4585 194(14) 192.2205 164.6478
2591 20.4626 193(14) 191.5153 164.6577
2592 20.4666 192(14) 190.8506 164.6675
2593 20.4706 191(14) 190.2226 164.6773
2594 20.4747 189(14) 189.6275 164.6871
2595 20.4787 188(14) 189.0632 164.6969
2596 20.4827 188(14) 188.5266 164.7067
2597 20.4868 187(14) 188.0152 164.7164
2598 20.4908 186(14) 187.5274 164.7262
2599 20.4948 185(14) 187.0612 164.7359
2600 20.4989 184(14) 186.6151 164.7457
2601 20.5029 184(14) 186.1872 164.7554
2602 20.5069 183(14) 185.7767 164.7651
2603 20.5110 182(13) 185.3822 164.7748
2604 20.5150 182(13) 185.0024 164.7845
2605 20.5190 181(13) 184.6369 164.7942
2606 20.5230 181(13) 184.2844 164.8038
2607 20.5271 180(13) 183.9442 164.8135
2608 20.5311 180(13) 183.6157 164.8231
2609 20.5351 179(13) 183.2985 164.8328
2610 20.5392 179(13) 182.9917 164.8424
2611 20.5432 178(13) 182.6948 164.8521
2612 20.5472 178(13) 182.4075 164.8616
2613 20.5513 178(13) 182.1292 164.8712
2614 20.5553 177(13) 181.8593 164.8808
2615 20.5593 177(13) 181.5979 164.8904
2616 20.5634 177(13) 181.3443 164.9000
2617 20.5674 177(13) 181.0982 164.9095
2618 20.5714 176(13) 180.8593 164.9191
2619 20.5754 176(13) 180.6275 164.9286
2620 20.5795 176(13) 180.4023 164.9381
2621 20.5835 176(13) 180.1835 164.9476
2622 20.5875 176(13) 179.9709 164.9571
2623 20.5916 176(13) 179.7642 164.9666
2624 20.5956 176(13) 179.5632 164.9761
2625 20.5996 175(13) 179.3676 164.9855
2626 20.6037 175(13) 179.1776 164.9950
2627 20.6077 175(13) 178.9925 165.0045
2628 20.6117 175(13) 178.8123 165.0139
2629 20.6158 175(13) 178.6369 165.0233
2630 20.6198 175(13) 178.4662 165.0327
2631 20.6238 175(13) 178.2999 165.0421
2632 20.6279 175(13) 178.1379 165.0515
2633 20.6319 175(13) 177.9800 165.0609
2634 20.6359 175(13) 177.8261 165.0703
2635 20.6399 175(13) 177.6761 165.0796
2636 20.6440 175(13) 177.5299 165.0890
2637 20.6480 175(13) 177.3874 165.0983
2638 20.6520 175(13) 177.2483 165.1076
2639 20.6561 175(13) 177.1127 165.1170
2640 20.6601 175(13) 176.9804 165.1263
2641 20.6641 175(13) 176.8512 165.1356
2642 20.6682 175(13) 176.7251 165.1448
2643 20.6722 175(13) 176.6021 165.1541
2644 20.6762 175(13) 176.4820 165.1634
2645 20.6803 175(13) 176.3647 165.1726
2646 20.6843 174(13) 176.2502 165.1819
2647 20.6883 174(13) 176.1383 165.1911
2648 20.6923 174(13) 176.0291 165.2003
2649 20.6964 174(13) 175.9223 165.2095
2650 20.7004 174(13) 175.8180 165.2187
2651 20.7044 174(13) 175.7161 165.2279
2652 20.7085 174(13) 175.6165 165.2371
2653 20.7125 174(13) 175.5191 165.2463
2654 20.7165 174(13) 175.4239 165.2554
2655 20.7206 174(13) 175.3308 165.2646
2656 20.7246 173(13) 175.2398 165.2737
2657 20.7286 173(13) 175.1508 165.2828
2658 20.7327 173(13) 175.0638 165.2919
2659 20.7367 173(13) 174.9787 165.3010
2660 20.7407 173(13) 174.8954 165.3102
2661 20.7448 173(13) 174.8139 165.3192
2662 20.7488 173(13) 174.7342 165.3283
2663 20.7528 173(13) 174.6562 165.3373
2664 20.7568 173(13) 174.5799 165.3464
2665 20.7609 173(13) 174.5052 165.3554
2666 20.7649 173(13) 174.4321 165.3644
2667 20.7689 173(13) 174.3606 165.3734
2668 20.7730 173(13) 174.2905 165.3825
2669 20.7770 173(13) 174.2220 165.3914
2670 20.7810 173(13) 174.1549 165.4004
2671 20.7851 173(13) 174.0892 165.4094
2672 20.7891 173(13) 174.0248 165.4184
2673 20.7931 173(13) 173.9618 165.4273
2674 20.7972 173(13) 173.9001 165.4362
2675 20.8012 173(13) 173.8397 165.4452
2676 20.8052 173(13) 173.7805 165.4541
2677 20.8092 173(13) 173.7226 165.4630
2678 20.8133 173(13) 173.6659 165.4719
2679 20.8173 173(13) 173.6103 165.4808
2680 20.8213 173(13) 173.5558 165.4897
2681 20.8254 173(13) 173.5025 165.4985
2682 20.8294 173(13) 173.4502 165.5074
2683 20.8334 173(13) 173.3991 165.5162
2684 20.8375 173(13) 173.3490 165.5250
2685 20.8415 173(13) 173.2998 165.5338
2686 20.8455 173(13) 173.2517 165.5426
2687 20.8496 173(13) 173.2046 165.5515
2688 20.8536 173(13) 173.1585 165.5602
2689 20.8576 173(13) 173.1133 165.5690
2690 20.8616 173(13) 173.0689 165.5778
2691 20.8657 173(13) 173.0255 165.5865
2692 20.8697 173(13) 172.9830 165.5953
2693 20.8737 173(13) 172.9413 165.6040
2694 20.8778 173(13) 172.9005 165.6127
2695 20.8818 173(13) 172.8606 165.6214
2696 20.8858 173(13) 172.8214 165.6301
2697 20.8899 173(13) 172.7831 165.6388
2698 20.8939 173(13) 172.7455 165.6475
2699 20.8979 173(13) 172.7087 165.6562
2700 20.9020 173(13) 172.6726 165.6648
2701 20.9060 173(13) 172.6373 165.6735
2702 20.9100 173(13) 172.6027 165.6821
2703 20.9141 173(13) 172.5689 165.6907
2704 20.9181 173(13) 172.5357 165.6993
2705 20.9221 172(13) 172.5032 165.7079
2706 20.9261 172(13) 172.4714 165.7165
2707 20.9302 172(13) 172.4403 165.7251
2708 20.9342 172(13) 172.4098 165.7337
2709 20.9382 172(13) 172.3799 165.7422
2710 20.9423 172(13) 172.3507 165.7508
2711 20.9463 172(13) 172.3221 165.7593
2712 20.9503 172(13) 172.2941 165.7678
2713 20.9544 172(13) 172.2667 165.7763
2714 20.9584 171(13) 172.2399 165.7848
2715 20.9624 171(13) 172.2137 165.7933
2716 20.9665 171(13) 172.1880 165.8018
2717 20.9705 171(13) 172.1630 165.8103
2718 20.9745 171(13) 172.1384 165.8187
2719 20.9785 171(13) 172.1144 165.8272
2720 20.9826 171(13) 172.0909 165.8356
2721 20.9866 171(13) 172.0680 165.8441
2722 20.9906 171(13) 172.0456 165.8525
2723 20.9947 171(13) 172.0237 165.8609
2724 20.9987 170(13) 172.0022 165.8692
2725 21.0027 170(13) 171.9813 165.8776
2726 21.0068 170(13) 171.9609 165.8860
2727 21.0108 170(13) 171.9409 165.8944
2728 21.0148 170(13) 171.9214 165.9027
2729 21.0189 170(13) 171.9024 165.9111
2730 21.0229 170(13) 171.8839 165.9194
2731 21.0269 169(13) 171.8657 165.9277
2732 21.0310 169(13) 171.8481 165.9360
2733 21.0350 169(13) 171.8309 165.9443
2734 21.0390 169(13) 171.8141 165.9526
2735 21.0430 169(13) 171.7977 165.9608
2736 21.0471 168(13) 171.7818 165.9691
2737 21.0511 168(13) 171.7663 165.9774
2738 21.0551 168(13) 171.7512 165.9856
2739 21.0592 168(13) 171.7365 165.9938
2740 21.0632 168(13) 171.7222 166.0020
2741 21.0672 167(13) 171.7083 166.0102
2742 21.0713 167(13) 171.6948 166.0184
2743 21.0753 167(13) 171.6817 166.0266
2744 21.0793 167(13) 171.6690 166.0348
2745 21.0834 166(13) 171.6566 166.0430
2746 21.0874 166(13) 171.6447 166.0511
2747 21.0914 166(13) 171.6331 166.0592
2748 21.0954 166(13) 171.6218 166.0674
2749 21.0995 166(13) 171.6109 166.0755
2750 21.1035 166(13) 171.6004 166.0836
2751 21.1075 166(13) 171.5902 166.0917
2752 21.1116 165(13) 171.5804 166.0998
2753 21.1156 165(13) 171.5710 166.1079
2754 21.1196 165(13) 171.5618 166.1159
2755 21.1237 165(13) 171.5530 166.1240
2756 21.1277 165(13) 171.5446 166.1320
2757 21.1317 165(13) 171.5365 166.1401
2758 21.1358 165(13) 171.6805 166.1481
2759 21.1398 166(13) 171.6735 166.1561
2760 21.1438 166(13) 171.6667 166.1641
2761 21.1479 166(13) 171.6602 166.1720
2762 21.1519 166(13) 171.6541 166.1800
2763 21.1559 166(13) 171.6483 166.1880
2764 21.1599 166(13) 171.6428 166.1959
2765 21.1640 166(13) 171.6376 166.2039
2766 21.1680 167(13) 171.6328 166.2118
2767 21.1720 167(13) 171.6282 166.2197
2768 21.1761 167(13) 171.6240 166.2277
2769 21.1801 167(13) 171.6200 166.2355
2770 21.1841 167(13) 171.6163 166.2434
2771 21.1882 168(13) 171.6129 166.2513
2772 21.1922 168(13) 171.6099 166.2591
2773 21.1962 168(13) 171.6828 166.2670
2774 21.2003 168(13) 171.6805 166.2748
2775 21.2043 168(13) 171.6785 166.2827
2776 21.2083 168(13) 171.6769 166.2905
2777 21.2123 169(13) 171.6754 166.2983
2778 21.2164 169(13) 171.6743 166.3061
2779 21.2204 169(13) 171.6734 166.3139
2780 21.2244 169(13) 171.6729 166.3217
2781 21.2285 169(13) 171.6726 166.3294
2782 21.2325 169(13) 171.6725 166.3372
2783 21.2365 169(13) 171.6728 166.3449
2784 21.2406 169(13) 171.6734 166.3527
2785 21.2446 169(13) 171.6742 166.3604
2786 21.2486 169(13) 171.6753 166.3681
2787 21.2527 169(13) 171.6767 166.3758
2788 21.2567 169(13) 171.6784 166.3835
2789 21.2607 169(13) 171.6803 166.3911
2790 21.2647 169(13) 171.6825 166.3988
2791 21.2688 169(13) 171.6850 166.4065
2792 21.2728 169(13) 171.6877 166.4141
2793 21.2768 169(13) 171.6907 166.4218
2794 21.2809 169(13) 171.6940 166.4294
2795 21.2849 169(13) 171.6976 166.4370
2796 21.2889 169(13) 171.7014 166.4446
2797 21.2930 168(13) 171.7054 166.4521
2798 21.2970 168(13) 171.7098 166.4597
2799 21.3010 168(13) 171.7145 166.4673
2800 21.3051 168(13) 171.7194 166.4749
2801 21.3091 168(13) 171.7245 166.4824
2802 21.3131 168(13) 171.7299 166.4899
2803 21.3172 168(13) 171.7356 166.4974
2804 21.3212 168(13) 171.7416 166.5050
2805 21.3252 168(13) 171.7478 166.5125
2806 21.3292 168(13) 171.7543 166.5200
2807 21.3333 168(13) 171.7611 166.5274
2808 21.3373 168(13) 171.7681 166.5349
2809 21.3413 168(13) 171.7754 166.5423
2810 21.3454 168(13) 171.7830 166.5498
2811 21.3494 168(13) 171.7908 166.5572
2812 21.3534 168(13) 171.7989 166.5646
2813 21.3575 168(13) 171.8073 166.5721
2814 21.3615 168(13) 171.8160 166.5795
2815 21.3655 168(13) 171.8249 166.5868
2816 21.3696 168(13) 171.8340 166.5942
2817 21.3736 169(13) 171.8435 166.6016
2818 21.3776 169(13) 171.8532 166.6089
2819 21.3816 169(13) 171.8633 166.6163
2820 21.3857 169(13) 171.8735 166.6236
2821 21.3897 169(13) 171.8841 166.6310
2822 21.3937 169(13) 171.8950 166.6383
2823 21.3978 169(13) 171.9061 166.6456
2824 21.4018 170(13) 171.9174 166.6528
2825 21.4058 170(13) 171.9291 166.6601
2826 21.4099 170(13) 171.9411 166.6674
2827 21.4139 170(13) 171.9533 166.6746
2828 21.4179 170(13) 171.9659 166.6819
2829 21.4220 171(13) 171.9787 166.6891
2830 21.4260 171(13) 171.9918 166.6963
2831 21.4300 171(13) 172.0052 166.7035
2832 21.4341 171(13) 172.0189 166.7107
2833 21.4381 172(13) 172.0329 166.7180
2834 21.4421 172(13) 172.0471 166.7251
2835 21.4461 172(13) 172.0617 166.7323
2836 21.4502 172(13) 172.0766 166.7394
2837 21.4542 172(13) 172.0918 166.7466
2838 21.4582 173(13) 172.1072 166.7537
2839 21.4623 173(13) 172.1230 166.7608
2840 21.4663 173(13) 172.1391 166.7679
2841 21.4703 173(13) 172.1555 166.7751
2842 21.4744 173(13) 172.1722 166.7821
2843 21.4784 174(13) 172.1892 166.7892
2844 21.4824 174(13) 172.2066 166.7963
2845 21.4865 174(13) 172.2243 166.8033
2846 21.4905 174(13) 172.2423 166.8104
2847 21.4945 174(13) 172.2606 166.8174
2848 21.4985 175(13) 172.2792 166.8244
2849 21.5026 175(13) 172.2982 166.8314
2850 21.5066 175(13) 172.3176 166.8385
2851 21.5106 175(13) 172.3372 166.8454
2852 21.5147 175(13) 172.3573 166.8524
2853 21.5187 176(13) 172.3776 166.8594
2854 21.5227 176(13) 172.3983 166.8663
2855 21.5268 176(13) 172.4193 166.8733
2856 21.5308 176(13) 172.4408 166.8802
2857 21.5348 177(13) 172.4626 166.8872
2858 21.5389 177(13) 172.4847 166.8941
2859 21.5429 177(13) 172.5072 166.9010
2860 21.5469 177(13) 172.5300 166.9078
2861 21.5510 178(13) 172.5533 166.9147
2862 21.5550 178(13) 172.5770 166.9216
2863 21.5590 178(13) 172.6010 166.9285
2864 21.5630 178(13) 172.6254 166.9353
2865 21.5671 179(13) 172.6503 166.9421
2866 21.5711 179(13) 172.6755 166.9489
2867 21.5751 179(13) 172.7011 166.9557
2868 21.5792 180(13) 172.7272 166.9626
2869 21.5832 180(13) 172.7536 166.9693
2870 21.5872 180(13) 172.7805 166.9761
2871 21.5913 181(13) 172.8079 166.9829
2872 21.5953 181(13) 172.8356 166.9897
2873 21.5993 181(13) 172.8638 166.9964
2874 21.6034 181(13) 172.8925 167.0031
2875 21.6074 182(13) 172.9215 167.0099
2876 21.6114 182(13) 172.9511 167.0166
2877 21.6154 182(13) 172.9811 167.0233
2878 21.6195 182(13) 173.0116 167.0299
2879 21.6235 182(13) 173.0426 167.0366
2880 21.6275 183(14) 173.0741 167.0433
2881 21.6316 183(14) 173.1060 167.0500
2882 21.6356 183(14) 173.1385 167.0566
2883 21.6396 183(14) 173.1715 167.0632
2884 21.6437 183(14) 173.2050 167.0699
2885 21.6477 183(14) 173.2390 167.0765
2886 21.6517 183(14) 173.2735 167.0831
2887 21.6558 183(14) 173.3087 167.0897
2888 21.6598 183(14) 173.3442 167.0962
2889 21.6638 183(14) 173.3804 167.1028
2890 21.6679 183(14) 173.4173 167.1094
2891 21.6719 183(14) 173.4546 167.1159
2892 21.6759 183(14) 173.4926 167.1225
2893 21.6799 183(14) 173.5311 167.1290
2894 21.6840 183(14) 173.5703 167.1355
2895 21.6880 183(14) 173.6100 167.1420
2896 21.6920 183(14) 173.6505 167.1485
2897 21.6961 183(14) 173.6915 167.1550
2898 21.7001 183(14) 173.7332 167.1614
2899 21.7041 183(14) 173.7756 167.1679
2900 21.7082 183(14) 173.8187 167.1743
2901 21.7122 183(14) 173.8624 167.1808
2902 21.7162 183(14) 173.9068 167.1872
2903 21.7203 183(14) 173.9520 167.1936
2904 21.7243 183(14) 173.9979 167.2000
2905 21.7283 183(14) 174.0445 167.2064
2906 21.7323 183(14) 174.0919 167.2128
2907 21.7364 183(14) 174.1401 167.2191
2908 21.7404 183(14) 174.1891 167.2255
2909 21.7444 183(14) 174.2388 167.2319
2910 21.7485 183(14) 174.2894 167.2382
2911 21.7525 183(14) 174.3409 167.2445
2912 21.7565 183(14) 174.3931 167.2508
2913 21.7606 183(14) 174.4462 167.2571
2914 21.7646 183(14) 174.5003 167.2634
2915 21.7686 183(14) 174.5552 167.2697
2916 21.7727 183(14) 174.6111 167.2760
2917 21.7767 183(14) 174.6679 167.2823
2918 21.7807 183(14) 174.7256 167.2885
2919 21.7847 183(14) 174.7844 167.2947
2920 21.7888 183(14) 174.8441 167.3009
2921 21.7928 183(14) 174.9049 167.3072
2922 21.7968 182(13) 174.9667 167.3134
2923 21.8009 182(13) 175.0296 167.3195
2924 21.8049 182(13) 175.0937 167.3258
2925 21.8089 182(13) 175.1588 167.3319
2926 21.8130 182(13) 175.2250 167.3381
2927 21.8170 182(13) 175.2924 167.3442
2928 21.8210 181(13) 175.3611 167.3504
2929 21.8251 181(13) 175.4309 167.3565
2930 21.8291 181(13) 175.5020 167.3626
2931 21.8331 181(13) 175.5744 167.3687
2932 21.8372 180(13) 175.6480 167.3748
2933 21.8412 180(13) 175.7231 167.3809
2934 21.8452 180(13) 175.7996 167.3870
2935 21.8492 180(13) 175.8774 167.3930
2936 21.8533 180(13) 175.9566 167.3991
2937 21.8573 179(13) 176.0374 167.4051
2938 21.8613 179(13) 176.1196 167.4111
2939 21.8654 179(13) 176.2034 167.4171
2940 21.8694 179(13) 176.2888 167.4232
2941 21.8734 179(13) 176.3759 167.4292
2942 21.8775 178(13) 176.4645 167.4351
2943 21.8815 178(13) 176.5549 167.4411
2944 21.8855 178(13) 176.6471 167.4471
2945 21.8896 178(13) 176.7411 167.4530
2946 21.8936 178(13) 176.8369 167.4590
2947 21.8976 178(13) 176.9346 167.4649
2948 21.9016 178(13) 177.0343 167.4708
2949 21.9057 178(13) 177.1359 167.4767
2950 21.9097 178(13) 177.2396 167.4826
2951 21.9137 178(13) 177.3454 167.4885
2952 21.9178 178(13) 177.4534 167.4943
2953 21.9218 178(13) 177.5636 167.5002
2954 21.9258 178(13) 177.6761 167.5061
2955 21.9299 178(13) 177.7910 167.5119
2956 21.9339 178(13) 177.9082 167.5177
2957 21.9379 178(13) 178.0280 167.5236
2958 21.9420 178(13) 178.1503 167.5294
2959 21.9460 178(13) 178.2752 167.5352
2960 21.9500 178(13) 178.4028 167.5409
2961 21.9541 178(13) 178.5333 167.5467
2962 21.9581 178(13) 178.6666 167.5525
2963 21.9621 179(13) 178.8028 167.5582
2964 21.9661 179(13) 178.9421 167.5640
2965 21.9702 179(13) 179.0845 167.5697
2966 21.9742 179(13) 179.2301 167.5754
2967 21.9782 180(13) 179.3792 167.5811
2968 21.9823 180(13) 179.5315 167.5868
2969 21.9863 180(13) 179.6874 167.5925
2970 21.9903 180(13) 179.8471 167.5982
2971 21.9944 181(13) 180.0105 167.6039
2972 21.9984 181(13) 180.1777 167.6095
2973 22.0024 182(13) 180.3489 167.6151
2974 22.0065 182(13) 180.5244 167.6208
2975 22.0105 182(13) 180.7040 167.6264
2976 22.0145 183(14) 180.8880 167.6320
2977 22.0185 183(14) 181.0768 167.6376
2978 22.0226 184(14) 181.2702 167.6432
2979 22.0266 184(14) 181.4683 167.6488
2980 22.0306 184(14) 181.6717 167.6543
2981 22.0347 185(14) 181.8803 167.6599
2982 22.0387 185(14) 182.0942 167.6654
2983 22.0427 185(14) 182.3136 167.6710
2984 22.0468 186(14) 182.5390 167.6765
2985 22.0508 186(14) 182.7702 167.6819
2986 22.0548 186(14) 183.3576 167.6875
2987 22.0589 186(14) 183.6025 167.6929
2988 22.0629 187(14) 183.8541 167.6984
2989 22.0669 187(14) 184.1124 167.7039
2990 22.0709 187(14) 184.3781 167.7094
2991 22.0750 187(14) 184.6513 167.7148
2992 22.0790 187(14) 184.9321 167.7202
2993 22.0830 188(14) 185.2209 167.7257
2994 22.0871 188(14) 185.5183 167.7311
2995 22.0911 188(14) 185.8242 167.7365
2996 22.0951 188(14) 186.1392 167.7419
2997 22.0992 188(14) 186.4637 167.7472
2998 22.1032 188(14) 186.7981 167.7526
2999 22.1072 188(14) 187.1426 167.7580
3000 22.1113 189(14) 187.4976 167.7633
3001 22.1153 189(14) 188.0383 167.7687
3002 22.1193 189(14) 188.4165 167.7740
3003 22.1234 189(14) 188.8068 167.7793
3004 22.1274 190(14) 189.2101 167.7846
3005 22.1314 190(14) 189.6264 167.7899
3006 22.1354 190(14) 190.0566 167.7952
3007 22.1395 191(14) 190.5017 167.8004
3008 22.1435 191(14) 190.9621 167.8057
3009 22.1475 192(14) 191.4385 167.8109
3010 22.1516 193(14) 191.9319 167.8162
3011 22.1556 193(14) 192.4435 167.8214
3012 22.1596 194(14) 192.9739 167.8266
3013 22.1637 195(14) 193.5244 167.8318
3014 22.1677 196(14) 194.0966 167.8370
3015 22.1717 197(14) 194.6917 167.8422
3016 22.1758 198(14) 195.3105 167.8474
3017 22.1798 199(14) 195.9560 167.8525
3018 22.1838 200(14) 196.6295 167.8577
3019 22.1878 201(14) 197.3328 167.8628
3020 22.1919 202(14) 198.0686 167.8679
3021 22.1959 204(14) 198.8399 167.8730
3022 22.1999 205(14) 199.6491 167.8782
3023 22.2040 206(14) 200.4998 167.8833
3024 22.2080 208(14) 201.3963 167.8884
3025 22.2120 210(14) 202.3424 167.8934
3026 22.2161 212(15) 203.3419 167.8985
3027 22.2201 214(15) 204.4021 167.9035
3028 22.2241 216(15) 205.5279 167.9086
3029 22.2282 218(15) 206.7254 167.9136
3030 22.2322 220(15) 208.0027 167.9186
3031 22.2362 223(15) 209.3685 167.9236
3032 22.2403 225(15) 210.8307 167.9286
3033 22.2443 228(15) 212.4001 167.9336
3034 22.2483 231(15) 214.0885 167.9386
3035 22.2523 234(15) 215.9075 167.9435
3036 22.2564 238(15) 217.8695 167.9485
3037 22.2604 241(16) 219.9899 167.9534
3038 22.2644 245(16) 222.2856 167.9584
3039 22.2685 249(16) 224.7714 167.9633
3040 22.2725 254(16) 227.4669 167.9682
3041 22.2765 258(16) 230.3930 167.9731
3042 22.2806 263(16) 233.5678 167.9780
3043 22.2846 269(16) 237.0150 167.9829
3044 22.2886 274(17) 240.7594 167.9877
3045 22.2927 280(17) 244.8241 167.9926
3046 22.2967 286(17) 249.2322 167.9974
3047 22.3007 292(17) 254.0116 168.0023
3048 22.3047 299(17) 259.1917 168.0071
3049 22.3088 306(17) 264.7949 168.0119
3050 22.3128 314(18) 270.8510 168.0167
3051 22.3168 322(18) 277.3904 168.0215
3052 22.3209 330(18) 284.4340 168.0263
3053 22.3249 338(18) 292.0111 168.0311
3054 22.3289 347(19) 300.1509 168.0358
3055 22.3330 356(19) 308.8739 168.0405
3056 22.3370 365(19) 318.1975 168.0453
3057 22.3410 375(19) 328.1453 168.0500
3058 22.3451 385(20) 338.7393 168.0547
3059 22.3491 395(20) 349.9835 168.0594
3060 22.3531 406(20) 361.8925 168.0641
3061 22.3572 416(20) 374.4781 168.0688
3062 22.3612 427(21) 387.7358 168.0735
3063 22.3652 438(21) 401.6473 168.0781
3064 22.3692 450(21) 416.2285 168.0828
3065 22.3733 461(21) 431.4489 168.0874
3066 22.3773 472(22) 447.2759 168.0921
3067 22.3813 483(22) 463.6831 168.0967
3068 22.3854 495(22) 480.6363 168.1013
3069 22.3894 506(22) 498.0667 168.1059
3070 22.3934 517(23) 515.9185 168.1105
3071 22.3975 528(23) 534.1249 168.1150
3072 22.4015 539(23) 552.5886 168.1196
3073 22.4055 549(23) 571.1897 168.1241
3074 22.4096 560(24) 589.8469 168.1287
3075 22.4136 569(24) 608.4119 168.1332
3076 22.4176 579(24) 626.7313 168.1378
3077 22.4216 588(24) 644.6570 168.1423
3078 22.4257 596(24) 662.0292 168.1467
3079 22.4297 604(25) 678.6566 168.1513
3080 22.4337 612(25) 694.3688 168.1557
3081 22.4378 618(25) 708.9965 168.1602
3082 22.4418 624(25) 722.3629 168.1646
3083 22.4458 630(25) 734.3073 168.1691
3084 22.4499 634(25) 744.7015 168.1735
3085 22.4539 638(25) 753.4387 168.1780
3086 22.4579 641(25) 760.4287 168.1824
3087 22.4620 644(25) 765.6248 168.1868
3088 22.4660 645(25) 769.0070 168.1911
3089 22.4700 646(25) 770.5792 168.1955
3090 22.4740 646(25) 770.3748 168.1999
3091 22.4781 645(25) 768.4433 168.2042
3092 22.4821 643(25) 764.8503 168.2086
3093 22.4861 641(25) 759.6738 168.2129
3094 22.4902 637(25) 752.9935 168.2173
3095 22.4942 633(25) 744.8891 168.2216
3096 22.4982 629(25) 735.4534 168.2259
3097 22.5023 623(25) 724.7701 168.2302
3098 22.5063 617(25) 712.9224 168.2345
3099 22.5103 610(25) 700.0076 168.2387
3100 22.5144 603(25) 686.1373 168.2430
3101 22.5184 595(24) 671.3887 168.2473
3102 22.5224 587(24) 655.8842 168.2515
3103 22.5265 578(24) 639.7473 168.2557
3104 22.5305 569(24) 623.0908 168.2600
3105 22.5345 559(24) 606.0289 168.2642
3106 22.5385 549(23) 588.7001 168.2684
3107 22.5426 539(23) 571.2165 168.2725
3108 22.5466 529(23) 553.6848 168.2767
3109 22.5506 518(23) 536.2219 168.2809
3110 22.5547 508(23) 518.9437 168.2850
3111 22.5587 497(22) 501.9074 168.2892
3112 22.5627 486(22) 485.2094 168.2933
3113 22.5668 476(22) 468.9263 168.2974
3114 22.5708 465(22) 453.1087 168.3015
3115 22.5748 455(21) 437.7978 168.3057
3116 22.5789 444(21) 423.0472 168.3097
3117 22.5829 434(21) 408.8796 168.3138
3118 22.5869 424(21) 395.3107 168.3179
3119 22.5910 414(20) 382.3621 168.3219
3120 22.5950 404(20) 370.0480 168.3260
3121 22.5990 395(20) 358.3646 168.3300
3122 22.6030 385(20) 347.3041 168.3341
3123 22.6071 376(19) 336.8702 168.3381
3124 22.6111 368(19) 327.0468 168.3421
3125 22.6151 359(19) 317.8154 168.3461
3126 22.6192 351(19) 309.1682 168.3501
3127 22.6232 343(19) 301.0816 168.3541
3128 22.6272 336(18) 293.5314 168.3580
3129 22.6313 328(18) 286.4992 168.3620
3130 22.6353 321(18) 279.9647 168.3659
3131 22.6393 314(18) 273.9002 168.3698
3132 22.6434 308(18) 268.2788 168.3738
3133 22.6474 302(17) 263.0810 168.3777
3134 22.6514 296(17) 258.2794 168.3815
3135 22.6554 290(17) 253.8477 168.3855
3136 22.6595 285(17) 249.7643 168.3893
3137 22.6635 279(17) 246.0093 168.3932
3138 22.6675 274(17) 242.5529 168.3971
3139 22.6716 270(16) 239.3773 168.4009
3140 22.6756 265(16) 236.4629 168.4047
3141 22.6796 261(16) 233.7883 168.4086
3142 22.6837 257(16) 231.3340 168.4124
3143 22.6877 253(16) 229.0845 168.4162
3144 22.6917 250(16) 227.0221 168.4200
3145 22.6958 246(16) 225.1307 168.4238
3146 22.6998 243(16) 223.3969 168.4275
3147 22.7038 240(15) 221.8090 168.4313
3148 22.7078 238(15) 220.3518 168.4351
3149 22.7119 235(15) 219.0156 168.4388
3150 22.7159 233(15) 217.7908 168.4425
3151 22.7199 230(15) 216.6674 168.4462
3152 22.7240 228(15) 215.6366 168.4500
3153 22.7280 227(15) 214.6917 168.4537
3154 22.7320 225(15) 213.8253 168.4574
3155 22.7361 223(15) 213.0309 168.4610
3156 22.7401 222(15) 212.3034 168.4647
3157 22.7441 221(15) 211.6381 168.4683
3158 22.7482 220(15) 211.0304 168.4720
3159 22.7522 219(15) 210.4760 168.4756
3160 22.7562 218(15) 209.9722 168.4793
3161 22.7603 217(15) 209.5157 168.4829
3162 22.7643 217(15) 209.1036 168.4865
3163 22.7683 217(15) 208.7340 168.4901
3164 22.7723 216(15) 208.4048 168.4937
3165 22.7764 216(15) 208.1143 168.4972
3166 22.7804 216(15) 207.8611 168.5008
3167 22.7844 216(15) 207.6442 168.5043
3168 22.7885 216(15) 207.4625 168.5079
3169 22.7925 217(15) 207.3152 168.5114
3170 22.7965 217(15) 207.2020 168.5149
3171 22.8006 217(15) 207.1224 168.5184
3172 22.8046 218(15) 207.0763 168.5219
3173 22.8086 218(15) 207.0638 168.5254
3174 22.8127 219(15) 207.0850 168.5289
3175 22.8167 220(15) 207.1405 168.5323
3176 22.8207 221(15) 207.2309 168.5358
3177 22.8247 222(15) 207.3570 168.5393
3178 22.8288 223(15) 207.5199 168.5427
3179 22.8328 224(15) 207.7210 168.5461
3180 22.8368 226(15) 207.9618 168.5495
3181 22.8409 227(15) 208.2443 168.5529
3182 22.8449 229(15) 208.5709 168.5564
3183 22.8489 230(15) 208.9440 168.5597
3184 22.8530 232(15) 209.3662 168.5631
3185 22.8570 234(15) 209.8418 168.5665
3186 22.8610 236(15) 210.3743 168.5698
3187 22.8651 238(15) 210.9676 168.5732
3188 22.8691 240(15) 211.6271 168.5765
3189 22.8731 242(16) 212.3587 168.5798
3190 22.8771 245(16) 213.1678 168.5831
3191 22.8812 248(16) 214.0617 168.5864
3192 22.8852 250(16) 215.0486 168.5897
3193 22.8892 253(16) 216.1364 168.5930
3194 22.8933 256(16) 217.3337 168.5962
3195 22.8973 259(16) 218.6512 168.5995
3196 22.9013 263(16) 220.1006 168.6027
3197 22.9054 266(16) 221.6923 168.6060
3198 22.9094 270(16) 223.4399 168.6092
3199 22.9134 274(17) 225.3579 168.6124
3200 22.9175 278(17) 227.4591 168.6156
3201 22.9215 282(17) 229.7600 168.6188
3202 22.9255 287(17) 231.9738 168.6220
3203 22.9296 292(17) 234.7257 168.6252
3204 22.9336 296(17) 237.7271 168.6283
3205 22.9376 301(17) 240.9977 168.6315
3206 22.9416 307(18) 244.5579 168.6347
3207 22.9457 312(18) 248.4235 168.6378
3208 22.9497 318(18) 252.6155 168.6409
3209 22.9537 323(18) 257.1553 168.6440
3210 22.9578 329(18) 262.0577 168.6471
3211 22.9618 336(18) 267.3434 168.6502
3212 22.9658 342(18) 273.0330 168.6533
3213 22.9699 348(19) 279.1410 168.6564
3214 22.9739 355(19) 285.5281 168.6595
3215 22.9779 362(19) 292.5150 168.6625
3216 22.9820 369(19) 300.3336 168.6655
3217 22.9860 376(19) 308.2512 168.6685
3218 22.9900 383(20) 316.6458 168.6716
3219 22.9940 390(20) 325.5262 168.6746
3220 22.9981 397(20) 334.8893 168.6776
3221 23.0021 404(20) 344.7229 168.6805
3222 23.0061 412(20) 355.0382 168.6835
3223 23.0102 419(20) 365.8145 168.6865
3224 23.0142 426(21) 377.0286 168.6894
3225 23.0182 434(21) 388.6624 168.6924
3226 23.0223 441(21) 400.6918 168.6953
3227 23.0263 448(21) 413.0682 168.6982
3228 23.0303 455(21) 425.7519 168.7012
3229 23.0344 462(21) 438.6950 168.7041
3230 23.0384 469(22) 451.8281 168.7070
3231 23.0424 476(22) 465.0652 168.7099
3232 23.0465 482(22) 478.5310 168.7128
3233 23.0505 488(22) 491.7514 168.7156
3234 23.0545 494(22) 504.7990 168.7184
3235 23.0585 500(22) 517.5665 168.7213
3236 23.0626 505(22) 529.9373 168.7241
3237 23.0666 510(23) 541.7733 168.7269
3238 23.0706 515(23) 552.9508 168.7298
3239 23.0747 520(23) 563.3467 168.7326
3240 23.0787 523(23) 572.8337 168.7353
3241 23.0827 527(23) 581.2961 168.7381
3242 23.0868 530(23) 588.6423 168.7409
3243 23.0908 533(23) 594.7966 168.7437
3244 23.0948 535(23) 599.6963 168.7464
3245 23.0989 536(23) 603.3105 168.7492
3246 23.1029 538(23) 605.6276 168.7519
3247 23.1069 538(23) 606.6542 168.7546
3248 23.1109 538(23) 606.4178 168.7573
3249 23.1150 538(23) 604.9574 168.7600
3250 23.1190 537(23) 602.3231 168.7627
3251 23.1230 536(23) 598.5732 168.7654
3252 23.1271 534(23) 593.7659 168.7681
3253 23.1311 532(23) 587.9584 168.7707
3254 23.1351 529(23) 581.2167 168.7734
3255 23.1392 525(23) 573.5980 168.7760
3256 23.1432 522(23) 565.1586 168.7786
3257 23.1472 518(23) 555.9645 168.7813
3258 23.1513 513(23) 546.0905 168.7839
3259 23.1553 508(23) 535.5870 168.7865
3260 23.1593 503(22) 524.5373 168.7890
3261 23.1634 497(22) 513.0254 168.7916
3262 23.1674 491(22) 501.1286 168.7942
3263 23.1714 485(22) 488.9259 168.7968
3264 23.1754 478(22) 476.5150 168.7993
3265 23.1795 471(22) 463.9753 168.8018
3266 23.1835 465(22) 451.3832 168.8044
3267 23.1875 457(21) 438.8228 168.8069
3268 23.1916 450(21) 426.3783 168.8094
3269 23.1956 443(21) 414.0918 168.8119
3270 23.1996 435(21) 402.0339 168.8144
3271 23.2037 428(21) 390.2608 168.8168
3272 23.2077 420(20) 378.8101 168.8193
3273 23.2117 412(20) 367.7127 168.8218
3274 23.2158 405(20) 357.0080 168.8242
3275 23.2198 397(20) 346.7132 168.8266
3276 23.2238 389(20) 336.8406 168.8291
3277 23.2278 382(20) 327.4063 168.8315
3278 23.2319 374(19) 318.4211 168.8339
3279 23.2359 367(19) 309.8828 168.8363
3280 23.2399 360(19) 301.7864 168.8387
3281 23.2440 352(19) 294.1350 168.8410
3282 23.2480 345(19) 286.9174 168.8434
3283 23.2520 338(18) 280.1207 168.8457
3284 23.2561 332(18) 273.7400 168.8481
3285 23.2601 325(18) 267.7585 168.8505
3286 23.2641 319(18) 262.1590 168.8528
3287 23.2682 312(18) 256.9290 168.8551
3288 23.2722 306(17) 252.0542 168.8574
3289 23.2762 300(17) 247.5150 168.8597
3290 23.2803 294(17) 243.2924 168.8620
3291 23.2843 289(17) 239.3729 168.8642
3292 23.2883 283(17) 235.7368 168.8665
3293 23.2923 278(17) 232.3655 168.8688
3294 23.2964 273(17) 229.2437 168.8710
3295 23.3004 268(16) 226.3575 168.8732
3296 23.3044 264(16) 223.6852 168.8755
3297 23.3085 259(16) 221.2144 168.8777
3298 23.3125 255(16) 218.9310 168.8799
3299 23.3165 251(16) 216.8198 168.8820
3300 23.3206 247(16) 214.8665 168.8843
3301 23.3246 243(16) 213.0601 168.8864
3302 23.3286 239(15) 211.3878 168.8886
3303 23.3327 236(15) 209.8377 168.8907
3304 23.3367 233(15) 208.4003 168.8929
3305 23.3407 230(15) 207.0671 168.8950
3306 23.3447 227(15) 205.8266 168.8971
3307 23.3488 224(15) 204.6719 168.8992
3308 23.3528 221(15) 203.5960 168.9013
3309 23.3568 219(15) 202.5913 168.9034
3310 23.3609 216(15) 201.6512 168.9055
3311 23.3649 214(15) 200.7707 168.9076
3312 23.3689 212(15) 199.9442 168.9097
3313 23.3730 209(14) 199.1666 168.9117
3314 23.3770 207(14) 198.4340 168.9138
3315 23.3810 206(14) 197.7430 168.9158
3316 23.3851 204(14) 197.0896 168.9178
3317 23.3891 202(14) 196.4705 168.9198
3318 23.3931 200(14) 195.8836 168.9218
3319 23.3971 199(14) 195.3258 168.9238
3320 23.4012 197(14) 194.7949 168.9258
3321 23.4052 196(14) 194.2891 168.9277
3322 23.4092 195(14) 193.8066 168.9297
3323 23.4133 194(14) 193.3454 168.9317
3324 23.4173 192(14) 192.9043 168.9336
3325 23.4213 191(14) 192.4822 168.9355
3326 23.4254 190(14) 192.0776 168.9375
3327 23.4294 189(14) 191.6894 168.9394
3328 23.4334 188(14) 191.3168 168.9413
3329 23.4375 187(14) 190.9590 168.9432
3330 23.4415 187(14) 190.6148 168.9451
3331 23.4455 186(14) 190.2838 168.9470
3332 23.4496 185(14) 189.9654 168.9488
3333 23.4536 185(14) 189.6585 168.9507
3334 23.4576 184(14) 189.3630 168.9525
3335 23.4616 183(14) 189.0783 168.9544
3336 23.4657 183(14) 188.8039 168.9562
3337 23.4697 182(13) 188.5392 168.9580
3338 23.4737 182(13) 188.2839 168.9598
3339 23.4778 182(13) 188.0376 168.9616
3340 23.4818 181(13) 187.7998 168.9634
3341 23.4858 181(13) 187.5704 168.9652
3342 23.4899 181(13) 187.3490 168.9669
3343 23.4939 180(13) 187.1351 168.9687
3344 23.4979 180(13) 186.9286 168.9704
3345 23.5020 180(13) 186.7292 168.9722
3346 23.5060 180(13) 186.5367 168.9739
3347 23.5100 179(13) 186.3507 168.9756
3348 23.5140 179(13) 186.1710 168.9773
3349 23.5181 179(13) 185.9976 168.9790
3350 23.5221 179(13) 185.7448 168.9807
3351 23.5261 179(13) 185.5831 168.9823
3352 23.5302 179(13) 185.4270 168.9840
3353 23.5342 179(13) 185.2763 168.9857
3354 23.5382 178(13) 185.1307 168.9873
3355 23.5423 178(13) 184.9901 168.9890
3356 23.5463 178(13) 184.8544 168.9906
3357 23.5503 178(13) 184.7234 168.9922
3358 23.5544 178(13) 184.5970 168.9938
3359 23.5584 178(13) 184.4750 168.9954
3360 23.5624 178(13) 184.3573 168.9970
3361 23.5665 178(13) 184.2437 168.9986
3362 23.5705 178(13) 184.1343 169.0001
3363 23.5745 178(13) 183.9864 169.0017
3364 23.5785 178(13) 183.8849 169.0033
3365 23.5826 178(13) 183.7871 169.0048
3366 23.5866 178(13) 183.6929 169.0063
3367 23.5906 178(13) 183.6022 169.0078
3368 23.5947 179(13) 183.5151 169.0094
3369 23.5987 179(13) 183.4314 169.0109
3370 23.6027 179(13) 183.3508 169.0123
3371 23.6068 179(13) 183.2735 169.0138
3372 23.6108 179(13) 183.1993 169.0153
3373 23.6148 179(13) 183.1283 169.0168
3374 23.6189 179(13) 183.0602 169.0182
3375 23.6229 179(13) 182.9950 169.0197
3376 23.6269 179(13) 182.9327 169.0211
3377 23.6309 180(13) 182.8732 169.0225
3378 23.6350 180(13) 182.8165 169.0239
3379 23.6390 180(13) 182.7625 169.0253
3380 23.6430 180(13) 182.7111 169.0267
3381 23.6471 181(13) 182.6622 169.0281
3382 23.6511 181(13) 182.6160 169.0295
3383 23.6551 181(13) 182.5723 169.0308
3384 23.6592 182(13) 182.5310 169.0322
3385 23.6632 182(13) 182.4921 169.0335
3386 23.6672 182(13) 182.4557 169.0349
3387 23.6713 183(14) 182.4216 169.0362
3388 23.6753 183(14) 182.3897 169.0375
3389 23.6793 183(14) 182.3602 169.0388
3390 23.6833 184(14) 182.3329 169.0401
3391 23.6874 184(14) 182.3079 169.0414
3392 23.6914 185(14) 182.2850 169.0427
3393 23.6954 185(14) 182.2644 169.0439
3394 23.6995 186(14) 182.2458 169.0452
3395 23.7035 186(14) 182.2294 169.0465
3396 23.7075 186(14) 182.2151 169.0477
3397 23.7116 187(14) 182.2029 169.0489
3398 23.7156 187(14) 182.1927 169.0501
3399 23.7196 188(14) 182.1846 169.0514
3400 23.7237 188(14) 182.1785 169.0526
3401 23.7277 189(14) 182.1744 169.0537
3402 23.7317 189(14) 182.1723 169.0549
3403 23.7358 189(14) 182.1723 169.0561
3404 23.7398 190(14) 182.1742 169.0573
3405 23.7438 190(14) 182.1781 169.0584
3406 23.7478 190(14) 182.1840 169.0595
3407 23.7519 191(14) 182.1919 169.0607
3408 23.7559 191(14) 182.2016 169.0618
3409 23.7599 191(14) 182.2134 169.0629
3410 23.7640 191(14) 182.2272 169.0640
3411 23.7680 191(14) 182.2429 169.0651
3412 23.7720 192(14) 182.2605 169.0662
3413 23.7761 192(14) 182.2801 169.0673
3414 23.7801 192(14) 182.3016 169.0683
3415 23.7841 192(14) 182.3251 169.0694
3416 23.7882 192(14) 182.3506 169.0704
3417 23.7922 192(14) 182.3781 169.0715
3418 23.7962 192(14) 182.4076 169.0725
3419 23.8002 191(14) 182.4390 169.0735
3420 23.8043 191(14) 182.4725 169.0745
3421 23.8083 191(14) 182.5080 169.0755
3422 23.8123 191(14) 182.5455 169.0765
3423 23.8164 191(14) 182.5850 169.0775
3424 23.8204 190(14) 182.6267 169.0785
3425 23.8244 190(14) 182.6704 169.0795
3426 23.8285 190(14) 182.7162 169.0804
3427 23.8325 189(14) 182.7641 169.0813
3428 23.8365 189(14) 182.8142 169.0823
3429 23.8406 188(14) 182.8664 169.0832
3430 23.8446 188(14) 182.9208 169.0841
3431 23.8486 187(14) 182.9774 169.0850
3432 23.8527 187(14) 183.0363 169.0859
3433 23.8567 186(14) 183.0974 169.0868
3434 23.8607 186(14) 183.1609 169.0877
3435 23.8647 185(14) 183.2267 169.0885
3436 23.8688 185(14) 183.2948 169.0894
3437 23.8728 184(14) 183.3653 169.0902
3438 23.8768 184(14) 183.4383 169.0911
3439 23.8809 183(14) 183.5137 169.0919
3440 23.8849 183(14) 183.5917 169.0927
3441 23.8889 182(13) 183.6722 169.0935
3442 23.8930 182(13) 183.7553 169.0943
3443 23.8970 182(13) 183.8411 169.0951
3444 23.9010 181(13) 183.9296 169.0959
3445 23.9051 181(13) 184.0208 169.0966
3446 23.9091 180(13) 184.1149 169.0974
3447 23.9131 180(13) 184.2118 169.0982
3448 23.9171 180(13) 184.3117 169.0989
3449 23.9212 179(13) 184.4145 169.0997
3450 23.9252 179(13) 184.5203 169.1004
3451 23.9292 179(13) 184.6293 169.1011
3452 23.9333 179(13) 184.7415 169.1018
3453 23.9373 178(13) 184.8568 169.1025
3454 23.9413 178(13) 184.9757 169.1032
3455 23.9454 178(13) 185.0978 169.1039
3456 23.9494 178(13) 185.2234 169.1045
3457 23.9534 178(13) 185.3527 169.1052
3458 23.9575 178(13) 185.4856 169.1058
3459 23.9615 178(13) 185.6222 169.1065
3460 23.9655 178(13) 185.7627 169.1071
3461 23.9696 178(13) 185.9072 169.1077
3462 23.9736 178(13) 186.0558 169.1084
3463 23.9776 178(13) 186.2083 169.1089
3464 23.9816 178(13) 186.3654 169.1095
3465 23.9857 178(13) 186.5268 169.1101
3466 23.9897 178(13) 186.6927 169.1107
3467 23.9937 178(13) 186.8632 169.1113
3468 23.9978 178(13) 187.0386 169.1118
3469 24.0018 178(13) 187.2188 169.1124
3470 24.0058 179(13) 187.4041 169.1129
3471 24.0099 179(13) 187.5948 169.1134
3472 24.0139 179(13) 187.7908 169.1140
3473 24.0179 179(13) 187.9922 169.1145
3474 24.0220 179(13) 188.1995 169.1150
3475 24.0260 179(13) 188.4127 169.1155
3476 24.0300 179(13) 188.6319 169.1160
3477 24.0340 179(13) 188.8574 169.1164
3478 24.0381 179(13) 189.0896 169.1169
3479 24.0421 179(13) 189.3283 169.1173
3480 24.0461 179(13) 189.5740 169.1178
3481 24.0502 179(13) 189.8270 169.1182
3482 24.0542 179(13) 190.0874 169.1186
3483 24.0582 179(13) 190.3555 169.1191
3484 24.0623 179(13) 190.6314 169.1195
3485 24.0663 179(13) 190.9158 169.1198
3486 24.0703 179(13) 191.2086 169.1203
3487 24.0744 179(13) 191.5103 169.1206
3488 24.0784 179(13) 191.8213 169.1210
3489 24.0824 179(13) 192.1417 169.1214
3490 24.0864 179(13) 192.4720 169.1217
3491 24.0905 179(13) 192.8128 169.1221
3492 24.0945 179(13) 193.1642 169.1224
3493 24.0985 179(13) 193.5267 169.1227
3494 24.1026 180(13) 193.9007 169.1230
3495 24.1066 180(13) 194.2870 169.1233
3496 24.1106 180(13) 194.6856 169.1237
3497 24.1147 180(13) 195.0974 169.1239
3498 24.1187 180(13) 195.5230 169.1242
3499 24.1227 180(13) 195.9629 169.1245
3500 24.1268 180(13) 196.4173 169.1248
3501 24.1308 180(13) 196.8877 169.1250
3502 24.1348 180(13) 197.3746 169.1253
3503 24.1389 180(13) 197.8783 169.1255
3504 24.1429 181(13) 198.4001 169.1257
3505 24.1469 181(13) 198.9411 169.1259
3506 24.1509 181(13) 199.5018 169.1261
3507 24.1550 181(13) 200.0837 169.1263
3508 24.1590 182(13) 200.6881 169.1265
3509 24.1630 182(13) 201.3162 169.1267
3510 24.1671 182(13) 201.9686 169.1268
3511 24.1711 183(14) 202.6484 169.1270
3512 24.1751 183(14) 203.3567 169.1272
3513 24.1792 184(14) 204.0950 169.1273
3514 24.1832 184(14) 204.8660 169.1274
3515 24.1872 185(14) 205.6723 169.1276
3516 24.1913 186(14) 206.5159 169.1277
3517 24.1953 186(14) 207.4002 169.1278
3518 24.1993 187(14) 208.3290 169.1279
3519 24.2034 188(14) 209.3057 169.1280
3520 24.2074 189(14) 210.3337 169.1281
3521 24.2114 190(14) 211.4184 169.1281
3522 24.2154 192(14) 212.5654 169.1282
3523 24.2195 193(14) 213.7793 169.1282
3524 24.2235 195(14) 215.0672 169.1283
3525 24.2275 196(14) 216.4366 169.1283
3526 24.2316 198(14) 217.8943 169.1283
3527 24.2356 200(14) 219.4494 169.1283
3528 24.2396 202(14) 221.1124 169.1284
3529 24.2437 204(14) 222.8929 169.1284
3530 24.2477 207(14) 224.8015 169.1283
3531 24.2517 210(14) 226.8517 169.1283
3532 24.2558 213(15) 229.0578 169.1283
3533 24.2598 216(15) 231.4326 169.1282
3534 24.2638 219(15) 233.9930 169.1282
3535 24.2678 223(15) 236.7573 169.1281
3536 24.2719 227(15) 239.7425 169.1281
3537 24.2759 231(15) 242.9647 169.1280
3538 24.2799 236(15) 246.4504 169.1279
3539 24.2840 240(15) 250.2183 169.1278
3540 24.2880 246(16) 254.2889 169.1277
3541 24.2920 251(16) 258.6871 169.1276
3542 24.2961 257(16) 263.4396 169.1275
3543 24.3001 264(16) 268.5664 169.1274
3544 24.3041 270(16) 274.0950 169.1273
3545 24.3082 278(17) 280.0538 169.1271
3546 24.3122 285(17) 286.4658 169.1269
3547 24.3162 293(17) 293.3494 169.1268
3548 24.3202 302(17) 300.7426 169.1266
3549 24.3243 311(18) 308.6630 169.1264
3550 24.3283 321(18) 317.1293 169.1262
3551 24.3323 331(18) 326.1665 169.1261
3552 24.3364 342(18) 335.7986 169.1258
3553 24.3404 353(19) 346.0339 169.1256
3554 24.3444 365(19) 356.8911 169.1254
3555 24.3485 377(19) 368.3871 169.1252
3556 24.3525 390(20) 380.5247 169.1249
3557 24.3565 404(20) 393.3008 169.1246
3558 24.3606 418(20) 406.7198 169.1244
3559 24.3646 432(21) 420.7815 169.1241
3560 24.3686 447(21) 435.4596 169.1238
3561 24.3727 462(21) 450.7406 169.1236
3562 24.3767 477(22) 466.6044 169.1232
3563 24.3807 493(22) 482.9995 169.1229
3564 24.3847 509(23) 499.8869 169.1226
3565 24.3888 525(23) 517.2178 169.1223
3566 24.3928 541(23) 534.9150 169.1220
3567 24.3968 558(24) 552.8881 169.1216
3568 24.4009 574(24) 571.0492 169.1213
3569 24.4049 590(24) 589.2964 169.1209
3570 24.4089 605(25) 607.4868 169.1205
3571 24.4130 620(25) 625.4891 169.1202
3572 24.4170 635(25) 643.1577 169.1198
3573 24.4210 649(25) 660.3190 169.1194
3574 24.4251 663(26) 676.7837 169.1190
3575 24.4291 676(26) 692.4050 169.1186
3576 24.4331 688(26) 706.9902 169.1181
3577 24.4371 699(26) 720.3634 169.1177
3578 24.4412 709(27) 732.3759 169.1173
3579 24.4452 717(27) 742.8968 169.1168
3580 24.4492 725(27) 751.8057 169.1164
3581 24.4533 732(27) 759.0278 169.1159
3582 24.4573 737(27) 764.5170 169.1154
3583 24.4613 741(27) 768.2530 169.1149
3584 24.4654 743(27) 770.2482 169.1145
3585 24.4694 744(27) 770.5455 169.1140
3586 24.4734 744(27) 769.2017 169.1134
3587 24.4775 743(27) 766.2922 169.1129
3588 24.4815 740(27) 761.8984 169.1124
3589 24.4855 735(27) 756.1020 169.1119
3590 24.4895 730(27) 748.9923 169.1113
3591 24.4936 723(27) 740.6476 169.1108
3592 24.4976 715(27) 731.1401 169.1102
3593 24.5016 706(27) 720.5473 169.1096
3594 24.5057 696(26) 708.9479 169.1091
3595 24.5097 685(26) 696.4106 169.1085
3596 24.5137 673(26) 683.0062 169.1079
3597 24.5178 660(26) 668.8307 169.1073
3598 24.5218 647(25) 653.9678 169.1067
3599 24.5258 633(25) 638.5068 169.1060
3600 24.5299 618(25) 622.5657 169.1054
3601 24.5339 603(25) 606.2456 169.1048
3602 24.5379 587(24) 589.6488 169.1041
3603 24.5420 572(24) 572.8934 169.1035
3604 24.5460 556(24) 556.0951 169.1028
3605 24.5500 540(23) 539.3484 169.1021
3606 24.5540 524(23) 522.7407 169.1015
3607 24.5581 508(23) 506.3739 169.1008
3608 24.5621 492(22) 490.3173 169.1001
3609 24.5661 476(22) 474.6304 169.0994
3610 24.5702 461(21) 459.3774 169.0986
3611 24.5742 446(21) 444.6191 169.0979
3612 24.5782 431(21) 430.3652 169.0972
3613 24.5823 417(20) 416.6587 169.0964
3614 24.5863 404(20) 403.5268 169.0957
3615 24.5903 390(20) 390.9767 169.0949
3616 24.5944 377(19) 379.0108 169.0941
3617 24.5984 365(19) 367.6426 169.0934
3618 24.6024 354(19) 356.8638 169.0926
3619 24.6064 342(18) 346.6631 169.0918
3620 24.6105 332(18) 337.0355 169.0910
3621 24.6145 322(18) 327.9763 169.0902
3622 24.6185 312(18) 319.4528 169.0894
3623 24.6226 303(17) 311.4562 169.0885
3624 24.6266 295(17) 303.9708 169.0877
3625 24.6306 287(17) 296.9723 169.0869
3626 24.6347 280(17) 290.4363 169.0860
3627 24.6387 273(17) 284.3471 169.0851
3628 24.6427 266(16) 278.6791 169.0843
3629 24.6468 260(16) 273.4074 169.0834
3630 24.6508 255(16) 268.5123 169.0825
3631 24.6548 249(16) 263.9736 169.0816
3632 24.6589 245(16) 259.7670 169.0807
3633 24.6629 240(15) 255.8696 169.0798
3634 24.6669 236(15) 252.2642 169.0789
3635 24.6709 232(15) 248.9289 169.0779
3636 24.6750 229(15) 245.8433 169.0770
3637 24.6790 226(15) 242.9920 169.0760
3638 24.6830 223(15) 240.3560 169.0751
3639 24.6871 220(15) 237.9179 169.0741
3640 24.6911 218(15) 235.6634 169.0731
3641 24.6951 216(15) 233.5789 169.0722
3642 24.6992 213(15) 231.6497 169.0712
3643 24.7032 212(15) 229.8624 169.0702
3644 24.7072 210(14) 228.2069 169.0691
3645 24.7113 208(14) 226.6716 169.0681
3646 24.7153 207(14) 225.2459 169.0671
3647 24.7193 205(14) 223.9218 169.0661
3648 24.7233 204(14) 222.6904 169.0651
3649 24.7274 203(14) 221.8288 169.0640
3650 24.7314 202(14) 220.7606 169.0629
3651 24.7354 201(14) 219.7646 169.0619
3652 24.7395 200(14) 218.8345 169.0608
3653 24.7435 199(14) 217.9648 169.0597
3654 24.7475 198(14) 217.1516 169.0586
3655 24.7516 198(14) 216.3902 169.0575
3656 24.7556 197(14) 215.6766 169.0564
3657 24.7596 196(14) 215.0076 169.0553
3658 24.7637 196(14) 214.3807 169.0542
3659 24.7677 195(14) 213.7920 169.0530
3660 24.7717 195(14) 213.2397 169.0519
3661 24.7758 194(14) 212.7217 169.0507
3662 24.7798 194(14) 212.2357 169.0496
3663 24.7838 194(14) 211.7798 169.0484
3664 24.7878 193(14) 211.3526 169.0472
3665 24.7919 193(14) 210.9527 169.0461
3666 24.7959 192(14) 210.7207 169.0449
3667 24.7999 192(14) 210.3714 169.0437
3668 24.8040 192(14) 210.0460 169.0424
3669 24.8080 192(14) 209.7429 169.0412
3670 24.8120 191(14) 209.4615 169.0400
3671 24.8161 191(14) 209.2012 169.0388
3672 24.8201 191(14) 208.9611 169.0375
3673 24.8241 191(14) 208.7403 169.0363
3674 24.8282 190(14) 208.5386 169.0350
3675 24.8322 190(14) 208.3552 169.0338
3676 24.8362 190(14) 208.1896 169.0325
3677 24.8402 190(14) 208.0414 169.0312
3678 24.8443 189(14) 207.9102 169.0299
3679 24.8483 189(14) 207.7957 169.0286
3680 24.8523 189(14) 207.6973 169.0273
3681 24.8564 189(14) 207.6149 169.0260
3682 24.8604 189(14) 207.5481 169.0246
3683 24.8644 188(14) 207.4967 169.0233
3684 24.8685 188(14) 207.4604 169.0220
3685 24.8725 188(14) 207.4391 169.0206
3686 24.8765 188(14) 207.4326 169.0193
3687 24.8806 188(14) 207.4406 169.0179
3688 24.8846 188(14) 207.4631 169.0165
3689 24.8886 188(14) 207.5000 169.0152
3690 24.8927 188(14) 207.5512 169.0137
3691 24.8967 188(14) 207.6165 169.0123
3692 24.9007 188(14) 207.6959 169.0109
3693 24.9047 188(14) 207.7895 169.0095
3694 24.9088 188(14) 207.8971 169.0081
3695 24.9128 188(14) 208.0188 169.0067
3696 24.9168 188(14) 208.1546 169.0052
3697 24.9209 188(14) 208.3046 169.0038
3698 24.9249 188(14) 208.4687 169.0023
3699 24.9289 188(14) 208.6471 169.0009
3700 24.9330 188(14) 208.8400 168.9994
3701 24.9370 189(14) 209.0472 168.9979
3702 24.9410 189(14) 209.2691 168.9964
3703 24.9451 189(14) 209.5059 168.9949
3704 24.9491 189(14) 209.7577 168.9934
3705 24.9531 190(14) 210.0243 168.9919
3706 24.9571 190(14) 210.3066 168.9904
3707 24.9612 190(14) 210.6044 168.9888
3708 24.9652 191(14) 210.9179 168.9873
3709 24.9692 191(14) 211.2475 168.9858
3710 24.9733 191(14) 211.5937 168.9842
3711 24.9773 192(14) 211.9564 168.9827
3712 24.9813 192(14) 212.3362 168.9810
3713 24.9854 193(14) 212.7336 168.9795
3714 24.9894 193(14) 213.1489 168.9779
3715 24.9934 194(14) 213.5822 168.9763
3716 24.9975 194(14) 214.0341 168.9747
3717 25.0015 195(14) 214.5055 168.9731
3718 25.0055 195(14) 214.9963 168.9715
3719 25.0095 196(14) 215.5072 168.9698
3720 25.0136 196(14) 216.0391 168.9682
3721 25.0176 197(14) 216.5922 168.9666
3722 25.0216 197(14) 217.1672 168.9649
3723 25.0257 198(14) 217.7652 168.9633
3724 25.0297 198(14) 218.3865 168.9616
3725 25.0337 199(14) 219.0316 168.9599
3726 25.0378 200(14) 219.7016 168.9582
3727 25.0418 200(14) 220.3978 168.9566
3728 25.0458 201(14) 221.1202 168.9548
3729 25.0499 202(14) 221.8702 168.9531
3730 25.0539 203(14) 222.6492 168.9514
3731 25.0579 203(14) 223.4579 168.9497
3732 25.0620 204(14) 224.2967 168.9480
3733 25.0660 205(14) 225.1683 168.9462
3734 25.0700 206(14) 226.0732 168.9445
3735 25.0740 207(14) 227.0125 168.9427
3736 25.0781 209(14) 227.9879 168.9409
3737 25.0821 210(14) 229.0016 168.9392
3738 25.0861 211(15) 230.0544 168.9374
3739 25.0902 212(15) 231.1485 168.9356
3740 25.0942 214(15) 232.2866 168.9338
3741 25.0982 215(15) 233.4702 168.9320
3742 25.1023 217(15) 234.7006 168.9302
3743 25.1063 219(15) 235.9827 168.9284
3744 25.1103 220(15) 237.3181 168.9265
3745 25.1144 222(15) 238.7093 168.9247
3746 25.1184 224(15) 240.1603 168.9229
3747 25.1224 226(15) 241.6754 168.9210
3748 25.1264 229(15) 243.2575 168.9191
3749 25.1305 231(15) 244.9118 168.9173
3750 25.1345 234(15) 246.6441 168.9154
3751 25.1385 236(15) 248.4594 168.9135
3752 25.1426 239(15) 250.3628 168.9116
3753 25.1466 243(16) 252.3622 168.9097
3754 25.1506 246(16) 254.4663 168.9078
3755 25.1547 249(16) 256.6816 168.9059
3756 25.1587 253(16) 259.0186 168.9040
3757 25.1627 257(16) 261.4891 168.9021
3758 25.1668 262(16) 264.1024 168.9001
3759 25.1708 266(16) 266.8727 168.8982
3760 25.1748 271(16) 269.8158 168.8962
3761 25.1789 276(17) 272.9463 168.8943
3762 25.1829 282(17) 276.2801 168.8923
3763 25.1869 288(17) 279.8378 168.8903
3764 25.1909 294(17) 283.6425 168.8883
3765 25.1950 300(17) 287.7134 168.8863
3766 25.1990 308(18) 292.0778 168.8843
3767 25.2030 315(18) 296.7650 168.8823
3768 25.2071 323(18) 301.8001 168.8803
3769 25.2111 331(18) 307.2172 168.8783
3770 25.2151 340(18) 313.0533 168.8763
3771 25.2192 350(19) 319.3427 168.8742
3772 25.2232 360(19) 326.1208 168.8722
3773 25.2272 370(19) 333.4318 168.8701
3774 25.2313 381(20) 341.3231 168.8680
3775 25.2353 393(20) 349.8325 168.8660
3776 25.2393 406(20) 359.0112 168.8639
3777 25.2433 419(20) 368.9134 168.8618
3778 25.2474 432(21) 379.5853 168.8597
3779 25.2514 447(21) 391.0676 168.8576
3780 25.2554 462(21) 403.4346 168.8555
3781 25.2595 477(22) 416.7290 168.8534
3782 25.2635 494(22) 430.9965 168.8513
3783 25.2675 511(23) 446.2955 168.8491
3784 25.2716 528(23) 462.6850 168.8469
3785 25.2756 547(23) 480.1988 168.8448
3786 25.2796 566(24) 498.8911 168.8426
3787 25.2837 586(24) 518.8150 168.8405
3788 25.2877 606(25) 540.0019 168.8383
3789 25.2917 627(25) 562.4752 168.8361
3790 25.2957 649(25) 586.2738 168.8339
3791 25.2998 671(26) 611.4321 168.8317
3792 25.3038 693(26) 637.9408 168.8295
3793 25.3078 717(27) 665.8168 168.8273
3794 25.3119 740(27) 695.0695 168.8251
3795 25.3159 764(28) 725.6546 168.8229
3796 25.3199 788(28) 757.5555 168.8206
3797 25.3240 812(28) 790.7437 168.8184
3798 25.3280 836(29) 825.1417 168.8161
3799 25.3320 861(29) 860.6515 168.8139
3800 25.3361 885(30) 897.1860 168.8116
3801 25.3401 909(30) 934.6362 168.8093
3802 25.3441 933(31) 972.8134 168.8071
3803 25.3482 957(31) 1011.5529 168.8048
3804 25.3522 980(31) 1050.6602 168.8025
3805 25.3562 1003(32) 1089.8534 168.8002
3806 25.3602 1025(32) 1128.8735 168.7979
3807 25.3643 1046(32) 1167.4298 168.7956
3808 25.3683 1067(33) 1205.1655 168.7932
3809 25.3723 1087(33) 1241.7028 168.7909
3810 25.3764 1105(33) 1276.6821 168.7886
3811 25.3804 1123(34) 1309.7361 168.7862
3812 25.3844 1139(34) 1340.4557 168.7838
3813 25.3885 1155(34) 1368.4993 168.7815
3814 25.3925 1168(34) 1393.5544 168.7791
3815 25.3965 1181(34) 1415.3307 168.7767
3816 25.4006 1192(35) 1433.5942 168.7743
3817 25.4046 1202(35) 1448.2292 168.7719
3818 25.4086 1210(35) 1459.1371 168.7695
3819 25.4126 1216(35) 1466.3036 168.7671
3820 25.4167 1221(35) 1469.7886 168.7647
3821 25.4207 1225(35) 1469.6970 168.7623
3822 25.4247 1226(35) 1466.1750 168.7599
3823 25.4288 1226(35) 1459.3978 168.7574
3824 25.4328 1225(35) 1449.5458 168.7550
3825 25.4368 1222(35) 1436.8118 168.7525
3826 25.4409 1217(35) 1421.3933 168.7501
3827 25.4449 1211(35) 1403.4323 168.7476
3828 25.4489 1203(35) 1383.1006 168.7451
3829 25.4530 1194(35) 1360.5570 168.7426
3830 25.4570 1183(34) 1335.9323 168.7401
3831 25.4610 1171(34) 1309.3535 168.7376
3832 25.4651 1158(34) 1280.9928 168.7351
3833 25.4691 1144(34) 1250.9927 168.7326
3834 25.4731 1128(34) 1219.5103 168.7301
3835 25.4771 1111(33) 1186.7465 168.7275
3836 25.4812 1094(33) 1152.9214 168.7250
3837 25.4852 1075(33) 1118.2368 168.7224
3838 25.4892 1056(32) 1082.9001 168.7199
3839 25.4933 1035(32) 1047.1731 168.7173
3840 25.4973 1015(32) 1011.2653 168.7148
3841 25.5013 993(32) 975.3768 168.7122
3842 25.5054 971(31) 939.7466 168.7096
3843 25.5094 949(31) 904.5458 168.7070
3844 25.5134 926(30) 869.9268 168.7044
3845 25.5175 903(30) 836.0542 168.7018
3846 25.5215 880(30) 803.0707 168.6992
3847 25.5255 857(29) 771.0652 168.6966
3848 25.5295 834(29) 740.1093 168.6939
3849 25.5336 811(28) 710.2988 168.6913
3850 25.5376 788(28) 681.6683 168.6887
3851 25.5416 765(28) 654.2391 168.6860
3852 25.5457 743(27) 628.0457 168.6833
3853 25.5497 721(27) 603.1191 168.6807
3854 25.5537 699(26) 579.4097 168.6780
3855 25.5578 677(26) 556.9308 168.6753
3856 25.5618 656(26) 535.6731 168.6727
3857 25.5658 636(25) 515.6003 168.6700
3858 25.5699 616(25) 496.6732 168.6673
3859 25.5739 596(24) 478.8743 168.6645
3860 25.5779 577(24) 462.1559 168.6618
3861 25.5820 558(24) 446.4695 168.6591
3862 25.5860 541(23) 431.7797 168.6564
3863 25.5900 523(23) 418.0538 168.6536
3864 25.5940 507(23) 405.2202 168.6509
3865 25.5981 491(22) 393.2458 168.6481
3866 25.6021 475(22) 382.0894 168.6454
3867 25.6061 460(21) 371.6989 168.6426
3868 25.6102 446(21) 362.0247 168.6398
3869 25.6142 433(21) 353.0312 168.6370
3870 25.6182 420(20) 344.6709 168.6343
3871 25.6223 407(20) 336.8980 168.6315
3872 25.6263 396(20) 329.6764 168.6287
3873 25.6303 384(20) 322.9705 168.6259
3874 25.6344 374(19) 316.7397 168.6230
3875 25.6384 364(19) 310.9465 168.6202
3876 25.6424 354(19) 305.5633 168.6174
3877 25.6464 345(19) 300.5560 168.6145
3878 25.6505 337(18) 295.8932 168.6117
3879 25.6545 329(18) 291.5520 168.6088
3880 25.6585 321(18) 287.5046 168.6059
3881 25.6626 314(18) 283.7257 168.6031
3882 25.6666 307(18) 280.1953 168.6002
3883 25.6706 301(17) 276.8947 168.5973
3884 25.6747 295(17) 273.8036 168.5944
3885 25.6787 289(17) 270.9035 168.5915
3886 25.6827 284(17) 268.1817 168.5886
3887 25.6868 279(17) 265.6225 168.5857
3888 25.6908 274(17) 263.2118 168.5828
3889 25.6948 270(16) 260.9389 168.5798
3890 25.6988 266(16) 258.7952 168.5769
3891 25.7029 262(16) 256.7669 168.5740
3892 25.7069 258(16) 254.8472 168.5710
3893 25.7109 254(16) 253.0290 168.5680
3894 25.7150 251(16) 251.3043 168.5651
3895 25.7190 248(16) 249.6656 168.5621
3896 25.7230 245(16) 248.1088 168.5591
3897 25.7271 242(16) 246.6277 168.5562
3898 25.7311 240(15) 245.2169 168.5531
3899 25.7351 237(15) 243.8727 168.5502
3900 25.7392 235(15) 242.5924 168.5472
3901 25.7432 233(15) 241.3699 168.5441
3902 25.7472 231(15) 240.2034 168.5411
3903 25.7513 229(15) 238.9549 168.5381
3904 25.7553 227(15) 237.8923 168.5351
3905 25.7593 225(15) 236.8771 168.5320
3906 25.7633 223(15) 235.9078 168.5290
3907 25.7674 221(15) 234.9820 168.5259
3908 25.7714 220(15) 234.0973 168.5228
3909 25.7754 218(15) 233.2526 168.5198
3910 25.7795 217(15) 232.4465 168.5167
3911 25.7835 216(15) 231.6771 168.5136
3912 25.7875 215(15) 230.9428 168.5105
3913 25.7916 213(15) 230.2430 168.5074
3914 25.7956 212(15) 229.5761 168.5043
3915 25.7996 211(15) 228.9407 168.5012
3916 25.8037 210(14) 228.3364 168.4981
3917 25.8077 209(14) 227.6945 168.4949
3918 25.8117 208(14) 227.1490 168.4918
3919 25.8158 208(14) 226.6316 168.4886
3920 25.8198 207(14) 226.1418 168.4855
3921 25.8238 206(14) 225.6787 168.4823
3922 25.8278 206(14) 225.2413 168.4792
3923 25.8319 205(14) 224.8294 168.4760
3924 25.8359 205(14) 224.4423 168.4728
3925 25.8399 204(14) 224.0791 168.4696
3926 25.8440 204(14) 223.7399 168.4665
3927 25.8480 203(14) 223.4238 168.4632
3928 25.8520 203(14) 223.1304 168.4601
3929 25.8561 203(14) 222.8594 168.4568
3930 25.8601 203(14) 222.6105 168.4536
3931 25.8641 203(14) 222.3833 168.4504
3932 25.8682 202(14) 222.1774 168.4471
3933 25.8722 202(14) 221.9926 168.4439
3934 25.8762 202(14) 221.8287 168.4406
3935 25.8802 202(14) 221.6853 168.4374
3936 25.8843 202(14) 221.5624 168.4341
3937 25.8883 202(14) 221.4598 168.4308
3938 25.8923 202(14) 221.3773 168.4276
3939 25.8964 202(14) 221.3148 168.4243
3940 25.9004 202(14) 221.2722 168.4210
3941 25.9044 202(14) 221.2495 168.4177
3942 25.9085 202(14) 221.2466 168.4144
3943 25.9125 202(14) 221.2635 168.4111
3944 25.9165 202(14) 221.3002 168.4078
3945 25.9206 202(14) 221.3568 168.4044
3946 25.9246 203(14) 221.4333 168.4011
3947 25.9286 203(14) 221.5298 168.3978
3948 25.9326 203(14) 221.6464 168.3944
3949 25.9367 203(14) 221.7834 168.3911
3950 25.9407 203(14) 221.9407 168.3877
3951 25.9447 203(14) 222.1185 168.3843
3952 25.9488 203(14) 222.3174 168.3810
3953 25.9528 203(14) 222.5372 168.3776
3954 25.9568 203(14) 222.7784 168.3742
3955 25.9609 204(14) 223.0413 168.3708
3956 25.9649 204(14) 223.3262 168.3674
3957 25.9689 204(14) 223.6333 168.3640
3958 25.9730 204(14) 223.9633 168.3606
3959 25.9770 204(14) 224.3165 168.3571
3960 25.9810 204(14) 224.6932 168.3537
3961 25.9851 205(14) 225.0940 168.3503
3962 25.9891 205(14) 225.5197 168.3469
3963 25.9931 205(14) 225.9704 168.3434
3964 25.9971 206(14) 226.4469 168.3399
3965 26.0012 206(14) 226.9502 168.3365
3966 26.0052 206(14) 227.4807 168.3330
3967 26.0092 207(14) 228.0389 168.3295
3968 26.0133 207(14) 228.6258 168.3260
3969 26.0173 208(14) 229.2426 168.3226
3970 26.0213 208(14) 229.8896 168.3191
3971 26.0254 209(14) 230.5680 168.3155
3972 26.0294 209(14) 231.2793 168.3120
3973 26.0334 210(14) 232.0242 168.3085
3974 26.0375 210(14) 232.8031 168.3050
3975 26.0415 211(15) 233.6188 168.3015
3976 26.0455 212(15) 234.4718 168.2979
3977 26.0495 213(15) 235.3628 168.2944
3978 26.0536 213(15) 236.2950 168.2908
3979 26.0576 214(15) 237.2693 168.2873
3980 26.0616 215(15) 238.2875 168.2837
3981 26.0657 216(15) 239.3504 168.2801
3982 26.0697 217(15) 240.4622 168.2766
3983 26.0737 218(15) 241.6242 168.2730
3984 26.0778 219(15) 242.8378 168.2694
3985 26.0818 220(15) 244.1079 168.2658
3986 26.0858 222(15) 245.4364 168.2622
3987 26.0899 223(15) 246.8252 168.2586
3988 26.0939 224(15) 248.2805 168.2549
3989 26.0979 226(15) 249.8049 168.2513
3990 26.1020 228(15) 251.4028 168.2477
3991 26.1060 229(15) 253.0775 168.2440
3992 26.1100 231(15) 254.8372 168.2404
3993 26.1140 233(15) 256.6863 168.2367
3994 26.1181 236(15) 258.6295 168.2330
3995 26.1221 238(15) 260.6775 168.2294
3996 26.1261 241(16) 262.8365 168.2257
3997 26.1302 243(16) 265.1133 168.2221
3998 26.1342 246(16) 267.5216 168.2184
3999 26.1382 249(16) 270.0704 168.2147
4000 26.1423 253(16) 272.7716 168.2110
4001 26.1463 257(16) 275.6354 168.2073
4002 26.1503 261(16) 278.6819 168.2035
4003 26.1544 265(16) 281.9244 168.1998
4004 26.1584 270(16) 285.3770 168.1961
4005 26.1624 275(17) 289.0654 168.1924
4006 26.1664 280(17) 293.0074 168.1886
4007 26.1705 286(17) 297.2259 168.1849
4008 26.1745 292(17) 301.7411 168.1811
4009 26.1785 299(17) 306.5884 168.1774
4010 26.1826 306(17) 311.7924 168.1736
4011 26.1866 314(18) 317.3788 168.1698
4012 26.1906 322(18) 323.3911 168.1660
4013 26.1947 331(18) 329.8597 168.1622
4014 26.1987 340(18) 336.8151 168.1584
4015 26.2027 351(19) 344.3100 168.1546
4016 26.2068 362(19) 352.3795 168.1508
4017 26.2108 373(19) 361.0672 168.1470
4018 26.2148 386(20) 370.4089 168.1432
4019 26.2188 399(20) 380.4690 168.1394
4020 26.2229 414(20) 391.2867 168.1355
4021 26.2269 429(21) 402.8997 168.1317
4022 26.2309 445(21) 415.3795 168.1279
4023 26.2350 462(21) 428.7651 168.1240
4024 26.2390 480(22) 443.0923 168.1202
4025 26.2430 498(22) 458.4372 168.1163
4026 26.2471 518(23) 474.8345 168.1124
4027 26.2511 539(23) 492.3307 168.1085
4028 26.2551 561(24) 510.9513 168.1046
4029 26.2592 584(24) 530.7725 168.1007
4030 26.2632 608(25) 551.8145 168.0969
4031 26.2672 633(25) 574.0881 168.0930
4032 26.2713 659(26) 597.6632 168.0891
4033 26.2753 685(26) 622.5401 168.0851
4034 26.2793 713(27) 648.7074 168.0812
4035 26.2833 741(27) 676.2198 168.0773
4036 26.2874 770(28) 705.0490 168.0733
4037 26.2914 800(28) 735.1790 168.0694
4038 26.2954 830(29) 766.5515 168.0654
4039 26.2995 861(29) 799.1827 168.0615
4040 26.3035 892(30) 832.9843 168.0575
4041 26.3075 924(30) 867.8442 168.0536
4042 26.3116 955(31) 903.7291 168.0496
4043 26.3156 987(31) 940.4835 168.0456
4044 26.3196 1018(32) 977.9580 168.0416
4045 26.3237 1049(32) 1015.9391 168.0376
4046 26.3277 1080(33) 1054.2909 168.0336
4047 26.3317 1110(33) 1092.7378 168.0296
4048 26.3357 1140(34) 1130.9722 168.0256
4049 26.3398 1169(34) 1168.7646 168.0215
4050 26.3438 1196(35) 1205.7480 168.0175
4051 26.3478 1223(35) 1241.5361 168.0135
4052 26.3519 1248(35) 1275.8284 168.0094
4053 26.3559 1271(36) 1308.2163 168.0054
4054 26.3599 1294(36) 1338.3313 168.0013
4055 26.3640 1314(36) 1365.8020 167.9973
4056 26.3680 1332(36) 1390.3650 167.9932
4057 26.3720 1349(37) 1411.7269 167.9892
4058 26.3761 1363(37) 1429.6624 167.9851
4059 26.3801 1375(37) 1444.0632 167.9810
4060 26.3841 1385(37) 1454.8372 167.9769
4061 26.3881 1393(37) 1461.8738 167.9728
4062 26.3922 1398(37) 1465.4476 167.9687
4063 26.3962 1401(37) 1465.5601 167.9646
4064 26.4002 1402(37) 1462.3627 167.9604
4065 26.4043 1400(37) 1456.0410 167.9563
4066 26.4083 1396(37) 1446.7745 167.9522
4067 26.4123 1389(37) 1434.7585 167.9481
4068 26.4164 1380(37) 1420.1926 167.9439
4069 26.4204 1369(37) 1403.2180 167.9398
4070 26.4244 1356(37) 1383.9995 167.9356
4071 26.4285 1341(37) 1362.6962 167.9314
4072 26.4325 1323(36) 1339.3936 167.9273
4073 26.4365 1304(36) 1314.2308 167.9231
4074 26.4406 1283(36) 1287.3306 167.9189
4075 26.4446 1261(36) 1258.8483 167.9147
4076 26.4486 1237(35) 1228.8214 167.9105
4077 26.4526 1212(35) 1197.5354 167.9063
4078 26.4567 1185(34) 1165.1453 167.9021
4079 26.4607 1158(34) 1131.7804 167.8979
4080 26.4647 1129(34) 1097.6743 167.8937
4081 26.4688 1100(33) 1063.0386 167.8895
4082 26.4728 1070(33) 1028.1202 167.8852
4083 26.4768 1040(32) 993.0645 167.8810
4084 26.4809 1009(32) 958.1069 167.8768
4085 26.4849 978(31) 923.4701 167.8725
4086 26.4889 948(31) 889.2620 167.8682
4087 26.4930 917(30) 855.6710 167.8639
4088 26.4970 886(30) 822.8625 167.8597
4089 26.5010 856(29) 790.8900 167.8554
4090 26.5051 826(29) 759.8796 167.8512
4091 26.5091 796(28) 729.9076 167.8468
4092 26.5131 767(28) 701.0595 167.8426
4093 26.5171 739(27) 673.3233 167.8383
4094 26.5212 711(27) 646.7554 167.8340
4095 26.5252 684(26) 621.3950 167.8296
4096 26.5292 658(26) 597.1987 167.8253
4097 26.5333 633(25) 574.1863 167.8210
4098 26.5373 609(25) 552.3652 167.8167
4099 26.5413 585(24) 531.6742 167.8123
4100 26.5454 563(24) 512.1089 167.8080
4101 26.5494 541(23) 493.6393 167.8036
4102 26.5534 520(23) 476.2472 167.7993
4103 26.5575 500(22) 459.8626 167.7949
4104 26.5615 482(22) 444.4630 167.7905
4105 26.5655 464(22) 430.0205 167.7861
4106 26.5695 447(21) 416.4655 167.7818
4107 26.5736 430(21) 403.7688 167.7774
4108 26.5776 415(20) 391.8980 167.7730
4109 26.5816 401(20) 380.7872 167.7686
4110 26.5857 387(20) 370.4052 167.7642
4111 26.5897 374(19) 360.7095 167.7598
4112 26.5937 362(19) 351.6672 167.7553
4113 26.5978 351(19) 343.2208 167.7509
4114 26.6018 340(18) 335.3401 167.7465
4115 26.6058 331(18) 327.9944 167.7421
4116 26.6099 321(18) 321.1336 167.7376
4117 26.6139 313(18) 314.7307 167.7331
4118 26.6179 304(17) 308.7527 167.7287
4119 26.6219 297(17) 303.1738 167.7242
4120 26.6260 290(17) 297.9542 167.7198
4121 26.6300 283(17) 293.0719 167.7153
4122 26.6340 277(17) 288.5051 167.7108
4123 26.6381 271(16) 284.2213 167.7063
4124 26.6421 266(16) 280.2023 167.7018
4125 26.6461 261(16) 276.4308 167.6973
4126 26.6502 257(16) 272.8806 167.6928
4127 26.6542 252(16) 269.5372 167.6883
4128 26.6582 248(16) 266.3845 167.6838
4129 26.6623 245(16) 263.4100 167.6793
4130 26.6663 241(16) 260.5945 167.6747
4131 26.6703 238(15) 257.9279 167.6702
4132 26.6744 235(15) 255.4013 167.6656
4133 26.6784 232(15) 252.9993 167.6611
4134 26.6824 229(15) 250.7147 167.6566
4135 26.6864 227(15) 248.5409 167.6520
4136 26.6905 225(15) 246.4658 167.6475
4137 26.6945 222(15) 244.4842 167.6429
4138 26.6985 220(15) 242.5897 167.6383
4139 26.7026 218(15) 240.7780 167.6337
4140 26.7066 217(15) 239.0402 167.6291
4141 26.7106 215(15) 237.3732 167.6245
4142 26.7147 213(15) 235.7741 167.6199
4143 26.7187 212(15) 234.2357 167.6153
4144 26.7227 210(14) 232.7558 167.6107
4145 26.7268 209(14) 231.3324 167.6061
4146 26.7308 207(14) 229.9597 167.6015
4147 26.7348 206(14) 228.6362 167.5968
4148 26.7388 205(14) 227.3593 167.5922
4149 26.7429 203(14) 226.1277 167.5876
4150 26.7469 202(14) 224.9370 167.5829
4151 26.7509 201(14) 223.7861 167.5782
4152 26.7550 200(14) 222.6743 167.5735
4153 26.7590 199(14) 221.5977 167.5689
4154 26.7630 198(14) 220.5557 167.5642
4155 26.7671 197(14) 219.5477 167.5596
4156 26.7711 196(14) 218.5703 167.5549
4157 26.7751 195(14) 217.6233 167.5502
4158 26.7792 194(14) 216.7052 167.5455
4159 26.7832 194(14) 215.8157 167.5408
4160 26.7872 193(14) 214.9521 167.5361
4161 26.7913 192(14) 214.1141 167.5314
4162 26.7953 192(14) 213.3014 167.5267
4163 26.7993 191(14) 212.5116 167.5219
4164 26.8033 190(14) 211.7445 167.5172
4165 26.8074 190(14) 210.9994 167.5124
4166 26.8114 189(14) 210.2759 167.5077
4167 26.8154 189(14) 209.5721 167.5029
4168 26.8195 188(14) 208.8878 167.4982
4169 26.8235 188(14) 208.2230 167.4934
4170 26.8275 187(14) 207.5757 167.4886
4171 26.8316 187(14) 206.9459 167.4839
4172 26.8356 187(14) 206.3336 167.4791
4173 26.8396 186(14) 205.7371 167.4743
4174 26.8437 186(14) 205.1564 167.4695
4175 26.8477 186(14) 204.5908 167.4647
4176 26.8517 185(14) 204.0405 167.4599
4177 26.8557 185(14) 203.5039 167.4551
4178 26.8598 185(14) 202.9810 167.4503
4179 26.8638 184(14) 202.4719 167.4455
4180 26.8678 184(14) 201.9752 167.4407
4181 26.8719 184(14) 201.4910 167.4358
4182 26.8759 184(14) 201.0192 167.4310
4183 26.8799 184(14) 200.5587 167.4261
4184 26.8840 183(14) 200.1095 167.4213
4185 26.8880 183(14) 199.6712 167.4164
4186 26.8920 183(14) 199.2439 167.4116
4187 26.8961 183(14) 198.8266 167.4067
4188 26.9001 183(14) 198.4192 167.4018
4189 26.9041 183(14) 198.0219 167.3970
4190 26.9081 183(14) 197.6335 167.3921
4191 26.9122 183(14) 197.2543 167.3872
4192 26.9162 183(14) 196.8843 167.3823
4193 26.9202 183(14) 196.5225 167.3774
4194 26.9243 183(14) 196.1690 167.3725
4195 26.9283 183(14) 195.8237 167.3675
4196 26.9323 182(13) 195.4865 167.3626
4197 26.9364 182(13) 195.1567 167.3577
4198 26.9404 182(13) 194.8343 167.3528
4199 26.9444 182(13) 194.5194 167.3478
4200 26.9485 182(13) 194.2113 167.3429
4201 26.9525 182(13) 193.9100 167.3379
4202 26.9565 182(13) 193.6153 167.3330
4203 26.9606 182(13) 193.3275 167.3280
4204 26.9646 182(13) 193.0456 167.3231
4205 26.9686 182(13) 192.7699 167.3181
4206 26.9726 182(13) 192.5004 167.3131
4207 26.9767 182(13) 192.2365 167.3081
4208 26.9807 182(13) 191.9783 167.3031
4209 26.9847 182(13) 191.7258 167.2981
4210 26.9888 182(13) 191.4785 167.2931
4211 26.9928 182(13) 191.2365 167.2881
4212 26.9968 182(13) 190.9996 167.2831
4213 27.0009 182(13) 190.7679 167.2781
4214 27.0049 182(13) 190.5409 167.2731
4215 27.0089 182(13) 190.3186 167.2681
4216 27.0130 182(13) 190.1012 167.2630
4217 27.0170 182(13) 189.8881 167.2580
4218 27.0210 182(13) 189.6795 167.2529
4219 27.0250 182(13) 189.4754 167.2479
4220 27.0291 182(13) 189.2754 167.2428
4221 27.0331 182(13) 189.0794 167.2378
4222 27.0371 182(13) 188.8875 167.2327
4223 27.0412 182(13) 188.6998 167.2276
4224 27.0452 181(13) 188.5158 167.2225
4225 27.0492 181(13) 188.3355 167.2175
4226 27.0533 181(13) 188.1591 167.2124
4227 27.0573 181(13) 187.9861 167.2073
4228 27.0613 181(13) 187.8167 167.2022
4229 27.0654 181(13) 187.6509 167.1971
4230 27.0694 181(13) 187.4884 167.1920
4231 27.0734 181(13) 187.3291 167.1868
4232 27.0775 181(13) 187.1732 167.1817
4233 27.0815 181(13) 187.0205 167.1766
4234 27.0855 181(13) 186.8709 167.1714
4235 27.0895 181(13) 186.7243 167.1663
4236 27.0936 181(13) 186.5809 167.1611
4237 27.0976 181(13) 186.4403 167.1560
4238 27.1016 182(13) 186.3026 167.1508
4239 27.1057 182(13) 186.1677 167.1457
4240 27.1097 182(13) 186.0358 167.1405
4241 27.1137 182(13) 185.9064 167.1353
4242 27.1178 182(13) 185.7797 167.1301
4243 27.1218 182(13) 185.6558 167.1250
4244 27.1258 182(13) 185.5344 167.1198
4245 27.1299 182(13) 185.4155 167.1145
4246 27.1339 182(13) 185.2992 167.1094
4247 27.1379 182(13) 185.1853 167.1042
4248 27.1419 182(13) 185.0737 167.0989
4249 27.1460 182(13) 184.9646 167.0937
4250 27.1500 182(13) 184.8580 167.0885
4251 27.1540 182(13) 184.7535 167.0833
4252 27.1581 182(13) 184.6513 167.0780
4253 27.1621 182(13) 184.5514 167.0728
4254 27.1661 182(13) 184.4536 167.0676
4255 27.1702 182(13) 184.3580 167.0623
4256 27.1742 182(13) 184.2646 167.0570
4257 27.1782 182(13) 184.1732 167.0518
4258 27.1823 182(13) 184.0839 167.0465
4259 27.1863 182(13) 183.9966 167.0412
4260 27.1903 182(13) 183.9115 167.0359
4261 27.1944 182(13) 183.8282 167.0307
4262 27.1984 182(13) 183.7469 167.0254
4263 27.2024 182(13) 183.6676 167.0201
4264 27.2064 181(13) 183.5902 167.0148
4265 27.2105 181(13) 183.5146 167.0094
4266 27.2145 181(13) 183.4410 167.0042
4267 27.2185 181(13) 183.3692 166.9988
4268 27.2226 181(13) 183.2992 166.9935
4269 27.2266 180(13) 183.2310 166.9882
4270 27.2306 180(13) 183.1646 166.9828
4271 27.2347 180(13) 183.0999 166.9775
4272 27.2387 180(13) 183.1561 166.9722
4273 27.2427 180(13) 183.0952 166.9668
4274 27.2468 180(13) 183.0360 166.9614
4275 27.2508 180(13) 182.9785 166.9561
4276 27.2548 179(13) 182.9227 166.9507
4277 27.2588 179(13) 182.8686 166.9453
4278 27.2629 179(13) 182.8161 166.9400
4279 27.2669 179(13) 182.7652 166.9346
4280 27.2709 179(13) 182.7160 166.9292
4281 27.2750 179(13) 182.6684 166.9238
4282 27.2790 179(13) 182.6224 166.9184
4283 27.2830 179(13) 182.5780 166.9130
4284 27.2871 179(13) 182.5351 166.9076
4285 27.2911 179(13) 182.4939 166.9022
4286 27.2951 179(13) 182.4541 166.8967
4287 27.2992 179(13) 182.4160 166.8913
4288 27.3032 179(13) 182.3794 166.8859
4289 27.3072 179(13) 182.4036 166.8804
4290 27.3112 179(13) 182.3702 166.8750
4291 27.3153 178(13) 182.3383 166.8696
4292 27.3193 178(13) 182.3079 166.8641
4293 27.3233 178(13) 182.2791 166.8587
4294 27.3274 179(13) 182.2518 166.8532
4295 27.3314 179(13) 182.2260 166.8477
4296 27.3354 179(13) 182.2016 166.8422
4297 27.3395 179(13) 182.1788 166.8368
4298 27.3435 179(13) 182.1575 166.8313
4299 27.3475 179(13) 182.1377 166.8258
4300 27.3516 179(13) 182.1194 166.8203
4301 27.3556 179(13) 182.1025 166.8148
4302 27.3596 179(13) 182.0871 166.8092
4303 27.3637 179(13) 182.0733 166.8037
4304 27.3677 179(13) 182.0609 166.7982
4305 27.3717 179(13) 182.0500 166.7927
4306 27.3757 179(13) 182.0407 166.7872
4307 27.3798 179(13) 182.0328 166.7816
4308 27.3838 179(13) 182.0264 166.7761
4309 27.3878 179(13) 182.0216 166.7706
4310 27.3919 179(13) 182.0182 166.7650
4311 27.3959 180(13) 182.0163 166.7594
4312 27.3999 180(13) 182.0160 166.7539
4313 27.4040 180(13) 182.0172 166.7484
4314 27.4080 180(13) 182.0199 166.7428
4315 27.4120 180(13) 182.0242 166.7372
4316 27.4161 180(13) 182.0300 166.7316
4317 27.4201 180(13) 182.0373 166.7260
4318 27.4241 180(13) 182.0462 166.7204
4319 27.4282 181(13) 182.0567 166.7148
4320 27.4322 181(13) 182.0688 166.7092
4321 27.4362 181(13) 182.0824 166.7036
4322 27.4402 181(13) 182.0976 166.6980
4323 27.4443 181(13) 182.1145 166.6924
4324 27.4483 181(13) 182.1329 166.6868
4325 27.4523 181(13) 182.1530 166.6811
4326 27.4564 181(13) 182.1748 166.6755
4327 27.4604 181(13) 182.1982 166.6699
4328 27.4644 181(13) 182.2233 166.6642
4329 27.4685 181(13) 182.2501 166.6586
4330 27.4725 181(13) 182.2785 166.6529
4331 27.4765 181(13) 182.3087 166.6472
4332 27.4806 181(13) 182.3407 166.6416
4333 27.4846 180(13) 182.3745 166.6359
4334 27.4886 180(13) 182.4100 166.6303
4335 27.4926 180(13) 182.4473 166.6246
4336 27.4967 180(13) 182.4864 166.6189
4337 27.5007 180(13) 182.5273 166.6132
4338 27.5047 180(13) 182.5701 166.6075
4339 27.5088 180(13) 182.6149 166.6018
4340 27.5128 179(13) 182.6615 166.5961
4341 27.5168 179(13) 182.7101 166.5904
4342 27.5209 179(13) 182.7606 166.5847
4343 27.5249 179(13) 182.8131 166.5789
4344 27.5289 179(13) 182.8676 166.5732
4345 27.5330 179(13) 182.9242 166.5675
4346 27.5370 179(13) 182.9829 166.5617
4347 27.5410 179(13) 183.0436 166.5560
4348 27.5450 179(13) 183.1066 166.5503
4349 27.5491 179(13) 183.1716 166.5445
4350 27.5531 179(13) 183.2389 166.5387
4351 27.5571 179(13) 183.3084 166.5330
4352 27.5612 179(13) 183.3803 166.5272
4353 27.5652 179(13) 183.4544 166.5215
4354 27.5692 179(13) 183.5308 166.5157
4355 27.5733 179(13) 183.6097 166.5099
4356 27.5773 180(13) 183.6911 166.5041
4357 27.5813 180(13) 183.7748 166.4983
4358 27.5854 180(13) 183.8612 166.4925
4359 27.5894 180(13) 183.9501 166.4867
4360 27.5934 180(13) 184.0416 166.4809
4361 27.5975 180(13) 184.1357 166.4751
4362 27.6015 180(13) 184.2327 166.4693
4363 27.6055 180(13) 184.3324 166.4634
4364 27.6095 180(13) 184.4349 166.4576
4365 27.6136 180(13) 184.5403 166.4518
4366 27.6176 180(13) 184.6487 166.4459
4367 27.6216 180(13) 184.7599 166.4401
4368 27.6257 180(13) 184.8744 166.4342
4369 27.6297 181(13) 184.9920 166.4284
4370 27.6337 181(13) 185.1128 166.4225
4371 27.6378 180(13) 185.2367 166.4167
4372 27.6418 180(13) 185.3641 166.4108
4373 27.6458 180(13) 185.4949 166.4049
4374 27.6499 180(13) 185.6291 166.3990
4375 27.6539 180(13) 185.7669 166.3931
4376 27.6579 180(13) 185.9106 166.3872
4377 27.6619 180(13) 186.0557 166.3813
4378 27.6660 180(13) 186.2048 166.3755
4379 27.6700 180(13) 186.3578 166.3696
4380 27.6740 180(13) 186.5147 166.3636
4381 27.6781 180(13) 186.6756 166.3577
4382 27.6821 180(13) 186.8409 166.3518
4383 27.6861 180(13) 187.0104 166.3459
4384 27.6902 180(13) 187.1842 166.3400
4385 27.6942 180(13) 187.3627 166.3340
4386 27.6982 180(13) 187.5458 166.3281
4387 27.7023 180(13) 187.7335 166.3221
4388 27.7063 180(13) 187.9262 166.3162
4389 27.7103 180(13) 188.1240 166.3102
4390 27.7144 180(13) 188.3268 166.3043
4391 27.7184 180(13) 188.5347 166.2983
4392 27.7224 180(13) 188.7483 166.2923
4393 27.7264 180(13) 188.9685 166.2864
4394 27.7305 180(13) 189.1931 166.2804
4395 27.7345 180(13) 189.4237 166.2744
4396 27.7385 180(13) 189.6604 166.2684
4397 27.7426 180(13) 189.9033 166.2624
4398 27.7466 181(13) 190.1523 166.2564
4399 27.7506 181(13) 190.4082 166.2504
4400 27.7547 181(13) 190.6707 166.2444
4401 27.7587 181(13) 190.9400 166.2384
4402 27.7627 182(13) 191.2166 166.2324
4403 27.7668 182(13) 191.5006 166.2263
4404 27.7708 183(14) 191.6403 166.2203
4405 27.7748 183(14) 191.9400 166.2143
4406 27.7788 183(14) 192.2478 166.2083
4407 27.7829 184(14) 192.5639 166.2022
4408 27.7869 185(14) 192.8883 166.1962
4409 27.7909 185(14) 193.2217 166.1901
4410 27.7950 186(14) 193.5643 166.1841
4411 27.7990 186(14) 193.9159 166.1780
4412 27.8030 187(14) 194.2775 166.1719
4413 27.8071 187(14) 194.6492 166.1659
4414 27.8111 188(14) 195.0308 166.1598
4415 27.8151 189(14) 195.4235 166.1537
4416 27.8192 189(14) 195.8271 166.1476
4417 27.8232 190(14) 196.2422 166.1415
4418 27.8272 191(14) 196.6687 166.1354
4419 27.8312 191(14) 197.1078 166.1293
4420 27.8353 192(14) 197.4840 166.1232
4421 27.8393 193(14) 197.9486 166.1171
4422 27.8433 194(14) 198.4271 166.1110
4423 27.8474 194(14) 198.9196 166.1049
4424 27.8514 195(14) 199.4261 166.0988
4425 27.8554 196(14) 199.9482 166.0926
4426 27.8595 197(14) 200.4859 166.0865
4427 27.8635 198(14) 201.0398 166.0804
4428 27.8675 199(14) 201.6099 166.0742
4429 27.8716 200(14) 202.1979 166.0680
4430 27.8756 201(14) 202.8042 166.0619
4431 27.8796 202(14) 203.4285 166.0557
4432 27.8837 203(14) 204.0731 166.0495
4433 27.8877 204(14) 204.7380 166.0434
4434 27.8917 205(14) 205.4234 166.0372
4435 27.8957 206(14) 206.1314 166.0310
4436 27.8998 207(14) 206.8625 166.0249
4437 27.9038 209(14) 207.6174 166.0187
4438 27.9078 210(14) 208.3966 166.0125
4439 27.9119 211(15) 209.2025 166.0063
4440 27.9159 212(15) 210.0357 166.0001
4441 27.9199 214(15) 210.8965 165.9939
4442 27.9240 215(15) 211.7880 165.9877
4443 27.9280 217(15) 212.7106 165.9814
4444 27.9320 218(15) 213.6660 165.9752
4445 27.9361 220(15) 214.6549 165.9690
4446 27.9401 221(15) 215.6809 165.9628
4447 27.9441 223(15) 216.7449 165.9565
4448 27.9481 225(15) 217.8480 165.9503
4449 27.9522 227(15) 218.9945 165.9440
4450 27.9562 229(15) 220.1858 165.9378
4451 27.9602 230(15) 221.4234 165.9315
4452 27.9643 233(15) 222.7125 165.9253
4453 27.9683 235(15) 224.0551 165.9190
4454 27.9723 237(15) 225.4547 165.9128
4455 27.9764 239(15) 226.9136 165.9065
4456 27.9804 242(16) 228.4387 165.9002
4457 27.9844 244(16) 230.0333 165.8939
4458 27.9885 247(16) 231.7007 165.8876
4459 27.9925 250(16) 233.4495 165.8813
4460 27.9965 253(16) 235.2842 165.8750
4461 28.0005 256(16) 237.2096 165.8687
4462 28.0046 260(16) 239.2365 165.8624
4463 28.0086 264(16) 241.3709 165.8561
4464 28.0126 267(16) 243.6217 165.8498
4465 28.0167 272(16) 245.9958 165.8435
4466 28.0207 276(17) 248.5082 165.8372
4467 28.0247 281(17) 251.1679 165.8308
4468 28.0288 285(17) 253.9843 165.8245
4469 28.0328 291(17) 256.9759 165.8181
4470 28.0368 296(17) 260.1544 165.8118
4471 28.0409 302(17) 263.5321 165.8055
4472 28.0449 308(18) 267.1318 165.7991
4473 28.0489 314(18) 270.9681 165.7927
4474 28.0530 321(18) 275.0601 165.7864
4475 28.0570 328(18) 279.4237 165.7800
4476 28.0610 336(18) 284.0885 165.7736
4477 28.0650 344(19) 289.0733 165.7673
4478 28.0691 352(19) 294.3967 165.7609
4479 28.0731 361(19) 300.0935 165.7545
4480 28.0771 370(19) 306.1852 165.7481
4481 28.0812 379(19) 312.6987 165.7417
4482 28.0852 389(20) 319.6554 165.7353
4483 28.0892 400(20) 327.0970 165.7289
4484 28.0933 411(20) 335.0468 165.7225
4485 28.0973 422(21) 343.5263 165.7161
4486 28.1013 434(21) 352.5818 165.7097
4487 28.1054 446(21) 362.2359 165.7032
4488 28.1094 459(21) 372.5087 165.6968
4489 28.1134 473(22) 383.4496 165.6904
4490 28.1175 486(22) 395.0779 165.6839
4491 28.1215 500(22) 407.4815 165.6775
4492 28.1255 515(23) 420.5554 165.6711
4493 28.1295 530(23) 434.4088 165.6646
4494 28.1336 546(23) 449.0524 165.6582
4495 28.1376 562(24) 464.4915 165.6517
4496 28.1416 578(24) 480.7720 165.6452
4497 28.1457 594(24) 497.8934 165.6388
4498 28.1497 611(25) 515.8469 165.6323
4499 28.1537 629(25) 534.6703 165.6258
4500 28.1578 646(25) 554.3445 165.6193
4501 28.1618 664(26) 574.8604 165.6128
4502 28.1658 681(26) 596.1798 165.6064
4503 28.1699 699(26) 618.3166 165.5999
4504 28.1739 717(27) 641.2133 165.5933
4505 28.1779 735(27) 664.7977 165.5869
4506 28.1819 753(27) 689.0510 165.5804
4507 28.1860 770(28) 713.8721 165.5738
4508 28.1900 788(28) 739.1412 165.5673
4509 28.1940 805(28) 764.8206 165.5608
4510 28.1981 822(29) 790.6927 165.5543
4511 28.2021 838(29) 816.6317 165.5477
4512 28.2061 854(29) 842.4365 165.5412
4513 28.2102 870(29) 867.9598 165.5347
4514 28.2142 885(30) 892.9619 165.5281
4515 28.2182 899(30) 917.1903 165.5216
4516 28.2223 913(30) 940.4512 165.5150
4517 28.2263 926(30) 962.4772 165.5085
4518 28.2303 938(31) 983.0277 165.5019
4519 28.2343 949(31) 1001.8575 165.4953
4520 28.2384 960(31) 1018.7950 165.4887
4521 28.2424 969(31) 1033.6440 165.4822
4522 28.2464 977(31) 1046.2533 165.4756
4523 28.2505 985(31) 1056.5481 165.4690
4524 28.2545 991(31) 1064.4634 165.4624
4525 28.2585 996(32) 1069.9884 165.4558
4526 28.2626 1001(32) 1073.1688 165.4492
4527 28.2666 1004(32) 1074.0713 165.4426
4528 28.2706 1006(32) 1072.7975 165.4360
4529 28.2747 1006(32) 1069.4739 165.4294
4530 28.2787 1006(32) 1064.2273 165.4228
4531 28.2827 1005(32) 1057.1956 165.4162
4532 28.2868 1002(32) 1048.5181 165.4095
4533 28.2908 998(32) 1038.2983 165.4029
4534 28.2948 994(32) 1026.6505 165.3963
4535 28.2988 988(31) 1013.6796 165.3896
4536 28.3029 981(31) 999.4393 165.3830
4537 28.3069 973(31) 984.0101 165.3763
4538 28.3109 964(31) 967.4539 165.3697
4539 28.3150 955(31) 949.8484 165.3630
4540 28.3190 944(31) 931.2242 165.3564
4541 28.3230 933(31) 911.6687 165.3497
4542 28.3271 921(30) 891.2827 165.3430
4543 28.3311 908(30) 870.1212 165.3363
4544 28.3351 894(30) 848.3082 165.3297
4545 28.3392 880(30) 825.9814 165.3230
4546 28.3432 866(29) 803.2228 165.3163
4547 28.3472 851(29) 780.1823 165.3096
4548 28.3512 835(29) 756.9914 165.3029
4549 28.3553 819(29) 733.8008 165.2962
4550 28.3593 803(28) 710.6900 165.2895
4551 28.3633 786(28) 687.7968 165.2828
4552 28.3674 770(28) 665.2476 165.2761
4553 28.3714 753(27) 643.0936 165.2694
4554 28.3754 736(27) 621.4377 165.2627
4555 28.3795 719(27) 600.3494 165.2559
4556 28.3835 702(26) 579.9044 165.2492
4557 28.3875 685(26) 560.1094 165.2424
4558 28.3916 668(26) 541.0186 165.2357
4559 28.3956 651(26) 522.6738 165.2290
4560 28.3996 634(25) 505.0565 165.2222
4561 28.4037 618(25) 488.1928 165.2155
4562 28.4077 602(25) 472.0992 165.2087
4563 28.4117 586(24) 456.7417 165.2020
4564 28.4157 570(24) 442.1266 165.1952
4565 28.4198 555(24) 428.2416 165.1884
4566 28.4238 540(23) 415.0823 165.1817
4567 28.4278 525(23) 402.6051 165.1749
4568 28.4319 511(23) 390.8016 165.1681
4569 28.4359 497(22) 379.6592 165.1613
4570 28.4399 484(22) 369.1326 165.1545
4571 28.4440 470(22) 359.2078 165.1477
4572 28.4480 458(21) 349.8674 165.1409
4573 28.4520 445(21) 341.0677 165.1341
4574 28.4561 434(21) 332.7915 165.1273
4575 28.4601 422(21) 325.0127 165.1205
4576 28.4641 411(20) 317.8076 165.1137
4577 28.4681 400(20) 310.9459 165.1068
4578 28.4722 390(20) 304.5050 165.1000
4579 28.4762 380(19) 298.4660 165.0932
4580 28.4802 371(19) 292.7939 165.0863
4581 28.4843 362(19) 287.4718 165.0795
4582 28.4883 353(19) 282.4821 165.0727
4583 28.4923 345(19) 277.7942 165.0658
4584 28.4964 337(18) 273.3930 165.0590
4585 28.5004 329(18) 269.2592 165.0521
4586 28.5044 322(18) 265.3781 165.0453
4587 28.5085 315(18) 261.7252 165.0384
4588 28.5125 308(18) 258.2879 165.0315
4589 28.5165 302(17) 255.0541 165.0247
4590 28.5205 296(17) 252.0031 165.0178
4591 28.5246 290(17) 249.1249 165.0109
4592 28.5286 285(17) 246.4093 165.0040
4593 28.5326 280(17) 243.8396 164.9971
4594 28.5367 275(17) 241.4552 164.9902
4595 28.5407 270(16) 239.1511 164.9833
4596 28.5447 265(16) 236.9675 164.9764
4597 28.5488 261(16) 234.8916 164.9695
4598 28.5528 257(16) 232.9178 164.9626
4599 28.5568 253(16) 231.0406 164.9557
4600 28.5609 250(16) 229.2497 164.9488
4601 28.5649 246(16) 227.5408 164.9418
4602 28.5689 243(16) 225.9084 164.9349
4603 28.5730 240(15) 224.3487 164.9280
4604 28.5770 237(15) 222.8540 164.9211
4605 28.5810 234(15) 221.4216 164.9141
4606 28.5850 232(15) 220.0489 164.9072
4607 28.5891 229(15) 218.7294 164.9002
4608 28.5931 227(15) 217.4614 164.8932
4609 28.5971 225(15) 216.2428 164.8863
4610 28.6012 222(15) 215.0686 164.8793
4611 28.6052 220(15) 213.9374 164.8724
4612 28.6092 218(15) 212.8468 164.8654
4613 28.6133 217(15) 211.7955 164.8584
4614 28.6173 215(15) 210.7798 164.8515
4615 28.6213 213(15) 209.7985 164.8445
4616 28.6254 212(15) 208.8510 164.8375
4617 28.6294 210(14) 207.9339 164.8305
4618 28.6334 209(14) 207.0465 164.8235
4619 28.6374 207(14) 206.1884 164.8165
4620 28.6415 206(14) 205.3565 164.8095
4621 28.6455 205(14) 204.5505 164.8025
4622 28.6495 204(14) 203.7693 164.7955
4623 28.6536 203(14) 203.0125 164.7885
4624 28.6576 201(14) 202.2777 164.7814
4625 28.6616 200(14) 201.5648 164.7745
4626 28.6657 199(14) 200.8732 164.7674
4627 28.6697 198(14) 200.2012 164.7604
4628 28.6737 197(14) 199.5484 164.7533
4629 28.6778 197(14) 198.9148 164.7463
4630 28.6818 196(14) 198.2983 164.7392
4631 28.6858 195(14) 197.6990 164.7322
4632 28.6899 194(14) 197.1162 164.7252
4633 28.6939 194(14) 196.5499 164.7181
4634 28.6979 193(14) 195.9982 164.7110
4635 28.7019 192(14) 195.4614 164.7039
4636 28.7060 192(14) 194.9393 164.6969
4637 28.7100 191(14) 194.4304 164.6898
4638 28.7140 190(14) 193.9348 164.6827
4639 28.7181 190(14) 193.4519 164.6757
4640 28.7221 189(14) 192.9818 164.6686
4641 28.7261 189(14) 192.5232 164.6615
4642 28.7302 188(14) 192.0761 164.6544
4643 28.7342 188(14) 191.6406 164.6473
4644 28.7382 188(14) 191.2154 164.6402
4645 28.7423 187(14) 190.8006 164.6331
4646 28.7463 187(14) 190.3963 164.6260
4647 28.7503 186(14) 190.0013 164.6189
4648 28.7543 186(14) 189.2668 164.6117
4649 28.7584 186(14) 188.8913 164.6046
4650 28.7624 185(14) 188.5248 164.5975
4651 28.7664 185(14) 188.1666 164.5904
4652 28.7705 185(14) 187.8167 164.5833
4653 28.7745 185(14) 187.4752 164.5761
4654 28.7785 184(14) 187.1410 164.5689
4655 28.7826 184(14) 186.8145 164.5618
4656 28.7866 184(14) 186.4956 164.5547
4657 28.7906 184(14) 186.1834 164.5475
4658 28.7947 184(14) 185.8782 164.5404
4659 28.7987 183(14) 185.5796 164.5332
4660 28.8027 183(14) 185.2878 164.5260
4661 28.8068 183(14) 185.0020 164.5188
4662 28.8108 183(14) 184.7223 164.5116
4663 28.8148 183(14) 184.4489 164.5045
4664 28.8188 183(14) 184.0067 164.4973
4665 28.8229 182(13) 183.7448 164.4901
4666 28.8269 182(13) 183.4885 164.4829
4667 28.8309 182(13) 183.2373 164.4757
4668 28.8350 182(13) 182.9912 164.4685
4669 28.8390 182(13) 182.7502 164.4613
4670 28.8430 182(13) 182.5142 164.4541
4671 28.8471 181(13) 182.2828 164.4469
4672 28.8511 181(13) 182.0559 164.4397
4673 28.8551 181(13) 181.8337 164.4325
4674 28.8592 181(13) 181.6157 164.4253
4675 28.8632 181(13) 181.4019 164.4180
4676 28.8672 180(13) 181.1923 164.4108
4677 28.8712 180(13) 180.9869 164.4036
4678 28.8753 180(13) 180.7852 164.3963
4679 28.8793 180(13) 180.5873 164.3891
4680 28.8833 179(13) 180.3934 164.3819
4681 28.8874 179(13) 180.2029 164.3746
4682 28.8914 179(13) 180.0159 164.3674
4683 28.8954 179(13) 179.8326 164.3601
4684 28.8995 178(13) 179.6524 164.3528
4685 28.9035 178(13) 179.4755 164.3456
4686 28.9075 178(13) 179.3018 164.3383
4687 28.9116 178(13) 179.1314 164.3310
4688 28.9156 177(13) 178.9638 164.3237
4689 28.9196 177(13) 178.7993 164.3165
4690 28.9236 177(13) 178.6377 164.3092
4691 28.9277 177(13) 178.4789 164.3019
4692 28.9317 176(13) 178.3228 164.2946
4693 28.9357 176(13) 178.1696 164.2873
4694 28.9398 176(13) 178.0188 164.2800
4695 28.9438 176(13) 177.8706 164.2727
4696 28.9478 176(13) 177.7250 164.2654
4697 28.9519 175(13) 177.5819 164.2581
4698 28.9559 175(13) 177.4411 164.2508
4699 28.9599 175(13) 177.3026 164.2434
4700 28.9640 175(13) 177.1665 164.2361
4701 28.9680 175(13) 177.0325 164.2288
4702 28.9720 175(13) 176.9008 164.2215
4703 28.9761 175(13) 176.7712 164.2141
4704 28.9801 175(13) 176.6437 164.2068
4705 28.9841 174(13) 176.5182 164.1994
4706 28.9881 174(13) 176.3947 164.1921
4707 28.9922 174(13) 176.2733 164.1847
4708 28.9962 174(13) 176.1537 164.1774
4709 29.0002 174(13) 176.0359 164.1700
4710 29.0043 174(13) 175.9201 164.1627
4711 29.0083 174(13) 175.8060 164.1553
4712 29.0123 174(13) 175.6936 164.1479
4713 29.0164 174(13) 175.5831 164.1405
4714 29.0204 174(13) 175.4742 164.1332
4715 29.0244 174(13) 175.3669 164.1258
4716 29.0285 174(13) 175.2611 164.1184
4717 29.0325 174(13) 175.1571 164.1110
4718 29.0365 174(13) 175.0545 164.1036
4719 29.0406 174(13) 174.9535 164.0962
4720 29.0446 175(13) 174.8540 164.0888
4721 29.0486 175(13) 174.7559 164.0814
4722 29.0526 175(13) 174.6593 164.0740
4723 29.0567 175(13) 174.5640 164.0666
4724 29.0607 175(13) 174.4702 164.0591
4725 29.0647 175(13) 174.3776 164.0517
4726 29.0688 175(13) 174.2864 164.0443
4727 29.0728 175(13) 174.1965 164.0369
4728 29.0768 175(13) 174.1078 164.0294
4729 29.0809 175(13) 174.0204 164.0220
4730 29.0849 175(13) 173.9343 164.0146
4731 29.0889 175(13) 173.8493 164.0071
4732 29.0930 175(13) 173.7654 163.9997
4733 29.0970 175(13) 173.6828 163.9922
4734 29.1010 175(13) 173.6012 163.9848
4735 29.1050 175(13) 173.5208 163.9773
4736 29.1091 175(13) 173.4415 163.9699
4737 29.1131 175(13) 173.3633 163.9624
4738 29.1171 175(13) 173.2860 163.9549
4739 29.1212 175(13) 173.2098 163.9474
4740 29.1252 175(13) 173.1347 163.9400
4741 29.1292 175(13) 173.0605 163.9325
4742 29.1333 175(13) 172.9873 163.9250
4743 29.1373 175(13) 172.9150 163.9175
4744 29.1413 175(13) 172.8438 163.9100
4745 29.1454 175(13) 172.7734 163.9025
4746 29.1494 175(13) 172.7039 163.8950
4747 29.1534 175(13) 172.6353 163.8875
4748 29.1574 175(13) 172.5676 163.8800
4749 29.1615 175(13) 172.5008 163.8725
4750 29.1655 175(13) 172.4348 163.8650
4751 29.1695 175(13) 172.3697 163.8575
4752 29.1736 175(13) 172.3053 163.8499
4753 29.1776 175(13) 172.2418 163.8424
4754 29.1816 175(13) 172.1791 163.8349
4755 29.1857 175(13) 172.1171 163.8273
4756 29.1897 175(13) 172.0559 163.8198
4757 29.1937 175(13) 171.9955 163.8123
4758 29.1978 175(13) 171.9358 163.8047
4759 29.2018 175(13) 171.8768 163.7972
4760 29.2058 175(13) 171.8186 163.7896
4761 29.2099 175(13) 171.7610 163.7820
4762 29.2139 176(13) 171.7042 163.7745
4763 29.2179 176(13) 171.6480 163.7669
4764 29.2219 176(13) 171.5925 163.7594
4765 29.2260 176(13) 171.5377 163.7518
4766 29.2300 176(13) 171.4835 163.7442
4767 29.2340 176(13) 171.4300 163.7366
4768 29.2381 176(13) 171.3771 163.7290
4769 29.2421 176(13) 171.3248 163.7215
4770 29.2461 177(13) 171.2731 163.7139
4771 29.2502 177(13) 171.2220 163.7063
4772 29.2542 177(13) 171.1716 163.6987
4773 29.2582 177(13) 171.1217 163.6911
4774 29.2623 177(13) 171.0724 163.6835
4775 29.2663 177(13) 171.0236 163.6759
4776 29.2703 177(13) 170.9754 163.6682
4777 29.2743 178(13) 170.9278 163.6606
4778 29.2784 178(13) 170.8807 163.6530
4779 29.2824 178(13) 170.8342 163.6454
4780 29.2864 178(13) 170.7881 163.6378
4781 29.2905 178(13) 170.7426 163.6301
4782 29.2945 178(13) 170.6976 163.6225
4783 29.2985 178(13) 170.6531 163.6148
4784 29.3026 178(13) 170.6092 163.6072
4785 29.3066 178(13) 170.5656 163.5996
4786 29.3106 178(13) 170.5226 163.5919
4787 29.3147 178(13) 170.4801 163.5843
4788 29.3187 178(13) 170.4380 163.5766
4789 29.3227 178(13) 170.3964 163.5690
4790 29.3268 178(13) 170.3553 163.5613
4791 29.3308 178(13) 170.3146 163.5536
4792 29.3348 178(13) 170.2744 163.5460
4793 29.3388 177(13) 170.2346 163.5383
4794 29.3429 177(13) 170.1952 163.5306
4795 29.3469 177(13) 170.1563 163.5229
4796 29.3509 177(13) 170.1178 163.5152
4797 29.3550 176(13) 170.0797 163.5075
4798 29.3590 176(13) 170.0420 163.4999
4799 29.3630 176(13) 170.0047 163.4922
4800 29.3671 176(13) 169.9678 163.4844
4801 29.3711 175(13) 169.9314 163.4768
4802 29.3751 175(13) 169.8953 163.4691
4803 29.3792 175(13) 169.8596 163.4613
4804 29.3832 174(13) 169.8244 163.4536
4805 29.3872 174(13) 169.7894 163.4459
4806 29.3912 174(13) 169.7548 163.4382
4807 29.3953 173(13) 169.7207 163.4305
4808 29.3993 173(13) 169.6869 163.4227
4809 29.4033 173(13) 169.6534 163.4150
4810 29.4074 172(13) 169.6203 163.4072
4811 29.4114 172(13) 169.5876 163.3995
4812 29.4154 172(13) 169.5552 163.3918
4813 29.4195 172(13) 169.5231 163.3840
4814 29.4235 171(13) 169.4914 163.3763
4815 29.4275 171(13) 169.4600 163.3685
4816 29.4316 171(13) 169.4290 163.3607
4817 29.4356 170(13) 169.3983 163.3530
4818 29.4396 170(13) 169.3679 163.3452
4819 29.4436 170(13) 169.3378 163.3375
4820 29.4477 169(13) 169.3081 163.3297
4821 29.4517 169(13) 169.2787 163.3219
4822 29.4557 169(13) 169.2496 163.3141
4823 29.4598 168(13) 169.2207 163.3064
4824 29.4638 168(13) 169.1923 163.2986
4825 29.4678 168(13) 169.1641 163.2908
4826 29.4719 168(13) 169.1362 163.2830
4827 29.4759 167(13) 169.1086 163.2752
4828 29.4799 167(13) 169.0813 163.2674
4829 29.4840 167(13) 169.0543 163.2596
4830 29.4880 167(13) 169.0275 163.2518
4831 29.4920 166(13) 169.0012 163.2440
4832 29.4961 166(13) 168.9750 163.2361
4833 29.5001 166(13) 168.9491 163.2283
4834 29.5041 166(13) 168.9235 163.2205
4835 29.5081 166(13) 168.8982 163.2127
4836 29.5122 166(13) 168.8732 163.2048
4837 29.5162 166(13) 168.8484 163.1970
4838 29.5202 166(13) 168.8239 163.1892
4839 29.5243 165(13) 168.7997 163.1814
4840 29.5283 165(13) 168.7757 163.1735
4841 29.5323 166(13) 168.7521 163.1657
4842 29.5364 166(13) 168.7286 163.1578
4843 29.5404 166(13) 168.7054 163.1500
4844 29.5444 166(13) 168.6825 163.1421
4845 29.5485 166(13) 168.6598 163.1342
4846 29.5525 166(13) 168.6374 163.1264
4847 29.5565 166(13) 168.6152 163.1185
4848 29.5605 166(13) 168.5933 163.1106
4849 29.5646 166(13) 168.5716 163.1028
4850 29.5686 167(13) 168.5501 163.0949
4851 29.5726 167(13) 168.5290 163.0870
4852 29.5767 167(13) 168.5080 163.0791
4853 29.5807 167(13) 168.4873 163.0712
4854 29.5847 167(13) 168.4668 163.0633
4855 29.5888 167(13) 168.4466 163.0554
4856 29.5928 167(13) 168.4266 163.0475
4857 29.5968 168(13) 168.4068 163.0397
4858 29.6009 168(13) 168.3873 163.0317
4859 29.6049 168(13) 168.3680 163.0238
4860 29.6089 168(13) 168.3489 163.0159
4861 29.6129 168(13) 168.3300 163.0080
4862 29.6170 168(13) 168.3114 163.0001
4863 29.6210 168(13) 168.2930 162.9922
4864 29.6250 168(13) 168.2748 162.9842
4865 29.6291 168(13) 168.2569 162.9763
4866 29.6331 168(13) 168.2392 162.9684
4867 29.6371 168(13) 168.2216 162.9604
4868 29.6412 167(13) 168.2044 162.9525
4869 29.6452 167(13) 168.1873 162.9445
4870 29.6492 167(13) 168.1705 162.9366
4871 29.6533 167(13) 168.1538 162.9286
4872 29.6573 167(13) 168.1374 162.9207
4873 29.6613 167(13) 168.1212 162.9127
4874 29.6654 167(13) 168.1052 162.9048
4875 29.6694 167(13) 168.0894 162.8968
4876 29.6734 167(13) 168.0739 162.8888
4877 29.6774 167(13) 168.0585 162.8809
4878 29.6815 166(13) 168.0434 162.8729
4879 29.6855 166(13) 168.0284 162.8649
4880 29.6895 166(13) 168.0137 162.8569
4881 29.6936 166(13) 167.9992 162.8489
4882 29.6976 166(13) 167.9849 162.8410
4883 29.7016 166(13) 167.9708 162.8330
4884 29.7057 166(13) 167.9570 162.8250
4885 29.7097 166(13) 167.9433 162.8170
4886 29.7137 166(13) 167.9298 162.8090
4887 29.7178 166(13) 167.9165 162.8010
4888 29.7218 166(13) 167.9035 162.7930
4889 29.7258 166(13) 167.8906 162.7849
4890 29.7299 166(13) 167.8780 162.7769
4891 29.7339 166(13) 167.8655 162.7689
4892 29.7379 166(13) 167.8533 162.7609
4893 29.7419 166(13) 167.8413 162.7529
4894 29.7460 166(13) 167.8294 162.7448
4895 29.7500 166(13) 167.8179 162.7368
4896 29.7540 166(13) 167.8064 162.7288
4897 29.7581 165(13) 167.7952 162.7207
4898 29.7621 165(13) 167.7842 162.7127
4899 29.7661 165(13) 167.7734 162.7047
4900 29.7702 165(13) 167.7628 162.6966
4901 29.7742 165(13) 167.3840 162.6885
4902 29.7782 165(13) 167.3747 162.6805
4903 29.7823 165(13) 167.3656 162.6724
4904 29.7863 165(13) 167.3566 162.6643
4905 29.7903 165(13) 167.3480 162.6563
4906 29.7943 165(13) 167.3394 162.6482
4907 29.7984 165(13) 167.3311 162.6401
4908 29.8024 165(13) 167.3230 162.6321
4909 29.8064 165(13) 167.3151 162.6240
4910 29.8105 165(13) 167.3074 162.6159
4911 29.8145 165(13) 167.2999 162.6078
4912 29.8185 165(13) 167.2926 162.5997
4913 29.8226 165(13) 167.2855 162.5916
4914 29.8266 165(13) 167.2787 162.5835
4915 29.8306 165(13) 167.2720 162.5754
4916 29.8347 165(13) 167.2655 162.5673
4917 29.8387 165(13) 167.2592 162.5592
4918 29.8427 165(13) 167.2532 162.5511
4919 29.8467 165(13) 167.0640 162.5430
4920 29.8508 166(13) 167.0588 162.5349
4921 29.8548 166(13) 167.0538 162.5268
4922 29.8588 166(13) 167.0491 162.5186
4923 29.8629 166(13) 167.0445 162.5105
4924 29.8669 166(13) 167.0401 162.5024
4925 29.8709 166(13) 167.0359 162.4942
4926 29.8750 166(13) 167.0320 162.4861
4927 29.8790 166(13) 167.0283 162.4780
4928 29.8830 166(13) 167.0248 162.4698
4929 29.8871 166(13) 167.0215 162.4617
4930 29.8911 166(13) 167.0184 162.4535
4931 29.8951 166(13) 167.0155 162.4454
4932 29.8992 166(13) 167.0129 162.4372
4933 29.9032 166(13) 167.0105 162.4291
4934 29.9072 166(13) 167.0083 162.4209
4935 29.9112 165(13) 167.0063 162.4127
4936 29.9153 165(13) 167.0045 162.4046
4937 29.9193 165(13) 167.0030 162.3964
4938 29.9233 165(13) 167.0017 162.3882
4939 29.9274 165(13) 167.0007 162.3801
4940 29.9314 165(13) 166.9998 162.3718
4941 29.9354 165(13) 166.9992 162.3637
4942 29.9395 165(13) 166.9988 162.3555
4943 29.9435 165(13) 166.9987 162.3473
4944 29.9475 165(13) 166.9988 162.3391
4945 29.9516 165(13) 166.9991 162.3309
4946 29.9556 165(13) 166.9997 162.3227
4947 29.9596 164(13) 167.0005 162.3145
4948 29.9636 164(13) 167.0016 162.3063
4949 29.9677 164(13) 167.0029 162.2980
4950 29.9717 164(13) 167.0044 162.2898
4951 29.9757 164(13) 167.0062 162.2816
4952 29.9798 164(13) 167.0083 162.2734
4953 29.9838 164(13) 167.0107 162.2652
4954 29.9878 164(13) 167.0132 162.2569
4955 29.9919 165(13) 167.0161 162.2487
4956 29.9959 165(13) 167.0192 162.2405
4957 29.9999 165(13) 167.0225 162.2322
4958 30.0040 165(13) 167.0262 162.2240
4959 30.0080 165(13) 167.0301 162.2157
4960 30.0120 165(13) 167.0343 162.2075
4961 30.0161 165(13) 167.0387 162.1992
4962 30.0201 165(13) 167.0435 162.1910
4963 30.0241 165(13) 167.0485 162.1827
4964 30.0281 165(13) 167.0538 162.1745
4965 30.0322 165(13) 167.0594 162.1662
4966 30.0362 165(13) 167.0652 162.1579
4967 30.0402 165(13) 167.0714 162.1497
4968 30.0443 165(13) 167.0779 162.1414
4969 30.0483 166(13) 167.0847 162.1331
4970 30.0523 166(13) 167.0917 162.1248
4971 30.0564 166(13) 167.0991 162.1165
4972 30.0604 166(13) 167.1068 162.1083
4973 30.0644 166(13) 167.1148 162.1000
4974 30.0685 166(13) 167.1231 162.0917
4975 30.0725 165(13) 167.1317 162.0834
4976 30.0765 165(13) 167.1407 162.0751
4977 30.0805 165(13) 167.1500 162.0668
4978 30.0846 165(13) 167.1597 162.0585
4979 30.0886 165(13) 167.1696 162.0502
4980 30.0926 165(13) 167.1799 162.0419
4981 30.0967 165(13) 167.1906 162.0335
4982 30.1007 165(13) 167.2016 162.0252
4983 30.1047 165(13) 167.2130 162.0169
4984 30.1088 165(13) 167.2247 162.0086
4985 30.1128 165(13) 167.2368 162.0003
4986 30.1168 165(13) 167.2493 161.9919
4987 30.1209 165(13) 167.2621 161.9836
4988 30.1249 165(13) 167.2753 161.9752
4989 30.1289 165(13) 167.2889 161.9669
4990 30.1329 165(13) 167.3029 161.9585
4991 30.1370 165(13) 167.3173 161.9502
4992 30.1410 165(13) 167.3321 161.9418
4993 30.1450 165(13) 167.3473 161.9335
4994 30.1491 165(13) 167.3630 161.9252
4995 30.1531 165(13) 167.3790 161.9168
4996 30.1571 165(13) 167.3955 161.9084
4997 30.1612 165(13) 167.4124 161.9000
4998 30.1652 165(13) 167.4297 161.8917
4999 30.1692 165(13) 167.4475 161.8833
5000 30.1733 165(13) 167.4658 161.8749
5001 30.1773 165(13) 167.4845 161.8665
5002 30.1813 166(13) 167.5036 161.8581
5003 30.1854 166(13) 167.5233 161.8498
5004 30.1894 166(13) 167.5434 161.8414
5005 30.1934 166(13) 167.5640 161.8330
5006 30.1974 166(13) 167.5851 161.8246
5007 30.2015 166(13) 167.6068 161.8162
5008 30.2055 167(13) 167.6289 161.8078
5009 30.2095 167(13) 167.6516 161.7994
5010 30.2136 167(13) 167.6748 161.7910
5011 30.2176 167(13) 167.6985 161.7826
5012 30.2216 167(13) 167.7228 161.7742
5013 30.2257 168(13) 167.7477 161.7658
5014 30.2297 168(13) 167.7731 161.7573
5015 30.2337 168(13) 167.7990 161.7489
5016 30.2378 168(13) 167.8256 161.7405
5017 30.2418 168(13) 167.8528 161.7320
5018 30.2458 168(13) 167.8806 161.7236
5019 30.2498 168(13) 167.9090 161.7152
5020 30.2539 168(13) 167.9381 161.7067
5021 30.2579 168(13) 167.9678 161.6983
5022 30.2619 169(13) 167.9981 161.6898
5023 30.2660 169(13) 168.0292 161.6814
5024 30.2700 169(13) 168.0609 161.6729
5025 30.2740 168(13) 168.0933 161.6645
5026 30.2781 168(13) 168.1263 161.6560
5027 30.2821 168(13) 168.1602 161.6476
5028 30.2861 168(13) 168.1947 161.6391
5029 30.2902 168(13) 168.2300 161.6306
5030 30.2942 168(13) 168.2661 161.6222
5031 30.2982 168(13) 168.3029 161.6137
5032 30.3023 168(13) 168.3405 161.6052
5033 30.3063 168(13) 168.3790 161.5967
5034 30.3103 168(13) 168.4183 161.5883
5035 30.3143 167(13) 168.4584 161.5798
5036 30.3184 167(13) 168.4993 161.5713
5037 30.3224 167(13) 168.5411 161.5628
5038 30.3264 167(13) 168.5839 161.5543
5039 30.3305 167(13) 168.6275 161.5458
5040 30.3345 167(13) 168.6721 161.5373
5041 30.3385 166(13) 168.7176 161.5288
5042 30.3426 166(13) 168.7641 161.5203
5043 30.3466 166(13) 168.8115 161.5117
5044 30.3506 166(13) 168.8600 161.5033
5045 30.3547 166(13) 168.9096 161.4947
5046 30.3587 165(13) 168.9601 161.4862
5047 30.3627 165(13) 169.0118 161.4777
5048 30.3667 165(13) 169.0645 161.4691
5049 30.3708 165(13) 169.1184 161.4606
5050 30.3748 165(13) 169.1734 161.4521
5051 30.3788 165(13) 169.2296 161.4435
5052 30.3829 165(13) 169.2871 161.4350
5053 30.3869 164(13) 169.3457 161.4265
5054 30.3909 164(13) 169.4056 161.4180
5055 30.3950 164(13) 169.4668 161.4094
5056 30.3990 164(13) 169.5293 161.4008
5057 30.4030 164(13) 169.5932 161.3923
5058 30.4071 164(13) 169.6584 161.3837
5059 30.4111 164(13) 169.7251 161.3752
5060 30.4151 164(13) 169.7931 161.3666
5061 30.4192 164(13) 169.8627 161.3580
5062 30.4232 164(13) 169.9338 161.3495
5063 30.4272 164(13) 170.0064 161.3409
5064 30.4312 164(13) 170.0807 161.3323
5065 30.4353 164(13) 170.1566 161.3238
5066 30.4393 164(13) 170.2341 161.3152
5067 30.4433 164(13) 170.3133 161.3066
5068 30.4474 164(13) 170.3943 161.2980
5069 30.4514 164(13) 170.4772 161.2894
5070 30.4554 164(13) 170.5618 161.2808
5071 30.4595 164(13) 170.6483 161.2722
5072 30.4635 164(13) 170.7369 161.2636
5073 30.4675 164(13) 170.8273 161.2550
5074 30.4716 164(13) 170.9198 161.2464
5075 30.4756 164(13) 171.0145 161.2378
5076 30.4796 164(13) 171.1113 161.2292
5077 30.4836 164(13) 171.2103 161.2206
5078 30.4877 164(13) 171.3116 161.2120
5079 30.4917 164(13) 171.4152 161.2033
5080 30.4957 164(13) 171.5211 161.1947
5081 30.4998 165(13) 171.6297 161.1861
5082 30.5038 165(13) 171.7407 161.1775
5083 30.5078 165(13) 171.8542 161.1688
5084 30.5119 165(13) 171.9705 161.1602
5085 30.5159 165(13) 172.0896 161.1516
5086 30.5199 165(13) 172.2115 161.1429
5087 30.5240 166(13) 172.3362 161.1342
5088 30.5280 166(13) 172.4641 161.1256
5089 30.5320 166(13) 172.5950 161.1170
5090 30.5360 166(13) 172.7290 161.1083
5091 30.5401 166(13) 172.8664 161.0997
5092 30.5441 167(13) 173.0071 161.0910
5093 30.5481 167(13) 173.1512 161.0824
5094 30.5522 167(13) 173.2990 161.0737
5095 30.5562 167(13) 173.4505 161.0650
5096 30.5602 168(13) 173.6059 161.0564
5097 30.5643 168(13) 173.7649 161.0477
5098 30.5683 168(13) 173.9282 161.0390
5099 30.5723 169(13) 174.0957 161.0303
5100 30.5764 169(13) 174.2673 161.0216
5101 30.5804 169(13) 174.4435 161.0129
5102 30.5844 169(13) 174.6243 161.0042
5103 30.5885 170(13) 174.8097 160.9955
5104 30.5925 170(13) 175.0002 160.9868
5105 30.5965 170(13) 175.1957 160.9782
5106 30.6005 171(13) 175.3964 160.9694
5107 30.6046 171(13) 175.6024 160.9608
5108 30.6086 171(13) 175.8142 160.9520
5109 30.6126 172(13) 176.0317 160.9433
5110 30.6167 172(13) 176.2550 160.9346
5111 30.6207 173(13) 176.4848 160.9259
5112 30.6247 173(13) 176.7209 160.9172
5113 30.6288 173(13) 176.9637 160.9084
5114 30.6328 174(13) 177.2132 160.8997
5115 30.6368 174(13) 177.4700 160.8910
5116 30.6409 174(13) 177.7343 160.8823
5117 30.6449 175(13) 178.0059 160.8735
5118 30.6489 175(13) 178.2858 160.8648
5119 30.6530 176(13) 178.5740 160.8561
5120 30.6570 176(13) 178.8705 160.8473
5121 30.6610 177(13) 179.1762 160.8385
5122 30.6650 177(13) 179.4913 160.8298
5123 30.6691 177(13) 179.8160 160.8211
5124 30.6731 178(13) 180.1505 160.8123
5125 30.6771 178(13) 180.4957 160.8036
5126 30.6812 179(13) 180.8519 160.7948
5127 30.6852 179(13) 181.2192 160.7860
5128 30.6892 180(13) 181.5988 160.7773
5129 30.6933 180(13) 181.9908 160.7685
5130 30.6973 181(13) 182.3954 160.7597
5131 30.7013 181(13) 182.8140 160.7510
5132 30.7054 182(13) 183.2469 160.7422
5133 30.7094 182(13) 183.6947 160.7334
5134 30.7134 183(14) 184.1580 160.7246
5135 30.7174 183(14) 184.6380 160.7158
5136 30.7215 184(14) 185.1355 160.7070
5137 30.7255 184(14) 185.6508 160.6982
5138 30.7295 185(14) 186.1858 160.6894
5139 30.7336 186(14) 186.7413 160.6806
5140 30.7376 186(14) 187.3177 160.6718
5141 30.7416 187(14) 187.9174 160.6630
5142 30.7457 188(14) 188.5413 160.6543
5143 30.7497 189(14) 189.1908 160.6454
5144 30.7537 190(14) 189.8668 160.6366
5145 30.7578 191(14) 190.5724 160.6278
5146 30.7618 192(14) 191.3087 160.6190
5147 30.7658 193(14) 192.0771 160.6102
5148 30.7698 194(14) 192.8811 160.6013
5149 30.7739 195(14) 193.7225 160.5925
5150 30.7779 196(14) 194.6028 160.5837
5151 30.7819 198(14) 195.5265 160.5748
5152 30.7860 199(14) 196.4957 160.5660
5153 30.7900 201(14) 197.5136 160.5572
5154 30.7940 202(14) 198.5826 160.5483
5155 30.7981 204(14) 199.7083 160.5395
5156 30.8021 206(14) 200.8936 160.5306
5157 30.8061 208(14) 202.1416 160.5218
5158 30.8102 210(14) 203.4591 160.5129
5159 30.8142 212(15) 204.8496 160.5041
5160 30.8182 214(15) 206.3182 160.4952
5161 30.8223 217(15) 207.8688 160.4864
5162 30.8263 219(15) 209.5098 160.4775
5163 30.8303 222(15) 211.2460 160.4686
5164 30.8343 225(15) 213.0817 160.4597
5165 30.8384 228(15) 215.0269 160.4509
5166 30.8424 231(15) 217.0868 160.4420
5167 30.8464 234(15) 219.2664 160.4331
5168 30.8505 238(15) 221.5773 160.4242
5169 30.8545 241(16) 224.0250 160.4153
5170 30.8585 245(16) 226.6175 160.4064
5171 30.8626 249(16) 229.3601 160.3976
5172 30.8666 253(16) 232.2663 160.3887
5173 30.8706 257(16) 235.3420 160.3798
5174 30.8747 262(16) 238.5925 160.3709
5175 30.8787 266(16) 242.0325 160.3620
5176 30.8827 271(16) 245.6675 160.3531
5177 30.8867 276(17) 249.5025 160.3442
5178 30.8908 281(17) 253.5529 160.3353
5179 30.8948 286(17) 257.8236 160.3263
5180 30.8988 292(17) 262.3224 160.3174
5181 30.9029 298(17) 267.0524 160.3085
5182 30.9069 304(17) 272.0295 160.2996
5183 30.9109 310(18) 277.2560 160.2906
5184 30.9150 316(18) 282.7322 160.2817
5185 30.9190 322(18) 288.4735 160.2728
5186 30.9230 329(18) 294.4786 160.2639
5187 30.9271 335(18) 300.7439 160.2549
5188 30.9311 342(18) 307.2821 160.2460
5189 30.9351 349(19) 314.0865 160.2370
5190 30.9392 356(19) 321.1542 160.2281
5191 30.9432 363(19) 328.4723 160.2191
5192 30.9472 370(19) 336.0463 160.2102
5193 30.9512 377(19) 343.8574 160.2012
5194 30.9553 384(20) 351.8820 160.1923
5195 30.9593 391(20) 360.1153 160.1833
5196 30.9633 399(20) 368.5246 160.1743
5197 30.9674 406(20) 377.0795 160.1654
5198 30.9714 413(20) 385.7356 160.1564
5199 30.9754 420(20) 394.4667 160.1475
5200 30.9795 427(21) 403.2162 160.1385
5201 30.9835 433(21) 411.9205 160.1295
5202 30.9875 440(21) 420.5352 160.1205
5203 30.9916 446(21) 428.9853 160.1116
5204 30.9956 452(21) 437.1921 160.1026
5205 30.9996 458(21) 445.0971 160.0936
5206 31.0036 464(22) 452.6169 160.0846
5207 31.0077 469(22) 459.6769 160.0756
5208 31.0117 474(22) 466.1998 160.0666
5209 31.0157 479(22) 472.1321 160.0576
5210 31.0198 483(22) 477.4102 160.0486
5211 31.0238 487(22) 481.9830 160.0396
5212 31.0278 490(22) 485.8245 160.0306
5213 31.0319 493(22) 488.9088 160.0216
5214 31.0359 496(22) 491.2265 160.0125
5215 31.0399 498(22) 492.7881 160.0035
5216 31.0440 500(22) 493.6094 159.9945
5217 31.0480 501(22) 493.7191 159.9855
5218 31.0520 502(22) 493.1550 159.9765
5219 31.0560 503(22) 491.9585 159.9674
5220 31.0601 503(22) 490.1747 159.9584
5221 31.0641 502(22) 487.8517 159.9494
5222 31.0681 501(22) 485.0283 159.9403
5223 31.0722 500(22) 481.7459 159.9313
5224 31.0762 498(22) 478.0433 159.9223
5225 31.0802 496(22) 473.9427 159.9132
5226 31.0843 494(22) 469.4716 159.9042
5227 31.0883 491(22) 464.6495 159.8951
5228 31.0923 487(22) 459.4974 159.8861
5229 31.0964 483(22) 454.0190 159.8770
5230 31.1004 479(22) 448.2318 159.8680
5231 31.1044 475(22) 442.1555 159.8589
5232 31.1085 470(22) 435.7938 159.8498
5233 31.1125 465(22) 429.1709 159.8408
5234 31.1165 460(21) 422.3090 159.8317
5235 31.1205 454(21) 415.2408 159.8226
5236 31.1246 448(21) 407.9828 159.8135
5237 31.1286 442(21) 400.5748 159.8045
5238 31.1326 436(21) 393.0593 159.7954
5239 31.1367 430(21) 385.4595 159.7863
5240 31.1407 423(21) 377.8501 159.7772
5241 31.1447 417(20) 370.2156 159.7681
5242 31.1488 410(20) 362.6075 159.7590
5243 31.1528 403(20) 355.0667 159.7499
5244 31.1568 396(20) 347.6242 159.7408
5245 31.1609 389(20) 340.3148 159.7318
5246 31.1649 383(20) 333.1490 159.7226
5247 31.1689 376(19) 326.1545 159.7135
5248 31.1729 369(19) 319.3553 159.7045
5249 31.1770 362(19) 312.7526 159.6953
5250 31.1810 355(19) 306.3636 159.6862
5251 31.1850 348(19) 300.2022 159.6771
5252 31.1891 342(18) 294.2624 159.6680
5253 31.1931 335(18) 288.5530 159.6589
5254 31.1971 329(18) 283.0753 159.6497
5255 31.2012 322(18) 277.8336 159.6406
5256 31.2052 316(18) 272.8160 159.6315
5257 31.2092 310(18) 268.0243 159.6223
5258 31.2133 304(17) 263.4583 159.6132
5259 31.2173 298(17) 259.1193 159.6041
5260 31.2213 293(17) 254.9762 159.5949
5261 31.2253 287(17) 251.0410 159.5858
5262 31.2294 282(17) 247.2998 159.5766
5263 31.2334 277(17) 243.7492 159.5675
5264 31.2374 272(16) 240.3822 159.5583
5265 31.2415 267(16) 237.1944 159.5492
5266 31.2455 263(16) 234.1723 159.5401
5267 31.2495 259(16) 231.3117 159.5309
5268 31.2536 254(16) 228.6079 159.5217
5269 31.2576 250(16) 226.0484 159.5125
5270 31.2616 246(16) 223.6289 159.5034
5271 31.2657 243(16) 221.3423 159.4942
5272 31.2697 239(15) 219.1840 159.4850
5273 31.2737 236(15) 217.1433 159.4758
5274 31.2778 232(15) 215.2160 159.4666
5275 31.2818 229(15) 213.3977 159.4575
5276 31.2858 226(15) 211.6789 159.4483
5277 31.2898 223(15) 210.0561 159.4391
5278 31.2939 221(15) 208.5250 159.4299
5279 31.2979 218(15) 207.0777 159.4207
5280 31.3019 215(15) 205.7109 159.4115
5281 31.3060 213(15) 204.4199 159.4023
5282 31.3100 211(15) 203.2015 159.3931
5283 31.3140 208(14) 202.0493 159.3839
5284 31.3181 206(14) 200.9605 159.3747
5285 31.3221 204(14) 199.9326 159.3655
5286 31.3261 202(14) 198.9600 159.3563
5287 31.3302 200(14) 198.0406 159.3471
5288 31.3342 199(14) 197.1724 159.3379
5289 31.3382 197(14) 196.3506 159.3286
5290 31.3423 195(14) 195.5738 159.3194
5291 31.3463 194(14) 194.8394 159.3102
5292 31.3503 192(14) 194.1460 159.3010
5293 31.3543 191(14) 193.4900 159.2917
5294 31.3584 190(14) 192.8703 159.2825
5295 31.3624 189(14) 192.2856 159.2733
5296 31.3664 188(14) 191.7333 159.2641
5297 31.3705 186(14) 191.2123 159.2548
5298 31.3745 185(14) 190.7217 159.2455
5299 31.3785 185(14) 190.2593 159.2363
5300 31.3826 184(14) 189.8245 159.2271
5301 31.3866 183(14) 189.4160 159.2178
5302 31.3906 182(13) 189.0332 159.2086
5303 31.3947 182(13) 188.6745 159.1993
5304 31.3987 181(13) 188.3392 159.1900
5305 31.4027 181(13) 188.0268 159.1808
5306 31.4067 180(13) 187.7359 159.1715
5307 31.4108 180(13) 187.4659 159.1622
5308 31.4148 179(13) 187.2164 159.1530
5309 31.4188 179(13) 186.9859 159.1437
5310 31.4229 179(13) 186.7741 159.1344
5311 31.4269 179(13) 186.5801 159.1251
5312 31.4309 178(13) 186.4030 159.1158
5313 31.4350 178(13) 186.2420 159.1066
5314 31.4390 178(13) 186.0959 159.0973
5315 31.4430 178(13) 185.9640 159.0880
5316 31.4471 178(13) 185.8449 159.0787
5317 31.4511 178(13) 185.7375 159.0694
5318 31.4551 178(13) 185.6407 159.0601
5319 31.4591 178(13) 185.5531 159.0508
5320 31.4632 178(13) 185.4730 159.0415
5321 31.4672 178(13) 185.3991 159.0322
5322 31.4712 178(13) 185.3300 159.0229
5323 31.4753 178(13) 185.2637 159.0136
5324 31.4793 178(13) 185.1989 159.0043
5325 31.4833 178(13) 185.1339 158.9949
5326 31.4874 178(13) 185.0673 158.9856
5327 31.4914 178(13) 184.9977 158.9763
5328 31.4954 178(13) 184.9240 158.9669
5329 31.4995 178(13) 184.8453 158.9576
5330 31.5035 178(13) 184.7606 158.9483
5331 31.5075 178(13) 184.6696 158.9390
5332 31.5116 178(13) 184.5720 158.9296
5333 31.5156 178(13) 184.4679 158.9203
5334 31.5196 178(13) 184.3574 158.9109
5335 31.5236 178(13) 184.2411 158.9016
5336 31.5277 178(13) 184.1193 158.8923
5337 31.5317 178(13) 183.9929 158.8829
5338 31.5357 178(13) 183.8625 158.8736
5339 31.5398 178(13) 183.7392 158.8642
5340 31.5438 178(13) 183.6030 158.8549
5341 31.5478 178(13) 183.4649 158.8455
5342 31.5519 178(13) 183.3255 158.8361
5343 31.5559 177(13) 183.1850 158.8268
5344 31.5599 177(13) 183.0440 158.8174
5345 31.5640 177(13) 182.9029 158.8080
5346 31.5680 177(13) 182.7615 158.7987
5347 31.5720 177(13) 182.6204 158.7893
5348 31.5760 176(13) 182.4796 158.7799
5349 31.5801 176(13) 182.3394 158.7705
5350 31.5841 176(13) 182.1998 158.7611
5351 31.5881 176(13) 182.0614 158.7517
5352 31.5922 176(13) 181.9246 158.7424
5353 31.5962 175(13) 181.7895 158.7330
5354 31.6002 175(13) 181.6568 158.7236
5355 31.6043 175(13) 181.5271 158.7141
5356 31.6083 175(13) 181.4013 158.7048
5357 31.6123 175(13) 181.2796 158.6954
5358 31.6164 175(13) 181.1629 158.6860
5359 31.6204 175(13) 181.0572 158.6766
5360 31.6244 175(13) 180.9527 158.6671
5361 31.6285 175(13) 180.8553 158.6577
5362 31.6325 175(13) 180.7657 158.6483
5363 31.6365 175(13) 180.6844 158.6389
5364 31.6405 175(13) 180.6118 158.6295
5365 31.6446 175(13) 180.5485 158.6201
5366 31.6486 176(13) 180.4951 158.6106
5367 31.6526 176(13) 180.4516 158.6012
5368 31.6567 176(13) 180.4187 158.5918
5369 31.6607 176(13) 180.3964 158.5823
5370 31.6647 177(13) 180.3857 158.5729
5371 31.6688 177(13) 180.3856 158.5634
5372 31.6728 177(13) 180.3968 158.5540
5373 31.6768 178(13) 180.4197 158.5446
5374 31.6809 178(13) 180.4542 158.5351
5375 31.6849 179(13) 180.5006 158.5257
5376 31.6889 179(13) 180.5590 158.5162
5377 31.6929 180(13) 180.6297 158.5068
5378 31.6970 180(13) 180.7126 158.4973
5379 31.7010 181(13) 180.8079 158.4879
5380 31.7050 182(13) 180.9160 158.4784
5381 31.7091 182(13) 181.0370 158.4689
5382 31.7131 183(14) 181.1709 158.4595
5383 31.7171 183(14) 181.3182 158.4500
5384 31.7212 184(14) 181.4792 158.4405
5385 31.7252 185(14) 181.6540 158.4311
5386 31.7292 186(14) 181.8428 158.4216
5387 31.7333 186(14) 182.0464 158.4121
5388 31.7373 187(14) 182.2650 158.4026
5389 31.7413 188(14) 182.4989 158.3931
5390 31.7453 189(14) 182.7492 158.3837
5391 31.7494 189(14) 183.0157 158.3741
5392 31.7534 190(14) 183.2993 158.3646
5393 31.7574 191(14) 183.6005 158.3551
5394 31.7615 192(14) 183.9204 158.3456
5395 31.7655 193(14) 184.2598 158.3361
5396 31.7695 194(14) 184.6190 158.3266
5397 31.7736 195(14) 184.7147 158.3171
5398 31.7776 196(14) 185.1183 158.3076
5399 31.7816 197(14) 185.5449 158.2981
5400 31.7857 198(14) 185.9965 158.2886
5401 31.7897 199(14) 186.4741 158.2791
5402 31.7937 200(14) 186.9790 158.2695
5403 31.7978 202(14) 187.5124 158.2600
5404 31.8018 203(14) 188.0768 158.2505
5405 31.8058 204(14) 188.6735 158.2410
5406 31.8098 206(14) 189.3038 158.2315
5407 31.8139 207(14) 189.9709 158.2219
5408 31.8179 209(14) 190.6764 158.2124
5409 31.8219 210(14) 191.4217 158.2029
5410 31.8260 212(15) 192.2107 158.1933
5411 31.8300 214(15) 193.0452 158.1837
5412 31.8340 215(15) 193.9278 158.1742
5413 31.8381 217(15) 194.8605 158.1647
5414 31.8421 219(15) 195.8478 158.1551
5415 31.8461 221(15) 196.8919 158.1456
5416 31.8502 223(15) 197.8529 158.1360
5417 31.8542 225(15) 199.0205 158.1264
5418 31.8582 228(15) 200.2546 158.1169
5419 31.8622 230(15) 201.5574 158.1073
5420 31.8663 232(15) 202.9349 158.0978
5421 31.8703 235(15) 204.3896 158.0882
5422 31.8743 237(15) 205.9251 158.0786
5423 31.8784 240(15) 207.5434 158.0690
5424 31.8824 243(16) 209.2515 158.0594
5425 31.8864 246(16) 211.0515 158.0499
5426 31.8905 248(16) 212.9454 158.0403
5427 31.8945 251(16) 214.9403 158.0307
5428 31.8985 254(16) 217.0382 158.0211
5429 31.9026 257(16) 219.2404 158.0116
5430 31.9066 260(16) 221.5543 158.0020
5431 31.9106 264(16) 223.9810 157.9924
5432 31.9147 267(16) 226.5233 157.9828
5433 31.9187 270(16) 229.1813 157.9732
5434 31.9227 273(17) 231.9620 157.9636
5435 31.9267 276(17) 234.8645 157.9540
5436 31.9308 280(17) 237.8871 157.9444
5437 31.9348 283(17) 241.0356 157.9347
5438 31.9388 286(17) 244.3067 157.9251
5439 31.9429 290(17) 247.6990 157.9155
5440 31.9469 293(17) 251.2063 157.9059
5441 31.9509 296(17) 254.8312 157.8963
5442 31.9550 299(17) 258.5648 157.8867
5443 31.9590 303(17) 262.3961 157.8770
5444 31.9630 306(17) 266.3229 157.8674
5445 31.9671 309(18) 270.3300 157.8577
5446 31.9711 312(18) 274.3996 157.8481
5447 31.9751 315(18) 278.5227 157.8385
5448 31.9791 318(18) 282.6763 157.8288
5449 31.9832 321(18) 286.8381 157.8192
5450 31.9872 324(18) 290.9793 157.8096
5451 31.9912 327(18) 295.0804 157.7999
5452 31.9953 329(18) 299.1076 157.7903
5453 31.9993 332(18) 303.0256 157.7806
5454 32.0033 335(18) 306.8088 157.7710
5455 32.0074 337(18) 310.4203 157.7613
5456 32.0114 339(18) 313.8239 157.7516
5457 32.0154 342(18) 316.9948 157.7420
5458 32.0195 344(19) 319.9007 157.7323
5459 32.0235 346(19) 322.5165 157.7227
5460 32.0275 347(19) 324.8195 157.7130
5461 32.0316 349(19) 326.7986 157.7033
5462 32.0356 351(19) 328.4423 157.6936
5463 32.0396 352(19) 329.7460 157.6840
5464 32.0436 354(19) 330.7147 157.6743
5465 32.0477 355(19) 331.3550 157.6646
5466 32.0517 356(19) 331.6795 157.6549
5467 32.0557 357(19) 331.7052 157.6452
5468 32.0598 357(19) 331.4507 157.6355
5469 32.0638 358(19) 330.9367 157.6259
5470 32.0678 358(19) 330.1850 157.6161
5471 32.0719 359(19) 329.2144 157.6064
5472 32.0759 359(19) 328.0444 157.5968
5473 32.0799 359(19) 326.6932 157.5871
5474 32.0840 359(19) 325.1726 157.5774
5475 32.0880 359(19) 323.4961 157.5676
5476 32.0920 358(19) 321.6733 157.5579
5477 32.0960 358(19) 319.7141 157.5482
5478 32.1001 357(19) 317.6213 157.5385
5479 32.1041 357(19) 315.4024 157.5288
5480 32.1081 356(19) 313.0656 157.5191
5481 32.1122 355(19) 310.6123 157.5094
5482 32.1162 354(19) 308.0521 157.4996
5483 32.1202 353(19) 305.3962 157.4899
5484 32.1243 352(19) 302.6501 157.4802
5485 32.1283 351(19) 299.8282 157.4704
5486 32.1323 350(19) 296.9446 157.4607
5487 32.1364 349(19) 294.0173 157.4510
5488 32.1404 347(19) 291.0576 157.4412
5489 32.1444 346(19) 288.0852 157.4315
5490 32.1484 345(19) 285.1208 157.4217
5491 32.1525 343(19) 282.1763 157.4120
5492 32.1565 342(18) 279.2715 157.4022
5493 32.1605 341(18) 276.4255 157.3925
5494 32.1646 339(18) 273.6481 157.3827
5495 32.1686 338(18) 270.9561 157.3730
5496 32.1726 336(18) 268.3622 157.3632
5497 32.1767 335(18) 265.8801 157.3535
5498 32.1807 334(18) 263.5150 157.3437
5499 32.1847 332(18) 261.2779 157.3339
5500 32.1888 331(18) 259.1782 157.3241
5501 32.1928 330(18) 257.2184 157.3144
5502 32.1968 329(18) 255.4058 157.3046
5503 32.2009 327(18) 253.7465 157.2948
5504 32.2049 326(18) 252.2412 157.2850
5505 32.2089 325(18) 250.8947 157.2753
5506 32.2129 324(18) 249.7097 157.2655
5507 32.2170 323(18) 248.6895 157.2557
5508 32.2210 322(18) 247.8344 157.2459
5509 32.2250 322(18) 247.1471 157.2361
5510 32.2291 321(18) 246.6300 157.2263
5511 32.2331 321(18) 246.2836 157.2165
5512 32.2371 320(18) 246.1105 157.2067
5513 32.2412 320(18) 246.1121 157.1969
5514 32.2452 320(18) 246.2902 157.1871
5515 32.2492 320(18) 246.6470 157.1773
5516 32.2533 320(18) 247.1844 157.1674
5517 32.2573 320(18) 247.9037 157.1577
5518 32.2613 321(18) 248.8087 157.1478
5519 32.2654 321(18) 249.9011 157.1380
5520 32.2694 322(18) 251.1821 157.1282
5521 32.2734 323(18) 252.6566 157.1184
5522 32.2774 323(18) 254.3264 157.1086
5523 32.2815 325(18) 256.1942 157.0987
5524 32.2855 326(18) 258.2605 157.0889
5525 32.2895 327(18) 260.5321 157.0791
5526 32.2936 328(18) 263.0098 157.0692
5527 32.2976 330(18) 265.6935 157.0594
5528 32.3016 331(18) 268.5905 157.0496
5529 32.3057 333(18) 271.7004 157.0397
5530 32.3097 335(18) 275.0216 157.0299
5531 32.3137 337(18) 278.5615 157.0200
5532 32.3178 338(18) 282.3176 157.0102
5533 32.3218 340(18) 286.2894 157.0003
5534 32.3258 342(18) 290.4716 156.9904
5535 32.3298 344(19) 294.8698 156.9806
5536 32.3339 346(19) 299.4759 156.9707
5537 32.3379 348(19) 304.2798 156.9609
5538 32.3419 350(19) 309.2830 156.9510
5539 32.3460 352(19) 314.4711 156.9411
5540 32.3500 354(19) 319.8267 156.9313
5541 32.3540 356(19) 325.3442 156.9214
5542 32.3581 358(19) 331.0001 156.9115
5543 32.3621 360(19) 336.7719 156.9016
5544 32.3661 362(19) 342.6279 156.8918
5545 32.3702 364(19) 348.5488 156.8819
5546 32.3742 365(19) 354.4945 156.8720
5547 32.3782 367(19) 360.4207 156.8621
5548 32.3822 368(19) 366.2960 156.8522
5549 32.3863 370(19) 372.0684 156.8423
5550 32.3903 371(19) 377.6888 156.8324
5551 32.3943 372(19) 383.1011 156.8225
5552 32.3984 373(19) 388.2635 156.8126
5553 32.4024 374(19) 393.1191 156.8027
5554 32.4064 375(19) 397.6143 156.7928
5555 32.4105 376(19) 401.7119 156.7829
5556 32.4145 377(19) 405.3668 156.7730
5557 32.4185 377(19) 408.5422 156.7631
5558 32.4226 377(19) 411.2181 156.7532
5559 32.4266 378(19) 413.3743 156.7432
5560 32.4306 378(19) 415.0026 156.7334
5561 32.4347 378(19) 416.1033 156.7234
5562 32.4387 377(19) 416.6884 156.7135
5563 32.4427 377(19) 416.7737 156.7035
5564 32.4467 376(19) 416.3831 156.6936
5565 32.4508 376(19) 415.5438 156.6837
5566 32.4548 375(19) 414.2867 156.6737
5567 32.4588 374(19) 412.6451 156.6638
5568 32.4629 373(19) 410.6472 156.6539
5569 32.4669 371(19) 408.3235 156.6439
5570 32.4709 370(19) 405.7004 156.6340
5571 32.4750 368(19) 402.8036 156.6240
5572 32.4790 367(19) 399.6468 156.6141
5573 32.4830 365(19) 396.2479 156.6041
5574 32.4871 363(19) 392.6226 156.5942
5575 32.4911 361(19) 388.7737 156.5842
5576 32.4951 359(19) 384.7125 156.5742
5577 32.4991 356(19) 380.4504 156.5643
5578 32.5032 354(19) 375.9869 156.5544
5579 32.5072 351(19) 371.3347 156.5444
5580 32.5112 349(19) 366.5044 156.5344
5581 32.5153 346(19) 361.5137 156.5244
5582 32.5193 343(19) 356.3687 156.5144
5583 32.5233 340(18) 351.0925 156.5045
5584 32.5274 337(18) 345.7106 156.4945
5585 32.5314 334(18) 340.2355 156.4845
5586 32.5354 331(18) 334.6962 156.4745
5587 32.5395 327(18) 329.1228 156.4645
5588 32.5435 324(18) 323.5298 156.4545
5589 32.5475 321(18) 317.9465 156.4445
5590 32.5516 317(18) 312.3967 156.4346
5591 32.5556 314(18) 306.9072 156.4246
5592 32.5596 310(18) 301.4875 156.4146
5593 32.5636 307(18) 296.1609 156.4046
5594 32.5677 303(17) 290.9478 156.3945
5595 32.5717 300(17) 285.8518 156.3846
5596 32.5757 296(17) 280.8889 156.3745
5597 32.5798 292(17) 276.0679 156.3645
5598 32.5838 289(17) 271.4004 156.3545
5599 32.5878 285(17) 266.8824 156.3445
5600 32.5919 282(17) 262.5217 156.3344
5601 32.5959 278(17) 258.3243 156.3244
5602 32.5999 275(17) 254.2828 156.3144
5603 32.6040 271(16) 250.4006 156.3044
5604 32.6080 268(16) 246.6799 156.2944
5605 32.6120 265(16) 243.1111 156.2843
5606 32.6160 261(16) 239.6952 156.2743
5607 32.6201 258(16) 236.4284 156.2643
5608 32.6241 255(16) 233.3098 156.2542
5609 32.6281 252(16) 230.3293 156.2442
5610 32.6322 249(16) 227.4855 156.2341
5611 32.6362 246(16) 224.7760 156.2241
5612 32.6402 243(16) 222.1910 156.2141
5613 32.6443 240(15) 219.7282 156.2040
5614 32.6483 237(15) 217.3849 156.1940
5615 32.6523 234(15) 215.1517 156.1839
5616 32.6564 232(15) 213.0261 156.1738
5617 32.6604 229(15) 211.0032 156.1638
5618 32.6644 227(15) 209.0800 156.1537
5619 32.6684 224(15) 207.2484 156.1436
5620 32.6725 222(15) 205.5056 156.1336
5621 32.6765 220(15) 203.8488 156.1235
5622 32.6805 218(15) 202.2706 156.1134
5623 32.6846 215(15) 200.7686 156.1033
5624 32.6886 213(15) 199.3400 156.0933
5625 32.6926 211(15) 197.9784 156.0832
5626 32.6967 210(14) 196.6814 156.0731
5627 32.7007 208(14) 195.4457 156.0630
5628 32.7047 206(14) 194.2689 156.0529
5629 32.7088 204(14) 193.1455 156.0428
5630 32.7128 203(14) 192.0738 156.0327
5631 32.7168 201(14) 191.0517 156.0227
5632 32.7209 199(14) 190.0746 156.0125
5633 32.7249 198(14) 189.1409 156.0025
5634 32.7289 196(14) 188.2480 155.9924
5635 32.7329 195(14) 187.3945 155.9822
5636 32.7370 194(14) 186.5766 155.9721
5637 32.7410 192(14) 185.7929 155.9620
5638 32.7450 191(14) 185.0424 155.9519
5639 32.7491 190(14) 184.3216 155.9418
5640 32.7531 189(14) 183.6297 155.9317
5641 32.7571 187(14) 182.9656 155.9216
5642 32.7612 186(14) 182.3265 155.9114
5643 32.7652 185(14) 181.7117 155.9013
5644 32.7692 184(14) 181.1199 155.8912
5645 32.7733 183(14) 180.5503 155.8810
5646 32.7773 182(13) 180.0007 155.8709
5647 32.7813 181(13) 179.4706 155.8608
5648 32.7853 180(13) 178.9595 155.8506
5649 32.7894 179(13) 178.4653 155.8405
5650 32.7934 178(13) 177.9877 155.8304
5651 32.7974 177(13) 177.5264 155.8202
5652 32.8015 176(13) 177.0797 155.8101
5653 32.8055 176(13) 176.6472 155.7999
5654 32.8095 175(13) 176.2283 155.7898
5655 32.8136 174(13) 175.8228 155.7796
5656 32.8176 173(13) 175.4293 155.7694
5657 32.8216 172(13) 175.0476 155.7593
5658 32.8257 172(13) 174.6776 155.7491
5659 32.8297 171(13) 174.3180 155.7390
5660 32.8337 170(13) 173.9688 155.7288
5661 32.8377 170(13) 173.6297 155.7187
5662 32.8418 169(13) 173.2999 155.7085
5663 32.8458 169(13) 172.9792 155.6983
5664 32.8498 168(13) 172.6671 155.6881
5665 32.8539 167(13) 172.3638 155.6779
5666 32.8579 167(13) 172.0683 155.6677
5667 32.8619 167(13) 171.7806 155.6576
5668 32.8660 166(13) 171.5005 155.6474
5669 32.8700 166(13) 171.2274 155.6372
5670 32.8740 165(13) 170.9613 155.6270
5671 32.8781 165(13) 170.7018 155.6168
5672 32.8821 164(13) 170.4490 155.6066
5673 32.8861 164(13) 170.2021 155.5964
5674 32.8902 164(13) 169.9613 155.5862
5675 32.8942 163(13) 169.7264 155.5760
5676 32.8982 163(13) 169.4969 155.5658
5677 32.9022 163(13) 169.2729 155.5556
5678 32.9063 162(13) 169.0542 155.5454
5679 32.9103 162(13) 168.8405 155.5352
5680 32.9143 162(13) 168.6315 155.5250
5681 32.9184 162(13) 168.4274 155.5148
5682 32.9224 161(13) 168.2279 155.5045
5683 32.9264 161(13) 168.0328 155.4943
5684 32.9305 161(13) 167.8419 155.4841
5685 32.9345 161(13) 167.6553 155.4739
5686 32.9385 161(13) 167.4726 155.4636
5687 32.9426 161(13) 167.2938 155.4534
5688 32.9466 160(13) 167.1190 155.4432
5689 32.9506 160(13) 166.9476 155.4329
5690 32.9547 160(13) 166.7798 155.4227
5691 32.9587 160(13) 166.6154 155.4124
5692 32.9627 160(13) 166.4546 155.4022
5693 32.9667 160(13) 166.2969 155.3920
5694 32.9708 160(13) 166.1423 155.3817
5695 32.9748 160(13) 165.9910 155.3715
5696 32.9788 160(13) 165.8424 155.3612
5697 32.9829 160(13) 165.6968 155.3510
5698 32.9869 160(13) 165.5541 155.3407
5699 32.9909 160(13) 165.4140 155.3304
5700 32.9950 160(13) 165.2766 155.3202
5701 32.9990 160(13) 165.1418 155.3099
5702 33.0030 160(13) 165.0096 155.2996
5703 33.0071 160(13) 164.8797 155.2894
5704 33.0111 160(13) 164.7522 155.2791
5705 33.0151 160(13) 164.6271 155.2688
5706 33.0191 160(13) 164.5042 155.2585
5707 33.0232 160(13) 164.3835 155.2482
5708 33.0272 160(13) 164.2649 155.2380
5709 33.0312 160(13) 164.1485 155.2277
5710 33.0353 160(13) 164.0340 155.2174
5711 33.0393 160(13) 163.9215 155.2071
5712 33.0433 160(13) 163.8110 155.1968
5713 33.0474 160(13) 163.7023 155.1865
5714 33.0514 160(13) 163.5954 155.1762
5715 33.0554 160(13) 163.4904 155.1659
5716 33.0595 160(13) 163.3871 155.1556
5717 33.0635 160(13) 163.2854 155.1453
5718 33.0675 160(13) 163.1853 155.1350
5719 33.0715 160(13) 163.0871 155.1247
5720 33.0756 160(13) 162.9903 155.1144
5721 33.0796 160(13) 162.8950 155.1041
5722 33.0836 160(13) 162.8013 155.0938
5723 33.0877 160(13) 162.7090 155.0835
5724 33.0917 160(13) 162.6180 155.0731
5725 33.0957 160(13) 162.5286 155.0628
5726 33.0998 160(13) 162.4405 155.0525
5727 33.1038 160(13) 162.3537 155.0421
5728 33.1078 160(13) 162.2682 155.0318
5729 33.1119 160(13) 162.1840 155.0215
5730 33.1159 160(13) 162.1010 155.0111
5731 33.1199 160(13) 162.0192 155.0008
5732 33.1240 160(13) 161.9387 154.9904
5733 33.1280 160(13) 161.8593 154.9801
5734 33.1320 159(13) 161.7810 154.9698
5735 33.1360 159(13) 161.7039 154.9594
5736 33.1401 159(13) 161.6278 154.9491
5737 33.1441 159(13) 161.5527 154.9387
5738 33.1481 159(13) 161.4787 154.9283
5739 33.1522 159(13) 161.4058 154.9180
5740 33.1562 159(13) 161.3338 154.9076
5741 33.1602 159(13) 161.2627 154.8973
5742 33.1643 159(13) 161.1927 154.8869
5743 33.1683 159(13) 161.1236 154.8765
5744 33.1723 159(13) 161.0553 154.8662
5745 33.1764 159(13) 160.9881 154.8558
5746 33.1804 159(13) 160.9216 154.8454
5747 33.1844 159(13) 160.8560 154.8351
5748 33.1884 158(13) 160.7912 154.8247
5749 33.1925 158(13) 160.7273 154.8143
5750 33.1965 158(13) 160.6642 154.8039
5751 33.2005 158(13) 160.6018 154.7935
5752 33.2046 158(13) 160.5403 154.7831
5753 33.2086 158(13) 160.4794 154.7727
5754 33.2126 158(13) 160.4194 154.7624
5755 33.2167 158(13) 160.3600 154.7519
5756 33.2207 157(13) 160.3014 154.7416
5757 33.2247 157(13) 160.2434 154.7312
5758 33.2288 157(13) 160.1862 154.7207
5759 33.2328 157(13) 160.1296 154.7103
5760 33.2368 157(13) 160.0737 154.6999
5761 33.2409 157(13) 160.0184 154.6895
5762 33.2449 156(12) 159.9638 154.6791
5763 33.2489 156(12) 159.9098 154.6687
5764 33.2529 156(12) 159.8564 154.6583
5765 33.2570 156(12) 159.8036 154.6479
5766 33.2610 156(12) 159.7514 154.6374
5767 33.2650 155(12) 159.6997 154.6270
5768 33.2691 155(12) 159.6486 154.6166
5769 33.2731 155(12) 159.5981 154.6062
5770 33.2771 155(12) 159.5482 154.5957
5771 33.2812 154(12) 159.4987 154.5853
5772 33.2852 154(12) 159.4498 154.5749
5773 33.2892 154(12) 159.4014 154.5644
5774 33.2933 154(12) 159.3535 154.5540
5775 33.2973 154(12) 159.3061 154.5435
5776 33.3013 154(12) 159.2593 154.5331
5777 33.3053 153(12) 159.2128 154.5226
5778 33.3094 153(12) 159.2040 154.5122
5779 33.3134 153(12) 159.1586 154.5017
5780 33.3174 153(12) 159.1136 154.4913
5781 33.3215 153(12) 159.0691 154.4808
5782 33.3255 153(12) 159.0251 154.4704
5783 33.3295 153(12) 158.9814 154.4599
5784 33.3336 153(12) 158.9382 154.4494
5785 33.3376 153(12) 158.8954 154.4389
5786 33.3416 153(12) 158.8530 154.4285
5787 33.3457 153(12) 158.8111 154.4180
5788 33.3497 153(12) 158.7695 154.4075
5789 33.3537 153(12) 158.7283 154.3971
5790 33.3577 153(12) 158.6875 154.3866
5791 33.3618 153(12) 158.6470 154.3761
5792 33.3658 153(12) 158.6070 154.3656
5793 33.3698 153(12) 158.5673 154.3551
5794 33.3739 153(12) 158.5280 154.3446
5795 33.3779 153(12) 158.4890 154.3341
5796 33.3819 153(12) 158.4504 154.3236
5797 33.3860 153(12) 158.4121 154.3132
5798 33.3900 153(12) 158.3741 154.3026
5799 33.3940 153(12) 158.3550 154.2921
5800 33.3981 153(12) 158.3177 154.2816
5801 33.4021 154(12) 158.2808 154.2711
5802 33.4061 154(12) 158.2442 154.2606
5803 33.4102 154(12) 158.2079 154.2501
5804 33.4142 154(12) 158.1719 154.2396
5805 33.4182 154(12) 158.1362 154.2290
5806 33.4222 154(12) 158.1008 154.2186
5807 33.4263 154(12) 158.0658 154.2081
5808 33.4303 154(12) 158.0309 154.1975
5809 33.4343 154(12) 157.9964 154.1870
5810 33.4384 154(12) 157.9621 154.1765
5811 33.4424 154(12) 157.9281 154.1659
5812 33.4464 155(12) 157.8945 154.1554
5813 33.4505 155(12) 157.8610 154.1449
5814 33.4545 155(12) 157.8279 154.1344
5815 33.4585 155(12) 157.7949 154.1238
5816 33.4626 155(12) 157.7623 154.1132
5817 33.4666 155(12) 157.7299 154.1027
5818 33.4706 155(12) 157.6977 154.0922
5819 33.4746 155(12) 157.6658 154.0816
5820 33.4787 155(12) 157.6342 154.0711
5821 33.4827 155(12) 157.6027 154.0605
5822 33.4867 155(12) 157.5715 154.0499
5823 33.4908 155(12) 157.5406 154.0394
5824 33.4948 155(12) 157.5098 154.0288
5825 33.4988 155(12) 157.4794 154.0183
5826 33.5029 155(12) 157.4491 154.0077
5827 33.5069 155(12) 157.4190 153.9971
5828 33.5109 155(12) 157.4226 153.9865
5829 33.5150 155(12) 157.3930 153.9760
5830 33.5190 155(12) 157.3637 153.9654
5831 33.5230 155(12) 157.3345 153.9548
5832 33.5271 155(12) 157.3055 153.9442
5833 33.5311 155(12) 157.2768 153.9337
5834 33.5351 155(12) 157.2482 153.9231
5835 33.5391 154(12) 157.2199 153.9125
5836 33.5432 154(12) 157.1917 153.9019
5837 33.5472 154(12) 157.1637 153.8913
5838 33.5512 154(12) 157.1359 153.8807
5839 33.5553 154(12) 157.1083 153.8701
5840 33.5593 154(12) 157.0809 153.8595
5841 33.5633 154(12) 157.0537 153.8489
5842 33.5674 154(12) 157.0266 153.8383
5843 33.5714 154(12) 156.9997 153.8277
5844 33.5754 154(12) 156.9730 153.8171
5845 33.5795 154(12) 156.9465 153.8065
5846 33.5835 154(12) 156.9201 153.7959
5847 33.5875 154(12) 156.8939 153.7852
5848 33.5915 154(12) 156.8845 153.7747
5849 33.5956 154(12) 156.8586 153.7640
5850 33.5996 154(12) 156.8330 153.7534
5851 33.6036 154(12) 156.8075 153.7428
5852 33.6077 154(12) 156.7821 153.7321
5853 33.6117 154(12) 156.7569 153.7215
5854 33.6157 154(12) 156.7318 153.7109
5855 33.6198 154(12) 156.7069 153.7002
5856 33.6238 154(12) 156.6822 153.6896
5857 33.6278 154(12) 156.6576 153.6790
5858 33.6319 154(12) 156.6331 153.6683
5859 33.6359 154(12) 156.6088 153.6577
5860 33.6399 153(12) 156.5846 153.6470
5861 33.6440 153(12) 156.5606 153.6364
5862 33.6480 153(12) 156.5367 153.6257
5863 33.6520 154(12) 156.5130 153.6151
5864 33.6560 154(12) 156.4893 153.6044
5865 33.6601 154(12) 156.4659 153.5938
5866 33.6641 154(12) 156.4426 153.5831
5867 33.6681 154(12) 156.4193 153.5724
5868 33.6722 154(12) 156.3962 153.5618
5869 33.6762 154(12) 156.3733 153.5511
5870 33.6802 154(12) 156.3504 153.5404
5871 33.6843 154(12) 156.3278 153.5298
5872 33.6883 154(12) 156.3051 153.5190
5873 33.6923 154(12) 156.2827 153.5084
5874 33.6964 154(12) 156.2604 153.4977
5875 33.7004 154(12) 156.2382 153.4870
5876 33.7044 154(12) 156.2161 153.4763
5877 33.7084 154(12) 156.1941 153.4657
5878 33.7125 154(12) 156.1723 153.4550
5879 33.7165 154(12) 156.1505 153.4443
5880 33.7205 154(12) 156.1289 153.4336
5881 33.7246 154(12) 156.1074 153.4229
5882 33.7286 154(12) 156.0860 153.4122
5883 33.7326 154(12) 156.0647 153.4015
5884 33.7367 154(12) 156.0435 153.3908
5885 33.7407 154(12) 156.0224 153.3801
5886 33.7447 154(12) 156.0015 153.3694
5887 33.7488 153(12) 155.9806 153.3586
5888 33.7528 153(12) 155.9599 153.3479
5889 33.7568 153(12) 155.9392 153.3372
5890 33.7608 153(12) 155.9445 153.3265
5891 33.7649 153(12) 155.9241 153.3158
5892 33.7689 153(12) 155.9038 153.3050
5893 33.7729 153(12) 155.8836 153.2943
5894 33.7770 153(12) 155.8635 153.2836
5895 33.7810 153(12) 155.8435 153.2729
5896 33.7850 153(12) 155.8236 153.2621
5897 33.7891 153(12) 155.8038 153.2514
5898 33.7931 152(12) 155.7840 153.2406
5899 33.7971 152(12) 155.7644 153.2299
5900 33.8012 152(12) 155.7449 153.2192
5901 33.8052 152(12) 155.7254 153.2084
5902 33.8092 152(12) 155.7061 153.1977
5903 33.8133 152(12) 155.6869 153.1869
5904 33.8173 152(12) 155.6677 153.1762
5905 33.8213 152(12) 155.6486 153.1654
5906 33.8253 152(12) 155.6297 153.1547
5907 33.8294 152(12) 155.6108 153.1439
5908 33.8334 152(12) 155.5920 153.1331
5909 33.8374 152(12) 155.5733 153.1224
5910 33.8415 152(12) 155.5674 153.1116
5911 33.8455 152(12) 155.5489 153.1009
5912 33.8495 152(12) 155.5304 153.0901
5913 33.8536 151(12) 155.5121 153.0793
5914 33.8576 151(12) 155.4938 153.0685
5915 33.8616 151(12) 155.4756 153.0578
5916 33.8657 151(12) 155.4575 153.0470
5917 33.8697 151(12) 155.4395 153.0362
5918 33.8737 151(12) 155.4215 153.0254
5919 33.8778 151(12) 155.4036 153.0146
5920 33.8818 151(12) 155.3858 153.0038
5921 33.8858 151(12) 155.3681 152.9930
5922 33.8898 151(12) 155.3505 152.9822
5923 33.8939 151(12) 155.3329 152.9714
5924 33.8979 150(12) 155.3155 152.9606
5925 33.9019 150(12) 155.2981 152.9498
5926 33.9060 150(12) 155.2807 152.9390
5927 33.9100 150(12) 155.2635 152.9282
5928 33.9140 150(12) 155.2463 152.9174
5929 33.9181 150(12) 155.2292 152.9066
5930 33.9221 150(12) 155.2121 152.8958
5931 33.9261 149(12) 155.1952 152.8850
5932 33.9302 149(12) 155.1783 152.8741
5933 33.9342 149(12) 155.1615 152.8633
5934 33.9382 149(12) 155.1447 152.8525
5935 33.9422 149(12) 155.1280 152.8417
5936 33.9463 149(12) 155.1114 152.8308
5937 33.9503 149(12) 155.0949 152.8200
5938 33.9543 149(12) 155.0784 152.8092
5939 33.9584 148(12) 155.0620 152.7983
5940 33.9624 148(12) 155.0457 152.7875
5941 33.9664 148(12) 155.0294 152.7767
5942 33.9705 148(12) 155.0132 152.7658
5943 33.9745 148(12) 154.9971 152.7550
5944 33.9785 148(12) 154.9811 152.7441
5945 33.9826 148(12) 154.9651 152.7333
5946 33.9866 148(12) 154.9491 152.7224
5947 33.9906 148(12) 154.9333 152.7116
5948 33.9946 148(12) 154.9175 152.7007
5949 33.9987 148(12) 154.9018 152.6899
5950 34.0027 148(12) 154.8861 152.6790
5951 34.0067 148(12) 154.8705 152.6682
5952 34.0108 148(12) 154.8550 152.6573
5953 34.0148 148(12) 154.8395 152.6464
5954 34.0188 148(12) 154.8241 152.6355
5955 34.0229 148(12) 154.8087 152.6246
5956 34.0269 148(12) 154.7934 152.6138
5957 34.0309 148(12) 154.7783 152.6029
5958 34.0350 148(12) 154.7631 152.5920
5959 34.0390 148(12) 154.7480 152.5812
5960 34.0430 148(12) 154.7330 152.5703
5961 34.0471 148(12) 154.7180 152.5594
5962 34.0511 148(12) 154.7031 152.5485
5963 34.0551 148(12) 154.6882 152.5376
5964 34.0591 149(12) 154.6734 152.5267
5965 34.0632 149(12) 154.6588 152.5158
5966 34.0672 149(12) 154.6441 152.5049
5967 34.0712 149(12) 154.6294 152.4940
5968 34.0753 149(12) 154.6149 152.4831
5969 34.0793 149(12) 154.6004 152.4722
5970 34.0833 149(12) 154.5860 152.4613
5971 34.0874 149(12) 154.5716 152.4504
5972 34.0914 150(12) 154.5573 152.4395
5973 34.0954 150(12) 154.5431 152.4285
5974 34.0995 150(12) 154.5289 152.4176
5975 34.1035 150(12) 154.5147 152.4067
5976 34.1075 150(12) 154.5007 152.3958
5977 34.1115 150(12) 154.4867 152.3849
5978 34.1156 150(12) 154.4727 152.3739
5979 34.1196 151(12) 154.4588 152.3630
5980 34.1236 151(12) 154.4450 152.3521
5981 34.1277 151(12) 154.4312 152.3411
5982 34.1317 151(12) 154.4174 152.3302
5983 34.1357 151(12) 154.4038 152.3192
5984 34.1398 151(12) 154.3902 152.3083
5985 34.1438 151(12) 154.3766 152.2973
5986 34.1478 152(12) 154.3631 152.2864
5987 34.1519 152(12) 154.3497 152.2755
5988 34.1559 152(12) 154.3363 152.2645
5989 34.1599 152(12) 154.3230 152.2536
5990 34.1640 152(12) 154.3097 152.2426
5991 34.1680 152(12) 154.2965 152.2316
5992 34.1720 152(12) 154.2834 152.2207
5993 34.1760 152(12) 154.2703 152.2097
5994 34.1801 152(12) 154.2573 152.1988
5995 34.1841 152(12) 154.2443 152.1878
5996 34.1881 153(12) 154.2314 152.1768
5997 34.1922 153(12) 154.2185 152.1658
5998 34.1962 153(12) 154.2057 152.1549
5999 34.2002 153(12) 154.1929 152.1439
6000 34.2043 153(12) 154.1803 152.1329
6001 34.2083 153(12) 154.1676 152.1219
6002 34.2123 153(12) 154.1550 152.1109
6003 34.2164 153(12) 154.1425 152.0999
6004 34.2204 153(12) 154.1301 152.0890
6005 34.2244 153(12) 154.1176 152.0780
6006 34.2284 153(12) 154.1053 152.0670
6007 34.2325 153(12) 154.0930 152.0560
6008 34.2365 153(12) 154.0808 152.0450
6009 34.2405 153(12) 154.0686 152.0340
6010 34.2446 153(12) 154.0565 152.0229
6011 34.2486 153(12) 154.0444 152.0120
6012 34.2526 153(12) 154.0324 152.0010
6013 34.2567 153(12) 154.0204 151.9899
6014 34.2607 153(12) 154.0086 151.9789
6015 34.2647 153(12) 153.9968 151.9679
6016 34.2688 153(12) 153.9850 151.9569
6017 34.2728 153(12) 153.9733 151.9459
6018 34.2768 153(12) 153.9616 151.9349
6019 34.2808 152(12) 153.9500 151.9238
6020 34.2849 152(12) 153.9385 151.9128
6021 34.2889 152(12) 153.9270 151.9017
6022 34.2929 152(12) 153.9156 151.8907
6023 34.2970 152(12) 153.9042 151.8797
6024 34.3010 152(12) 153.8929 151.8687
6025 34.3050 151(12) 153.8817 151.8576
6026 34.3091 151(12) 153.8705 151.8466
6027 34.3131 151(12) 153.8594 151.8355
6028 34.3171 151(12) 153.8483 151.8245
6029 34.3212 151(12) 153.8373 151.8134
6030 34.3252 151(12) 153.8264 151.8024
6031 34.3292 151(12) 153.8155 151.7913
6032 34.3333 151(12) 153.8047 151.7803
6033 34.3373 150(12) 153.7940 151.7692
6034 34.3413 150(12) 153.7833 151.7582
6035 34.3453 150(12) 153.7727 151.7471
6036 34.3494 150(12) 153.7621 151.7360
6037 34.3534 150(12) 153.7516 151.7250
6038 34.3574 150(12) 153.7412 151.7139
6039 34.3615 150(12) 153.7308 151.7028
6040 34.3655 150(12) 153.7205 151.6917
6041 34.3695 150(12) 153.7103 151.6806
6042 34.3736 150(12) 153.7001 151.6696
6043 34.3776 150(12) 153.6900 151.6585
6044 34.3816 150(12) 153.6799 151.6474
6045 34.3857 150(12) 153.6700 151.6363
6046 34.3897 150(12) 153.6600 151.6252
6047 34.3937 151(12) 153.6502 151.6142
6048 34.3977 151(12) 153.6404 151.6031
6049 34.4018 151(12) 153.6307 151.5919
6050 34.4058 151(12) 153.6210 151.5808
6051 34.4098 151(12) 153.6115 151.5698
6052 34.4139 151(12) 153.6020 151.5587
6053 34.4179 151(12) 153.5926 151.5475
6054 34.4219 151(12) 153.5832 151.5364
6055 34.4260 151(12) 153.5739 151.5253
6056 34.4300 152(12) 153.5647 151.5142
6057 34.4340 152(12) 153.5555 151.5031
6058 34.4381 152(12) 153.5465 151.4920
6059 34.4421 152(12) 153.5375 151.4809
6060 34.4461 152(12) 153.5285 151.4697
6061 34.4501 152(12) 153.5197 151.4586
6062 34.4542 152(12) 153.5109 151.4475
6063 34.4582 152(12) 153.5022 151.4363
6064 34.4622 153(12) 153.4936 151.4252
6065 34.4663 153(12) 153.4850 151.4141
6066 34.4703 153(12) 153.4766 151.4029
6067 34.4743 153(12) 153.4682 151.3918
6068 34.4784 153(12) 153.4599 151.3807
6069 34.4824 153(12) 153.4516 151.3695
6070 34.4864 153(12) 153.4435 151.3584
6071 34.4905 153(12) 153.4354 151.3472
6072 34.4945 153(12) 153.4274 151.3361
6073 34.4985 153(12) 153.4195 151.3249
6074 34.5026 154(12) 153.4117 151.3137
6075 34.5066 154(12) 153.4040 151.3026
6076 34.5106 154(12) 153.3963 151.2915
6077 34.5146 154(12) 153.3887 151.2803
6078 34.5187 154(12) 153.3812 151.2691
6079 34.5227 154(12) 153.3739 151.2579
6080 34.5267 154(12) 153.3666 151.2468
6081 34.5308 154(12) 153.3593 151.2356
6082 34.5348 154(12) 153.3522 151.2244
6083 34.5388 154(12) 153.3452 151.2132
6084 34.5429 154(12) 153.3383 151.2021
6085 34.5469 154(12) 153.3314 151.1909
6086 34.5509 154(12) 153.3247 151.1797
6087 34.5550 154(12) 153.3181 151.1685
6088 34.5590 154(12) 153.3115 151.1573
6089 34.5630 154(12) 153.3051 151.1461
6090 34.5671 154(12) 153.2987 151.1349
6091 34.5711 154(12) 153.2924 151.1237
6092 34.5751 154(12) 153.2863 151.1125
6093 34.5791 154(12) 153.2803 151.1013
6094 34.5832 154(12) 153.2743 151.0901
6095 34.5872 154(12) 153.2685 151.0789
6096 34.5912 154(12) 153.2628 151.0677
6097 34.5953 154(12) 153.2571 151.0565
6098 34.5993 154(12) 153.2618 151.0453
6099 34.6033 154(12) 153.2565 151.0341
6100 34.6074 154(12) 153.2512 151.0229
6101 34.6114 154(12) 153.2460 151.0116
6102 34.6154 154(12) 153.2410 151.0004
6103 34.6195 154(12) 153.2361 150.9892
6104 34.6235 153(12) 153.2313 150.9780
6105 34.6275 153(12) 153.2266 150.9668
6106 34.6315 153(12) 153.2221 150.9555
6107 34.6356 153(12) 153.2176 150.9443
6108 34.6396 153(12) 153.2133 150.9330
6109 34.6436 153(12) 153.2092 150.9218
6110 34.6477 153(12) 153.2051 150.9106
6111 34.6517 153(12) 153.2012 150.8993
6112 34.6557 153(12) 153.1974 150.8881
6113 34.6598 153(12) 153.1938 150.8768
6114 34.6638 153(12) 153.1903 150.8656
6115 34.6678 153(12) 153.1869 150.8543
6116 34.6719 153(12) 153.1837 150.8430
6117 34.6759 153(12) 153.1806 150.8318
6118 34.6799 153(12) 153.1828 150.8205
6119 34.6839 153(12) 153.1800 150.8093
6120 34.6880 153(12) 153.1773 150.7980
6121 34.6920 153(12) 153.1749 150.7867
6122 34.6960 153(12) 153.1725 150.7755
6123 34.7001 153(12) 153.1704 150.7642
6124 34.7041 153(12) 153.1684 150.7529
6125 34.7081 153(12) 153.1666 150.7417
6126 34.7122 152(12) 153.1649 150.7304
6127 34.7162 152(12) 153.1634 150.7191
6128 34.7202 152(12) 153.1621 150.7078
6129 34.7243 152(12) 153.1609 150.6965
6130 34.7283 152(12) 153.1599 150.6852
6131 34.7323 152(12) 153.1591 150.6739
6132 34.7364 152(12) 153.1585 150.6626
6133 34.7404 152(12) 153.1580 150.6513
6134 34.7444 152(12) 153.1578 150.6400
6135 34.7484 151(12) 153.1577 150.6288
6136 34.7525 151(12) 153.1579 150.6174
6137 34.7565 151(12) 153.1582 150.6061
6138 34.7605 151(12) 153.1588 150.5948
6139 34.7646 151(12) 153.1595 150.5835
6140 34.7686 150(12) 153.1605 150.5722
6141 34.7726 150(12) 153.1617 150.5609
6142 34.7767 150(12) 153.1630 150.5496
6143 34.7807 150(12) 153.1646 150.5383
6144 34.7847 150(12) 153.1665 150.5269
6145 34.7888 150(12) 153.1685 150.5156
6146 34.7928 149(12) 153.1708 150.5043
6147 34.7968 149(12) 153.1734 150.4930
6148 34.8008 149(12) 153.1761 150.4816
6149 34.8049 149(12) 153.1792 150.4703
6150 34.8089 149(12) 153.1824 150.4589
6151 34.8129 149(12) 153.1860 150.4476
6152 34.8170 149(12) 153.1898 150.4363
6153 34.8210 149(12) 153.1938 150.4249
6154 34.8250 149(12) 153.0794 150.4136
6155 34.8291 149(12) 153.0843 150.4022
6156 34.8331 149(12) 153.0894 150.3909
6157 34.8371 149(12) 153.0948 150.3795
6158 34.8412 149(12) 153.1006 150.3682
6159 34.8452 149(12) 153.1066 150.3568
6160 34.8492 149(12) 153.1129 150.3454
6161 34.8533 149(12) 153.1196 150.3341
6162 34.8573 149(12) 153.1265 150.3227
6163 34.8613 149(12) 153.1338 150.3113
6164 34.8653 149(12) 153.1414 150.3000
6165 34.8694 149(12) 153.1493 150.2886
6166 34.8734 149(12) 153.1576 150.2772
6167 34.8774 149(12) 153.1663 150.2659
6168 34.8815 149(12) 153.1753 150.2545
6169 34.8855 149(12) 153.1847 150.2431
6170 34.8895 149(12) 153.1944 150.2317
6171 34.8936 149(12) 153.2046 150.2203
6172 34.8976 149(12) 153.2151 150.2090
6173 34.9016 150(12) 153.2261 150.1976
6174 34.9057 150(12) 153.2374 150.1862
6175 34.9097 150(12) 153.2491 150.1747
6176 34.9137 150(12) 153.2023 150.1633
6177 34.9177 150(12) 153.2150 150.1519
6178 34.9218 150(12) 153.2282 150.1405
6179 34.9258 150(12) 153.2419 150.1291
6180 34.9298 150(12) 153.2561 150.1178
6181 34.9339 150(12) 153.2707 150.1063
6182 34.9379 150(12) 153.2858 150.0949
6183 34.9419 150(12) 153.3014 150.0835
6184 34.9460 150(12) 153.3175 150.0721
6185 34.9500 150(12) 153.3342 150.0607
6186 34.9540 150(12) 153.3513 150.0492
6187 34.9581 150(12) 153.3691 150.0378
6188 34.9621 150(12) 153.3875 150.0264
6189 34.9661 150(12) 153.4063 150.0150
6190 34.9701 150(12) 153.4258 150.0035
6191 34.9742 150(12) 153.4460 149.9921
6192 34.9782 150(12) 153.5288 149.9807
6193 34.9822 149(12) 153.5502 149.9692
6194 34.9863 149(12) 153.5724 149.9578
6195 34.9903 149(12) 153.5952 149.9463
6196 34.9943 149(12) 153.6187 149.9349
6197 34.9984 149(12) 153.6429 149.9234
6198 35.0024 149(12) 153.6679 149.9120
6199 35.0064 149(12) 153.6936 149.9005
6200 35.0105 149(12) 153.7200 149.8891
6201 35.0145 149(12) 153.7473 149.8776
6202 35.0185 149(12) 153.7753 149.8661
6203 35.0226 149(12) 153.8043 149.8547
6204 35.0266 148(12) 153.8340 149.8432
6205 35.0306 148(12) 153.8646 149.8318
6206 35.0346 148(12) 153.8962 149.8203
6207 35.0387 148(12) 153.9286 149.8088
6208 35.0427 148(12) 153.9621 149.7973
6209 35.0467 148(12) 153.9965 149.7859
6210 35.0508 148(12) 154.0319 149.7744
6211 35.0548 148(12) 154.0683 149.7629
6212 35.0588 148(12) 154.1059 149.7514
6213 35.0629 148(12) 154.1753 149.7399
6214 35.0669 148(12) 154.2151 149.7284
6215 35.0709 148(12) 154.2561 149.7169
6216 35.0750 148(12) 154.2982 149.7055
6217 35.0790 148(12) 154.3417 149.6940
6218 35.0830 148(12) 154.3864 149.6824
6219 35.0870 148(12) 154.4323 149.6710
6220 35.0911 149(12) 154.4797 149.6595
6221 35.0951 149(12) 154.5285 149.6479
6222 35.0991 149(12) 154.5787 149.6364
6223 35.1032 149(12) 154.6303 149.6249
6224 35.1072 149(12) 154.6835 149.6134
6225 35.1112 149(12) 154.7383 149.6019
6226 35.1153 149(12) 154.7947 149.5904
6227 35.1193 150(12) 154.8528 149.5789
6228 35.1233 150(12) 154.9127 149.5674
6229 35.1274 150(12) 154.9744 149.5558
6230 35.1314 150(12) 155.0378 149.5443
6231 35.1354 150(12) 155.1033 149.5328
6232 35.1395 151(12) 155.1708 149.5212
6233 35.1435 151(12) 155.2402 149.5097
6234 35.1475 151(12) 155.3118 149.4982
6235 35.1515 151(12) 155.3857 149.4866
6236 35.1556 151(12) 155.4617 149.4751
6237 35.1596 152(12) 155.5402 149.4635
6238 35.1636 152(12) 155.6211 149.4520
6239 35.1677 152(12) 155.7046 149.4404
6240 35.1717 152(12) 155.7906 149.4289
6241 35.1757 152(12) 155.8795 149.4173
6242 35.1798 153(12) 155.9712 149.4058
6243 35.1838 153(12) 156.0658 149.3942
6244 35.1878 153(12) 156.1635 149.3827
6245 35.1919 153(12) 156.2644 149.3711
6246 35.1959 154(12) 156.3685 149.3596
6247 35.1999 154(12) 156.4762 149.3480
6248 35.2039 154(12) 156.5873 149.3364
6249 35.2080 154(12) 156.7023 149.3248
6250 35.2120 155(12) 156.8211 149.3133
6251 35.2160 155(12) 156.9440 149.3017
6252 35.2201 155(12) 157.0712 149.2901
6253 35.2241 156(12) 157.2026 149.2785
6254 35.2281 156(12) 157.3388 149.2669
6255 35.2322 156(12) 157.4797 149.2553
6256 35.2362 157(13) 157.6256 149.2438
6257 35.2402 157(13) 157.7769 149.2322
6258 35.2443 157(13) 157.9337 149.2206
6259 35.2483 158(13) 158.0962 149.2090
6260 35.2523 158(13) 158.2646 149.1974
6261 35.2564 159(13) 158.4395 149.1858
6262 35.2604 159(13) 158.6210 149.1742
6263 35.2644 160(13) 158.8093 149.1625
6264 35.2684 160(13) 159.0050 149.1510
6265 35.2725 160(13) 159.2084 149.1394
6266 35.2765 161(13) 159.4197 149.1277
6267 35.2805 161(13) 159.6393 149.1161
6268 35.2846 162(13) 159.8679 149.1045
6269 35.2886 162(13) 160.1058 149.0929
6270 35.2926 163(13) 160.3531 149.0812
6271 35.2967 163(13) 160.6110 149.0696
6272 35.3007 164(13) 160.8795 149.0580
6273 35.3047 164(13) 161.1591 149.0464
6274 35.3088 164(13) 161.4509 149.0347
6275 35.3128 165(13) 161.7551 149.0231
6276 35.3168 165(13) 162.0782 149.0115
6277 35.3208 166(13) 162.4090 148.9998
6278 35.3249 167(13) 162.7545 148.9882
6279 35.3289 167(13) 163.1152 148.9765
6280 35.3329 168(13) 163.4915 148.9649
6281 35.3370 168(13) 163.8848 148.9533
6282 35.3410 169(13) 164.2958 148.9416
6283 35.3450 170(13) 164.7247 148.9300
6284 35.3491 170(13) 165.1733 148.9183
6285 35.3531 171(13) 165.6422 148.9066
6286 35.3571 172(13) 166.1301 148.8950
6287 35.3612 173(13) 166.6419 148.8833
6288 35.3652 174(13) 167.1774 148.8716
6289 35.3692 175(13) 167.7372 148.8600
6290 35.3732 176(13) 168.3217 148.8483
6291 35.3773 177(13) 168.9334 148.8367
6292 35.3813 178(13) 169.5727 148.8250
6293 35.3853 179(13) 170.2401 148.8133
6294 35.3894 180(13) 170.9381 148.8016
6295 35.3934 181(13) 171.6673 148.7899
6296 35.3974 182(13) 172.4288 148.7782
6297 35.4015 184(14) 173.2261 148.7666
6298 35.4055 185(14) 174.0559 148.7549
6299 35.4095 186(14) 174.9216 148.7432
6300 35.4136 188(14) 175.8234 148.7315
6301 35.4176 189(14) 176.7642 148.7198
6302 35.4216 191(14) 177.7440 148.7081
6303 35.4257 192(14) 178.7628 148.6964
6304 35.4297 194(14) 179.8233 148.6847
6305 35.4337 195(14) 180.9252 148.6730
6306 35.4377 197(14) 182.0690 148.6613
6307 35.4418 199(14) 183.2536 148.6496
6308 35.4458 200(14) 184.4801 148.6378
6309 35.4498 202(14) 185.7495 148.6261
6310 35.4539 204(14) 187.0586 148.6144
6311 35.4579 206(14) 188.4086 148.6027
6312 35.4619 207(14) 189.7967 148.5910
6313 35.4660 209(14) 191.2207 148.5792
6314 35.4700 211(15) 192.6765 148.5675
6315 35.4740 213(15) 194.1633 148.5558
6316 35.4781 214(15) 195.6755 148.5441
6317 35.4821 216(15) 197.2066 148.5323
6318 35.4861 218(15) 198.7537 148.5206
6319 35.4902 220(15) 200.3085 148.5088
6320 35.4942 221(15) 201.8620 148.4971
6321 35.4982 223(15) 203.4087 148.4853
6322 35.5022 225(15) 204.9380 148.4736
6323 35.5063 226(15) 206.4399 148.4619
6324 35.5103 228(15) 207.9026 148.4501
6325 35.5143 229(15) 209.3181 148.4383
6326 35.5184 231(15) 210.6739 148.4266
6327 35.5224 232(15) 211.9580 148.4148
6328 35.5264 233(15) 213.1623 148.4030
6329 35.5305 234(15) 214.2756 148.3913
6330 35.5345 236(15) 215.2883 148.3795
6331 35.5385 237(15) 216.1945 148.3678
6332 35.5426 238(15) 216.9871 148.3560
6333 35.5466 238(15) 217.6614 148.3442
6334 35.5506 239(15) 218.2144 148.3325
6335 35.5546 240(15) 218.6461 148.3207
6336 35.5587 240(15) 218.9569 148.3089
6337 35.5627 241(16) 219.1490 148.2971
6338 35.5667 241(16) 219.2270 148.2853
6339 35.5708 241(16) 219.1957 148.2735
6340 35.5748 242(16) 219.0616 148.2618
6341 35.5788 242(16) 218.8310 148.2500
6342 35.5829 241(16) 218.5112 148.2382
6343 35.5869 241(16) 218.1092 148.2264
6344 35.5909 241(16) 217.6323 148.2146
6345 35.5950 241(16) 217.0857 148.2028
6346 35.5990 240(15) 216.4755 148.1909
6347 35.6030 240(15) 215.8072 148.1792
6348 35.6070 239(15) 215.0836 148.1674
6349 35.6111 238(15) 214.3083 148.1555
6350 35.6151 237(15) 213.4842 148.1437
6351 35.6191 236(15) 212.6138 148.1319
6352 35.6232 235(15) 211.6971 148.1201
6353 35.6272 234(15) 210.7363 148.1083
6354 35.6312 233(15) 209.7334 148.0965
6355 35.6353 232(15) 208.6880 148.0846
6356 35.6393 231(15) 207.6025 148.0728
6357 35.6433 230(15) 206.4801 148.0609
6358 35.6474 228(15) 205.3212 148.0492
6359 35.6514 227(15) 204.1296 148.0373
6360 35.6554 226(15) 202.9089 148.0254
6361 35.6595 224(15) 201.6760 148.0136
6362 35.6635 223(15) 200.4097 148.0018
6363 35.6675 222(15) 199.1275 147.9899
6364 35.6715 220(15) 197.8357 147.9781
6365 35.6756 219(15) 196.5369 147.9662
6366 35.6796 217(15) 195.2373 147.9544
6367 35.6836 216(15) 193.9433 147.9425
6368 35.6877 215(15) 192.6572 147.9307
6369 35.6917 213(15) 191.3846 147.9188
6370 35.6957 212(15) 190.1297 147.9069
6371 35.6998 211(15) 188.8974 147.8951
6372 35.7038 209(14) 187.6887 147.8832
6373 35.7078 208(14) 186.5076 147.8714
6374 35.7119 206(14) 185.3576 147.8595
6375 35.7159 205(14) 184.2387 147.8476
6376 35.7199 204(14) 183.1534 147.8357
6377 35.7239 202(14) 182.1042 147.8238
6378 35.7280 201(14) 181.0900 147.8120
6379 35.7320 199(14) 180.1123 147.8001
6380 35.7360 198(14) 179.1715 147.7882
6381 35.7401 197(14) 178.2686 147.7763
6382 35.7441 195(14) 177.4075 147.7644
6383 35.7481 194(14) 176.5775 147.7525
6384 35.7522 193(14) 175.7844 147.7406
6385 35.7562 191(14) 175.0264 147.7288
6386 35.7602 190(14) 174.3037 147.7169
6387 35.7643 189(14) 173.6154 147.7049
6388 35.7683 187(14) 172.9616 147.6931
6389 35.7723 186(14) 172.3401 147.6811
6390 35.7764 185(14) 171.7509 147.6692
6391 35.7804 184(14) 171.1937 147.6573
6392 35.7844 182(13) 170.6665 147.6454
6393 35.7884 181(13) 170.1692 147.6335
6394 35.7925 180(13) 169.7014 147.6216
6395 35.7965 179(13) 169.2614 147.6096
6396 35.8005 178(13) 168.8490 147.5977
6397 35.8046 177(13) 168.4634 147.5858
6398 35.8086 176(13) 168.1043 147.5739
6399 35.8126 175(13) 167.7703 147.5619
6400 35.8167 174(13) 167.4613 147.5500
6401 35.8207 173(13) 167.1770 147.5381
6402 35.8247 173(13) 166.9161 147.5261
6403 35.8288 172(13) 166.6786 147.5142
6404 35.8328 171(13) 166.4642 147.5023
6405 35.8368 171(13) 166.2720 147.4903
6406 35.8408 170(13) 166.1019 147.4783
6407 35.8449 170(13) 165.9537 147.4664
6408 35.8489 169(13) 165.8270 147.4544
6409 35.8529 169(13) 165.7215 147.4425
6410 35.8570 168(13) 165.6369 147.4305
6411 35.8610 168(13) 165.5733 147.4186
6412 35.8650 168(13) 165.5303 147.4066
6413 35.8691 167(13) 165.5078 147.3947
6414 35.8731 167(13) 165.5058 147.3827
6415 35.8771 167(13) 165.5242 147.3707
6416 35.8812 167(13) 165.5629 147.3587
6417 35.8852 167(13) 165.6219 147.3467
6418 35.8892 167(13) 165.7012 147.3348
6419 35.8932 167(13) 165.8007 147.3228
6420 35.8973 166(13) 165.9203 147.3108
6421 35.9013 166(13) 166.0601 147.2989
6422 35.9053 166(13) 166.2200 147.2869
6423 35.9094 166(13) 166.3999 147.2749
6424 35.9134 166(13) 166.5997 147.2629
6425 35.9174 166(13) 166.8189 147.2509
6426 35.9215 166(13) 167.0577 147.2389
6427 35.9255 166(13) 167.3155 147.2269
6428 35.9295 166(13) 167.5916 147.2149
6429 35.9336 166(13) 167.8860 147.2029
6430 35.9376 166(13) 168.1975 147.1909
6431 35.9416 167(13) 168.5250 147.1789
6432 35.9457 167(13) 168.8681 147.1669
6433 35.9497 167(13) 169.1658 147.1548
6434 35.9537 167(13) 169.5354 147.1428
6435 35.9577 167(13) 169.9152 147.1308
6436 35.9618 167(13) 170.3039 147.1188
6437 35.9658 167(13) 170.6990 147.1068
6438 35.9698 167(13) 171.0974 147.0948
6439 35.9739 168(13) 171.4972 147.0827
6440 35.9779 168(13) 171.8947 147.0707
6441 35.9819 168(13) 172.2865 147.0587
6442 35.9860 168(13) 172.6698 147.0466
6443 35.9900 168(13) 173.0406 147.0346
6444 35.9940 169(13) 173.3953 147.0226
6445 35.9981 169(13) 173.7301 147.0105
6446 36.0021 169(13) 174.0420 146.9985
6447 36.0061 169(13) 174.3276 146.9865
6448 36.0101 169(13) 174.5836 146.9744
6449 36.0142 169(13) 174.8079 146.9624
6450 36.0182 169(13) 174.9980 146.9503
6451 36.0222 169(13) 175.1524 146.9383
6452 36.0263 170(13) 175.2703 146.9262
6453 36.0303 170(13) 175.3509 146.9141
6454 36.0343 170(13) 175.3944 146.9021
6455 36.0384 170(13) 175.4016 146.8900
6456 36.0424 170(13) 175.3441 146.8780
6457 36.0464 170(13) 175.2823 146.8659
6458 36.0505 170(13) 175.1887 146.8538
6459 36.0545 170(13) 175.0654 146.8417
6460 36.0585 170(13) 174.9145 146.8297
6461 36.0625 169(13) 174.7384 146.8176
6462 36.0666 169(13) 174.5390 146.8055
6463 36.0706 169(13) 174.3185 146.7934
6464 36.0746 169(13) 174.0787 146.7813
6465 36.0787 169(13) 173.8214 146.7692
6466 36.0827 169(13) 173.5475 146.7571
6467 36.0867 169(13) 173.2583 146.7450
6468 36.0908 168(13) 172.9548 146.7330
6469 36.0948 168(13) 172.6372 146.7209
6470 36.0988 168(13) 172.3061 146.7088
6471 36.1029 168(13) 171.9618 146.6967
6472 36.1069 168(13) 171.6049 146.6846
6473 36.1109 167(13) 171.2351 146.6725
6474 36.1150 167(13) 170.8528 146.6603
6475 36.1190 167(13) 170.4590 146.6482
6476 36.1230 167(13) 170.0533 146.6361
6477 36.1270 167(13) 169.6368 146.6240
6478 36.1311 166(13) 169.2107 146.6119
6479 36.1351 166(13) 168.7751 146.5998
6480 36.1391 166(13) 168.3316 146.5876
6481 36.1432 166(13) 167.8813 146.5755
6482 36.1472 166(13) 167.4260 146.5633
6483 36.1512 165(13) 166.9663 146.5512
6484 36.1553 165(13) 166.5040 146.5391
6485 36.1593 165(13) 166.0410 146.5269
6486 36.1633 165(13) 165.5778 146.5148
6487 36.1674 165(13) 165.1162 146.5027
6488 36.1714 164(13) 164.6579 146.4905
6489 36.1754 164(13) 164.2033 146.4784
6490 36.1795 164(13) 163.7539 146.4662
6491 36.1835 164(13) 163.3107 146.4541
6492 36.1875 164(13) 162.8750 146.4419
6493 36.1915 164(13) 162.6229 146.4298
6494 36.1956 164(13) 162.2035 146.4176
6495 36.1996 163(13) 161.7936 146.4055
6496 36.2036 163(13) 161.3929 146.3933
6497 36.2077 163(13) 161.0022 146.3811
6498 36.2117 163(13) 160.6220 146.3690
6499 36.2157 163(13) 160.2518 146.3568
6500 36.2198 163(13) 159.8920 146.3446
6501 36.2238 163(13) 159.5428 146.3324
6502 36.2278 163(13) 159.2043 146.3203
6503 36.2319 162(13) 158.8758 146.3081
6504 36.2359 162(13) 158.5575 146.2959
6505 36.2399 162(13) 158.2494 146.2837
6506 36.2439 162(13) 157.9506 146.2715
6507 36.2480 162(13) 157.6613 146.2593
6508 36.2520 162(13) 157.3812 146.2471
6509 36.2560 161(13) 157.1102 146.2350
6510 36.2601 161(13) 156.8475 146.2228
6511 36.2641 161(13) 156.5930 146.2106
6512 36.2681 161(13) 156.3467 146.1984
6513 36.2722 161(13) 156.1078 146.1862
6514 36.2762 160(13) 155.8764 146.1740
6515 36.2802 160(13) 155.7397 146.1617
6516 36.2843 160(13) 155.5224 146.1495
6517 36.2883 160(13) 155.3118 146.1373
6518 36.2923 160(13) 155.1076 146.1251
6519 36.2963 160(13) 154.9099 146.1129
6520 36.3004 159(13) 154.7181 146.1007
6521 36.3044 159(13) 154.5321 146.0885
6522 36.3084 159(13) 154.3521 146.0762
6523 36.3125 159(13) 154.1774 146.0640
6524 36.3165 159(13) 154.0081 146.0518
6525 36.3205 159(13) 153.8442 146.0395
6526 36.3246 158(13) 153.6853 146.0273
6527 36.3286 158(13) 153.7238 146.0151
6528 36.3326 158(13) 153.5749 146.0028
6529 36.3367 158(13) 153.4308 145.9906
6530 36.3407 158(13) 153.2911 145.9784
6531 36.3447 158(13) 153.1557 145.9661
6532 36.3488 158(13) 153.0248 145.9539
6533 36.3528 158(13) 152.8978 145.9416
6534 36.3568 158(13) 152.7746 145.9293
6535 36.3608 158(13) 152.6555 145.9171
6536 36.3649 158(13) 152.5399 145.9048
6537 36.3689 157(13) 152.4279 145.8926
6538 36.3729 157(13) 152.3192 145.8803
6539 36.3770 157(13) 152.2140 145.8680
6540 36.3810 157(13) 152.1118 145.8558
6541 36.3850 157(13) 152.0126 145.8435
6542 36.3891 157(13) 151.8210 145.8312
6543 36.3931 157(13) 151.7278 145.8190
6544 36.3971 157(13) 151.6373 145.8067
6545 36.4012 157(13) 151.5493 145.7944
6546 36.4052 157(13) 151.4640 145.7821
6547 36.4092 157(13) 151.3810 145.7698
6548 36.4132 157(13) 151.3003 145.7575
6549 36.4173 157(13) 151.3175 145.7453
6550 36.4213 157(13) 151.2413 145.7330
6551 36.4253 157(13) 151.1672 145.7207
6552 36.4294 157(13) 151.0951 145.7084
6553 36.4334 157(13) 151.0248 145.6961
6554 36.4374 157(13) 150.9563 145.6838
6555 36.4415 157(13) 150.8897 145.6715
6556 36.4455 157(13) 150.8247 145.6592
6557 36.4495 157(13) 150.7614 145.6469
6558 36.4536 157(13) 150.6996 145.6346
6559 36.4576 157(13) 150.6393 145.6222
6560 36.4616 157(13) 150.5805 145.6099
6561 36.4657 157(13) 150.5231 145.5976
6562 36.4697 157(13) 150.4671 145.5853
6563 36.4737 157(13) 150.4123 145.5730
6564 36.4777 157(13) 150.3588 145.5606
6565 36.4818 157(13) 150.3065 145.5483
6566 36.4858 157(13) 150.2080 145.5360
6567 36.4898 157(13) 150.1581 145.5236
6568 36.4939 158(13) 150.1094 145.5113
6569 36.4979 158(13) 150.0617 145.4990
6570 36.5019 158(13) 150.0150 145.4866
6571 36.5060 158(13) 149.9693 145.4743
6572 36.5100 158(13) 149.9245 145.4620
6573 36.5140 158(13) 149.8807 145.4496
6574 36.5181 158(13) 149.8378 145.4373
6575 36.5221 158(13) 149.7957 145.4249
6576 36.5261 158(13) 149.7545 145.4126
6577 36.5301 158(13) 149.7141 145.4002
6578 36.5342 158(13) 149.6745 145.3878
6579 36.5382 158(13) 149.6357 145.3755
6580 36.5422 158(13) 149.5976 145.3631
6581 36.5463 158(13) 149.5602 145.3507
6582 36.5503 158(13) 149.5236 145.3384
6583 36.5543 158(13) 149.6379 145.3260
6584 36.5584 158(13) 149.6028 145.3136
6585 36.5624 158(13) 149.5683 145.3013
6586 36.5664 158(13) 149.5345 145.2889
6587 36.5705 158(13) 149.5013 145.2765
6588 36.5745 158(13) 149.4687 145.2641
6589 36.5785 158(13) 149.4366 145.2517
6590 36.5826 158(13) 149.4051 145.2393
6591 36.5866 158(13) 149.3742 145.2269
6592 36.5906 158(13) 149.3438 145.2146
6593 36.5946 158(13) 149.3139 145.2022
6594 36.5987 158(13) 149.2846 145.1898
6595 36.6027 158(13) 149.2557 145.1774
6596 36.6067 158(13) 149.2273 145.1650
6597 36.6108 158(13) 149.1994 145.1526
6598 36.6148 158(13) 149.1719 145.1402
6599 36.6188 158(13) 149.1449 145.1278
6600 36.6229 157(13) 149.1275 145.1154
6601 36.6269 157(13) 149.1013 145.1029
6602 36.6309 157(13) 149.0756 145.0905
6603 36.6350 157(13) 149.0503 145.0781
6604 36.6390 157(13) 149.0254 145.0657
6605 36.6430 157(13) 149.0755 145.0532
6606 36.6470 156(12) 149.0515 145.0408
6607 36.6511 156(12) 149.0278 145.0284
6608 36.6551 156(12) 149.0046 145.0160
6609 36.6591 156(12) 149.0857 145.0035
6610 36.6632 156(12) 149.0632 144.9911
6611 36.6672 155(12) 149.0412 144.9787
6612 36.6712 155(12) 149.0194 144.9662
6613 36.6753 155(12) 148.9980 144.9538
6614 36.6793 155(12) 148.9770 144.9413
6615 36.6833 155(12) 148.9562 144.9289
6616 36.6874 154(12) 148.9358 144.9164
6617 36.6914 154(12) 148.9156 144.9040
6618 36.6954 154(12) 148.8958 144.8915
6619 36.6994 154(12) 148.8763 144.8791
6620 36.7035 154(12) 148.8571 144.8666
6621 36.7075 154(12) 148.8381 144.8542
6622 36.7115 153(12) 148.8239 144.8417
6623 36.7156 153(12) 148.8056 144.8292
6624 36.7196 153(12) 148.7875 144.8168
6625 36.7236 153(12) 148.7696 144.8043
6626 36.7277 153(12) 148.7521 144.7918
6627 36.7317 153(12) 148.7348 144.7794
6628 36.7357 153(12) 148.7177 144.7669
6629 36.7398 152(12) 148.7009 144.7544
6630 36.7438 152(12) 148.6843 144.7419
6631 36.7478 152(12) 148.7196 144.7294
6632 36.7519 152(12) 148.7036 144.7169
6633 36.7559 152(12) 148.6879 144.7044
6634 36.7599 152(12) 148.6723 144.6919
6635 36.7639 152(12) 148.6571 144.6795
6636 36.7680 152(12) 148.6420 144.6669
6637 36.7720 152(12) 148.6272 144.6545
6638 36.7760 152(12) 148.6125 144.6419
6639 36.7801 151(12) 148.5981 144.6294
6640 36.7841 151(12) 148.5840 144.6170
6641 36.7881 151(12) 148.5700 144.6044
6642 36.7922 151(12) 148.5563 144.5919
6643 36.7962 151(12) 148.5428 144.5794
6644 36.8002 151(12) 148.5294 144.5669
6645 36.8043 151(12) 148.5163 144.5544
6646 36.8083 151(12) 148.5034 144.5419
6647 36.8123 151(12) 148.4906 144.5293
6648 36.8163 151(12) 148.4781 144.5168
6649 36.8204 151(12) 148.4658 144.5043
6650 36.8244 150(12) 148.4536 144.4917
6651 36.8284 150(12) 148.4417 144.4792
6652 36.8325 150(12) 148.4300 144.4667
6653 36.8365 150(12) 148.4184 144.4541
6654 36.8405 150(12) 148.4071 144.4416
6655 36.8446 150(12) 148.3959 144.4290
6656 36.8486 150(12) 148.3849 144.4165
6657 36.8526 150(12) 148.3741 144.4039
6658 36.8567 149(12) 148.3635 144.3914
6659 36.8607 149(12) 148.3531 144.3789
6660 36.8647 149(12) 148.3428 144.3663
6661 36.8688 149(12) 148.3328 144.3538
6662 36.8728 149(12) 148.3229 144.3412
6663 36.8768 149(12) 148.3132 144.3286
6664 36.8808 148(12) 148.3036 144.3161
6665 36.8849 148(12) 148.2943 144.3035
6666 36.8889 148(12) 148.2850 144.2909
6667 36.8929 148(12) 148.2760 144.2784
6668 36.8970 148(12) 148.2672 144.2658
6669 36.9010 147(12) 148.2585 144.2532
6670 36.9050 147(12) 148.2501 144.2406
6671 36.9091 147(12) 148.2417 144.2281
6672 36.9131 147(12) 148.2336 144.2155
6673 36.9171 147(12) 148.2256 144.2029
6674 36.9212 147(12) 148.2178 144.1903
6675 36.9252 146(12) 148.2101 144.1777
6676 36.9292 146(12) 148.2027 144.1651
6677 36.9332 146(12) 148.1954 144.1525
6678 36.9373 146(12) 148.1882 144.1399
6679 36.9413 146(12) 148.1812 144.1273
6680 36.9453 146(12) 148.1745 144.1147
6681 36.9494 146(12) 148.1678 144.1021
6682 36.9534 146(12) 148.1614 144.0895
6683 36.9574 146(12) 148.1551 144.0769
6684 36.9615 146(12) 148.1489 144.0643
6685 36.9655 146(12) 148.1429 144.0517
6686 36.9695 146(12) 148.1371 144.0390
6687 36.9736 146(12) 148.1315 144.0264
6688 36.9776 146(12) 148.1261 144.0138
6689 36.9816 146(12) 148.1208 144.0012
6690 36.9856 146(12) 148.1156 143.9886
6691 36.9897 146(12) 148.1107 143.9760
6692 36.9937 146(12) 148.1059 143.9633
6693 36.9977 146(12) 148.1013 143.9507
6694 37.0018 146(12) 148.0968 143.9381
6695 37.0058 147(12) 148.0925 143.9254
6696 37.0098 147(12) 148.0884 143.9128
6697 37.0139 147(12) 148.0845 143.9001
6698 37.0179 147(12) 148.0807 143.8875
6699 37.0219 147(12) 148.0771 143.8748
6700 37.0260 147(12) 148.0737 143.8622
6701 37.0300 147(12) 148.0704 143.8496
6702 37.0340 148(12) 148.0673 143.8369
6703 37.0381 148(12) 148.0644 143.8243
6704 37.0421 148(12) 148.0616 143.8116
6705 37.0461 148(12) 148.0591 143.7989
6706 37.0501 148(12) 148.0567 143.7863
6707 37.0542 148(12) 148.0545 143.7736
6708 37.0582 148(12) 148.0524 143.7609
6709 37.0622 148(12) 148.0506 143.7482
6710 37.0663 148(12) 148.0489 143.7356
6711 37.0703 148(12) 148.0474 143.7229
6712 37.0743 148(12) 148.0461 143.7103
6713 37.0784 148(12) 148.0449 143.6975
6714 37.0824 148(12) 148.0440 143.6849
6715 37.0864 148(12) 148.0432 143.6722
6716 37.0905 148(12) 148.0426 143.6595
6717 37.0945 148(12) 148.0422 143.6468
6718 37.0985 148(12) 148.0420 143.6341
6719 37.1026 148(12) 148.0420 143.6214
6720 37.1066 148(12) 148.0421 143.6087
6721 37.1106 148(12) 148.0425 143.5961
6722 37.1146 148(12) 148.0431 143.5833
6723 37.1187 148(12) 148.0438 143.5706
6724 37.1227 148(12) 148.0448 143.5579
6725 37.1267 148(12) 148.0459 143.5452
6726 37.1308 148(12) 148.0473 143.5325
6727 37.1348 147(12) 148.0488 143.5198
6728 37.1388 147(12) 148.0505 143.5071
6729 37.1429 147(12) 148.0525 143.4944
6730 37.1469 147(12) 148.0546 143.4816
6731 37.1509 147(12) 148.0570 143.4689
6732 37.1550 147(12) 148.0596 143.4562
6733 37.1590 147(12) 148.0624 143.4435
6734 37.1630 147(12) 148.0654 143.4307
6735 37.1670 147(12) 148.0686 143.4180
6736 37.1711 147(12) 148.0721 143.4053
6737 37.1751 147(12) 148.0757 143.3925
6738 37.1791 147(12) 148.0796 143.3798
6739 37.1832 147(12) 148.0837 143.3671
6740 37.1872 147(12) 148.0880 143.3543
6741 37.1912 146(12) 148.0926 143.3416
6742 37.1953 146(12) 148.0974 143.3288
6743 37.1993 146(12) 148.1024 143.3161
6744 37.2033 146(12) 148.1077 143.3033
6745 37.2074 146(12) 148.1132 143.2906
6746 37.2114 146(12) 148.1189 143.2778
6747 37.2154 146(12) 148.1249 143.2650
6748 37.2194 146(12) 148.1312 143.2523
6749 37.2235 146(12) 148.1377 143.2395
6750 37.2275 146(12) 148.1444 143.2267
6751 37.2315 146(12) 148.1514 143.2140
6752 37.2356 145(12) 148.1587 143.2012
6753 37.2396 145(12) 148.1662 143.1884
6754 37.2436 145(12) 148.1740 143.1757
6755 37.2477 145(12) 148.1821 143.1629
6756 37.2517 145(12) 148.1904 143.1501
6757 37.2557 145(12) 148.1991 143.1373
6758 37.2598 145(12) 148.2080 143.1245
6759 37.2638 145(12) 148.2171 143.1117
6760 37.2678 145(12) 148.2266 143.0989
6761 37.2719 145(12) 148.2364 143.0861
6762 37.2759 145(12) 148.2464 143.0734
6763 37.2799 145(12) 148.2568 143.0605
6764 37.2839 145(12) 148.2675 143.0478
6765 37.2880 145(12) 148.2784 143.0349
6766 37.2920 145(12) 148.2897 143.0222
6767 37.2960 145(12) 148.3013 143.0094
6768 37.3001 145(12) 148.3132 142.9965
6769 37.3041 146(12) 148.3255 142.9837
6770 37.3081 146(12) 148.3380 142.9709
6771 37.3122 146(12) 148.3510 142.9581
6772 37.3162 146(12) 148.3642 142.9453
6773 37.3202 146(12) 148.4921 142.9324
6774 37.3243 147(12) 148.5063 142.9196
6775 37.3283 147(12) 148.5207 142.9068
6776 37.3323 147(12) 148.5355 142.8940
6777 37.3363 147(12) 148.5507 142.8812
6778 37.3404 148(12) 148.5663 142.8683
6779 37.3444 148(12) 148.5822 142.8555
6780 37.3484 148(12) 148.5985 142.8426
6781 37.3525 148(12) 148.6152 142.8298
6782 37.3565 149(12) 148.6323 142.8170
6783 37.3605 149(12) 148.6499 142.8041
6784 37.3646 149(12) 148.6678 142.7913
6785 37.3686 149(12) 148.6861 142.7784
6786 37.3726 150(12) 148.7048 142.7655
6787 37.3767 150(12) 148.7241 142.7527
6788 37.3807 150(12) 148.7437 142.7399
6789 37.3847 150(12) 148.7637 142.7270
6790 37.3888 150(12) 148.7842 142.7141
6791 37.3928 150(12) 148.8052 142.7012
6792 37.3968 150(12) 148.8266 142.6884
6793 37.4008 151(12) 148.8486 142.6755
6794 37.4049 151(12) 148.8709 142.6627
6795 37.4089 151(12) 148.9506 142.6498
6796 37.4129 151(12) 148.9741 142.6369
6797 37.4170 151(12) 148.9980 142.6240
6798 37.4210 151(12) 149.0225 142.6112
6799 37.4250 151(12) 149.0475 142.5983
6800 37.4291 151(12) 149.0731 142.5854
6801 37.4331 151(12) 149.0992 142.5725
6802 37.4371 151(12) 149.1258 142.5596
6803 37.4412 151(12) 149.1531 142.5467
6804 37.4452 151(12) 149.1809 142.5338
6805 37.4492 151(12) 149.2093 142.5209
6806 37.4532 151(12) 149.2382 142.5080
6807 37.4573 151(12) 149.2678 142.4951
6808 37.4613 151(12) 149.2980 142.4822
6809 37.4653 152(12) 149.3289 142.4693
6810 37.4694 152(12) 149.3604 142.4564
6811 37.4734 152(12) 149.3925 142.4435
6812 37.4774 152(12) 149.4253 142.4306
6813 37.4815 152(12) 149.4589 142.4177
6814 37.4855 152(12) 149.4930 142.4048
6815 37.4895 152(12) 149.5280 142.3918
6816 37.4936 152(12) 149.5636 142.3789
6817 37.4976 152(12) 149.6000 142.3660
6818 37.5016 152(12) 149.6371 142.3531
6819 37.5056 152(12) 149.6750 142.3401
6820 37.5097 152(12) 149.7137 142.3272
6821 37.5137 152(12) 149.7532 142.3143
6822 37.5177 152(12) 149.7935 142.3013
6823 37.5218 153(12) 149.8346 142.2884
6824 37.5258 153(12) 149.8767 142.2755
6825 37.5298 153(12) 149.9195 142.2625
6826 37.5339 153(12) 149.9633 142.2496
6827 37.5379 153(12) 150.0080 142.2366
6828 37.5419 153(12) 150.0535 142.2237
6829 37.5460 153(12) 150.1001 142.2107
6830 37.5500 153(12) 150.1476 142.1978
6831 37.5540 153(12) 150.1961 142.1848
6832 37.5581 154(12) 150.2457 142.1718
6833 37.5621 154(12) 150.2963 142.1589
6834 37.5661 154(12) 150.3479 142.1459
6835 37.5701 154(12) 150.4006 142.1329
6836 37.5742 154(12) 150.4545 142.1200
6837 37.5782 154(12) 150.5094 142.1070
6838 37.5822 154(12) 150.5655 142.0940
6839 37.5863 155(12) 150.6229 142.0811
6840 37.5903 155(12) 150.6814 142.0681
6841 37.5943 155(12) 150.7411 142.0551
6842 37.5984 155(12) 150.8022 142.0421
6843 37.6024 155(12) 150.8646 142.0291
6844 37.6064 155(12) 150.9283 142.0161
6845 37.6105 155(12) 150.9934 142.0032
6846 37.6145 155(12) 151.0599 141.9902
6847 37.6185 155(12) 151.1278 141.9772
6848 37.6225 156(12) 151.1972 141.9642
6849 37.6266 156(12) 151.2681 141.9512
6850 37.6306 156(12) 151.3406 141.9382
6851 37.6346 156(12) 151.4146 141.9252
6852 37.6387 156(12) 151.4903 141.9122
6853 37.6427 156(12) 151.5677 141.8992
6854 37.6467 156(12) 151.6468 141.8861
6855 37.6508 156(12) 151.7276 141.8731
6856 37.6548 156(12) 151.8102 141.8601
6857 37.6588 155(12) 151.8948 141.8471
6858 37.6629 155(12) 151.9811 141.8341
6859 37.6669 155(12) 152.0695 141.8210
6860 37.6709 155(12) 152.1599 141.8080
6861 37.6750 155(12) 152.2524 141.7950
6862 37.6790 155(12) 152.3469 141.7820
6863 37.6830 155(12) 152.4437 141.7689
6864 37.6870 155(12) 152.5427 141.7559
6865 37.6911 155(12) 152.6439 141.7429
6866 37.6951 155(12) 152.7476 141.7298
6867 37.6991 155(12) 152.8537 141.7168
6868 37.7032 154(12) 152.9623 141.7038
6869 37.7072 154(12) 153.0735 141.6907
6870 37.7112 154(12) 153.1874 141.6776
6871 37.7153 154(12) 153.3040 141.6646
6872 37.7193 154(12) 153.4233 141.6516
6873 37.7233 154(12) 153.5456 141.6385
6874 37.7274 154(12) 153.6709 141.6254
6875 37.7314 154(12) 153.7992 141.6124
6876 37.7354 154(12) 153.9308 141.5993
6877 37.7394 154(12) 154.0655 141.5862
6878 37.7435 154(12) 154.2036 141.5732
6879 37.7475 154(12) 154.3452 141.5601
6880 37.7515 154(12) 154.4905 141.5470
6881 37.7556 155(12) 154.6394 141.5340
6882 37.7596 155(12) 154.7920 141.5209
6883 37.7636 155(12) 154.9487 141.5078
6884 37.7677 155(12) 155.1094 141.4947
6885 37.7717 155(12) 155.2741 141.4817
6886 37.7757 155(12) 155.4433 141.4686
6887 37.7798 155(12) 155.6171 141.4555
6888 37.7838 156(12) 155.7952 141.4424
6889 37.7878 156(12) 155.9782 141.4293
6890 37.7919 156(12) 156.1662 141.4162
6891 37.7959 156(12) 156.3593 141.4031
6892 37.7999 157(13) 156.5574 141.3900
6893 37.8039 157(13) 156.7612 141.3769
6894 37.8080 157(13) 156.9706 141.3638
6895 37.8120 158(13) 157.1856 141.3507
6896 37.8160 158(13) 157.4069 141.3376
6897 37.8201 158(13) 157.6344 141.3245
6898 37.8241 159(13) 157.8681 141.3114
6899 37.8281 159(13) 158.1087 141.2982
6900 37.8322 159(13) 158.3563 141.2851
6901 37.8362 160(13) 158.6110 141.2720
6902 37.8402 160(13) 158.8729 141.2589
6903 37.8443 161(13) 159.1427 141.2458
6904 37.8483 161(13) 159.4206 141.2326
6905 37.8523 162(13) 159.7064 141.2195
6906 37.8563 162(13) 160.0012 141.2064
6907 37.8604 163(13) 160.3048 141.1932
6908 37.8644 164(13) 160.6177 141.1801
6909 37.8684 164(13) 160.9399 141.1670
6910 37.8725 165(13) 161.2723 141.1538
6911 37.8765 165(13) 161.6151 141.1407
6912 37.8805 166(13) 161.9684 141.1276
6913 37.8846 167(13) 162.3331 141.1144
6914 37.8886 168(13) 162.7095 141.1012
6915 37.8926 168(13) 163.0976 141.0881
6916 37.8967 169(13) 163.4987 141.0750
6917 37.9007 170(13) 163.9128 141.0618
6918 37.9047 171(13) 164.3406 141.0486
6919 37.9087 171(13) 164.7821 141.0355
6920 37.9128 172(13) 165.2388 141.0223
6921 37.9168 173(13) 165.7108 141.0091
6922 37.9208 174(13) 166.1984 140.9960
6923 37.9249 175(13) 166.7032 140.9828
6924 37.9289 176(13) 167.2253 140.9696
6925 37.9329 177(13) 167.7650 140.9564
6926 37.9370 178(13) 168.3241 140.9433
6927 37.9410 178(13) 168.9029 140.9301
6928 37.9450 179(13) 169.5023 140.9169
6929 37.9491 180(13) 170.1224 140.9037
6930 37.9531 181(13) 170.7655 140.8905
6931 37.9571 182(13) 171.4318 140.8773
6932 37.9612 183(14) 172.1217 140.8642
6933 37.9652 184(14) 172.8375 140.8510
6934 37.9692 185(14) 173.5796 140.8378
6935 37.9732 187(14) 174.3484 140.8246
6936 37.9773 188(14) 175.1465 140.8114
6937 37.9813 189(14) 175.9742 140.7982
6938 37.9853 190(14) 176.8329 140.7850
6939 37.9894 191(14) 177.7227 140.7718
6940 37.9934 192(14) 178.6467 140.7586
6941 37.9974 193(14) 179.6052 140.7453
6942 38.0015 194(14) 180.5984 140.7321
6943 38.0055 195(14) 181.6295 140.7189
6944 38.0095 196(14) 182.6987 140.7057
6945 38.0136 197(14) 183.8072 140.6924
6946 38.0176 199(14) 184.9550 140.6792
6947 38.0216 200(14) 186.1451 140.6660
6948 38.0257 201(14) 187.3775 140.6528
6949 38.0297 202(14) 188.6517 140.6396
6950 38.0337 203(14) 189.9707 140.6264
6951 38.0377 204(14) 191.3338 140.6131
6952 38.0418 205(14) 192.7397 140.5999
6953 38.0458 207(14) 194.1912 140.5866
6954 38.0498 208(14) 195.6864 140.5734
6955 38.0539 209(14) 197.2245 140.5601
6956 38.0579 210(14) 198.8030 140.5469
6957 38.0619 211(15) 200.4230 140.5336
6958 38.0660 213(15) 202.0811 140.5204
6959 38.0700 214(15) 203.7726 140.5072
6960 38.0740 215(15) 205.4976 140.4939
6961 38.0781 216(15) 207.2504 140.4806
6962 38.0821 217(15) 209.0245 140.4674
6963 38.0861 218(15) 210.8180 140.4541
6964 38.0901 220(15) 212.6228 140.4409
6965 38.0942 221(15) 214.4322 140.4276
6966 38.0982 222(15) 216.2368 140.4143
6967 38.1022 223(15) 218.0319 140.4010
6968 38.1063 224(15) 219.8070 140.3878
6969 38.1103 225(15) 221.5515 140.3745
6970 38.1143 226(15) 223.2590 140.3612
6971 38.1184 227(15) 224.9186 140.3479
6972 38.1224 228(15) 226.5193 140.3346
6973 38.1264 229(15) 228.0552 140.3214
6974 38.1305 230(15) 229.5161 140.3081
6975 38.1345 231(15) 230.8941 140.2948
6976 38.1385 232(15) 232.1815 140.2815
6977 38.1425 233(15) 233.3752 140.2682
6978 38.1466 233(15) 234.4694 140.2549
6979 38.1506 234(15) 235.4606 140.2416
6980 38.1546 235(15) 236.3494 140.2283
6981 38.1587 235(15) 237.1350 140.2150
6982 38.1627 236(15) 237.8192 140.2017
6983 38.1667 237(15) 238.4045 140.1884
6984 38.1708 237(15) 238.8965 140.1751
6985 38.1748 238(15) 239.2999 140.1618
6986 38.1788 238(15) 239.6206 140.1485
6987 38.1829 239(15) 239.8659 140.1351
6988 38.1869 239(15) 240.0424 140.1218
6989 38.1909 239(15) 240.1574 140.1085
6990 38.1950 240(15) 240.2178 140.0952
6991 38.1990 240(15) 240.2303 140.0819
6992 38.2030 240(15) 240.2011 140.0685
6993 38.2070 241(16) 240.1357 140.0552
6994 38.2111 241(16) 240.0392 140.0419
6995 38.2151 241(16) 239.9157 140.0285
6996 38.2191 241(16) 239.7693 140.0152
6997 38.2232 241(16) 239.6027 140.0019
6998 38.2272 241(16) 239.4187 139.9885
6999 38.2312 241(16) 239.2200 139.9751
7000 38.2353 241(16) 239.0081 139.9618
7001 38.2393 241(16) 238.7853 139.9484
7002 38.2433 241(16) 238.5537 139.9351
7003 38.2474 241(16) 238.3156 139.9218
7004 38.2514 241(16) 238.0731 139.9084
7005 38.2554 241(16) 237.8290 139.8950
7006 38.2594 241(16) 237.5868 139.8817
7007 38.2635 241(16) 237.3494 139.8683
7008 38.2675 241(16) 237.1209 139.8549
7009 38.2715 241(16) 236.9054 139.8416
7010 38.2756 241(16) 236.7068 139.8282
7011 38.2796 241(16) 236.5296 139.8148
7012 38.2836 241(16) 236.3783 139.8015
7013 38.2877 241(16) 236.2569 139.7881
7014 38.2917 241(16) 236.1692 139.7747
7015 38.2957 241(16) 236.1187 139.7614
7016 38.2998 241(16) 236.1086 139.7480
7017 38.3038 241(16) 236.1411 139.7346
7018 38.3078 241(16) 236.2179 139.7212
7019 38.3118 241(16) 236.3396 139.7078
7020 38.3159 241(16) 236.5065 139.6944
7021 38.3199 241(16) 236.7174 139.6810
7022 38.3239 241(16) 236.9705 139.6676
7023 38.3280 241(16) 237.2624 139.6542
7024 38.3320 241(16) 237.5897 139.6408
7025 38.3360 241(16) 237.9475 139.6274
7026 38.3401 241(16) 238.3294 139.6140
7027 38.3441 241(16) 238.7297 139.6006
7028 38.3481 241(16) 239.1407 139.5872
7029 38.3522 241(16) 239.5544 139.5738
7030 38.3562 241(16) 239.9622 139.5604
7031 38.3602 241(16) 240.3560 139.5470
7032 38.3643 241(16) 240.7271 139.5336
7033 38.3683 241(16) 241.0663 139.5201
7034 38.3723 241(16) 241.3662 139.5067
7035 38.3763 241(16) 241.6187 139.4933
7036 38.3804 241(16) 241.8169 139.4799
7037 38.3844 241(16) 241.9551 139.4664
7038 38.3884 241(16) 242.0284 139.4530
7039 38.3925 241(16) 242.0332 139.4396
7040 38.3965 241(16) 241.9672 139.4262
7041 38.4005 241(16) 241.8292 139.4127
7042 38.4046 241(16) 241.6196 139.3992
7043 38.4086 241(16) 241.3401 139.3858
7044 38.4126 241(16) 240.9926 139.3724
7045 38.4167 240(15) 240.5809 139.3589
7046 38.4207 240(15) 240.1096 139.3455
7047 38.4247 240(15) 239.5823 139.3320
7048 38.4287 240(15) 239.0046 139.3186
7049 38.4328 240(15) 238.3816 139.3051
7050 38.4368 239(15) 237.7187 139.2917
7051 38.4408 239(15) 237.0195 139.2782
7052 38.4449 239(15) 236.2890 139.2647
7053 38.4489 238(15) 235.5319 139.2513
7054 38.4529 238(15) 234.7499 139.2378
7055 38.4570 237(15) 233.9468 139.2243
7056 38.4610 237(15) 233.1255 139.2109
7057 38.4650 236(15) 232.2863 139.1974
7058 38.4691 236(15) 231.4313 139.1839
7059 38.4731 235(15) 230.5618 139.1704
7060 38.4771 234(15) 229.6794 139.1570
7061 38.4812 234(15) 228.7834 139.1435
7062 38.4852 233(15) 227.8754 139.1300
7063 38.4892 232(15) 226.9575 139.1165
7064 38.4932 232(15) 226.0291 139.1030
7065 38.4973 231(15) 225.0929 139.0895
7066 38.5013 230(15) 224.1508 139.0760
7067 38.5053 230(15) 223.2061 139.0625
7068 38.5094 229(15) 222.2600 139.0490
7069 38.5134 228(15) 221.3164 139.0355
7070 38.5174 227(15) 220.3798 139.0220
7071 38.5215 227(15) 219.4525 139.0085
7072 38.5255 226(15) 218.5391 138.9950
7073 38.5295 225(15) 217.6449 138.9815
7074 38.5336 224(15) 216.7722 138.9680
7075 38.5376 224(15) 215.9265 138.9545
7076 38.5416 223(15) 215.1115 138.9410
7077 38.5456 222(15) 214.3322 138.9274
7078 38.5497 222(15) 213.5908 138.9139
7079 38.5537 221(15) 212.8915 138.9004
7080 38.5577 221(15) 212.2383 138.8869
7081 38.5618 220(15) 211.6328 138.8734
7082 38.5658 220(15) 211.0780 138.8598
7083 38.5698 219(15) 210.5765 138.8463
7084 38.5739 219(15) 210.1293 138.8327
7085 38.5779 218(15) 209.7383 138.8192
7086 38.5819 218(15) 209.4043 138.8057
7087 38.5860 218(15) 209.1282 138.7922
7088 38.5900 217(15) 208.9096 138.7786
7089 38.5940 217(15) 208.7486 138.7651
7090 38.5980 217(15) 208.6444 138.7515
7091 38.6021 217(15) 208.5961 138.7380
7092 38.6061 217(15) 208.6020 138.7244
7093 38.6101 217(15) 208.6599 138.7109
7094 38.6142 217(15) 208.7677 138.6973
7095 38.6182 217(15) 208.9222 138.6838
7096 38.6222 217(15) 209.1200 138.6702
7097 38.6263 217(15) 209.3569 138.6566
7098 38.6303 218(15) 209.6289 138.6431
7099 38.6343 218(15) 209.9308 138.6295
7100 38.6384 218(15) 210.2568 138.6160
7101 38.6424 218(15) 210.6015 138.6024
7102 38.6464 219(15) 210.9585 138.5888
7103 38.6505 219(15) 211.3211 138.5752
7104 38.6545 219(15) 211.6819 138.5617
7105 38.6585 219(15) 212.0346 138.5481
7106 38.6625 220(15) 212.3717 138.5345
7107 38.6666 220(15) 212.6857 138.5209
7108 38.6706 220(15) 212.9704 138.5073
7109 38.6746 221(15) 213.2189 138.4937
7110 38.6787 221(15) 213.4249 138.4801
7111 38.6827 221(15) 213.5834 138.4666
7112 38.6867 221(15) 213.6893 138.4529
7113 38.6908 222(15) 213.7389 138.4394
7114 38.6948 222(15) 213.7291 138.4258
7115 38.6988 222(15) 213.6581 138.4122
7116 38.7029 222(15) 213.5247 138.3986
7117 38.7069 222(15) 213.3293 138.3850
7118 38.7109 222(15) 213.0722 138.3713
7119 38.7150 222(15) 212.7554 138.3577
7120 38.7190 222(15) 212.3816 138.3441
7121 38.7230 222(15) 211.9531 138.3305
7122 38.7270 222(15) 211.4735 138.3169
7123 38.7311 222(15) 210.9466 138.3033
7124 38.7351 221(15) 210.3766 138.2897
7125 38.7391 221(15) 209.7662 138.2760
7126 38.7432 221(15) 209.1194 138.2624
7127 38.7472 220(15) 208.4402 138.2488
7128 38.7512 220(15) 207.7302 138.2352
7129 38.7553 220(15) 206.9926 138.2215
7130 38.7593 219(15) 206.2303 138.2079
7131 38.7633 218(15) 205.4435 138.1943
7132 38.7674 218(15) 204.6342 138.1806
7133 38.7714 217(15) 203.8035 138.1670
7134 38.7754 216(15) 202.9529 138.1533
7135 38.7794 216(15) 202.0812 138.1397
7136 38.7835 215(15) 201.1898 138.1260
7137 38.7875 214(15) 200.2807 138.1124
7138 38.7915 213(15) 199.3511 138.0987
7139 38.7956 212(15) 198.4031 138.0851
7140 38.7996 211(15) 197.4376 138.0714
7141 38.8036 210(14) 196.4566 138.0578
7142 38.8077 209(14) 195.4596 138.0441
7143 38.8117 208(14) 194.4490 138.0305
7144 38.8157 207(14) 193.4277 138.0168
7145 38.8198 206(14) 192.3959 138.0031
7146 38.8238 205(14) 191.3568 137.9894
7147 38.8278 203(14) 190.3139 137.9758
7148 38.8318 202(14) 189.2677 137.9621
7149 38.8359 201(14) 188.2221 137.9484
7150 38.8399 200(14) 187.1796 137.9347
7151 38.8439 199(14) 186.1438 137.9211
7152 38.8480 197(14) 185.1152 137.9074
7153 38.8520 196(14) 184.0973 137.8937
7154 38.8560 195(14) 183.0931 137.8800
7155 38.8601 194(14) 182.1028 137.8663
7156 38.8641 193(14) 181.1292 137.8526
7157 38.8681 192(14) 180.1747 137.8389
7158 38.8722 190(14) 179.2390 137.8253
7159 38.8762 189(14) 178.3241 137.8116
7160 38.8802 188(14) 177.4312 137.7979
7161 38.8843 187(14) 176.5612 137.7842
7162 38.8883 186(14) 175.7134 137.7705
7163 38.8923 185(14) 174.8889 137.7568
7164 38.8963 184(14) 174.0888 137.7431
7165 38.9004 183(14) 173.3115 137.7294
7166 38.9044 182(13) 172.5577 137.7156
7167 38.9084 181(13) 171.8279 137.7019
7168 38.9125 180(13) 171.1206 137.6882
7169 38.9165 179(13) 170.4360 137.6745
7170 38.9205 179(13) 169.7737 137.6608
7171 38.9246 178(13) 169.1339 137.6470
7172 38.9286 177(13) 168.5148 137.6333
7173 38.9326 176(13) 167.9164 137.6196
7174 38.9367 175(13) 167.3387 137.6059
7175 38.9407 174(13) 166.7801 137.5921
7176 38.9447 174(13) 166.2404 137.5784
7177 38.9487 173(13) 165.7196 137.5647
7178 38.9528 172(13) 165.2160 137.5509
7179 38.9568 171(13) 164.7296 137.5372
7180 38.9608 170(13) 164.2597 137.5235
7181 38.9649 170(13) 163.8062 137.5097
7182 38.9689 169(13) 163.3676 137.4960
7183 38.9729 168(13) 162.9438 137.4822
7184 38.9770 167(13) 162.5346 137.4685
7185 38.9810 167(13) 162.1388 137.4547
7186 38.9850 166(13) 161.7562 137.4410
7187 38.9891 165(13) 161.3863 137.4272
7188 38.9931 164(13) 161.0290 137.4135
7189 38.9971 164(13) 160.6832 137.3997
7190 39.0012 163(13) 160.3486 137.3859
7191 39.0052 162(13) 160.0253 137.3722
7192 39.0092 161(13) 159.7122 137.3584
7193 39.0132 161(13) 159.4093 137.3446
7194 39.0173 160(13) 159.1164 137.3309
7195 39.0213 160(13) 158.8326 137.3171
7196 39.0253 159(13) 158.5578 137.3033
7197 39.0294 158(13) 158.2918 137.2895
7198 39.0334 158(13) 158.0345 137.2758
7199 39.0374 157(13) 157.7851 137.2620
7200 39.0415 157(13) 157.5436 137.2482
7201 39.0455 156(12) 157.3098 137.2344
7202 39.0495 156(12) 157.0831 137.2206
7203 39.0536 155(12) 156.8636 137.2068
7204 39.0576 155(12) 156.6511 137.1930
7205 39.0616 154(12) 156.4450 137.1792
7206 39.0656 154(12) 156.2453 137.1655
7207 39.0697 154(12) 156.0518 137.1516
7208 39.0737 153(12) 155.8646 137.1378
7209 39.0777 153(12) 155.6829 137.1240
7210 39.0818 153(12) 155.5070 137.1102
7211 39.0858 153(12) 155.3366 137.0964
7212 39.0898 152(12) 155.1714 137.0826
7213 39.0939 152(12) 155.0113 137.0688
7214 39.0979 152(12) 154.8564 137.0550
7215 39.1019 152(12) 154.7062 137.0412
7216 39.1060 152(12) 154.5608 137.0274
7217 39.1100 151(12) 154.4199 137.0135
7218 39.1140 151(12) 154.2836 136.9997
7219 39.1180 151(12) 154.1515 136.9859
7220 39.1221 151(12) 154.0237 136.9721
7221 39.1261 151(12) 153.9001 136.9583
7222 39.1301 151(12) 153.7803 136.9444
7223 39.1342 151(12) 153.6645 136.9306
7224 39.1382 151(12) 153.5525 136.9167
7225 39.1422 151(12) 153.4443 136.9029
7226 39.1463 151(12) 153.3397 136.8891
7227 39.1503 151(12) 153.2385 136.8752
7228 39.1543 150(12) 153.1410 136.8614
7229 39.1584 150(12) 153.0467 136.8476
7230 39.1624 150(12) 152.9557 136.8337
7231 39.1664 150(12) 152.8681 136.8199
7232 39.1705 150(12) 152.7835 136.8060
7233 39.1745 150(12) 152.7020 136.7921
7234 39.1785 150(12) 152.6235 136.7783
7235 39.1825 150(12) 152.5481 136.7645
7236 39.1866 149(12) 152.4758 136.7506
7237 39.1906 149(12) 152.4062 136.7367
7238 39.1946 149(12) 152.3394 136.7229
7239 39.1987 149(12) 152.2752 136.7090
7240 39.2027 149(12) 152.2138 136.6951
7241 39.2067 149(12) 152.1552 136.6813
7242 39.2108 149(12) 152.0991 136.6674
7243 39.2148 149(12) 152.0455 136.6535
7244 39.2188 148(12) 151.9946 136.6396
7245 39.2229 148(12) 151.9462 136.6258
7246 39.2269 148(12) 151.9003 136.6119
7247 39.2309 148(12) 151.8568 136.5980
7248 39.2349 148(12) 151.8158 136.5841
7249 39.2390 148(12) 151.7771 136.5703
7250 39.2430 148(12) 151.7408 136.5563
7251 39.2470 148(12) 151.7069 136.5425
7252 39.2511 148(12) 151.6753 136.5286
7253 39.2551 148(12) 151.6461 136.5147
7254 39.2591 148(12) 151.6190 136.5008
7255 39.2632 148(12) 151.5944 136.4869
7256 39.2672 148(12) 151.5719 136.4730
7257 39.2712 148(12) 151.5517 136.4591
7258 39.2753 148(12) 151.5338 136.4452
7259 39.2793 148(12) 151.5182 136.4313
7260 39.2833 148(12) 151.5047 136.4174
7261 39.2874 148(12) 151.4935 136.4035
7262 39.2914 148(12) 151.4845 136.3895
7263 39.2954 148(12) 151.4776 136.3756
7264 39.2994 148(12) 151.4730 136.3617
7265 39.3035 148(12) 151.4706 136.3478
7266 39.3075 148(12) 151.4705 136.3339
7267 39.3115 148(12) 151.4726 136.3199
7268 39.3156 148(12) 151.4769 136.3060
7269 39.3196 148(12) 151.4835 136.2921
7270 39.3236 148(12) 151.4923 136.2782
7271 39.3277 148(12) 151.5034 136.2642
7272 39.3317 148(12) 151.5167 136.2503
7273 39.3357 148(12) 151.5324 136.2364
7274 39.3398 148(12) 151.5504 136.2224
7275 39.3438 148(12) 151.5706 136.2085
7276 39.3478 149(12) 151.5933 136.1945
7277 39.3518 149(12) 151.6184 136.1806
7278 39.3559 149(12) 151.6458 136.1667
7279 39.3599 149(12) 151.6756 136.1527
7280 39.3639 149(12) 151.7080 136.1388
7281 39.3680 149(12) 151.7428 136.1248
7282 39.3720 149(12) 151.7800 136.1109
7283 39.3760 149(12) 151.8199 136.0969
7284 39.3801 149(12) 151.8624 136.0829
7285 39.3841 150(12) 151.9074 136.0690
7286 39.3881 150(12) 151.9551 136.0550
7287 39.3922 150(12) 152.0056 136.0411
7288 39.3962 150(12) 152.0587 136.0271
7289 39.4002 150(12) 152.1147 136.0131
7290 39.4043 150(12) 152.1735 135.9992
7291 39.4083 150(12) 152.2352 135.9852
7292 39.4123 151(12) 152.2998 135.9712
7293 39.4163 151(12) 152.3675 135.9572
7294 39.4204 151(12) 152.4383 135.9433
7295 39.4244 151(12) 152.5121 135.9293
7296 39.4284 151(12) 152.5892 135.9153
7297 39.4325 152(12) 152.6695 135.9013
7298 39.4365 152(12) 152.7532 135.8873
7299 39.4405 152(12) 152.8403 135.8734
7300 39.4446 152(12) 152.9310 135.8594
7301 39.4486 153(12) 153.0252 135.8454
7302 39.4526 153(12) 153.1230 135.8314
7303 39.4567 153(12) 153.2247 135.8174
7304 39.4607 154(12) 153.3303 135.8034
7305 39.4647 154(12) 153.4398 135.7894
7306 39.4687 154(12) 153.5535 135.7754
7307 39.4728 155(12) 153.6714 135.7614
7308 39.4768 155(12) 153.7936 135.7474
7309 39.4808 155(12) 153.9202 135.7334
7310 39.4849 156(12) 154.0516 135.7193
7311 39.4889 156(12) 154.1901 135.7053
7312 39.4929 156(12) 154.3310 135.6913
7313 39.4970 156(12) 154.4771 135.6773
7314 39.5010 157(13) 154.6286 135.6633
7315 39.5050 157(13) 154.7853 135.6493
7316 39.5091 157(13) 154.9478 135.6353
7317 39.5131 158(13) 155.1161 135.6212
7318 39.5171 158(13) 155.2904 135.6072
7319 39.5211 158(13) 155.4709 135.5932
7320 39.5252 159(13) 155.6579 135.5792
7321 39.5292 159(13) 155.8517 135.5651
7322 39.5332 159(13) 156.0523 135.5511
7323 39.5373 159(13) 156.2603 135.5370
7324 39.5413 160(13) 156.4758 135.5230
7325 39.5453 160(13) 156.6988 135.5090
7326 39.5494 160(13) 156.9301 135.4949
7327 39.5534 160(13) 157.1697 135.4809
7328 39.5574 160(13) 157.4179 135.4668
7329 39.5615 161(13) 157.6747 135.4528
7330 39.5655 161(13) 157.9410 135.4387
7331 39.5695 161(13) 158.2168 135.4247
7332 39.5736 161(13) 158.5021 135.4107
7333 39.5776 161(13) 158.7976 135.3966
7334 39.5816 161(13) 159.1046 135.3825
7335 39.5856 162(13) 159.4208 135.3685
7336 39.5897 162(13) 159.7479 135.3544
7337 39.5937 162(13) 160.0861 135.3403
7338 39.5977 162(13) 160.4354 135.3263
7339 39.6018 163(13) 160.7955 135.3122
7340 39.6058 163(13) 161.1673 135.2981
7341 39.6098 163(13) 161.5504 135.2841
7342 39.6139 163(13) 161.9444 135.2700
7343 39.6179 164(13) 162.3498 135.2559
7344 39.6219 164(13) 162.7660 135.2418
7345 39.6260 164(13) 163.1927 135.2278
7346 39.6300 165(13) 163.6291 135.2137
7347 39.6340 165(13) 164.0753 135.1996
7348 39.6381 165(13) 164.5303 135.1855
7349 39.6421 166(13) 164.9927 135.1714
7350 39.6461 166(13) 165.4624 135.1573
7351 39.6501 167(13) 165.9379 135.1432
7352 39.6542 167(13) 166.4172 135.1292
7353 39.6582 167(13) 166.8999 135.1151
7354 39.6622 168(13) 167.3839 135.1010
7355 39.6663 168(13) 167.8673 135.0869
7356 39.6703 168(13) 168.3479 135.0728
7357 39.6743 169(13) 168.8244 135.0587
7358 39.6784 169(13) 169.2945 135.0446
7359 39.6824 169(13) 169.7555 135.0305
7360 39.6864 170(13) 170.2061 135.0163
7361 39.6905 170(13) 170.6438 135.0022
7362 39.6945 170(13) 171.0662 134.9881
7363 39.6985 170(13) 171.4721 134.9740
7364 39.7025 170(13) 171.8594 134.9599
7365 39.7066 171(13) 172.2266 134.9458
7366 39.7106 171(13) 172.5721 134.9317
7367 39.7146 171(13) 172.8955 134.9175
7368 39.7187 171(13) 173.1959 134.9034
7369 39.7227 171(13) 173.4726 134.8893
7370 39.7267 171(13) 173.7262 134.8752
7371 39.7308 171(13) 173.9565 134.8610
7372 39.7348 171(13) 174.1642 134.8469
7373 39.7388 171(13) 174.3503 134.8328
7374 39.7429 171(13) 174.5159 134.8186
7375 39.7469 171(13) 174.6621 134.8045
7376 39.7509 171(13) 174.7904 134.7904
7377 39.7549 171(13) 174.9025 134.7762
7378 39.7590 171(13) 174.9998 134.7621
7379 39.7630 171(13) 175.0837 134.7479
7380 39.7670 171(13) 175.1561 134.7338
7381 39.7711 171(13) 175.2182 134.7196
7382 39.7751 171(13) 175.2713 134.7055
7383 39.7791 171(13) 175.3166 134.6913
7384 39.7832 172(13) 175.3552 134.6772
7385 39.7872 172(13) 175.3880 134.6630
7386 39.7912 172(13) 175.4489 134.6489
7387 39.7953 172(13) 175.4724 134.6347
7388 39.7993 172(13) 175.4919 134.6205
7389 39.8033 172(13) 175.5082 134.6064
7390 39.8074 172(13) 175.5215 134.5922
7391 39.8114 173(13) 175.5324 134.5781
7392 39.8154 173(13) 175.5411 134.5639
7393 39.8194 173(13) 175.5482 134.5497
7394 39.8235 173(13) 175.5542 134.5355
7395 39.8275 173(13) 175.5595 134.5213
7396 39.8315 174(13) 175.5650 134.5072
7397 39.8356 174(13) 175.5713 134.4930
7398 39.8396 174(13) 175.5794 134.4788
7399 39.8436 174(13) 175.5901 134.4646
7400 39.8477 175(13) 175.6045 134.4505
7401 39.8517 175(13) 175.6237 134.4363
7402 39.8557 175(13) 175.6490 134.4221
7403 39.8598 175(13) 175.6814 134.4079
7404 39.8638 176(13) 175.7222 134.3937
7405 39.8678 176(13) 175.7728 134.3795
7406 39.8718 176(13) 175.8342 134.3653
7407 39.8759 177(13) 175.9078 134.3511
7408 39.8799 177(13) 175.9947 134.3369
7409 39.8839 177(13) 176.0961 134.3227
7410 39.8880 178(13) 176.2295 134.3085
7411 39.8920 178(13) 176.3632 134.2943
7412 39.8960 178(13) 176.5144 134.2801
7413 39.9001 179(13) 176.6840 134.2659
7414 39.9041 179(13) 176.8731 134.2517
7415 39.9081 180(13) 177.0824 134.2375
7416 39.9122 180(13) 177.3125 134.2232
7417 39.9162 181(13) 177.5645 134.2090
7418 39.9202 181(13) 177.8388 134.1948
7419 39.9243 182(13) 178.1362 134.1806
7420 39.9283 182(13) 178.4569 134.1664
7421 39.9323 183(14) 178.8022 134.1521
7422 39.9363 183(14) 179.1724 134.1379
7423 39.9404 184(14) 179.5677 134.1237
7424 39.9444 185(14) 179.9895 134.1094
7425 39.9484 185(14) 180.4381 134.0952
7426 39.9525 186(14) 180.9135 134.0810
7427 39.9565 187(14) 181.4175 134.0667
7428 39.9605 188(14) 181.9203 134.0525
7429 39.9646 188(14) 182.4827 134.0383
7430 39.9686 189(14) 183.0747 134.0240
7431 39.9726 190(14) 183.6984 134.0098
7432 39.9767 191(14) 184.3542 133.9955
7433 39.9807 192(14) 185.0422 133.9813
7434 39.9847 193(14) 185.7647 133.9670
7435 39.9887 194(14) 186.5223 133.9528
7436 39.9928 195(14) 187.3150 133.9386
7437 39.9968 196(14) 188.1457 133.9243
7438 40.0008 197(14) 189.0148 133.9100
7439 40.0049 198(14) 189.9235 133.8958
7440 40.0089 199(14) 190.8723 133.8815
7441 40.0129 200(14) 191.8642 133.8673
7442 40.0170 202(14) 192.8997 133.8530
7443 40.0210 203(14) 193.9793 133.8387
7444 40.0250 204(14) 195.1064 133.8245
7445 40.0291 205(14) 196.2814 133.8102
7446 40.0331 206(14) 197.5045 133.7959
7447 40.0371 208(14) 198.7795 133.7817
7448 40.0411 209(14) 200.1066 133.7674
7449 40.0452 210(14) 201.4870 133.7531
7450 40.0492 212(15) 202.9206 133.7388
7451 40.0532 213(15) 204.4110 133.7245
7452 40.0573 214(15) 205.9579 133.7103
7453 40.0613 216(15) 207.5604 133.6960
7454 40.0653 217(15) 209.2070 133.6817
7455 40.0694 219(15) 210.9261 133.6674
7456 40.0734 220(15) 212.7010 133.6531
7457 40.0774 222(15) 214.5345 133.6388
7458 40.0815 223(15) 216.4236 133.6245
7459 40.0855 225(15) 218.3669 133.6102
7460 40.0895 227(15) 220.3604 133.5959
7461 40.0936 228(15) 222.4048 133.5816
7462 40.0976 230(15) 224.4949 133.5674
7463 40.1016 231(15) 226.6243 133.5531
7464 40.1056 233(15) 228.7919 133.5387
7465 40.1097 235(15) 230.9898 133.5244
7466 40.1137 236(15) 233.2110 133.5101
7467 40.1177 238(15) 235.4457 133.4958
7468 40.1218 240(15) 237.6894 133.4815
7469 40.1258 241(16) 239.9305 133.4672
7470 40.1298 243(16) 242.1563 133.4529
7471 40.1339 244(16) 244.3601 133.4386
7472 40.1379 246(16) 246.5279 133.4242
7473 40.1419 247(16) 248.6454 133.4099
7474 40.1460 249(16) 250.7040 133.3956
7475 40.1500 250(16) 252.6888 133.3813
7476 40.1540 251(16) 254.5874 133.3670
7477 40.1580 253(16) 256.3857 133.3526
7478 40.1621 254(16) 258.0754 133.3383
7479 40.1661 255(16) 259.6439 133.3240
7480 40.1701 256(16) 261.0803 133.3096
7481 40.1742 257(16) 262.3788 133.2953
7482 40.1782 258(16) 263.5312 133.2810
7483 40.1822 259(16) 264.5315 133.2666
7484 40.1863 260(16) 265.3782 133.2523
7485 40.1903 261(16) 266.0688 133.2380
7486 40.1943 261(16) 266.6036 133.2236
7487 40.1984 262(16) 266.9842 133.2093
7488 40.2024 262(16) 267.2152 133.1949
7489 40.2064 263(16) 267.3011 133.1806
7490 40.2104 263(16) 267.2483 133.1662
7491 40.2145 263(16) 267.0639 133.1519
7492 40.2185 263(16) 266.7556 133.1375
7493 40.2225 263(16) 266.3322 133.1232
7494 40.2266 263(16) 265.8011 133.1088
7495 40.2306 263(16) 265.1708 133.0945
7496 40.2346 263(16) 264.4490 133.0801
7497 40.2387 262(16) 263.6438 133.0657
7498 40.2427 262(16) 262.7602 133.0514
7499 40.2467 261(16) 261.8045 133.0370
7500 40.2508 260(16) 260.7826 133.0226
7501 40.2548 260(16) 259.6967 133.0083
7502 40.2588 259(16) 258.5511 132.9939
7503 40.2629 258(16) 257.3483 132.9795
7504 40.2669 257(16) 256.0917 132.9651
7505 40.2709 256(16) 254.7805 132.9507
7506 40.2749 255(16) 253.4173 132.9364
7507 40.2790 253(16) 252.0048 132.9220
7508 40.2830 252(16) 250.5415 132.9076
7509 40.2870 251(16) 249.0304 132.8932
7510 40.2911 249(16) 247.4748 132.8788
7511 40.2951 248(16) 245.8738 132.8645
7512 40.2991 246(16) 244.2317 132.8501
7513 40.3032 245(16) 242.5517 132.8357
7514 40.3072 243(16) 240.8391 132.8213
7515 40.3112 241(16) 239.0947 132.8069
7516 40.3153 239(15) 237.3249 132.7925
7517 40.3193 238(15) 235.5362 132.7781
7518 40.3233 236(15) 233.7306 132.7637
7519 40.3274 234(15) 231.9151 132.7493
7520 40.3314 232(15) 230.0968 132.7349
7521 40.3354 230(15) 228.2780 132.7205
7522 40.3394 228(15) 226.4656 132.7061
7523 40.3435 227(15) 224.6648 132.6917
7524 40.3475 225(15) 222.8823 132.6773
7525 40.3515 223(15) 221.1194 132.6628
7526 40.3556 221(15) 219.3819 132.6484
7527 40.3596 219(15) 217.6752 132.6340
7528 40.3636 217(15) 215.9997 132.6196
7529 40.3677 216(15) 214.3600 132.6052
7530 40.3717 214(15) 212.7600 132.5908
7531 40.3757 212(15) 211.1990 132.5764
7532 40.3798 210(14) 209.6803 132.5619
7533 40.3838 209(14) 208.2053 132.5475
7534 40.3878 207(14) 206.7763 132.5331
7535 40.3918 206(14) 205.3914 132.5187
7536 40.3959 204(14) 204.0524 132.5042
7537 40.3999 202(14) 202.7607 132.4898
7538 40.4039 201(14) 201.5138 132.4754
7539 40.4080 200(14) 200.3128 132.4609
7540 40.4120 198(14) 199.1571 132.4465
7541 40.4160 197(14) 198.0474 132.4321
7542 40.4201 195(14) 196.9807 132.4176
7543 40.4241 194(14) 195.9575 132.4032
7544 40.4281 193(14) 194.9777 132.3887
7545 40.4322 192(14) 194.0388 132.3743
7546 40.4362 190(14) 193.1405 132.3598
7547 40.4402 189(14) 192.2829 132.3454
7548 40.4442 188(14) 191.4632 132.3309
7549 40.4483 187(14) 190.6814 132.3165
7550 40.4523 186(14) 189.9364 132.3020
7551 40.4563 185(14) 189.2279 132.2876
7552 40.4604 184(14) 188.5536 132.2731
7553 40.4644 183(14) 187.9132 132.2587
7554 40.4684 182(13) 187.3064 132.2442
7555 40.4725 181(13) 186.7310 132.2297
7556 40.4765 180(13) 186.1867 132.2153
7557 40.4805 179(13) 185.6732 132.2008
7558 40.4846 178(13) 185.1885 132.1863
7559 40.4886 177(13) 184.7323 132.1719
7560 40.4926 176(13) 184.3037 132.1574
7561 40.4967 176(13) 183.9022 132.1429
7562 40.5007 175(13) 183.5262 132.1284
7563 40.5047 174(13) 183.1752 132.1140
7564 40.5087 173(13) 182.8486 132.0995
7565 40.5128 173(13) 182.5345 132.0850
7566 40.5168 172(13) 182.2529 132.0705
7567 40.5208 172(13) 181.9926 132.0560
7568 40.5249 171(13) 181.7522 132.0416
7569 40.5289 170(13) 181.5308 132.0271
7570 40.5329 170(13) 181.3273 132.0126
7571 40.5370 169(13) 181.1407 131.9981
7572 40.5410 169(13) 180.9692 131.9836
7573 40.5450 169(13) 180.8118 131.9691
7574 40.5491 168(13) 180.6674 131.9546
7575 40.5531 168(13) 180.5347 131.9401
7576 40.5571 168(13) 180.4113 131.9256
7577 40.5611 167(13) 180.2963 131.9111
7578 40.5652 167(13) 180.1883 131.8966
7579 40.5692 167(13) 180.0857 131.8821
7580 40.5732 167(13) 179.9871 131.8676
7581 40.5773 166(13) 179.8913 131.8531
7582 40.5813 166(13) 179.7966 131.8386
7583 40.5853 166(13) 179.7020 131.8241
7584 40.5894 166(13) 179.6065 131.8096
7585 40.5934 166(13) 179.5087 131.7951
7586 40.5974 165(13) 179.4080 131.7806
7587 40.6015 165(13) 179.3037 131.7660
7588 40.6055 165(13) 179.1953 131.7515
7589 40.6095 165(13) 179.0823 131.7370
7590 40.6136 165(13) 178.9646 131.7225
7591 40.6176 165(13) 178.8424 131.7080
7592 40.6216 165(13) 178.7103 131.6935
7593 40.6256 164(13) 178.5789 131.6789
7594 40.6297 164(13) 178.4438 131.6644
7595 40.6337 164(13) 178.3050 131.6499
7596 40.6377 164(13) 178.1633 131.6353
7597 40.6418 164(13) 178.0192 131.6208
7598 40.6458 163(13) 177.8735 131.6063
7599 40.6498 163(13) 177.7269 131.5917
7600 40.6539 163(13) 177.5793 131.5772
7601 40.6579 163(13) 177.4319 131.5627
7602 40.6619 162(13) 177.2847 131.5481
7603 40.6660 162(13) 177.1385 131.5336
7604 40.6700 162(13) 176.9937 131.5190
7605 40.6740 162(13) 176.8502 131.5045
7606 40.6780 162(13) 176.7085 131.4899
7607 40.6821 161(13) 176.5682 131.4754
7608 40.6861 161(13) 176.4306 131.4608
7609 40.6901 161(13) 176.2951 131.4463
7610 40.6942 161(13) 176.1617 131.4317
7611 40.6982 160(13) 176.0308 131.4172
7612 40.7022 160(13) 175.9021 131.4026
7613 40.7063 160(13) 175.7758 131.3881
7614 40.7103 160(13) 175.6521 131.3735
7615 40.7143 160(13) 175.5310 131.3590
7616 40.7184 160(13) 175.4127 131.3444
7617 40.7224 160(13) 175.2975 131.3298
7618 40.7264 159(13) 175.1859 131.3153
7619 40.7304 159(13) 175.0777 131.3007
7620 40.7345 159(13) 174.9738 131.2861
7621 40.7385 159(13) 174.8744 131.2716
7622 40.7425 159(13) 174.7798 131.2570
7623 40.7466 159(13) 174.6908 131.2424
7624 40.7506 159(13) 174.6077 131.2278
7625 40.7546 159(13) 174.5311 131.2133
7626 40.7587 159(13) 174.4614 131.1987
7627 40.7627 159(13) 174.3991 131.1841
7628 40.7667 159(13) 174.3449 131.1695
7629 40.7708 159(13) 174.2991 131.1550
7630 40.7748 159(13) 174.2622 131.1404
7631 40.7788 159(13) 174.2346 131.1258
7632 40.7829 159(13) 174.2167 131.1112
7633 40.7869 159(13) 174.2090 131.0966
7634 40.7909 159(13) 174.2113 131.0820
7635 40.7949 160(13) 174.2247 131.0674
7636 40.7990 160(13) 174.2492 131.0528
7637 40.8030 160(13) 174.2850 131.0382
7638 40.8070 160(13) 174.3324 131.0237
7639 40.8111 160(13) 174.3915 131.0090
7640 40.8151 160(13) 174.4627 130.9944
7641 40.8191 160(13) 174.5459 130.9798
7642 40.8232 160(13) 174.6417 130.9652
7643 40.8272 160(13) 174.7500 130.9506
7644 40.8312 160(13) 174.8710 130.9360
7645 40.8353 160(13) 175.0048 130.9214
7646 40.8393 160(13) 175.1518 130.9068
7647 40.8433 160(13) 175.3121 130.8922
7648 40.8473 160(13) 175.4855 130.8776
7649 40.8514 161(13) 175.6727 130.8629
7650 40.8554 161(13) 175.8737 130.8484
7651 40.8594 161(13) 176.0883 130.8338
7652 40.8635 161(13) 176.3173 130.8191
7653 40.8675 161(13) 176.5605 130.8045
7654 40.8715 161(13) 176.8182 130.7899
7655 40.8756 161(13) 177.0902 130.7753
7656 40.8796 162(13) 177.3773 130.7607
7657 40.8836 162(13) 177.6793 130.7460
7658 40.8877 162(13) 177.9961 130.7314
7659 40.8917 162(13) 178.3285 130.7168
7660 40.8957 162(13) 178.6761 130.7021
7661 40.8998 163(13) 179.0392 130.6875
7662 40.9038 163(13) 179.4174 130.6729
7663 40.9078 163(13) 179.8113 130.6582
7664 40.9118 163(13) 180.2207 130.6436
7665 40.9159 163(13) 180.6449 130.6290
7666 40.9199 164(13) 181.0845 130.6143
7667 40.9239 164(13) 181.5391 130.5997
7668 40.9280 164(13) 182.0076 130.5850
7669 40.9320 164(13) 182.4905 130.5704
7670 40.9360 164(13) 182.9869 130.5557
7671 40.9401 164(13) 183.4960 130.5411
7672 40.9441 165(13) 184.0165 130.5264
7673 40.9481 165(13) 184.5485 130.5118
7674 40.9522 165(13) 185.0904 130.4971
7675 40.9562 165(13) 185.6404 130.4825
7676 40.9602 165(13) 186.1982 130.4678
7677 40.9642 165(13) 186.7617 130.4532
7678 40.9683 165(13) 187.3286 130.4385
7679 40.9723 166(13) 187.8984 130.4239
7680 40.9763 166(13) 188.4686 130.4092
7681 40.9804 166(13) 189.0370 130.3945
7682 40.9844 166(13) 189.6013 130.3799
7683 40.9884 166(13) 190.1602 130.3652
7684 40.9925 167(13) 190.7113 130.3505
7685 40.9965 167(13) 191.2518 130.3359
7686 41.0005 167(13) 191.7809 130.3212
7687 41.0046 167(13) 192.2962 130.3065
7688 41.0086 168(13) 192.7954 130.2919
7689 41.0126 168(13) 193.2780 130.2772
7690 41.0167 168(13) 193.7422 130.2625
7691 41.0207 169(13) 194.1871 130.2478
7692 41.0247 169(13) 194.6115 130.2332
7693 41.0287 170(13) 195.0156 130.2185
7694 41.0328 170(13) 195.3991 130.2038
7695 41.0368 171(13) 195.7617 130.1891
7696 41.0408 171(13) 196.1046 130.1744
7697 41.0449 172(13) 196.4280 130.1597
7698 41.0489 172(13) 196.7330 130.1451
7699 41.0529 173(13) 197.0205 130.1304
7700 41.0570 173(13) 197.2922 130.1157
7701 41.0610 174(13) 197.5494 130.1010
7702 41.0650 174(13) 197.7932 130.0863
7703 41.0691 175(13) 198.0255 130.0716
7704 41.0731 175(13) 198.2477 130.0569
7705 41.0771 175(13) 198.4610 130.0422
7706 41.0811 176(13) 198.6671 130.0275
7707 41.0852 176(13) 198.8670 130.0128
7708 41.0892 177(13) 199.0619 129.9981
7709 41.0932 177(13) 199.2524 129.9834
7710 41.0973 177(13) 199.4399 129.9687
7711 41.1013 178(13) 199.6250 129.9540
7712 41.1053 178(13) 199.8079 129.9393
7713 41.1094 178(13) 199.9896 129.9246
7714 41.1134 179(13) 200.1704 129.9099
7715 41.1174 179(13) 200.3506 129.8952
7716 41.1215 179(13) 200.5307 129.8804
7717 41.1255 179(13) 200.7111 129.8658
7718 41.1295 180(13) 200.8921 129.8510
7719 41.1335 180(13) 201.0741 129.8363
7720 41.1376 180(13) 201.2579 129.8216
7721 41.1416 180(13) 201.4439 129.8069
7722 41.1456 181(13) 201.6326 129.7921
7723 41.1497 181(13) 201.8252 129.7774
7724 41.1537 181(13) 202.0223 129.7627
7725 41.1577 181(13) 202.2247 129.7480
7726 41.1618 182(13) 202.4337 129.7333
7727 41.1658 182(13) 202.6502 129.7185
7728 41.1698 183(14) 202.8754 129.7038
7729 41.1739 183(14) 203.1100 129.6891
7730 41.1779 183(14) 203.3559 129.6743
7731 41.1819 184(14) 203.6139 129.6596
7732 41.1860 184(14) 203.8848 129.6449
7733 41.1900 185(14) 204.1703 129.6301
7734 41.1940 185(14) 204.4712 129.6154
7735 41.1980 186(14) 204.7883 129.6007
7736 41.2021 186(14) 205.1231 129.5859
7737 41.2061 187(14) 205.4763 129.5712
7738 41.2101 187(14) 205.8488 129.5564
7739 41.2142 188(14) 206.2410 129.5417
7740 41.2182 188(14) 206.6543 129.5269
7741 41.2222 189(14) 207.2042 129.5122
7742 41.2263 190(14) 207.6609 129.4975
7743 41.2303 190(14) 208.1406 129.4827
7744 41.2343 191(14) 208.6436 129.4680
7745 41.2384 191(14) 209.1703 129.4532
7746 41.2424 192(14) 209.7207 129.4384
7747 41.2464 193(14) 210.2962 129.4237
7748 41.2505 193(14) 210.8967 129.4089
7749 41.2545 194(14) 211.5219 129.3942
7750 41.2585 195(14) 212.1735 129.3794
7751 41.2625 196(14) 212.8512 129.3647
7752 41.2666 196(14) 213.5545 129.3499
7753 41.2706 197(14) 214.2853 129.3351
7754 41.2746 198(14) 215.0431 129.3203
7755 41.2787 199(14) 215.8283 129.3056
7756 41.2827 200(14) 216.6405 129.2908
7757 41.2867 201(14) 217.4814 129.2760
7758 41.2908 202(14) 218.3508 129.2613
7759 41.2948 203(14) 219.2481 129.2465
7760 41.2988 204(14) 220.1754 129.2318
7761 41.3029 205(14) 221.1323 129.2170
7762 41.3069 206(14) 222.1182 129.2022
7763 41.3109 207(14) 223.1354 129.1874
7764 41.3149 208(14) 224.1835 129.1727
7765 41.3190 209(14) 225.2628 129.1579
7766 41.3230 211(15) 226.4301 129.1431
7767 41.3270 212(15) 227.5737 129.1283
7768 41.3311 213(15) 228.7500 129.1135
7769 41.3351 215(15) 229.9587 129.0987
7770 41.3391 216(15) 231.2025 129.0840
7771 41.3432 217(15) 232.4809 129.0692
7772 41.3472 219(15) 233.7933 129.0544
7773 41.3512 220(15) 235.1429 129.0396
7774 41.3553 222(15) 236.5291 129.0248
7775 41.3593 224(15) 237.9527 129.0100
7776 41.3633 225(15) 239.4130 128.9952
7777 41.3673 227(15) 240.9135 128.9804
7778 41.3714 229(15) 242.4538 128.9656
7779 41.3754 230(15) 244.0333 128.9508
7780 41.3794 232(15) 245.6557 128.9360
7781 41.3835 234(15) 247.3207 128.9212
7782 41.3875 236(15) 249.0291 128.9064
7783 41.3915 238(15) 250.7803 128.8916
7784 41.3956 240(15) 252.5789 128.8768
7785 41.3996 242(16) 254.4242 128.8620
7786 41.4036 244(16) 256.3156 128.8472
7787 41.4077 247(16) 258.2581 128.8324
7788 41.4117 249(16) 260.2512 128.8176
7789 41.4157 251(16) 262.2943 128.8028
7790 41.4198 254(16) 264.3928 128.7879
7791 41.4238 256(16) 266.5463 128.7731
7792 41.4278 259(16) 268.7565 128.7583
7793 41.4318 262(16) 271.0230 128.7435
7794 41.4359 264(16) 273.3519 128.7287
7795 41.4399 267(16) 275.7430 128.7139
7796 41.4439 270(16) 278.1960 128.6990
7797 41.4480 273(17) 280.7177 128.6842
7798 41.4520 277(17) 283.3081 128.6694
7799 41.4560 280(17) 285.9669 128.6546
7800 41.4601 283(17) 288.7020 128.6397
7801 41.4641 287(17) 291.5132 128.6249
7802 41.4681 290(17) 294.4037 128.6101
7803 41.4722 294(17) 297.3732 128.5953
7804 41.4762 298(17) 300.4308 128.5804
7805 41.4802 302(17) 303.5768 128.5656
7806 41.4842 306(17) 306.8114 128.5508
7807 41.4883 310(18) 310.1444 128.5359
7808 41.4923 314(18) 313.5766 128.5211
7809 41.4963 318(18) 317.1083 128.5063
7810 41.5004 323(18) 320.7502 128.4914
7811 41.5044 327(18) 324.5032 128.4766
7812 41.5084 332(18) 328.3716 128.4618
7813 41.5125 337(18) 332.3560 128.4469
7814 41.5165 341(18) 336.4683 128.4321
7815 41.5205 346(19) 340.7094 128.4172
7816 41.5246 351(19) 345.0797 128.4024
7817 41.5286 357(19) 349.5922 128.3875
7818 41.5326 362(19) 354.2475 128.3727
7819 41.5367 367(19) 359.0499 128.3578
7820 41.5407 373(19) 363.9996 128.3430
7821 41.5447 378(19) 369.1099 128.3281
7822 41.5487 384(20) 374.3804 128.3133
7823 41.5528 390(20) 379.8100 128.2985
7824 41.5568 396(20) 385.4121 128.2836
7825 41.5608 402(20) 391.1850 128.2687
7826 41.5649 408(20) 397.1252 128.2539
7827 41.5689 414(20) 403.2461 128.2390
7828 41.5729 421(21) 409.5432 128.2242
7829 41.5770 427(21) 416.0166 128.2093
7830 41.5810 434(21) 422.6594 128.1944
7831 41.5850 440(21) 429.4821 128.1796
7832 41.5891 447(21) 436.4755 128.1647
7833 41.5931 454(21) 443.6282 128.1498
7834 41.5971 461(21) 450.9477 128.1350
7835 41.6011 468(22) 458.4196 128.1201
7836 41.6052 474(22) 466.0270 128.1052
7837 41.6092 481(22) 473.7734 128.0903
7838 41.6132 488(22) 481.6384 128.0755
7839 41.6173 495(22) 489.6066 128.0606
7840 41.6213 503(22) 497.6534 128.0457
7841 41.6253 510(23) 505.7749 128.0309
7842 41.6294 517(23) 513.9427 128.0160
7843 41.6334 524(23) 522.1266 128.0011
7844 41.6374 531(23) 530.3180 127.9863
7845 41.6415 538(23) 538.4837 127.9714
7846 41.6455 545(23) 546.5901 127.9565
7847 41.6495 551(23) 554.6260 127.9416
7848 41.6535 558(24) 562.5571 127.9267
7849 41.6576 565(24) 570.3574 127.9118
7850 41.6616 572(24) 577.9941 127.8969
7851 41.6656 579(24) 585.4587 127.8820
7852 41.6697 585(24) 592.7221 127.8672
7853 41.6737 592(24) 599.7589 127.8523
7854 41.6777 598(24) 606.5671 127.8374
7855 41.6818 605(25) 613.1274 127.8225
7856 41.6858 611(25) 619.4317 127.8076
7857 41.6898 618(25) 625.4702 127.7927
7858 41.6939 624(25) 631.2541 127.7778
7859 41.6979 630(25) 636.7817 127.7629
7860 41.7019 636(25) 642.0560 127.7480
7861 41.7060 643(25) 647.0987 127.7331
7862 41.7100 649(25) 651.9194 127.7182
7863 41.7140 655(26) 656.5317 127.7033
7864 41.7180 661(26) 660.9638 127.6884
7865 41.7221 667(26) 665.2324 127.6735
7866 41.7261 672(26) 669.3594 127.6586
7867 41.7301 678(26) 673.3633 127.6437
7868 41.7342 684(26) 677.2726 127.6288
7869 41.7382 689(26) 681.1037 127.6139
7870 41.7422 695(26) 684.8718 127.5990
7871 41.7463 700(26) 688.5992 127.5841
7872 41.7503 706(27) 692.2958 127.5692
7873 41.7543 711(27) 695.9686 127.5543
7874 41.7584 716(27) 699.6311 127.5393
7875 41.7624 721(27) 703.2834 127.5244
7876 41.7664 726(27) 706.9255 127.5095
7877 41.7704 730(27) 710.5502 127.4946
7878 41.7745 735(27) 714.1578 127.4797
7879 41.7785 739(27) 717.7355 127.4648
7880 41.7825 743(27) 721.2667 127.4499
7881 41.7866 747(27) 724.7435 127.4349
7882 41.7906 751(27) 728.1450 127.4200
7883 41.7946 755(27) 731.4487 127.4051
7884 41.7987 758(28) 734.6406 127.3902
7885 41.8027 762(28) 737.6953 127.3752
7886 41.8067 765(28) 740.5901 127.3603
7887 41.8108 767(28) 743.3000 127.3454
7888 41.8148 770(28) 745.8075 127.3305
7889 41.8188 772(28) 748.0872 127.3155
7890 41.8228 774(28) 750.1161 127.3006
7891 41.8269 776(28) 751.8778 127.2857
7892 41.8309 778(28) 753.3521 127.2707
7893 41.8349 779(28) 754.5217 127.2558
7894 41.8390 780(28) 755.3752 127.2409
7895 41.8430 781(28) 755.9006 127.2259
7896 41.8470 781(28) 756.0904 127.2110
7897 41.8511 781(28) 755.9405 127.1961
7898 41.8551 781(28) 755.4501 127.1811
7899 41.8591 781(28) 754.6225 127.1662
7900 41.8632 781(28) 753.4660 127.1512
7901 41.8672 780(28) 751.9888 127.1363
7902 41.8712 779(28) 750.2057 127.1214
7903 41.8753 777(28) 748.1339 127.1064
7904 41.8793 776(28) 745.7953 127.0915
7905 41.8833 774(28) 743.2076 127.0765
7906 41.8873 772(28) 740.3960 127.0616
7907 41.8914 769(28) 737.3883 127.0466
7908 41.8954 767(28) 734.2036 127.0317
7909 41.8994 764(28) 730.8698 127.0167
7910 41.9035 761(28) 727.4143 127.0018
7911 41.9075 758(28) 723.8539 126.9868
7912 41.9115 754(27) 720.2134 126.9719
7913 41.9156 751(27) 716.5125 126.9569
7914 41.9196 747(27) 712.7726 126.9420
7915 41.9236 743(27) 709.0021 126.9270
7916 41.9277 739(27) 705.2178 126.9120
7917 41.9317 735(27) 701.4344 126.8971
7918 41.9357 730(27) 697.6542 126.8821
7919 41.9398 726(27) 693.8883 126.8671
7920 41.9438 721(27) 690.1462 126.8522
7921 41.9478 717(27) 686.4260 126.8372
7922 41.9518 712(27) 682.7354 126.8222
7923 41.9559 707(27) 679.0787 126.8073
7924 41.9599 702(26) 675.4634 126.7923
7925 41.9639 698(26) 671.8869 126.7774
7926 41.9680 693(26) 668.3580 126.7624
7927 41.9720 688(26) 664.8862 126.7474
7928 41.9760 684(26) 661.4719 126.7324
7929 41.9801 679(26) 658.1271 126.7175
7930 41.9841 674(26) 654.8643 126.7025
7931 41.9881 670(26) 651.6882 126.6875
7932 41.9922 665(26) 648.6138 126.6726
7933 41.9962 661(26) 645.6540 126.6576
7934 42.0002 657(26) 642.8247 126.6426
7935 42.0042 653(26) 640.1344 126.6276
7936 42.0083 649(25) 637.6002 126.6126
7937 42.0123 645(25) 635.2379 126.5977
7938 42.0163 642(25) 633.0569 126.5827
7939 42.0204 639(25) 631.0720 126.5677
7940 42.0244 635(25) 629.2969 126.5527
7941 42.0284 632(25) 627.7385 126.5378
7942 42.0325 630(25) 626.4080 126.5228
7943 42.0365 627(25) 625.3133 126.5078
7944 42.0405 625(25) 624.4582 126.4928
7945 42.0446 622(25) 623.8468 126.4778
7946 42.0486 620(25) 623.4808 126.4628
7947 42.0526 619(25) 623.3583 126.4479
7948 42.0566 617(25) 623.4763 126.4329
7949 42.0607 616(25) 623.8289 126.4179
7950 42.0647 615(25) 624.4069 126.4029
7951 42.0687 614(25) 625.2007 126.3879
7952 42.0728 613(25) 626.1967 126.3729
7953 42.0768 613(25) 627.3785 126.3579
7954 42.0808 612(25) 628.7303 126.3429
7955 42.0849 612(25) 630.2323 126.3279
7956 42.0889 612(25) 631.8626 126.3129
7957 42.0929 612(25) 633.5974 126.2979
7958 42.0970 613(25) 635.4163 126.2829
7959 42.1010 613(25) 637.2931 126.2679
7960 42.1050 614(25) 639.2014 126.2529
7961 42.1091 615(25) 641.1199 126.2379
7962 42.1131 616(25) 643.0229 126.2229
7963 42.1171 617(25) 644.8852 126.2079
7964 42.1211 618(25) 646.6888 126.1929
7965 42.1252 619(25) 648.4120 126.1779
7966 42.1292 620(25) 650.0366 126.1629
7967 42.1332 621(25) 651.5470 126.1479
7968 42.1373 623(25) 652.9326 126.1329
7969 42.1413 624(25) 654.1826 126.1178
7970 42.1453 625(25) 655.2891 126.1029
7971 42.1494 626(25) 656.2505 126.0878
7972 42.1534 627(25) 657.0643 126.0728
7973 42.1574 628(25) 657.7314 126.0578
7974 42.1615 629(25) 658.2562 126.0428
7975 42.1655 630(25) 658.6426 126.0278
7976 42.1695 631(25) 658.8973 126.0127
7977 42.1735 632(25) 659.0265 125.9977
7978 42.1776 632(25) 659.0377 125.9827
7979 42.1816 632(25) 658.9367 125.9677
7980 42.1856 633(25) 658.7296 125.9527
7981 42.1897 633(25) 658.4202 125.9377
7982 42.1937 633(25) 658.0110 125.9226
7983 42.1977 632(25) 657.5031 125.9076
7984 42.2018 632(25) 656.8939 125.8926
7985 42.2058 631(25) 656.1796 125.8776
7986 42.2098 631(25) 655.3539 125.8625
7987 42.2139 630(25) 654.4091 125.8475
7988 42.2179 628(25) 653.3331 125.8325
7989 42.2219 627(25) 652.1139 125.8175
7990 42.2259 626(25) 650.7397 125.8025
7991 42.2300 624(25) 649.1931 125.7874
7992 42.2340 622(25) 647.4603 125.7724
7993 42.2380 620(25) 645.5285 125.7574
7994 42.2421 618(25) 643.3796 125.7423
7995 42.2461 615(25) 641.0027 125.7273
7996 42.2501 612(25) 638.3862 125.7123
7997 42.2542 610(25) 635.5236 125.6972
7998 42.2582 607(25) 632.4023 125.6822
7999 42.2622 603(25) 629.0216 125.6672
8000 42.2663 600(24) 625.3833 125.6521
8001 42.2703 596(24) 621.4827 125.6371
8002 42.2743 593(24) 617.3281 125.6220
8003 42.2784 589(24) 612.9275 125.6070
8004 42.2824 584(24) 608.2960 125.5920
8005 42.2864 580(24) 603.4380 125.5769
8006 42.2904 576(24) 598.3734 125.5619
8007 42.2945 571(24) 593.1241 125.5468
8008 42.2985 566(24) 587.6985 125.5318
8009 42.3025 561(24) 582.1206 125.5167
8010 42.3066 556(24) 576.4156 125.5017
8011 42.3106 551(23) 570.5919 125.4867
8012 42.3146 546(23) 564.6743 125.4716
8013 42.3187 541(23) 558.6805 125.4565
8014 42.3227 535(23) 552.6337 125.4415
8015 42.3267 530(23) 546.5381 125.4265
8016 42.3308 524(23) 540.4135 125.4114
8017 42.3348 518(23) 534.2781 125.3964
8018 42.3388 513(23) 528.1311 125.3813
8019 42.3428 507(23) 521.9875 125.3662
8020 42.3469 501(22) 515.8607 125.3512
8021 42.3509 495(22) 509.7449 125.3362
8022 42.3549 489(22) 503.6508 125.3211
8023 42.3590 483(22) 497.5818 125.3060
8024 42.3630 477(22) 491.5464 125.2910
8025 42.3670 471(22) 485.5351 125.2759
8026 42.3711 465(22) 479.5552 125.2609
8027 42.3751 459(21) 473.6133 125.2458
8028 42.3791 453(21) 467.6996 125.2307
8029 42.3832 447(21) 461.8209 125.2157
8030 42.3872 441(21) 455.9840 125.2006
8031 42.3912 435(21) 450.1801 125.1856
8032 42.3953 429(21) 444.4168 125.1705
8033 42.3993 423(21) 438.6967 125.1554
8034 42.4033 417(20) 433.0286 125.1404
8035 42.4073 411(20) 427.4050 125.1253
8036 42.4114 405(20) 421.8356 125.1102
8037 42.4154 399(20) 416.3297 125.0952
8038 42.4194 393(20) 410.8813 125.0801
8039 42.4235 388(20) 405.5004 125.0650
8040 42.4275 382(20) 400.1917 125.0500
8041 42.4315 376(19) 394.9644 125.0349
8042 42.4356 371(19) 389.8133 125.0198
8043 42.4396 365(19) 384.7476 125.0048
8044 42.4436 360(19) 379.7757 124.9897
8045 42.4477 354(19) 374.8919 124.9746
8046 42.4517 349(19) 370.1042 124.9595
8047 42.4557 343(19) 365.4193 124.9445
8048 42.4597 338(18) 360.8311 124.9294
8049 42.4638 333(18) 356.3456 124.9143
8050 42.4678 328(18) 351.9641 124.8992
8051 42.4718 323(18) 347.6918 124.8842
8052 42.4759 318(18) 343.5209 124.8691
8053 42.4799 313(18) 339.4557 124.8540
8054 42.4839 309(18) 335.4995 124.8389
8055 42.4880 304(17) 331.6442 124.8239
8056 42.4920 300(17) 327.8927 124.8088
8057 42.4960 296(17) 324.2473 124.7937
8058 42.5001 291(17) 320.6995 124.7786
8059 42.5041 287(17) 317.2513 124.7635
8060 42.5081 283(17) 313.9007 124.7484
8061 42.5121 280(17) 310.6490 124.7334
8062 42.5162 276(17) 307.4878 124.7183
8063 42.5202 272(16) 304.4182 124.7032
8064 42.5242 269(16) 301.4406 124.6881
8065 42.5283 265(16) 298.5472 124.6730
8066 42.5323 262(16) 295.7386 124.6579
8067 42.5363 259(16) 293.0150 124.6428
8068 42.5404 256(16) 290.3690 124.6277
8069 42.5444 253(16) 287.8009 124.6126
8070 42.5484 250(16) 285.3085 124.5975
8071 42.5525 247(16) 282.8919 124.5825
8072 42.5565 244(16) 280.5446 124.5674
8073 42.5605 241(16) 278.2664 124.5523
8074 42.5646 239(15) 276.0576 124.5372
8075 42.5686 236(15) 273.9121 124.5221
8076 42.5726 234(15) 271.8301 124.5070
8077 42.5766 231(15) 269.8098 124.4919
8078 42.5807 229(15) 267.8513 124.4768
8079 42.5847 227(15) 265.9491 124.4617
8080 42.5887 225(15) 264.1036 124.4466
8081 42.5928 222(15) 262.3150 124.4315
8082 42.5968 220(15) 260.5785 124.4164
8083 42.6008 218(15) 258.8941 124.4013
8084 42.6049 216(15) 257.2624 124.3862
8085 42.6089 215(15) 255.6787 124.3711
8086 42.6129 213(15) 254.1437 124.3560
8087 42.6170 211(15) 252.6561 124.3409
8088 42.6210 209(14) 251.2162 124.3258
8089 42.6250 208(14) 249.8201 124.3107
8090 42.6291 206(14) 248.4684 124.2956
8091 42.6331 204(14) 247.1613 124.2805
8092 42.6371 203(14) 245.8955 124.2654
8093 42.6411 202(14) 244.6715 124.2503
8094 42.6452 200(14) 243.4894 124.2352
8095 42.6492 199(14) 242.3465 124.2201
8096 42.6532 198(14) 241.2430 124.2050
8097 42.6573 196(14) 240.1783 124.1898
8098 42.6613 195(14) 239.1527 124.1747
8099 42.6653 194(14) 238.1638 124.1596
8100 42.6694 193(14) 237.2119 124.1445
8101 42.6734 192(14) 236.2973 124.1294
8102 42.6774 191(14) 235.4179 124.1143
8103 42.6815 190(14) 234.5739 124.0992
8104 42.6855 190(14) 233.7657 124.0841
8105 42.6895 189(14) 232.9913 124.0690
8106 42.6935 188(14) 232.2511 124.0538
8107 42.6976 188(14) 231.5447 124.0387
8108 42.7016 187(14) 230.8723 124.0236
8109 42.7056 186(14) 230.2324 124.0085
8110 42.7097 186(14) 229.6252 123.9934
8111 42.7137 185(14) 229.0510 123.9783
8112 42.7177 185(14) 228.5084 123.9631
8113 42.7218 185(14) 227.9977 123.9480
8114 42.7258 184(14) 227.5185 123.9329
8115 42.7298 184(14) 227.0711 123.9178
8116 42.7339 184(14) 226.6544 123.9027
8117 42.7379 184(14) 226.2686 123.8875
8118 42.7419 184(14) 225.9139 123.8724
8119 42.7459 183(14) 225.5893 123.8573
8120 42.7500 183(14) 225.2952 123.8422
8121 42.7540 183(14) 225.0314 123.8271
8122 42.7580 184(14) 224.7975 123.8119
8123 42.7621 184(14) 224.5937 123.7968
8124 42.7661 184(14) 224.4197 123.7817
8125 42.7701 184(14) 224.2757 123.7666
8126 42.7742 184(14) 224.1613 123.7514
8127 42.7782 185(14) 224.0766 123.7363
8128 42.7822 185(14) 224.0218 123.7212
8129 42.7863 185(14) 223.9966 123.7060
8130 42.7903 186(14) 224.0013 123.6909
8131 42.7943 186(14) 224.0357 123.6758
8132 42.7984 187(14) 224.1003 123.6607
8133 42.8024 188(14) 224.1949 123.6455
8134 42.8064 188(14) 224.3199 123.6304
8135 42.8104 189(14) 224.5146 123.6153
8136 42.8145 190(14) 224.7009 123.6001
8137 42.8185 191(14) 224.9183 123.5850
8138 42.8225 192(14) 225.1668 123.5699
8139 42.8266 193(14) 225.4474 123.5547
8140 42.8306 194(14) 225.7602 123.5396
8141 42.8346 195(14) 226.1055 123.5245
8142 42.8387 196(14) 226.4844 123.5093
8143 42.8427 197(14) 226.8973 123.4942
8144 42.8467 198(14) 227.3448 123.4791
8145 42.8508 199(14) 227.8272 123.4639
8146 42.8548 200(14) 228.3506 123.4488
8147 42.8588 202(14) 228.9069 123.4337
8148 42.8628 203(14) 229.5007 123.4185
8149 42.8669 205(14) 230.1343 123.4034
8150 42.8709 206(14) 230.8083 123.3882
8151 42.8749 207(14) 231.5231 123.3731
8152 42.8790 209(14) 232.2816 123.3580
8153 42.8830 210(14) 233.0845 123.3428
8154 42.8870 212(15) 233.9331 123.3277
8155 42.8911 214(15) 234.8284 123.3126
8156 42.8951 215(15) 235.7737 123.2974
8157 42.8991 217(15) 236.7698 123.2822
8158 42.9032 219(15) 237.8177 123.2671
8159 42.9072 221(15) 238.9213 123.2520
8160 42.9112 222(15) 240.0815 123.2368
8161 42.9153 224(15) 241.3201 123.2217
8162 42.9193 226(15) 242.5987 123.2065
8163 42.9233 228(15) 243.9414 123.1914
8164 42.9273 230(15) 245.3493 123.1763
8165 42.9314 232(15) 246.8231 123.1611
8166 42.9354 234(15) 248.3675 123.1459
8167 42.9394 236(15) 249.9836 123.1308
8168 42.9435 238(15) 251.6716 123.1157
8169 42.9475 240(15) 253.4366 123.1005
8170 42.9515 243(16) 255.2788 123.0854
8171 42.9556 245(16) 257.2019 123.0702
8172 42.9596 247(16) 259.2014 123.0551
8173 42.9636 249(16) 261.2839 123.0399
8174 42.9677 252(16) 263.4485 123.0248
8175 42.9717 254(16) 265.6935 123.0096
8176 42.9757 256(16) 268.0229 122.9945
8177 42.9797 259(16) 270.4343 122.9793
8178 42.9838 261(16) 272.9240 122.9642
8179 42.9878 264(16) 275.4948 122.9490
8180 42.9918 266(16) 278.1422 122.9338
8181 42.9959 269(16) 280.8255 122.9187
8182 42.9999 271(16) 283.6123 122.9035
8183 43.0039 274(17) 286.4655 122.8884
8184 43.0080 276(17) 289.3766 122.8732
8185 43.0120 279(17) 292.3355 122.8581
8186 43.0160 281(17) 295.3397 122.8429
8187 43.0201 284(17) 298.3771 122.8278
8188 43.0241 286(17) 301.4344 122.8126
8189 43.0281 289(17) 304.5060 122.7974
8190 43.0322 291(17) 307.5765 122.7823
8191 43.0362 294(17) 310.6321 122.7671
8192 43.0402 296(17) 313.6559 122.7520
8193 43.0442 298(17) 316.6381 122.7368
8194 43.0483 301(17) 319.5603 122.7217
8195 43.0523 303(17) 322.4033 122.7065
8196 43.0563 305(17) 325.1562 122.6914
8197 43.0604 307(18) 327.7997 122.6762
8198 43.0644 309(18) 330.3178 122.6610
8199 43.0684 311(18) 332.6926 122.6459
8200 43.0725 313(18) 334.9139 122.6307
8201 43.0765 315(18) 336.9658 122.6155
8202 43.0805 317(18) 338.8343 122.6004
8203 43.0846 318(18) 340.5123 122.5852
8204 43.0886 320(18) 341.9892 122.5700
8205 43.0926 321(18) 343.2570 122.5549
8206 43.0966 323(18) 344.3134 122.5397
8207 43.1007 324(18) 345.1547 122.5246
8208 43.1047 325(18) 345.7803 122.5094
8209 43.1087 326(18) 346.1734 122.4942
8210 43.1128 327(18) 346.3752 122.4791
8211 43.1168 327(18) 346.3722 122.4639
8212 43.1208 328(18) 346.1718 122.4487
8213 43.1249 328(18) 345.7819 122.4336
8214 43.1289 329(18) 345.2119 122.4184
8215 43.1329 329(18) 344.4728 122.4033
8216 43.1370 329(18) 343.5735 122.3881
8217 43.1410 329(18) 342.5255 122.3729
8218 43.1450 329(18) 341.3390 122.3577
8219 43.1490 329(18) 340.0256 122.3426
8220 43.1531 329(18) 338.5923 122.3274
8221 43.1571 328(18) 337.0490 122.3122
8222 43.1611 328(18) 335.4052 122.2971
8223 43.1652 327(18) 333.6647 122.2819
8224 43.1692 326(18) 331.8350 122.2667
8225 43.1732 325(18) 329.9230 122.2515
8226 43.1773 324(18) 327.9292 122.2364
8227 43.1813 323(18) 325.8587 122.2212
8228 43.1853 322(18) 323.7144 122.2060
8229 43.1894 321(18) 321.5007 122.1909
8230 43.1934 319(18) 319.2152 122.1757
8231 43.1974 318(18) 316.8618 122.1605
8232 43.2015 316(18) 314.4446 122.1454
8233 43.2055 315(18) 311.9608 122.1302
8234 43.2095 313(18) 309.4151 122.1150
8235 43.2135 311(18) 306.8098 122.0998
8236 43.2176 309(18) 304.1508 122.0846
8237 43.2216 307(18) 301.4364 122.0695
8238 43.2256 305(17) 298.6733 122.0543
8239 43.2297 303(17) 295.8691 122.0391
8240 43.2337 301(17) 293.0234 122.0240
8241 43.2377 299(17) 290.1447 122.0088
8242 43.2418 297(17) 287.2417 121.9936
8243 43.2458 294(17) 284.3155 121.9784
8244 43.2498 292(17) 281.3753 121.9633
8245 43.2539 290(17) 278.4279 121.9481
8246 43.2579 287(17) 275.4826 121.9329
8247 43.2619 285(17) 272.5406 121.9177
8248 43.2659 283(17) 269.6112 121.9025
8249 43.2700 280(17) 266.7032 121.8874
8250 43.2740 278(17) 263.8170 121.8722
8251 43.2780 275(17) 260.9272 121.8570
8252 43.2821 273(17) 258.1086 121.8418
8253 43.2861 270(16) 255.3268 121.8267
8254 43.2901 268(16) 252.5885 121.8115
8255 43.2942 265(16) 249.8972 121.7963
8256 43.2982 263(16) 247.2586 121.7811
8257 43.3022 260(16) 244.6700 121.7659
8258 43.3063 258(16) 242.1362 121.7508
8259 43.3103 255(16) 239.6609 121.7356
8260 43.3143 253(16) 237.2408 121.7204
8261 43.3184 250(16) 234.8790 121.7052
8262 43.3224 248(16) 232.5781 121.6900
8263 43.3264 245(16) 230.3338 121.6749
8264 43.3304 243(16) 228.1481 121.6597
8265 43.3345 240(15) 226.0206 121.6445
8266 43.3385 238(15) 223.9526 121.6293
8267 43.3425 236(15) 221.9392 121.6141
8268 43.3466 233(15) 219.9814 121.5990
8269 43.3506 231(15) 218.0797 121.5838
8270 43.3546 228(15) 216.2294 121.5686
8271 43.3587 226(15) 214.4308 121.5534
8272 43.3627 224(15) 212.6841 121.5382
8273 43.3667 221(15) 210.9845 121.5230
8274 43.3708 219(15) 209.3322 121.5079
8275 43.3748 217(15) 207.7256 121.4927
8276 43.3788 215(15) 206.1647 121.4775
8277 43.3828 213(15) 204.6449 121.4623
8278 43.3869 210(14) 203.1662 121.4471
8279 43.3909 208(14) 201.7285 121.4319
8280 43.3949 206(14) 200.3110 121.4168
8281 43.3990 204(14) 198.9468 121.4016
8282 43.4030 202(14) 197.6179 121.3864
8283 43.4070 201(14) 196.3243 121.3712
8284 43.4111 199(14) 195.0622 121.3560
8285 43.4151 197(14) 193.8315 121.3408
8286 43.4191 195(14) 192.6323 121.3257
8287 43.4232 194(14) 191.4611 121.3105
8288 43.4272 192(14) 190.3180 121.2953
8289 43.4312 190(14) 189.2030 121.2801
8290 43.4352 189(14) 188.1131 121.2649
8291 43.4393 188(14) 187.0482 121.2497
8292 43.4433 186(14) 186.0077 121.2345
8293 43.4473 185(14) 184.9915 121.2193
8294 43.4514 184(14) 183.9969 121.2041
8295 43.4554 182(13) 183.0243 121.1890
8296 43.4594 181(13) 182.0737 121.1738
8297 43.4635 180(13) 181.1427 121.1586
8298 43.4675 179(13) 180.2316 121.1434
8299 43.4715 178(13) 179.3406 121.1282
8300 43.4756 176(13) 178.4674 121.1130
8301 43.4796 175(13) 177.6124 121.0978
8302 43.4836 174(13) 176.7877 121.0826
8303 43.4877 173(13) 175.9682 121.0675
8304 43.4917 172(13) 175.1647 121.0523
8305 43.4957 171(13) 174.3774 121.0371
8306 43.4997 170(13) 173.6068 121.0219
8307 43.5038 169(13) 172.8508 121.0067
8308 43.5078 168(13) 172.1098 120.9915
8309 43.5118 167(13) 171.3843 120.9763
8310 43.5159 166(13) 170.6725 120.9611
8311 43.5199 165(13) 169.9747 120.9459
8312 43.5239 164(13) 169.2905 120.9307
8313 43.5280 164(13) 168.6204 120.9156
8314 43.5320 163(13) 167.9628 120.9004
8315 43.5360 162(13) 167.3180 120.8852
8316 43.5401 161(13) 166.6863 120.8700
8317 43.5441 160(13) 166.0663 120.8548
8318 43.5481 160(13) 165.4582 120.8396
8319 43.5522 159(13) 164.8620 120.8244
8320 43.5562 158(13) 164.2777 120.8092
8321 43.5602 158(13) 163.7042 120.7940
8322 43.5642 157(13) 163.1417 120.7789
8323 43.5683 157(13) 162.5905 120.7637
8324 43.5723 156(12) 162.0536 120.7485
8325 43.5763 156(12) 161.5227 120.7333
8326 43.5804 155(12) 161.0025 120.7181
8327 43.5844 155(12) 160.4917 120.7029
8328 43.5884 154(12) 159.9968 120.6877
8329 43.5925 154(12) 159.5052 120.6725
8330 43.5965 154(12) 159.0232 120.6573
8331 43.6005 153(12) 158.5500 120.6422
8332 43.6046 153(12) 158.0855 120.6269
8333 43.6086 153(12) 157.6302 120.6118
8334 43.6126 153(12) 157.1830 120.5966
8335 43.6166 153(12) 156.7441 120.5814
8336 43.6207 152(12) 156.3138 120.5662
8337 43.6247 152(12) 155.8910 120.5510
8338 43.6287 152(12) 155.5173 120.5358
8339 43.6328 152(12) 155.1215 120.5206
8340 43.6368 152(12) 154.6962 120.5054
8341 43.6408 152(12) 154.3036 120.4902
8342 43.6449 151(12) 153.9181 120.4750
8343 43.6489 151(12) 153.5399 120.4599
8344 43.6529 151(12) 153.1681 120.4446
8345 43.6570 151(12) 152.8029 120.4295
8346 43.6610 151(12) 152.4446 120.4143
8347 43.6650 151(12) 152.0923 120.3991
8348 43.6690 151(12) 151.7461 120.3839
8349 43.6731 151(12) 151.4061 120.3687
8350 43.6771 151(12) 151.0743 120.3535
8351 43.6811 150(12) 150.7459 120.3383
8352 43.6852 150(12) 150.4231 120.3231
8353 43.6892 150(12) 150.1062 120.3079
8354 43.6932 150(12) 149.7943 120.2927
8355 43.6973 150(12) 149.4877 120.2775
8356 43.7013 150(12) 149.1862 120.2623
8357 43.7053 150(12) 148.8900 120.2471
8358 43.7094 150(12) 148.5985 120.2320
8359 43.7134 149(12) 148.3117 120.2168
8360 43.7174 149(12) 148.0299 120.2016
8361 43.7215 149(12) 147.7524 120.1864
8362 43.7255 149(12) 147.4794 120.1712
8363 43.7295 149(12) 147.2110 120.1560
8364 43.7335 148(12) 146.9671 120.1408
8365 43.7376 148(12) 146.7126 120.1256
8366 43.7416 148(12) 146.4565 120.1104
8367 43.7456 148(12) 146.2047 120.0953
8368 43.7497 148(12) 145.9564 120.0800
8369 43.7537 147(12) 145.6992 120.0648
8370 43.7577 147(12) 145.4641 120.0497
8371 43.7618 147(12) 145.2271 120.0345
8372 43.7658 146(12) 144.9937 120.0193
8373 43.7698 146(12) 144.7639 120.0041
8374 43.7739 146(12) 144.5374 119.9889
8375 43.7779 146(12) 144.3142 119.9737
8376 43.7819 145(12) 144.0942 119.9585
8377 43.7859 145(12) 143.8777 119.9433
8378 43.7900 145(12) 143.6640 119.9281
8379 43.7940 144(12) 143.4535 119.9129
8380 43.7980 144(12) 143.2461 119.8977
8381 43.8021 144(12) 143.0414 119.8826
8382 43.8061 144(12) 142.8396 119.8673
8383 43.8101 144(12) 142.6408 119.8522
8384 43.8142 143(12) 142.4446 119.8370
8385 43.8182 143(12) 142.2511 119.8218
8386 43.8222 143(12) 142.0602 119.8066
8387 43.8263 143(12) 141.8721 119.7914
8388 43.8303 143(12) 141.6863 119.7762
8389 43.8343 143(12) 141.5030 119.7610
8390 43.8383 143(12) 141.3223 119.7458
8391 43.8424 143(12) 141.1438 119.7306
8392 43.8464 143(12) 140.9676 119.7154
8393 43.8504 143(12) 140.7938 119.7002
8394 43.8545 142(12) 140.6223 119.6851
8395 43.8585 142(12) 140.4529 119.6699
8396 43.8625 142(12) 140.2883 119.6547
8397 43.8666 142(12) 140.1233 119.6395
8398 43.8706 142(12) 139.9602 119.6243
8399 43.8746 142(12) 139.7991 119.6091
8400 43.8787 142(12) 139.6402 119.5939
8401 43.8827 142(12) 139.4831 119.5787
8402 43.8867 142(12) 139.3279 119.5636
8403 43.8908 142(12) 139.1747 119.5484
8404 43.8948 142(12) 139.0234 119.5332
8405 43.8988 141(12) 138.8737 119.5180
8406 43.9028 141(12) 138.7259 119.5028
8407 43.9069 141(12) 138.5799 119.4876
8408 43.9109 141(12) 138.4356 119.4724
8409 43.9149 141(12) 138.2929 119.4572
8410 43.9190 141(12) 138.1520 119.4420
8411 43.9230 141(12) 138.0125 119.4268
8412 43.9270 140(12) 137.8748 119.4117
8413 43.9311 140(12) 137.7385 119.3965
8414 43.9351 140(12) 137.6040 119.3813
8415 43.9391 140(12) 137.4708 119.3661
8416 43.9432 140(12) 137.3391 119.3509
8417 43.9472 140(12) 137.2090 119.3357
8418 43.9512 140(12) 137.0802 119.3205
8419 43.9552 140(12) 136.9528 119.3053
8420 43.9593 140(12) 136.8269 119.2902
8421 43.9633 140(12) 136.7023 119.2750
8422 43.9673 140(12) 136.5790 119.2598
8423 43.9714 140(12) 136.4571 119.2446
8424 43.9754 140(12) 136.3365 119.2294
8425 43.9794 140(12) 136.2172 119.2142
8426 43.9835 140(12) 136.0990 119.1990
8427 43.9875 140(12) 135.9822 119.1839
8428 43.9915 140(12) 135.8666 119.1687
8429 43.9956 140(12) 135.7521 119.1535
8430 43.9996 140(12) 135.6389 119.1383
8431 44.0036 140(12) 135.5268 119.1231
8432 44.0077 140(12) 135.4157 119.1079
8433 44.0117 140(12) 135.3059 119.0927
8434 44.0157 140(12) 135.1972 119.0776
8435 44.0197 140(12) 135.0895 119.0624
8436 44.0238 141(12) 134.9829 119.0472
8437 44.0278 141(12) 134.8774 119.0320
8438 44.0318 141(12) 134.7729 119.0168
8439 44.0359 141(12) 134.6694 119.0016
8440 44.0399 141(12) 134.5669 118.9865
8441 44.0439 141(12) 134.4655 118.9713
8442 44.0480 141(12) 134.3649 118.9561
8443 44.0520 142(12) 134.2654 118.9409
8444 44.0560 142(12) 134.1668 118.9257
8445 44.0601 142(12) 134.0692 118.9105
8446 44.0641 142(12) 133.9724 118.8954
8447 44.0681 142(12) 133.8766 118.8802
8448 44.0721 142(12) 133.7816 118.8650
8449 44.0762 142(12) 133.6875 118.8498
8450 44.0802 142(12) 133.5943 118.8346
8451 44.0842 142(12) 133.5020 118.8195
8452 44.0883 142(12) 133.4105 118.8043
8453 44.0923 143(12) 133.3198 118.7891
8454 44.0963 143(12) 133.2300 118.7739
8455 44.1004 143(12) 133.1410 118.7588
8456 44.1044 143(12) 133.0527 118.7435
8457 44.1084 143(12) 132.9653 118.7284
8458 44.1125 143(12) 132.8786 118.7132
8459 44.1165 143(12) 132.7926 118.6980
8460 44.1205 143(12) 132.7075 118.6828
8461 44.1245 143(12) 132.6231 118.6677
8462 44.1286 143(12) 132.5394 118.6525
8463 44.1326 142(12) 132.4565 118.6373
8464 44.1366 142(12) 132.3743 118.6221
8465 44.1407 142(12) 132.2927 118.6069
8466 44.1447 142(12) 132.2118 118.5918
8467 44.1487 142(12) 132.1317 118.5766
8468 44.1528 142(12) 132.0522 118.5614
8469 44.1568 142(12) 131.9734 118.5462
8470 44.1608 142(12) 131.8952 118.5311
8471 44.1649 142(12) 131.8178 118.5159
8472 44.1689 142(12) 131.7409 118.5007
8473 44.1729 142(12) 131.6647 118.4855
8474 44.1770 142(12) 131.5892 118.4704
8475 44.1810 142(12) 131.5470 118.4552
8476 44.1850 142(12) 131.4726 118.4400
8477 44.1890 142(12) 131.3989 118.4248
8478 44.1931 141(12) 131.3259 118.4097
8479 44.1971 141(12) 131.2533 118.3945
8480 44.2011 141(12) 131.1814 118.3793
8481 44.2052 141(12) 131.1100 118.3642
8482 44.2092 141(12) 131.0393 118.3490
8483 44.2132 141(12) 130.9690 118.3338
8484 44.2173 141(12) 130.8994 118.3186
8485 44.2213 141(12) 130.8303 118.3035
8486 44.2253 141(12) 130.7617 118.2883
8487 44.2294 141(12) 130.6937 118.2731
8488 44.2334 141(12) 130.6262 118.2579
8489 44.2374 141(12) 130.5592 118.2428
8490 44.2415 141(12) 130.4928 118.2276
8491 44.2455 141(12) 130.4269 118.2125
8492 44.2495 141(12) 130.3615 118.1973
8493 44.2535 141(12) 130.2966 118.1821
8494 44.2576 141(12) 130.2322 118.1670
8495 44.2616 141(12) 130.1683 118.1518
8496 44.2656 141(12) 130.1049 118.1366
8497 44.2697 141(12) 130.0419 118.1214
8498 44.2737 141(12) 129.9795 118.1063
8499 44.2777 141(12) 129.9175 118.0911
8500 44.2818 141(12) 129.8560 118.0759
8501 44.2858 141(12) 129.7949 118.0608
8502 44.2898 141(12) 129.7506 118.0456
8503 44.2939 141(12) 129.6905 118.0304
8504 44.2979 141(12) 129.6308 118.0153
8505 44.3019 141(12) 129.5716 118.0001
8506 44.3059 141(12) 129.5128 117.9849
8507 44.3100 141(12) 129.4545 117.9698
8508 44.3140 140(12) 129.3966 117.9546
8509 44.3180 140(12) 129.3391 117.9395
8510 44.3221 140(12) 129.2821 117.9243
8511 44.3261 140(12) 129.2255 117.9091
8512 44.3301 140(12) 129.1693 117.8940
8513 44.3342 140(12) 129.1135 117.8788
8514 44.3382 140(12) 129.0581 117.8636
8515 44.3422 140(12) 129.0031 117.8485
8516 44.3463 140(12) 128.9486 117.8333
8517 44.3503 139(12) 128.8944 117.8182
8518 44.3543 139(12) 128.8407 117.8030
8519 44.3583 139(12) 128.7873 117.7879
8520 44.3624 139(12) 128.7343 117.7727
8521 44.3664 139(12) 128.6818 117.7576
8522 44.3704 139(12) 128.6296 117.7424
8523 44.3745 139(12) 128.5778 117.7272
8524 44.3785 139(12) 128.5263 117.7121
8525 44.3825 138(12) 128.4762 117.6969
8526 44.3866 138(12) 128.4255 117.6818
8527 44.3906 138(12) 128.3751 117.6666
8528 44.3946 138(12) 128.3253 117.6515
8529 44.3987 138(12) 128.2757 117.6363
8530 44.4027 138(12) 128.2265 117.6211
8531 44.4067 138(12) 128.1777 117.6060
8532 44.4108 138(12) 128.1292 117.5908
8533 44.4148 138(12) 128.0811 117.5757
8534 44.4188 137(12) 128.0333 117.5605
8535 44.4228 137(12) 127.9860 117.5454
8536 44.4269 137(12) 127.9389 117.5302
8537 44.4309 137(12) 127.8922 117.5151
8538 44.4349 137(12) 127.8591 117.4999
8539 44.4390 137(12) 127.8130 117.4848
8540 44.4430 137(12) 127.7674 117.4696
8541 44.4470 137(12) 127.7221 117.4545
8542 44.4511 137(12) 127.6772 117.4393
8543 44.4551 137(12) 127.6326 117.4242
8544 44.4591 136(12) 127.5883 117.4090
8545 44.4632 136(12) 127.5444 117.3939
8546 44.4672 136(12) 127.5008 117.3787
8547 44.4712 136(12) 127.4575 117.3636
8548 44.4752 136(12) 127.4146 117.3484
8549 44.4793 136(12) 127.3720 117.3333
8550 44.4833 136(12) 127.3297 117.3181
8551 44.4873 136(12) 127.2878 117.3030
8552 44.4914 136(12) 127.2466 117.2879
8553 44.4954 136(12) 127.2053 117.2727
8554 44.4994 135(12) 127.1644 117.2576
8555 44.5035 135(12) 127.1238 117.2425
8556 44.5075 135(12) 127.0835 117.2273
8557 44.5115 135(12) 127.0435 117.2122
8558 44.5156 135(12) 127.0039 117.1970
8559 44.5196 135(12) 126.9645 117.1819
8560 44.5236 135(12) 126.9255 117.1667
8561 44.5277 135(12) 126.8868 117.1516
8562 44.5317 134(12) 126.8485 117.1365
8563 44.5357 134(12) 126.8104 117.1213
8564 44.5397 134(12) 126.7792 117.1062
8565 44.5438 134(12) 126.7418 117.0910
8566 44.5478 134(12) 126.7048 117.0759
8567 44.5518 134(12) 126.6680 117.0608
8568 44.5559 133(12) 126.6315 117.0456
8569 44.5599 133(12) 126.5954 117.0305
8570 44.5639 133(12) 126.5595 117.0154
8571 44.5680 133(12) 126.5240 117.0002
8572 44.5720 133(12) 126.4888 116.9851
8573 44.5760 133(12) 126.4539 116.9700
8574 44.5801 133(12) 126.4193 116.9548
8575 44.5841 132(11) 126.3851 116.9397
8576 44.5881 132(11) 126.3512 116.9246
8577 44.5921 132(11) 126.3175 116.9094
8578 44.5962 132(11) 126.2842 116.8943
8579 44.6002 132(11) 126.2512 116.8792
8580 44.6042 132(11) 126.2184 116.8640
8581 44.6083 132(11) 126.1861 116.8489
8582 44.6123 132(11) 126.1540 116.8338
8583 44.6163 132(11) 126.1222 116.8187
8584 44.6204 132(11) 126.0907 116.8035
8585 44.6244 132(11) 126.0596 116.7884
8586 44.6284 132(11) 126.0288 116.7733
8587 44.6325 132(11) 125.9982 116.7582
8588 44.6365 132(11) 125.9680 116.7430
8589 44.6405 132(11) 125.9381 116.7279
8590 44.6446 132(11) 125.9086 116.7128
8591 44.6486 132(11) 125.8793 116.6977
8592 44.6526 133(12) 125.8504 116.6826
8593 44.6566 133(12) 125.8218 116.6674
8594 44.6607 133(12) 125.7935 116.6523
8595 44.6647 133(12) 125.7655 116.6372
8596 44.6687 133(12) 125.7379 116.6221
8597 44.6728 133(12) 125.7106 116.6070
8598 44.6768 133(12) 125.6836 116.5918
8599 44.6808 133(12) 125.6570 116.5767
8600 44.6849 133(12) 125.6308 116.5616
8601 44.6889 134(12) 125.6049 116.5465
8602 44.6929 134(12) 125.5793 116.5314
8603 44.6970 134(12) 125.5541 116.5163
8604 44.7010 134(12) 125.5293 116.5012
8605 44.7050 134(12) 125.5049 116.4860
8606 44.7090 134(12) 125.4808 116.4709
8607 44.7131 134(12) 125.4572 116.4558
8608 44.7171 134(12) 125.4339 116.4407
8609 44.7211 134(12) 125.4111 116.4256
8610 44.7252 134(12) 125.3887 116.4105
8611 44.7292 134(12) 125.3667 116.3954
8612 44.7332 134(12) 125.3452 116.3803
8613 44.7373 135(12) 125.3241 116.3652
8614 44.7413 135(12) 125.3035 116.3500
8615 44.7453 135(12) 125.2833 116.3349
8616 44.7494 135(12) 125.2637 116.3198
8617 44.7534 135(12) 125.2446 116.3047
8618 44.7574 135(12) 125.2260 116.2896
8619 44.7614 135(12) 125.2080 116.2745
8620 44.7655 135(12) 125.1905 116.2594
8621 44.7695 135(12) 125.1735 116.2443
8622 44.7735 135(12) 125.1572 116.2292
8623 44.7776 135(12) 125.1414 116.2141
8624 44.7816 135(12) 125.1263 116.1990
8625 44.7856 135(12) 125.1118 116.1839
8626 44.7897 135(12) 125.0979 116.1688
8627 44.7937 135(12) 125.0847 116.1537
8628 44.7977 135(12) 125.0722 116.1386
8629 44.8018 135(12) 125.0603 116.1235
8630 44.8058 135(12) 125.0491 116.1084
8631 44.8098 135(12) 125.0387 116.0933
8632 44.8139 135(12) 125.0289 116.0782
8633 44.8179 135(12) 125.0198 116.0631
8634 44.8219 135(12) 125.0114 116.0480
8635 44.8259 135(12) 125.0036 116.0329
8636 44.8300 135(12) 124.9966 116.0178
8637 44.8340 135(12) 124.9902 116.0028
8638 44.8380 135(12) 124.9845 115.9877
8639 44.8421 135(12) 124.9794 115.9726
8640 44.8461 135(12) 124.9647 115.9575
8641 44.8501 135(12) 124.9608 115.9424
8642 44.8542 135(12) 124.9574 115.9273
8643 44.8582 135(12) 124.9545 115.9122
8644 44.8622 134(12) 124.9520 115.8971
8645 44.8663 134(12) 124.9499 115.8820
8646 44.8703 134(12) 124.9480 115.8670
8647 44.8743 134(12) 124.9464 115.8519
8648 44.8783 134(12) 124.9450 115.8368
8649 44.8824 134(12) 124.9436 115.8217
8650 44.8864 133(12) 124.9421 115.8066
8651 44.8904 133(12) 124.9406 115.7915
8652 44.8945 133(12) 124.9388 115.7765
8653 44.8985 133(12) 124.9367 115.7614
8654 44.9025 133(12) 124.9342 115.7463
8655 44.9066 132(11) 124.9312 115.7312
8656 44.9106 132(11) 124.9276 115.7162
8657 44.9146 132(11) 124.9233 115.7011
8658 44.9187 132(11) 124.9181 115.6860
8659 44.9227 132(11) 124.9120 115.6709
8660 44.9267 132(11) 124.9050 115.6559
8661 44.9308 131(11) 124.8970 115.6408
8662 44.9348 131(11) 124.8878 115.6257
8663 44.9388 131(11) 124.8776 115.6106
8664 44.9428 131(11) 124.8661 115.5956
8665 44.9469 131(11) 124.8534 115.5805
8666 44.9509 131(11) 124.8396 115.5654
8667 44.9549 131(11) 124.8245 115.5504
8668 44.9590 131(11) 124.8082 115.5353
8669 44.9630 131(11) 124.7908 115.5202
8670 44.9670 131(11) 124.7672 115.5052
8671 44.9711 131(11) 124.7475 115.4901
8672 44.9751 131(11) 124.7268 115.4750
8673 44.9791 131(11) 124.7052 115.4600
8674 44.9832 131(11) 124.6826 115.4449
8675 44.9872 131(11) 124.6592 115.4298
8676 44.9912 131(11) 124.6350 115.4148
8677 44.9952 131(11) 124.6101 115.3997
8678 44.9993 131(11) 124.5846 115.3846
8679 45.0033 131(11) 124.5584 115.3696
8680 45.0073 131(11) 124.5317 115.3545
8681 45.0114 132(11) 124.5046 115.3395
8682 45.0154 132(11) 124.4770 115.3244
8683 45.0194 132(11) 124.4490 115.3093
8684 45.0235 132(11) 124.4207 115.2943
8685 45.0275 132(11) 124.3920 115.2792
8686 45.0315 132(11) 124.3631 115.2642
8687 45.0356 132(11) 124.3339 115.2491
8688 45.0396 132(11) 124.3044 115.2341
8689 45.0436 133(12) 124.2747 115.2190
8690 45.0476 133(12) 124.2448 115.2040
8691 45.0517 133(12) 124.2146 115.1889
8692 45.0557 133(12) 124.1843 115.1739
8693 45.0597 133(12) 124.1537 115.1588
8694 45.0638 133(12) 124.1230 115.1438
8695 45.0678 133(12) 124.0922 115.1287
8696 45.0718 133(12) 124.0612 115.1137
8697 45.0759 133(12) 124.0301 115.0986
8698 45.0799 133(12) 123.9989 115.0836
8699 45.0839 133(12) 123.9677 115.0686
8700 45.0880 133(12) 123.9364 115.0535
8701 45.0920 133(12) 123.9052 115.0385
8702 45.0960 133(12) 123.8740 115.0234
8703 45.1001 133(12) 123.8429 115.0084
8704 45.1041 133(12) 123.8120 114.9934
8705 45.1081 133(12) 123.7812 114.9783
8706 45.1121 133(12) 123.7507 114.9633
8707 45.1162 133(12) 123.7204 114.9483
8708 45.1202 133(12) 123.6904 114.9332
8709 45.1242 133(12) 123.6608 114.9182
8710 45.1283 134(12) 123.6316 114.9032
8711 45.1323 134(12) 123.6027 114.8881
8712 45.1363 134(12) 123.5743 114.8731
8713 45.1404 134(12) 123.5465 114.8581
8714 45.1444 134(12) 123.5191 114.8430
8715 45.1484 134(12) 123.4922 114.8280
8716 45.1525 134(12) 123.4660 114.8130
8717 45.1565 134(12) 123.4403 114.7979
8718 45.1605 134(12) 123.4153 114.7829
8719 45.1646 134(12) 123.3909 114.7679
8720 45.1686 134(12) 123.3671 114.7529
8721 45.1726 134(12) 123.3439 114.7379
8722 45.1766 134(12) 123.3214 114.7228
8723 45.1807 134(12) 123.2996 114.7078
8724 45.1847 134(12) 123.2785 114.6928
8725 45.1887 134(12) 123.2580 114.6778
8726 45.1928 134(12) 123.2382 114.6628
8727 45.1968 134(12) 123.2191 114.6477
8728 45.2008 134(12) 123.2007 114.6327
8729 45.2049 133(12) 123.1829 114.6177
8730 45.2089 133(12) 123.1658 114.6027
8731 45.2129 133(12) 123.1493 114.5877
8732 45.2170 133(12) 123.1336 114.5727
8733 45.2210 133(12) 123.1185 114.5577
8734 45.2250 133(12) 123.1040 114.5427
8735 45.2290 133(12) 123.0903 114.5276
8736 45.2331 133(12) 123.0771 114.5126
8737 45.2371 133(12) 123.0647 114.4976
8738 45.2411 133(12) 123.0529 114.4826
8739 45.2452 133(12) 123.0417 114.4676
8740 45.2492 133(12) 123.0312 114.4526
8741 45.2532 133(12) 123.0213 114.4376
8742 45.2573 133(12) 123.0121 114.4226
8743 45.2613 133(12) 123.0035 114.4076
8744 45.2653 133(12) 122.9956 114.3926
8745 45.2694 133(12) 122.9883 114.3776
8746 45.2734 133(12) 122.9816 114.3626
8747 45.2774 133(12) 122.9756 114.3476
8748 45.2814 133(12) 122.9703 114.3326
8749 45.2855 133(12) 122.9656 114.3176
8750 45.2895 133(12) 122.9616 114.3026
8751 45.2935 133(12) 122.9582 114.2876
8752 45.2976 133(12) 122.9555 114.2726
8753 45.3016 133(12) 122.9534 114.2576
8754 45.3056 133(12) 122.9520 114.2427
8755 45.3097 133(12) 122.9513 114.2277
8756 45.3137 133(12) 122.9512 114.2127
8757 45.3177 133(12) 122.9519 114.1977
8758 45.3218 133(12) 122.9532 114.1827
8759 45.3258 133(12) 122.9551 114.1677
8760 45.3298 133(12) 122.9578 114.1527
8761 45.3339 133(12) 122.9612 114.1377
8762 45.3379 133(12) 122.9652 114.1228
8763 45.3419 133(12) 122.9699 114.1078
8764 45.3459 133(12) 122.9753 114.0928
8765 45.3500 133(12) 122.9814 114.0778
8766 45.3540 133(12) 122.9881 114.0628
8767 45.3580 133(12) 122.9955 114.0479
8768 45.3621 133(12) 123.0035 114.0329
8769 45.3661 132(11) 123.0122 114.0179
8770 45.3701 132(11) 123.0215 114.0029
8771 45.3742 132(11) 123.0314 113.9880
8772 45.3782 132(11) 123.0419 113.9730
8773 45.3822 132(11) 123.0531 113.9580
8774 45.3863 132(11) 123.0647 113.9431
8775 45.3903 132(11) 123.0770 113.9281
8776 45.3943 132(11) 123.0897 113.9131
8777 45.3983 131(11) 123.0410 113.8981
8778 45.4024 131(11) 123.0549 113.8832
8779 45.4064 131(11) 123.0692 113.8682
8780 45.4104 131(11) 123.0840 113.8533
8781 45.4145 131(11) 123.0992 113.8383
8782 45.4185 131(11) 123.1147 113.8233
8783 45.4225 131(11) 123.1307 113.8084
8784 45.4266 131(11) 123.1470 113.7934
8785 45.4306 131(11) 123.1637 113.7785
8786 45.4346 131(11) 123.1807 113.7635
8787 45.4387 131(11) 123.1981 113.7486
8788 45.4427 131(11) 123.2157 113.7336
8789 45.4467 131(11) 123.2337 113.7187
8790 45.4507 131(11) 123.2519 113.7037
8791 45.4548 131(11) 123.2705 113.6888
8792 45.4588 131(11) 123.2895 113.6738
8793 45.4628 131(11) 123.3087 113.6588
8794 45.4669 131(11) 123.3283 113.6439
8795 45.4709 131(11) 123.3483 113.6290
8796 45.4749 132(11) 123.3686 113.6140
8797 45.4790 132(11) 123.3894 113.5991
8798 45.4830 132(11) 123.4106 113.5841
8799 45.4870 132(11) 123.4323 113.5692
8800 45.4911 132(11) 123.4544 113.5542
8801 45.4951 132(11) 123.4771 113.5393
8802 45.4991 133(12) 123.5003 113.5244
8803 45.5032 133(12) 123.5242 113.5094
8804 45.5072 133(12) 123.5486 113.4945
8805 45.5112 133(12) 123.5737 113.4795
8806 45.5152 133(12) 123.5994 113.4646
8807 45.5193 133(12) 123.6259 113.4497
8808 45.5233 134(12) 123.6223 113.4348
8809 45.5273 134(12) 123.6503 113.4198
8810 45.5314 134(12) 123.6791 113.4049
8811 45.5354 134(12) 123.7087 113.3900
8812 45.5394 134(12) 123.7391 113.3750
8813 45.5435 134(12) 123.7704 113.3601
8814 45.5475 134(12) 123.8026 113.3452
8815 45.5515 134(12) 123.8357 113.3303
8816 45.5556 134(12) 123.8697 113.3153
8817 45.5596 134(12) 123.9047 113.3004
8818 45.5636 134(12) 123.9407 113.2855
8819 45.5676 134(12) 123.9982 113.2706
8820 45.5717 134(12) 124.0363 113.2557
8821 45.5757 134(12) 124.0755 113.2407
8822 45.5797 134(12) 124.1158 113.2258
8823 45.5838 134(12) 124.1573 113.2109
8824 45.5878 134(12) 124.2000 113.1960
8825 45.5918 134(12) 124.2439 113.1811
8826 45.5959 134(12) 124.2892 113.1662
8827 45.5999 134(12) 124.3357 113.1513
8828 45.6039 134(12) 124.4593 113.1364
8829 45.6080 133(12) 124.5088 113.1215
8830 45.6120 133(12) 124.5599 113.1066
8831 45.6160 133(12) 124.6124 113.0917
8832 45.6201 133(12) 124.6667 113.0767
8833 45.6241 133(12) 124.7226 113.0618
8834 45.6281 133(12) 124.7803 113.0470
8835 45.6321 133(12) 124.8398 113.0320
8836 45.6362 133(12) 124.9013 113.0172
8837 45.6402 133(12) 124.9646 113.0023
8838 45.6442 133(12) 125.0300 112.9874
8839 45.6483 133(12) 125.0975 112.9725
8840 45.6523 134(12) 125.1672 112.9576
8841 45.6563 134(12) 125.2390 112.9427
8842 45.6604 134(12) 125.3133 112.9278
8843 45.6644 134(12) 125.3898 112.9129
8844 45.6684 134(12) 125.4688 112.8980
8845 45.6725 135(12) 125.5504 112.8831
8846 45.6765 135(12) 125.6447 112.8682
8847 45.6805 135(12) 125.7314 112.8533
8848 45.6845 135(12) 125.8209 112.8385
8849 45.6886 136(12) 125.9131 112.8236
8850 45.6926 136(12) 126.0081 112.8087
8851 45.6966 136(12) 126.1059 112.7938
8852 45.7007 137(12) 126.2067 112.7789
8853 45.7047 137(12) 126.3104 112.7640
8854 45.7087 138(12) 126.4171 112.7492
8855 45.7128 138(12) 126.5642 112.7343
8856 45.7168 138(12) 126.6770 112.7194
8857 45.7208 139(12) 126.7926 112.7046
8858 45.7249 139(12) 126.9113 112.6897
8859 45.7289 139(12) 127.0330 112.6748
8860 45.7329 140(12) 127.1577 112.6599
8861 45.7369 140(12) 127.2852 112.6451
8862 45.7410 140(12) 127.4156 112.6302
8863 45.7450 140(12) 127.5489 112.6153
8864 45.7490 141(12) 127.6847 112.6005
8865 45.7531 141(12) 127.8232 112.5856
8866 45.7571 141(12) 127.9642 112.5708
8867 45.7611 141(12) 128.1075 112.5559
8868 45.7652 142(12) 128.2652 112.5410
8869 45.7692 142(12) 128.4128 112.5262
8870 45.7732 142(12) 128.5623 112.5113
8871 45.7773 142(12) 128.7133 112.4965
8872 45.7813 142(12) 128.8660 112.4816
8873 45.7853 142(12) 129.0199 112.4668
8874 45.7894 143(12) 129.1748 112.4519
8875 45.7934 143(12) 129.3307 112.4371
8876 45.7974 143(12) 129.4872 112.4222
8877 45.8014 143(12) 129.6442 112.4074
8878 45.8055 143(12) 129.8013 112.3925
8879 45.8095 143(12) 129.9585 112.3777
8880 45.8135 143(12) 130.1156 112.3629
8881 45.8176 144(12) 130.2722 112.3480
8882 45.8216 144(12) 130.4285 112.3332
8883 45.8256 144(12) 130.5842 112.3183
8884 45.8297 144(12) 130.7392 112.3035
8885 45.8337 144(12) 130.8935 112.2887
8886 45.8377 144(12) 131.0471 112.2738
8887 45.8418 144(12) 131.1998 112.2590
8888 45.8458 144(12) 131.3517 112.2442
8889 45.8498 144(12) 131.5029 112.2293
8890 45.8539 145(12) 131.6535 112.2145
8891 45.8579 145(12) 131.8035 112.1997
8892 45.8619 145(12) 131.9531 112.1849
8893 45.8659 145(12) 132.1024 112.1700
8894 45.8700 145(12) 132.2514 112.1552
8895 45.8740 145(12) 132.4067 112.1404
8896 45.8780 145(12) 132.5562 112.1256
8897 45.8821 145(12) 132.7060 112.1107
8898 45.8861 145(12) 132.8563 112.0959
8899 45.8901 145(12) 133.0075 112.0811
8900 45.8942 145(12) 133.1597 112.0663
8901 45.8982 145(12) 133.3072 112.0515
8902 45.9022 145(12) 133.4619 112.0367
8903 45.9063 145(12) 133.6181 112.0218
8904 45.9103 145(12) 133.7759 112.0070
8905 45.9143 144(12) 133.9356 111.9922
8906 45.9183 144(12) 134.0974 111.9774
8907 45.9224 144(12) 134.2613 111.9626
8908 45.9264 144(12) 134.4274 111.9478
8909 45.9304 144(12) 134.5961 111.9330
8910 45.9345 144(12) 134.7674 111.9182
8911 45.9385 144(12) 134.9444 111.9034
8912 45.9425 144(12) 135.1214 111.8886
8913 45.9466 144(12) 135.3015 111.8738
8914 45.9506 144(12) 135.4850 111.8590
8915 45.9546 144(12) 135.6717 111.8442
8916 45.9587 144(12) 135.8623 111.8294
8917 45.9627 144(12) 136.0570 111.8146
8918 45.9667 144(12) 136.2556 111.7998
8919 45.9707 144(12) 136.4590 111.7851
8920 45.9748 144(12) 136.6673 111.7703
8921 45.9788 144(12) 136.8805 111.7555
8922 45.9828 144(12) 137.0995 111.7407
8923 45.9869 144(12) 137.3244 111.7259
8924 45.9909 144(12) 137.5558 111.7111
8925 45.9949 144(12) 137.8142 111.6964
8926 45.9990 144(12) 138.0596 111.6816
8927 46.0030 144(12) 138.3128 111.6668
8928 46.0070 145(12) 138.5740 111.6520
8929 46.0111 145(12) 138.8443 111.6373
8930 46.0151 145(12) 139.1239 111.6225
8931 46.0191 146(12) 139.4132 111.6077
8932 46.0232 146(12) 139.7104 111.5929
8933 46.0272 146(12) 140.0215 111.5782
8934 46.0312 147(12) 140.3443 111.5634
8935 46.0352 147(12) 140.6790 111.5486
8936 46.0393 148(12) 141.0269 111.5339
8937 46.0433 149(12) 141.3881 111.5191
8938 46.0473 149(12) 141.7647 111.5043
8939 46.0514 150(12) 142.1546 111.4896
8940 46.0554 150(12) 142.5597 111.4748
8941 46.0594 151(12) 142.9800 111.4601
8942 46.0635 152(12) 143.4170 111.4453
8943 46.0675 152(12) 143.8706 111.4306
8944 46.0715 153(12) 144.3412 111.4158
8945 46.0756 154(12) 144.8289 111.4011
8946 46.0796 154(12) 145.3348 111.3863
8947 46.0836 155(12) 145.8588 111.3715
8948 46.0876 156(12) 146.4004 111.3568
8949 46.0917 156(12) 146.9609 111.3421
8950 46.0957 157(13) 147.5396 111.3273
8951 46.0997 157(13) 148.1364 111.3126
8952 46.1038 158(13) 148.7608 111.2979
8953 46.1078 159(13) 149.3931 111.2831
8954 46.1118 159(13) 150.0423 111.2684
8955 46.1159 160(13) 150.7072 111.2536
8956 46.1199 160(13) 151.3882 111.2389
8957 46.1239 161(13) 152.0835 111.2242
8958 46.1280 161(13) 152.7913 111.2094
8959 46.1320 161(13) 153.5114 111.1947
8960 46.1360 162(13) 154.2416 111.1800
8961 46.1401 162(13) 154.9801 111.1652
8962 46.1441 162(13) 155.7240 111.1505
8963 46.1481 163(13) 156.4725 111.1358
8964 46.1521 163(13) 157.2224 111.1211
8965 46.1562 163(13) 157.9704 111.1064
8966 46.1602 163(13) 158.7151 111.0916
8967 46.1642 164(13) 159.4528 111.0769
8968 46.1683 164(13) 160.1797 111.0622
8969 46.1723 164(13) 160.8940 111.0475
8970 46.1763 164(13) 161.5916 111.0328
8971 46.1804 164(13) 162.2692 111.0181
8972 46.1844 164(13) 162.9230 111.0034
8973 46.1884 165(13) 163.5509 110.9887
8974 46.1925 165(13) 164.1491 110.9739
8975 46.1965 165(13) 164.7142 110.9592
8976 46.2005 165(13) 165.2442 110.9445
8977 46.2045 165(13) 165.7363 110.9298
8978 46.2086 165(13) 166.1875 110.9151
8979 46.2126 165(13) 166.5967 110.9004
8980 46.2166 166(13) 166.9620 110.8857
8981 46.2207 166(13) 167.2820 110.8710
8982 46.2247 166(13) 167.5556 110.8563
8983 46.2287 166(13) 167.7828 110.8417
8984 46.2328 166(13) 167.9633 110.8269
8985 46.2368 166(13) 168.0972 110.8123
8986 46.2408 167(13) 168.1854 110.7976
8987 46.2449 167(13) 168.2288 110.7829
8988 46.2489 167(13) 168.2287 110.7682
8989 46.2529 167(13) 168.1867 110.7535
8990 46.2570 167(13) 168.1043 110.7388
8991 46.2610 167(13) 167.9837 110.7242
8992 46.2650 167(13) 167.8270 110.7095
8993 46.2690 168(13) 167.6359 110.6948
8994 46.2731 168(13) 167.4129 110.6801
8995 46.2771 168(13) 167.1601 110.6655
8996 46.2811 168(13) 166.8792 110.6508
8997 46.2852 168(13) 166.5723 110.6361
8998 46.2892 168(13) 166.2462 110.6215
8999 46.2932 168(13) 165.8929 110.6068
9000 46.2973 168(13) 165.5183 110.5921
9001 46.3013 168(13) 165.1240 110.5774
9002 46.3053 168(13) 164.7116 110.5628
9003 46.3094 168(13) 164.2812 110.5481
9004 46.3134 168(13) 163.8340 110.5335
9005 46.3174 167(13) 163.3713 110.5188
9006 46.3214 167(13) 162.8927 110.5041
9007 46.3255 167(13) 162.3992 110.4895
9008 46.3295 167(13) 161.8912 110.4748
9009 46.3335 167(13) 161.3697 110.4602
9010 46.3376 166(13) 160.8340 110.4456
9011 46.3416 166(13) 160.2850 110.4309
9012 46.3456 166(13) 159.7238 110.4163
9013 46.3497 166(13) 159.1499 110.4016
9014 46.3537 165(13) 158.5643 110.3870
9015 46.3577 165(13) 157.9682 110.3723
9016 46.3618 164(13) 157.3614 110.3577
9017 46.3658 164(13) 156.7452 110.3430
9018 46.3698 164(13) 156.1207 110.3284
9019 46.3738 163(13) 155.4893 110.3138
9020 46.3779 163(13) 154.8512 110.2991
9021 46.3819 162(13) 154.2080 110.2845
9022 46.3859 162(13) 153.5615 110.2699
9023 46.3900 161(13) 152.9118 110.2552
9024 46.3940 161(13) 152.2609 110.2406
9025 46.3980 160(13) 151.5990 110.2260
9026 46.4021 159(13) 150.9519 110.2114
9027 46.4061 159(13) 150.3048 110.1968
9028 46.4101 158(13) 149.6615 110.1821
9029 46.4142 157(13) 149.0237 110.1675
9030 46.4182 157(13) 148.3913 110.1529
9031 46.4222 156(12) 147.7659 110.1383
9032 46.4263 155(12) 147.1490 110.1237
9033 46.4303 155(12) 146.5403 110.1091
9034 46.4343 154(12) 145.9411 110.0944
9035 46.4383 153(12) 145.3522 110.0798
9036 46.4424 152(12) 144.7746 110.0653
9037 46.4464 152(12) 144.2077 110.0506
9038 46.4504 151(12) 143.6525 110.0360
9039 46.4545 150(12) 143.1097 110.0214
9040 46.4585 149(12) 142.5786 110.0068
9041 46.4625 149(12) 142.0599 109.9922
9042 46.4666 148(12) 141.5542 109.9776
9043 46.4706 147(12) 141.0604 109.9630
9044 46.4746 146(12) 140.5790 109.9484
9045 46.4787 146(12) 140.1100 109.9339
9046 46.4827 145(12) 139.6536 109.9193
9047 46.4867 145(12) 139.2088 109.9047
9048 46.4907 144(12) 138.7759 109.8901
9049 46.4948 143(12) 138.3550 109.8755
9050 46.4988 143(12) 137.9449 109.8609
9051 46.5028 142(12) 137.5459 109.8464
9052 46.5069 142(12) 137.1580 109.8318
9053 46.5109 141(12) 136.7801 109.8172
9054 46.5149 141(12) 136.4124 109.8026
9055 46.5190 141(12) 136.0544 109.7880
9056 46.5230 140(12) 135.7061 109.7735
9057 46.5270 140(12) 135.3609 109.7589
9058 46.5311 140(12) 135.0302 109.7443
9059 46.5351 139(12) 134.7082 109.7298
9060 46.5391 139(12) 134.3940 109.7152
9061 46.5432 139(12) 134.0877 109.7006
9062 46.5472 139(12) 133.7891 109.6861
9063 46.5512 139(12) 133.4975 109.6715
9064 46.5552 139(12) 133.2128 109.6570
9065 46.5593 138(12) 132.9348 109.6424
9066 46.5633 138(12) 132.6634 109.6279
9067 46.5673 138(12) 132.3979 109.6133
9068 46.5714 138(12) 132.1383 109.5988
9069 46.5754 138(12) 131.8846 109.5842
9070 46.5794 138(12) 131.6361 109.5697
9071 46.5835 138(12) 131.3930 109.5551
9072 46.5875 138(12) 131.1548 109.5406
9073 46.5915 138(12) 130.9218 109.5260
9074 46.5956 137(12) 130.6933 109.5115
9075 46.5996 137(12) 130.4694 109.4969
9076 46.6036 137(12) 130.2501 109.4824
9077 46.6076 137(12) 130.0349 109.4679
9078 46.6117 137(12) 129.8238 109.4533
9079 46.6157 137(12) 129.6169 109.4388
9080 46.6197 137(12) 129.4138 109.4243
9081 46.6238 137(12) 129.2144 109.4098
9082 46.6278 137(12) 129.0188 109.3952
9083 46.6318 136(12) 128.8270 109.3807
9084 46.6359 136(12) 128.6386 109.3662
9085 46.6399 136(12) 128.4536 109.3516
9086 46.6439 136(12) 128.2722 109.3372
9087 46.6480 136(12) 128.0939 109.3226
9088 46.6520 136(12) 127.9189 109.3081
9089 46.6560 135(12) 127.7473 109.2936
9090 46.6600 135(12) 127.5787 109.2791
9091 46.6641 135(12) 127.4132 109.2646
9092 46.6681 135(12) 127.2507 109.2501
9093 46.6721 135(12) 127.0914 109.2356
9094 46.6762 135(12) 126.9349 109.2211
9095 46.6802 135(12) 126.7813 109.2066
9096 46.6842 134(12) 126.6308 109.1921
9097 46.6883 134(12) 126.4830 109.1776
9098 46.6923 134(12) 126.3380 109.1631
9099 46.6963 134(12) 126.1960 109.1486
9100 46.7004 134(12) 126.0565 109.1341
9101 46.7044 134(12) 125.9198 109.1196
9102 46.7084 134(12) 125.7858 109.1051
9103 46.7125 134(12) 125.6546 109.0906
9104 46.7165 134(12) 125.5259 109.0761
9105 46.7205 134(12) 125.3998 109.0616
9106 46.7245 134(12) 125.2765 109.0472
9107 46.7286 134(12) 125.1555 109.0327
9108 46.7326 133(12) 125.0371 109.0182
9109 46.7366 133(12) 124.9213 109.0037
9110 46.7407 133(12) 124.8080 108.9893
9111 46.7447 133(12) 124.6970 108.9748
9112 46.7487 133(12) 124.5885 108.9603
9113 46.7528 133(12) 124.5096 108.9458
9114 46.7568 133(12) 124.4059 108.9314
9115 46.7608 133(12) 124.3045 108.9169
9116 46.7649 133(12) 124.2055 108.9024
9117 46.7689 133(12) 124.1087 108.8880
9118 46.7729 133(12) 124.0142 108.8735
9119 46.7770 133(12) 123.9219 108.8590
9120 46.7810 133(12) 123.8319 108.8446
9121 46.7850 134(12) 123.7440 108.8302
9122 46.7890 134(12) 123.6582 108.8157
9123 46.7931 134(12) 123.5747 108.8012
9124 46.7971 134(12) 123.4932 108.7868
9125 46.8011 134(12) 123.4138 108.7723
9126 46.8052 134(12) 123.3364 108.7579
9127 46.8092 134(12) 123.2611 108.7435
9128 46.8132 134(12) 123.1877 108.7290
9129 46.8173 134(12) 123.1163 108.7146
9130 46.8213 134(12) 123.0469 108.7002
9131 46.8253 134(12) 122.9793 108.6857
9132 46.8294 134(12) 122.9137 108.6713
9133 46.8334 134(12) 122.8499 108.6569
9134 46.8374 134(12) 122.7879 108.6424
9135 46.8414 134(12) 122.7278 108.6280
9136 46.8455 134(12) 122.6696 108.6136
9137 46.8495 134(12) 122.6130 108.5991
9138 46.8535 134(12) 122.5581 108.5847
9139 46.8576 134(12) 122.5050 108.5703
9140 46.8616 134(12) 122.4537 108.5559
9141 46.8656 134(12) 122.4174 108.5415
9142 46.8697 134(12) 122.3693 108.5270
9143 46.8737 134(12) 122.3229 108.5126
9144 46.8777 134(12) 122.2781 108.4982
9145 46.8818 134(12) 122.2349 108.4838
9146 46.8858 133(12) 122.1933 108.4694
9147 46.8898 133(12) 122.1532 108.4550
9148 46.8938 133(12) 122.1146 108.4406
9149 46.8979 133(12) 122.0776 108.4262
9150 46.9019 133(12) 122.0421 108.4118
9151 46.9059 133(12) 122.0081 108.3974
9152 46.9100 133(12) 121.9755 108.3830
9153 46.9140 133(12) 121.9444 108.3686
9154 46.9180 133(12) 121.9148 108.3542
9155 46.9221 132(11) 121.8866 108.3398
9156 46.9261 132(11) 121.8598 108.3254
9157 46.9301 132(11) 121.8344 108.3111
9158 46.9342 132(11) 121.8105 108.2967
9159 46.9382 132(11) 121.7879 108.2823
9160 46.9422 132(11) 121.7667 108.2679
9161 46.9463 132(11) 121.7469 108.2535
9162 46.9503 132(11) 121.7285 108.2392
9163 46.9543 132(11) 121.7115 108.2248
9164 46.9583 132(11) 121.6957 108.2104
9165 46.9624 132(11) 121.6814 108.1961
9166 46.9664 132(11) 121.6684 108.1817
9167 46.9704 132(11) 121.6568 108.1673
9168 46.9745 133(12) 121.6465 108.1530
9169 46.9785 133(12) 121.6375 108.1386
9170 46.9825 133(12) 121.6299 108.1242
9171 46.9866 133(12) 121.6237 108.1099
9172 46.9906 133(12) 121.6188 108.0955
9173 46.9946 133(12) 121.6152 108.0812
9174 46.9987 133(12) 121.6130 108.0668
9175 47.0027 133(12) 121.6122 108.0525
9176 47.0067 133(12) 121.6127 108.0381
9177 47.0107 133(12) 121.6146 108.0238
9178 47.0148 133(12) 121.6178 108.0094
9179 47.0188 133(12) 121.6224 107.9951
9180 47.0228 133(12) 121.6285 107.9808
9181 47.0269 133(12) 121.6359 107.9664
9182 47.0309 133(12) 121.6446 107.9520
9183 47.0349 133(12) 121.6549 107.9378
9184 47.0390 133(12) 121.6665 107.9234
9185 47.0430 133(12) 121.6795 107.9091
9186 47.0470 133(12) 121.6939 107.8947
9187 47.0511 133(12) 121.7097 107.8804
9188 47.0551 133(12) 121.7270 107.8661
9189 47.0591 133(12) 121.7457 107.8518
9190 47.0631 133(12) 121.7658 107.8375
9191 47.0672 133(12) 121.7873 107.8231
9192 47.0712 133(12) 121.8102 107.8088
9193 47.0752 133(12) 121.8346 107.7945
9194 47.0793 132(11) 121.8603 107.7802
9195 47.0833 132(11) 121.8875 107.7659
9196 47.0873 132(11) 121.9161 107.7516
9197 47.0914 132(11) 121.9460 107.7373
9198 47.0954 132(11) 121.9773 107.7230
9199 47.0994 132(11) 122.0099 107.7087
9200 47.1035 132(11) 122.0439 107.6944
9201 47.1075 132(11) 122.0791 107.6801
9202 47.1115 131(11) 122.1157 107.6658
9203 47.1156 131(11) 122.1534 107.6515
9204 47.1196 131(11) 122.1923 107.6372
9205 47.1236 131(11) 122.2324 107.6229
9206 47.1276 131(11) 122.2737 107.6086
9207 47.1317 131(11) 122.3159 107.5944
9208 47.1357 131(11) 122.3593 107.5801
9209 47.1397 131(11) 122.4036 107.5658
9210 47.1438 130(11) 122.4488 107.5515
9211 47.1478 130(11) 122.4949 107.5372
9212 47.1518 130(11) 122.5419 107.5229
9213 47.1559 130(11) 122.5897 107.5087
9214 47.1599 130(11) 122.6382 107.4944
9215 47.1639 130(11) 122.6875 107.4801
9216 47.1680 130(11) 122.7374 107.4659
9217 47.1720 130(11) 122.7879 107.4516
9218 47.1760 130(11) 122.8390 107.4373
9219 47.1800 130(11) 122.8907 107.4231
9220 47.1841 130(11) 122.9429 107.4088
9221 47.1881 130(11) 122.9956 107.3946
9222 47.1921 130(11) 122.8731 107.3803
9223 47.1962 130(11) 122.9272 107.3660
9224 47.2002 130(11) 122.9818 107.3518
9225 47.2042 130(11) 123.0369 107.3376
9226 47.2083 130(11) 123.0926 107.3233
9227 47.2123 130(11) 123.1488 107.3091
9228 47.2163 130(11) 123.2057 107.2948
9229 47.2204 130(11) 123.2632 107.2806
9230 47.2244 130(11) 123.3214 107.2664
9231 47.2284 130(11) 123.3804 107.2521
9232 47.2325 130(11) 123.4401 107.2379
9233 47.2365 130(11) 123.5007 107.2237
9234 47.2405 130(11) 123.5622 107.2094
9235 47.2445 130(11) 123.6246 107.1952
9236 47.2486 130(11) 123.6881 107.1810
9237 47.2526 130(11) 123.7526 107.1668
9238 47.2566 130(11) 123.8182 107.1525
9239 47.2607 130(11) 123.8851 107.1383
9240 47.2647 130(11) 123.9531 107.1241
9241 47.2687 130(11) 124.0224 107.1099
9242 47.2728 130(11) 124.0931 107.0957
9243 47.2768 130(11) 124.1652 107.0815
9244 47.2808 130(11) 124.2385 107.0672
9245 47.2849 130(11) 124.3135 107.0531
9246 47.2889 131(11) 124.3899 107.0388
9247 47.2929 131(11) 124.4678 107.0247
9248 47.2969 131(11) 124.5474 107.0105
9249 47.3010 131(11) 124.6285 106.9962
9250 47.3050 131(11) 124.7114 106.9821
9251 47.3090 131(11) 124.7958 106.9679
9252 47.3131 131(11) 124.8820 106.9537
9253 47.3171 131(11) 124.9700 106.9395
9254 47.3211 131(11) 124.9724 106.9253
9255 47.3252 131(11) 125.0642 106.9111
9256 47.3292 132(11) 125.1579 106.8969
9257 47.3332 132(11) 125.2535 106.8828
9258 47.3373 132(11) 125.3511 106.8686
9259 47.3413 132(11) 125.4508 106.8544
9260 47.3453 132(11) 125.5526 106.8402
9261 47.3493 132(11) 125.6564 106.8260
9262 47.3534 132(11) 125.7626 106.8119
9263 47.3574 132(11) 125.8711 106.7977
9264 47.3614 132(11) 125.9818 106.7835
9265 47.3655 132(11) 126.0950 106.7694
9266 47.3695 132(11) 126.2106 106.7552
9267 47.3735 132(11) 126.3289 106.7411
9268 47.3776 132(11) 126.4496 106.7269
9269 47.3816 132(11) 126.5731 106.7128
9270 47.3856 132(11) 126.6993 106.6986
9271 47.3897 132(11) 126.8283 106.6845
9272 47.3937 132(11) 126.7682 106.6703
9273 47.3977 132(11) 126.9034 106.6562
9274 47.4018 132(11) 127.0415 106.6420
9275 47.4058 132(11) 127.1829 106.6279
9276 47.4098 132(11) 127.3274 106.6137
9277 47.4138 132(11) 127.4751 106.5996
9278 47.4179 132(11) 127.6260 106.5855
9279 47.4219 131(11) 127.7804 106.5713
9280 47.4259 131(11) 127.9383 106.5572
9281 47.4300 131(11) 128.0995 106.5431
9282 47.4340 131(11) 128.2644 106.5290
9283 47.4380 131(11) 128.4330 106.5148
9284 47.4421 131(11) 128.6051 106.5007
9285 47.4461 131(11) 128.7812 106.4866
9286 47.4501 131(11) 128.9611 106.4725
9287 47.4542 130(11) 129.1449 106.4583
9288 47.4582 130(11) 129.3326 106.4442
9289 47.4622 130(11) 129.5245 106.4301
9290 47.4663 130(11) 129.7205 106.4160
9291 47.4703 130(11) 129.9205 106.4019
9292 47.4743 130(11) 130.1250 106.3878
9293 47.4783 130(11) 130.3338 106.3737
9294 47.4824 130(11) 130.5468 106.3596
9295 47.4864 130(11) 130.7645 106.3455
9296 47.4904 130(11) 130.9868 106.3314
9297 47.4945 130(11) 131.2137 106.3173
9298 47.4985 130(11) 131.4451 106.3033
9299 47.5025 130(11) 131.6815 106.2891
9300 47.5066 130(11) 131.9227 106.2751
9301 47.5106 130(11) 132.1686 106.2610
9302 47.5146 130(11) 132.4198 106.2469
9303 47.5187 130(11) 132.6761 106.2328
9304 47.5227 130(11) 132.8419 106.2188
9305 47.5267 130(11) 133.1087 106.2047
9306 47.5307 130(11) 133.3809 106.1906
9307 47.5348 130(11) 133.6584 106.1765
9308 47.5388 130(11) 133.9412 106.1625
9309 47.5428 130(11) 134.2298 106.1484
9310 47.5469 130(11) 134.5240 106.1343
9311 47.5509 130(11) 134.8236 106.1203
9312 47.5549 131(11) 135.1293 106.1062
9313 47.5590 131(11) 135.4409 106.0921
9314 47.5630 131(11) 135.7584 106.0781
9315 47.5670 131(11) 136.0816 106.0640
9316 47.5711 131(11) 136.4112 106.0500
9317 47.5751 131(11) 136.7470 106.0359
9318 47.5791 131(11) 137.0886 106.0219
9319 47.5831 131(11) 137.4369 106.0079
9320 47.5872 131(11) 137.7915 105.9938
9321 47.5912 132(11) 138.1521 105.9798
9322 47.5952 132(11) 138.5195 105.9657
9323 47.5993 132(11) 138.8935 105.9517
9324 47.6033 132(11) 139.2741 105.9377
9325 47.6073 132(11) 139.6608 105.9237
9326 47.6114 132(11) 140.0547 105.9096
9327 47.6154 133(12) 140.4552 105.8956
9328 47.6194 133(12) 140.8622 105.8816
9329 47.6235 133(12) 141.2763 105.8675
9330 47.6275 133(12) 141.6972 105.8535
9331 47.6315 133(12) 142.1246 105.8395
9332 47.6356 134(12) 142.5593 105.8255
9333 47.6396 134(12) 143.0008 105.8115
9334 47.6436 134(12) 143.4494 105.7975
9335 47.6476 135(12) 143.9045 105.7835
9336 47.6517 135(12) 144.3670 105.7695
9337 47.6557 135(12) 144.8364 105.7555
9338 47.6597 136(12) 145.3125 105.7415
9339 47.6638 136(12) 145.7960 105.7275
9340 47.6678 136(12) 146.2865 105.7135
9341 47.6718 137(12) 146.7836 105.6995
9342 47.6759 137(12) 147.2883 105.6855
9343 47.6799 137(12) 147.8000 105.6715
9344 47.6839 138(12) 148.3189 105.6575
9345 47.6880 138(12) 148.8443 105.6435
9346 47.6920 139(12) 149.3773 105.6295
9347 47.6960 139(12) 149.9176 105.6156
9348 47.7000 140(12) 150.4644 105.6016
9349 47.7041 140(12) 151.0191 105.5876
9350 47.7081 140(12) 151.5809 105.5736
9351 47.7121 141(12) 152.1502 105.5597
9352 47.7162 141(12) 152.7263 105.5457
9353 47.7202 142(12) 153.3104 105.5317
9354 47.7242 142(12) 153.9021 105.5178
9355 47.7283 142(12) 154.5010 105.5038
9356 47.7323 143(12) 154.9582 105.4899
9357 47.7363 143(12) 155.5736 105.4759
9358 47.7404 144(12) 156.1966 105.4619
9359 47.7444 144(12) 156.8285 105.4480
9360 47.7484 145(12) 157.4690 105.4340
9361 47.7525 145(12) 158.1183 105.4201
9362 47.7565 146(12) 158.7867 105.4062
9363 47.7605 146(12) 159.4546 105.3922
9364 47.7645 147(12) 160.1323 105.3783
9365 47.7686 147(12) 160.8196 105.3643
9366 47.7726 148(12) 161.5181 105.3504
9367 47.7766 148(12) 162.2277 105.3365
9368 47.7807 149(12) 162.9483 105.3225
9369 47.7847 150(12) 163.6818 105.3086
9370 47.7887 150(12) 164.4281 105.2947
9371 47.7928 151(12) 165.1880 105.2807
9372 47.7968 152(12) 165.9613 105.2668
9373 47.8008 152(12) 166.7504 105.2529
9374 47.8049 153(12) 167.5554 105.2390
9375 47.8089 154(12) 168.3764 105.2251
9376 47.8129 155(12) 169.2159 105.2112
9377 47.8169 156(12) 170.0743 105.1973
9378 47.8210 157(13) 170.9517 105.1834
9379 47.8250 158(13) 171.8509 105.1694
9380 47.8290 158(13) 172.7724 105.1555
9381 47.8331 159(13) 173.7082 105.1416
9382 47.8371 160(13) 174.6772 105.1277
9383 47.8411 162(13) 175.6732 105.1139
9384 47.8452 163(13) 176.6970 105.1000
9385 47.8492 164(13) 177.7489 105.0861
9386 47.8532 165(13) 178.8325 105.0722
9387 47.8573 166(13) 179.9482 105.0583
9388 47.8613 167(13) 181.0233 105.0444
9389 47.8653 169(13) 182.2074 105.0305
9390 47.8694 170(13) 183.4297 105.0166
9391 47.8734 171(13) 184.6959 105.0028
9392 47.8774 173(13) 185.9961 104.9889
9393 47.8814 174(13) 187.3393 104.9750
9394 47.8855 176(13) 188.6222 104.9612
9395 47.8895 177(13) 190.0527 104.9473
9396 47.8935 179(13) 191.5309 104.9334
9397 47.8976 181(13) 193.0569 104.9196
9398 47.9016 182(13) 194.6319 104.9057
9399 47.9056 184(14) 196.2552 104.8918
9400 47.9097 186(14) 197.9311 104.8780
9401 47.9137 188(14) 199.6585 104.8641
9402 47.9177 190(14) 201.4363 104.8503
9403 47.9218 192(14) 203.2682 104.8364
9404 47.9258 194(14) 205.1523 104.8226
9405 47.9298 196(14) 207.0865 104.8088
9406 47.9338 199(14) 209.0737 104.7949
9407 47.9379 201(14) 211.1109 104.7811
9408 47.9419 203(14) 213.1968 104.7672
9409 47.9459 206(14) 215.3274 104.7534
9410 47.9500 208(14) 217.5041 104.7396
9411 47.9540 210(14) 219.7221 104.7257
9412 47.9580 213(15) 221.9758 104.7119
9413 47.9621 215(15) 224.2655 104.6981
9414 47.9661 218(15) 226.5800 104.6843
9415 47.9701 220(15) 228.9210 104.6704
9416 47.9742 223(15) 231.2828 104.6566
9417 47.9782 226(15) 233.6568 104.6428
9418 47.9822 228(15) 236.0364 104.6290
9419 47.9862 231(15) 238.4118 104.6152
9420 47.9903 233(15) 240.7934 104.6014
9421 47.9943 236(15) 243.1436 104.5876
9422 47.9983 238(15) 245.4652 104.5738
9423 48.0024 241(16) 247.7536 104.5600
9424 48.0064 243(16) 249.9976 104.5462
9425 48.0104 246(16) 252.1856 104.5324
9426 48.0145 248(16) 254.3126 104.5186
9427 48.0185 250(16) 256.3294 104.5048
9428 48.0225 253(16) 258.3026 104.4910
9429 48.0266 255(16) 260.1840 104.4772
9430 48.0306 257(16) 261.9686 104.4634
9431 48.0346 259(16) 263.6470 104.4497
9432 48.0387 261(16) 265.2104 104.4359
9433 48.0427 263(16) 266.6555 104.4221
9434 48.0467 265(16) 267.9753 104.4083
9435 48.0507 267(16) 269.1652 104.3946
9436 48.0548 268(16) 270.2205 104.3808
9437 48.0588 270(16) 271.1406 104.3670
9438 48.0628 271(16) 271.9231 104.3533
9439 48.0669 273(17) 272.5668 104.3395
9440 48.0709 274(17) 273.0735 104.3258
9441 48.0749 275(17) 273.4440 104.3120
9442 48.0790 276(17) 273.6807 104.2982
9443 48.0830 277(17) 273.7872 104.2845
9444 48.0870 278(17) 273.7672 104.2707
9445 48.0911 278(17) 273.6255 104.2570
9446 48.0951 279(17) 273.3674 104.2432
9447 48.0991 279(17) 272.9980 104.2295
9448 48.1031 279(17) 272.5301 104.2158
9449 48.1072 279(17) 271.9567 104.2020
9450 48.1112 279(17) 271.2895 104.1883
9451 48.1152 279(17) 270.5347 104.1746
9452 48.1193 279(17) 269.6988 104.1608
9453 48.1233 279(17) 268.7860 104.1471
9454 48.1273 278(17) 267.8019 104.1334
9455 48.1314 277(17) 266.7578 104.1196
9456 48.1354 277(17) 265.6458 104.1059
9457 48.1394 276(17) 264.4741 104.0922
9458 48.1435 275(17) 263.2473 104.0785
9459 48.1475 274(17) 261.9695 104.0648
9460 48.1515 273(17) 260.6411 104.0511
9461 48.1556 271(16) 259.2649 104.0374
9462 48.1596 270(16) 257.8447 104.0237
9463 48.1636 269(16) 256.3790 104.0100
9464 48.1676 267(16) 254.8707 103.9963
9465 48.1717 265(16) 253.3214 103.9826
9466 48.1757 264(16) 251.7335 103.9689
9467 48.1797 262(16) 250.1054 103.9552
9468 48.1838 260(16) 248.4399 103.9415
9469 48.1878 259(16) 246.7401 103.9278
9470 48.1918 257(16) 245.0044 103.9141
9471 48.1959 255(16) 243.2360 103.9004
9472 48.1999 253(16) 241.4372 103.8868
9473 48.2039 251(16) 239.6118 103.8731
9474 48.2080 249(16) 237.7587 103.8594
9475 48.2120 247(16) 235.8826 103.8457
9476 48.2160 245(16) 233.9881 103.8321
9477 48.2200 243(16) 232.0746 103.8184
9478 48.2241 241(16) 230.1473 103.8047
9479 48.2281 239(15) 228.2115 103.7911
9480 48.2321 237(15) 226.2668 103.7774
9481 48.2362 235(15) 224.3187 103.7637
9482 48.2402 232(15) 222.3707 103.7501
9483 48.2442 230(15) 220.4282 103.7365
9484 48.2483 228(15) 218.4909 103.7228
9485 48.2523 226(15) 216.5641 103.7092
9486 48.2563 224(15) 214.6527 103.6955
9487 48.2604 222(15) 212.7563 103.6819
9488 48.2644 220(15) 210.8794 103.6682
9489 48.2684 218(15) 209.0264 103.6546
9490 48.2724 216(15) 207.1962 103.6409
9491 48.2765 214(15) 205.3928 103.6273
9492 48.2805 212(15) 203.6181 103.6137
9493 48.2845 210(14) 201.8755 103.6001
9494 48.2886 208(14) 200.1632 103.5864
9495 48.2926 206(14) 198.4839 103.5728
9496 48.2966 204(14) 196.8403 103.5592
9497 48.3007 203(14) 195.2298 103.5456
9498 48.3047 201(14) 193.6548 103.5320
9499 48.3087 199(14) 192.1168 103.5184
9500 48.3128 197(14) 190.6133 103.5047
9501 48.3168 196(14) 189.1456 103.4911
9502 48.3208 194(14) 187.7136 103.4775
9503 48.3249 192(14) 186.3182 103.4639
9504 48.3289 190(14) 184.9564 103.4503
9505 48.3329 189(14) 183.6290 103.4367
9506 48.3369 187(14) 182.3365 103.4231
9507 48.3410 186(14) 181.0757 103.4095
9508 48.3450 184(14) 179.8471 103.3959
9509 48.3490 182(13) 178.6498 103.3824
9510 48.3531 181(13) 177.4840 103.3688
9511 48.3571 179(13) 176.3466 103.3552
9512 48.3611 178(13) 175.2377 103.3416
9513 48.3652 176(13) 174.1573 103.3280
9514 48.3692 175(13) 173.1025 103.3144
9515 48.3732 173(13) 172.0731 103.3009
9516 48.3773 172(13) 171.0693 103.2873
9517 48.3813 170(13) 170.0881 103.2738
9518 48.3853 169(13) 169.1296 103.2602
9519 48.3894 167(13) 168.1927 103.2466
9520 48.3934 166(13) 167.2774 103.2331
9521 48.3974 164(13) 166.3813 103.2195
9522 48.4014 163(13) 165.5041 103.2060
9523 48.4055 162(13) 164.6460 103.1924
9524 48.4095 160(13) 163.8045 103.1789
9525 48.4135 159(13) 162.9796 103.1653
9526 48.4176 158(13) 162.1715 103.1518
9527 48.4216 157(13) 161.3779 103.1382
9528 48.4256 156(12) 160.5990 103.1247
9529 48.4297 154(12) 159.8341 103.1111
9530 48.4337 153(12) 159.0834 103.0976
9531 48.4377 152(12) 158.3448 103.0841
9532 48.4418 151(12) 157.6187 103.0706
9533 48.4458 150(12) 156.9051 103.0570
9534 48.4498 149(12) 156.2024 103.0435
9535 48.4538 148(12) 155.5108 103.0300
9536 48.4579 148(12) 154.8305 103.0165
9537 48.4619 147(12) 154.1599 103.0029
9538 48.4659 146(12) 153.4993 102.9894
9539 48.4700 145(12) 152.8485 102.9759
9540 48.4740 144(12) 152.2077 102.9624
9541 48.4780 144(12) 151.5755 102.9489
9542 48.4821 143(12) 150.9523 102.9354
9543 48.4861 142(12) 150.3384 102.9219
9544 48.4901 142(12) 149.7325 102.9084
9545 48.4942 141(12) 149.1349 102.8949
9546 48.4982 141(12) 148.5456 102.8814
9547 48.5022 140(12) 147.9649 102.8679
9548 48.5062 140(12) 147.3916 102.8544
9549 48.5103 139(12) 146.8261 102.8410
9550 48.5143 139(12) 146.2689 102.8275
9551 48.5183 138(12) 145.7187 102.8140
9552 48.5224 138(12) 145.1760 102.8005
9553 48.5264 138(12) 144.6413 102.7871
9554 48.5304 137(12) 144.1135 102.7736
9555 48.5345 137(12) 143.5929 102.7601
9556 48.5385 137(12) 143.0795 102.7466
9557 48.5425 136(12) 142.5738 102.7332
9558 48.5466 136(12) 142.0746 102.7197
9559 48.5506 136(12) 141.5825 102.7062
9560 48.5546 136(12) 141.0979 102.6928
9561 48.5587 135(12) 140.6197 102.6793
9562 48.5627 135(12) 140.1484 102.6659
9563 48.5667 135(12) 139.6844 102.6524
9564 48.5707 135(12) 139.2267 102.6390
9565 48.5748 135(12) 138.7758 102.6255
9566 48.5788 134(12) 138.3316 102.6121
9567 48.5828 134(12) 137.8944 102.5987
9568 48.5869 134(12) 137.4634 102.5852
9569 48.5909 134(12) 137.0389 102.5718
9570 48.5949 134(12) 136.6214 102.5584
9571 48.5990 134(12) 136.2098 102.5449
9572 48.6030 134(12) 135.8047 102.5315
9573 48.6070 133(12) 135.4063 102.5181
9574 48.6111 133(12) 135.0137 102.5047
9575 48.6151 133(12) 134.6274 102.4912
9576 48.6191 133(12) 134.2472 102.4778
9577 48.6231 133(12) 133.8735 102.4644
9578 48.6272 133(12) 133.5055 102.4510
9579 48.6312 133(12) 133.1434 102.4376
9580 48.6352 133(12) 132.7876 102.4242
9581 48.6393 133(12) 132.4373 102.4108
9582 48.6433 133(12) 132.0927 102.3974
9583 48.6473 132(11) 131.7542 102.3840
9584 48.6514 132(11) 131.4209 102.3706
9585 48.6554 132(11) 131.0933 102.3572
9586 48.6594 132(11) 130.7711 102.3438
9587 48.6635 132(11) 130.4547 102.3305
9588 48.6675 132(11) 130.1433 102.3171
9589 48.6715 132(11) 129.8371 102.3037
9590 48.6755 132(11) 129.5364 102.2903
9591 48.6796 132(11) 129.2406 102.2769
9592 48.6836 132(11) 128.9498 102.2635
9593 48.6876 132(11) 128.6640 102.2502
9594 48.6917 132(11) 128.3833 102.2368
9595 48.6957 131(11) 128.1072 102.2234
9596 48.6997 131(11) 127.8358 102.2101
9597 48.7038 131(11) 127.5693 102.1967
9598 48.7078 131(11) 127.3072 102.1833
9599 48.7118 131(11) 127.0495 102.1700
9600 48.7159 131(11) 126.7966 102.1567
9601 48.7199 131(11) 126.5477 102.1433
9602 48.7239 131(11) 126.3032 102.1299
9603 48.7280 130(11) 126.0628 102.1166
9604 48.7320 130(11) 125.8269 102.1033
9605 48.7360 130(11) 125.5947 102.0899
9606 48.7400 130(11) 125.3666 102.0766
9607 48.7441 130(11) 125.1426 102.0633
9608 48.7481 130(11) 124.9222 102.0499
9609 48.7521 130(11) 124.7056 102.0366
9610 48.7562 130(11) 124.4929 102.0233
9611 48.7602 129(11) 124.2837 102.0099
9612 48.7642 129(11) 124.0781 101.9966
9613 48.7683 129(11) 123.8759 101.9833
9614 48.7723 129(11) 123.6775 101.9700
9615 48.7763 129(11) 123.4822 101.9567
9616 48.7804 129(11) 123.2902 101.9433
9617 48.7844 129(11) 123.1017 101.9301
9618 48.7884 129(11) 122.9162 101.9167
9619 48.7924 129(11) 122.7339 101.9034
9620 48.7965 129(11) 122.5548 101.8902
9621 48.8005 129(11) 122.3785 101.8769
9622 48.8045 129(11) 122.2053 101.8635
9623 48.8086 129(11) 122.0350 101.8503
9624 48.8126 129(11) 121.8676 101.8370
9625 48.8166 129(11) 121.7030 101.8237
9626 48.8207 129(11) 121.5411 101.8104
9627 48.8247 129(11) 121.3820 101.7971
9628 48.8287 129(11) 121.2269 101.7838
9629 48.8328 129(11) 121.0730 101.7706
9630 48.8368 129(11) 120.9216 101.7573
9631 48.8408 129(11) 120.7729 101.7440
9632 48.8449 129(11) 120.6266 101.7308
9633 48.8489 129(11) 120.4827 101.7175
9634 48.8529 129(11) 120.3413 101.7042
9635 48.8569 129(11) 120.2021 101.6910
9636 48.8610 129(11) 120.0652 101.6777
9637 48.8650 129(11) 119.9307 101.6645
9638 48.8690 128(11) 119.7984 101.6512
9639 48.8731 128(11) 119.6682 101.6379
9640 48.8771 128(11) 119.4259 101.6247
9641 48.8811 128(11) 119.3003 101.6115
9642 48.8852 128(11) 119.1765 101.5982
9643 48.8892 128(11) 119.0549 101.5850
9644 48.8932 128(11) 118.9354 101.5718
9645 48.8973 128(11) 118.8177 101.5585
9646 48.9013 127(11) 118.7019 101.5453
9647 48.9053 127(11) 118.5882 101.5321
9648 48.9093 127(11) 118.4763 101.5188
9649 48.9134 127(11) 118.3661 101.5056
9650 48.9174 127(11) 118.2579 101.4924
9651 48.9214 126(11) 118.1515 101.4792
9652 48.9255 126(11) 118.0467 101.4659
9653 48.9295 126(11) 117.9437 101.4527
9654 48.9335 126(11) 117.8425 101.4395
9655 48.9376 126(11) 117.7429 101.4263
9656 48.9416 126(11) 117.6450 101.4131
9657 48.9456 125(11) 117.5494 101.3999
9658 48.9497 125(11) 117.4547 101.3867
9659 48.9537 125(11) 117.3616 101.3735
9660 48.9577 125(11) 117.2700 101.3603
9661 48.9618 125(11) 117.1801 101.3471
9662 48.9658 125(11) 117.0916 101.3339
9663 48.9698 125(11) 117.0046 101.3208
9664 48.9738 124(11) 116.9191 101.3076
9665 48.9779 124(11) 116.8350 101.2944
9666 48.9819 124(11) 116.7524 101.2812
9667 48.9859 124(11) 116.6712 101.2680
9668 48.9900 124(11) 116.5914 101.2549
9669 48.9940 124(11) 116.5130 101.2417
9670 48.9980 124(11) 116.4359 101.2285
9671 49.0021 124(11) 116.3602 101.2154
9672 49.0061 124(11) 116.2858 101.2022
9673 49.0101 124(11) 116.2127 101.1890
9674 49.0142 124(11) 116.0843 101.1759
9675 49.0182 124(11) 116.0138 101.1627
9676 49.0222 125(11) 115.9446 101.1496
9677 49.0262 125(11) 115.8767 101.1364
9678 49.0303 125(11) 115.8101 101.1233
9679 49.0343 125(11) 115.7446 101.1101
9680 49.0383 125(11) 115.6803 101.0970
9681 49.0424 125(11) 115.6173 101.0839
9682 49.0464 125(11) 115.5554 101.0707
9683 49.0504 125(11) 115.4947 101.0576
9684 49.0545 125(11) 115.4352 101.0445
9685 49.0585 125(11) 115.3768 101.0313
9686 49.0625 125(11) 115.3195 101.0182
9687 49.0666 125(11) 115.2634 101.0051
9688 49.0706 125(11) 115.2090 100.9920
9689 49.0746 125(11) 115.1551 100.9789
9690 49.0787 125(11) 115.1023 100.9657
9691 49.0827 125(11) 115.0506 100.9527
9692 49.0867 125(11) 114.9999 100.9395
9693 49.0907 125(11) 114.9503 100.9264
9694 49.0948 125(11) 114.9018 100.9133
9695 49.0988 125(11) 114.8543 100.9002
9696 49.1028 125(11) 114.8079 100.8871
9697 49.1069 125(11) 114.7625 100.8740
9698 49.1109 125(11) 114.7181 100.8609
9699 49.1149 125(11) 114.6747 100.8478
9700 49.1190 125(11) 114.6324 100.8348
9701 49.1230 125(11) 114.5911 100.8217
9702 49.1270 125(11) 114.5507 100.8086
9703 49.1311 125(11) 114.5114 100.7955
9704 49.1351 125(11) 114.4731 100.7824
9705 49.1391 124(11) 114.4357 100.7694
9706 49.1431 124(11) 114.3993 100.7563
9707 49.1472 124(11) 114.3638 100.7432
9708 49.1512 124(11) 114.3294 100.7302
9709 49.1552 124(11) 114.2959 100.7171
9710 49.1593 124(11) 114.2634 100.7040
9711 49.1633 124(11) 114.2318 100.6910
9712 49.1673 123(11) 114.2012 100.6779
9713 49.1714 123(11) 114.1715 100.6649
9714 49.1754 123(11) 114.1427 100.6518
9715 49.1794 123(11) 114.1150 100.6388
9716 49.1835 123(11) 114.0881 100.6257
9717 49.1875 123(11) 114.0625 100.6127
9718 49.1915 123(11) 114.0375 100.5997
9719 49.1955 123(11) 114.0134 100.5866
9720 49.1996 122(11) 113.9903 100.5736
9721 49.2036 122(11) 113.9682 100.5606
9722 49.2076 122(11) 113.9469 100.5475
9723 49.2117 122(11) 113.9266 100.5345
9724 49.2157 122(11) 113.9072 100.5215
9725 49.2197 122(11) 113.8887 100.5085
9726 49.2238 122(11) 113.8711 100.4955
9727 49.2278 122(11) 113.8545 100.4824
9728 49.2318 122(11) 113.8388 100.4694
9729 49.2359 122(11) 113.8240 100.4564
9730 49.2399 122(11) 113.8102 100.4434
9731 49.2439 122(11) 113.7973 100.4304
9732 49.2480 122(11) 113.7853 100.4174
9733 49.2520 122(11) 113.7742 100.4044
9734 49.2560 122(11) 113.7641 100.3914
9735 49.2600 123(11) 113.7550 100.3784
9736 49.2641 123(11) 113.7467 100.3654
9737 49.2681 123(11) 113.7394 100.3524
9738 49.2721 123(11) 113.7330 100.3395
9739 49.2762 123(11) 113.7276 100.3265
9740 49.2802 123(11) 113.7232 100.3135
9741 49.2842 123(11) 113.7197 100.3005
9742 49.2883 123(11) 113.7171 100.2876
9743 49.2923 123(11) 113.7155 100.2746
9744 49.2963 123(11) 113.7149 100.2616
9745 49.3004 123(11) 113.7153 100.2487
9746 49.3044 123(11) 113.7166 100.2357
9747 49.3084 123(11) 113.7189 100.2227
9748 49.3124 123(11) 113.7222 100.2098
9749 49.3165 123(11) 113.7265 100.1968
9750 49.3205 123(11) 113.7318 100.1839
9751 49.3245 123(11) 113.7381 100.1709
9752 49.3286 123(11) 113.7455 100.1580
9753 49.3326 123(11) 113.7538 100.1450
9754 49.3366 123(11) 113.7632 100.1321
9755 49.3407 123(11) 113.7735 100.1191
9756 49.3447 123(11) 113.7850 100.1062
9757 49.3487 123(11) 113.7975 100.0933
9758 49.3528 123(11) 113.8111 100.0804
9759 49.3568 123(11) 113.8257 100.0674
9760 49.3608 123(11) 113.8414 100.0545
9761 49.3649 123(11) 113.8582 100.0416
9762 49.3689 123(11) 113.8761 100.0287
9763 49.3729 123(11) 113.8951 100.0158
9764 49.3769 123(11) 113.9153 100.0028
9765 49.3810 123(11) 113.9365 99.9900
9766 49.3850 123(11) 113.9589 99.9770
9767 49.3890 123(11) 113.9825 99.9641
9768 49.3931 123(11) 114.0072 99.9512
9769 49.3971 123(11) 114.0331 99.9383
9770 49.4011 123(11) 114.0603 99.9254
9771 49.4052 123(11) 114.0886 99.9125
9772 49.4092 123(11) 114.1181 99.8996
9773 49.4132 123(11) 114.1489 99.8867
9774 49.4173 123(11) 114.1809 99.8738
9775 49.4213 123(11) 114.2141 99.8610
9776 49.4253 123(11) 114.2487 99.8481
9777 49.4293 123(11) 114.2846 99.8352
9778 49.4334 123(11) 114.3217 99.8223
9779 49.4374 123(11) 114.3603 99.8095
9780 49.4414 123(11) 114.4001 99.7966
9781 49.4455 123(11) 114.4413 99.7837
9782 49.4495 123(11) 114.4839 99.7709
9783 49.4535 123(11) 114.5278 99.7580
9784 49.4576 123(11) 114.5732 99.7451
9785 49.4616 124(11) 114.6200 99.7323
9786 49.4656 124(11) 114.6683 99.7194
9787 49.4697 124(11) 114.7181 99.7066
9788 49.4737 124(11) 114.7693 99.6937
9789 49.4777 124(11) 114.8220 99.6809
9790 49.4818 124(11) 114.8763 99.6680
9791 49.4858 124(11) 114.9322 99.6552
9792 49.4898 124(11) 114.9895 99.6424
9793 49.4938 124(11) 115.0485 99.6295
9794 49.4979 124(11) 115.1092 99.6167
9795 49.5019 124(11) 115.1714 99.6039
9796 49.5059 124(11) 115.2353 99.5910
9797 49.5100 124(11) 115.3009 99.5782
9798 49.5140 124(11) 115.3683 99.5654
9799 49.5180 124(11) 115.4372 99.5526
9800 49.5221 124(11) 115.5080 99.5398
9801 49.5261 124(11) 115.5806 99.5269
9802 49.5301 124(11) 115.6549 99.5142
9803 49.5342 124(11) 115.7311 99.5014
9804 49.5382 124(11) 115.8091 99.4885
9805 49.5422 124(11) 115.8889 99.4757
9806 49.5462 124(11) 115.9707 99.4629
9807 49.5503 124(11) 116.0544 99.4501
9808 49.5543 124(11) 116.1400 99.4373
9809 49.5583 124(11) 116.2275 99.4246
9810 49.5624 124(11) 116.3170 99.4118
9811 49.5664 124(11) 116.4085 99.3990
9812 49.5704 124(11) 116.5020 99.3862
9813 49.5745 124(11) 116.5976 99.3734
9814 49.5785 124(11) 116.6952 99.3606
9815 49.5825 124(11) 116.7948 99.3479
9816 49.5866 124(11) 116.8967 99.3351
9817 49.5906 124(11) 117.0006 99.3223
9818 49.5946 124(11) 117.1067 99.3095
9819 49.5986 124(11) 117.2148 99.2968
9820 49.6027 124(11) 117.3252 99.2840
9821 49.6067 124(11) 117.4377 99.2713
9822 49.6107 124(11) 117.5524 99.2585
9823 49.6148 123(11) 117.6694 99.2458
9824 49.6188 123(11) 117.8446 99.2330
9825 49.6228 123(11) 117.9661 99.2203
9826 49.6269 123(11) 118.0897 99.2075
9827 49.6309 123(11) 118.2156 99.1948
9828 49.6349 123(11) 118.3438 99.1820
9829 49.6390 123(11) 118.4742 99.1693
9830 49.6430 123(11) 118.6069 99.1566
9831 49.6470 123(11) 118.7419 99.1438
9832 49.6511 123(11) 118.8791 99.1311
9833 49.6551 123(11) 119.0186 99.1184
9834 49.6591 123(11) 119.1604 99.1057
9835 49.6631 122(11) 119.3045 99.0929
9836 49.6672 122(11) 119.4508 99.0802
9837 49.6712 122(11) 119.6019 99.0675
9838 49.6752 122(11) 119.7527 99.0548
9839 49.6793 122(11) 119.9057 99.0421
9840 49.6833 122(11) 120.0610 99.0294
9841 49.6873 122(11) 120.2187 99.0167
9842 49.6914 122(11) 120.3783 99.0040
9843 49.6954 123(11) 120.5403 98.9913
9844 49.6994 123(11) 120.7045 98.9786
9845 49.7035 123(11) 120.8708 98.9659
9846 49.7075 123(11) 121.0785 98.9532
9847 49.7115 123(11) 121.2492 98.9405
9848 49.7155 123(11) 121.4221 98.9278
9849 49.7196 123(11) 121.5969 98.9152
9850 49.7236 123(11) 121.7739 98.9025
9851 49.7276 124(11) 121.9531 98.8898
9852 49.7317 124(11) 122.1342 98.8771
9853 49.7357 124(11) 122.3175 98.8645
9854 49.7397 124(11) 122.5307 98.8518
9855 49.7438 124(11) 122.7181 98.8391
9856 49.7478 124(11) 122.9075 98.8265
9857 49.7518 125(11) 123.0990 98.8138
9858 49.7559 125(11) 123.2926 98.8011
9859 49.7599 125(11) 123.4880 98.7885
9860 49.7639 125(11) 123.6857 98.7758
9861 49.7680 125(11) 123.8855 98.7632
9862 49.7720 125(11) 124.0872 98.7506
9863 49.7760 125(11) 124.2912 98.7379
9864 49.7800 126(11) 124.4973 98.7253
9865 49.7841 126(11) 124.7057 98.7126
9866 49.7881 126(11) 124.9173 98.7000
9867 49.7921 126(11) 125.1302 98.6874
9868 49.7962 126(11) 125.3455 98.6747
9869 49.8002 126(11) 125.5630 98.6621
9870 49.8042 126(11) 125.7834 98.6495
9871 49.8083 127(11) 126.0063 98.6369
9872 49.8123 127(11) 126.2319 98.6242
9873 49.8163 127(11) 126.4603 98.6116
9874 49.8204 127(11) 126.6919 98.5990
9875 49.8244 127(11) 126.9461 98.5864
9876 49.8284 127(11) 127.1841 98.5738
9877 49.8324 127(11) 127.4257 98.5612
9878 49.8365 128(11) 127.6711 98.5486
9879 49.8405 128(11) 127.9202 98.5360
9880 49.8445 128(11) 128.1737 98.5234
9881 49.8486 128(11) 128.4317 98.5108
9882 49.8526 128(11) 128.6944 98.4982
9883 49.8566 129(11) 128.9619 98.4856
9884 49.8607 129(11) 129.2349 98.4730
9885 49.8647 129(11) 129.5136 98.4604
9886 49.8687 129(11) 129.7981 98.4479
9887 49.8728 130(11) 130.0892 98.4353
9888 49.8768 130(11) 130.3870 98.4227
9889 49.8808 130(11) 130.6918 98.4101
9890 49.8848 130(11) 131.0045 98.3976
9891 49.8889 131(11) 131.3252 98.3850
9892 49.8929 131(11) 131.6544 98.3724
9893 49.8969 131(11) 131.9922 98.3599
9894 49.9010 131(11) 132.3400 98.3473
9895 49.9050 132(11) 132.6976 98.3347
9896 49.9090 132(11) 133.0653 98.3222
9897 49.9131 132(11) 133.4445 98.3096
9898 49.9171 132(11) 133.8351 98.2971
9899 49.9211 133(12) 134.2374 98.2846
9900 49.9252 133(12) 134.6527 98.2720
9901 49.9292 133(12) 135.0811 98.2595
9902 49.9332 134(12) 135.5230 98.2469
9903 49.9373 134(12) 135.9786 98.2344
9904 49.9413 134(12) 136.4492 98.2219
9905 49.9453 134(12) 136.9348 98.2093
9906 49.9493 135(12) 137.4354 98.1968
9907 49.9534 135(12) 137.9522 98.1843
9908 49.9574 135(12) 138.4852 98.1718
9909 49.9614 136(12) 139.0347 98.1592
9910 49.9655 136(12) 139.6003 98.1467
9911 49.9695 136(12) 140.1832 98.1342
9912 49.9735 137(12) 140.7831 98.1217
9913 49.9776 137(12) 141.3994 98.1092
9914 49.9816 137(12) 142.0331 98.0967
9915 49.9856 138(12) 142.6834 98.0842
9916 49.9897 138(12) 143.3495 98.0717
9917 49.9937 138(12) 144.0323 98.0592
9918 49.9977 139(12) 144.7305 98.0467
9919 50.0018 139(12) 145.4435 98.0342
9920 50.0058 140(12) 146.1698 98.0217
9921 50.0098 140(12) 146.9099 98.0092
9922 50.0138 141(12) 147.6619 97.9968
9923 50.0179 141(12) 148.4240 97.9843
9924 50.0219 142(12) 149.1960 97.9718
9925 50.0259 142(12) 149.9759 97.9593
9926 50.0300 143(12) 150.7610 97.9469
9927 50.0340 143(12) 151.5511 97.9344
9928 50.0380 144(12) 152.3434 97.9219
9929 50.0421 144(12) 153.1357 97.9094
9930 50.0461 145(12) 153.9251 97.8970
9931 50.0501 146(12) 154.7106 97.8845
9932 50.0542 146(12) 155.4889 97.8721
9933 50.0582 147(12) 156.2569 97.8596
9934 50.0622 147(12) 157.0132 97.8472
9935 50.0662 148(12) 157.7547 97.8347
9936 50.0703 149(12) 158.4778 97.8223
9937 50.0743 149(12) 159.1814 97.8099
9938 50.0783 150(12) 159.8622 97.7974
9939 50.0824 150(12) 160.5175 97.7850
9940 50.0864 151(12) 161.1444 97.7725
9941 50.0904 152(12) 161.7419 97.7601
9942 50.0945 152(12) 162.3072 97.7477
9943 50.0985 153(12) 162.8379 97.7353
9944 50.1025 153(12) 163.3332 97.7228
9945 50.1066 154(12) 163.7911 97.7104
9946 50.1106 154(12) 164.2105 97.6980
9947 50.1146 155(12) 164.5899 97.6856
9948 50.1186 155(12) 164.9294 97.6732
9949 50.1227 156(12) 165.2281 97.6608
9950 50.1267 156(12) 165.4856 97.6484
9951 50.1307 156(12) 165.7025 97.6359
9952 50.1348 157(13) 165.8789 97.6235
9953 50.1388 157(13) 166.0190 97.6112
9954 50.1428 157(13) 166.1162 97.5987
9955 50.1469 157(13) 166.1752 97.5864
9956 50.1509 158(13) 166.1971 97.5740
9957 50.1549 158(13) 166.1831 97.5616
9958 50.1590 158(13) 166.1348 97.5492
9959 50.1630 158(13) 166.0535 97.5368
9960 50.1670 158(13) 165.9409 97.5244
9961 50.1711 158(13) 165.7984 97.5121
9962 50.1751 158(13) 165.6276 97.4997
9963 50.1791 158(13) 165.4303 97.4873
9964 50.1831 158(13) 165.2076 97.4749
9965 50.1872 157(13) 164.9612 97.4626
9966 50.1912 157(13) 164.6924 97.4502
9967 50.1952 157(13) 164.4028 97.4379
9968 50.1993 157(13) 164.0931 97.4255
9969 50.2033 156(12) 163.7647 97.4131
9970 50.2073 156(12) 163.4188 97.4008
9971 50.2114 155(12) 163.0558 97.3884
9972 50.2154 155(12) 162.6768 97.3761
9973 50.2194 155(12) 162.2831 97.3637
9974 50.2235 154(12) 161.8744 97.3514
9975 50.2275 154(12) 161.4518 97.3390
9976 50.2315 153(12) 161.0159 97.3267
9977 50.2355 153(12) 160.5677 97.3144
9978 50.2396 152(12) 160.1069 97.3020
9979 50.2436 152(12) 159.6345 97.2897
9980 50.2476 151(12) 159.1513 97.2774
9981 50.2517 150(12) 158.6571 97.2651
9982 50.2557 150(12) 158.1529 97.2528
9983 50.2597 149(12) 157.6412 97.2404
9984 50.2638 149(12) 157.1194 97.2281
9985 50.2678 148(12) 156.5891 97.2158
9986 50.2718 147(12) 156.0516 97.2035
9987 50.2759 147(12) 155.5081 97.1912
9988 50.2799 146(12) 154.9585 97.1789
9989 50.2839 146(12) 154.4041 97.1666
9990 50.2879 145(12) 153.8465 97.1543
9991 50.2920 145(12) 153.2855 97.1420
9992 50.2960 144(12) 152.7226 97.1297
9993 50.3000 143(12) 152.1588 97.1174
9994 50.3041 143(12) 151.5957 97.1051
9995 50.3081 142(12) 151.0332 97.0928
9996 50.3121 142(12) 150.4727 97.0806
9997 50.3162 141(12) 149.9159 97.0683
9998 50.3202 141(12) 149.3625 97.0560
9999 50.3242 140(12) 148.8141 97.0437
10000 50.3283 140(12) 148.2720 97.0314
10001 50.3323 140(12) 147.7360 97.0192
10002 50.3363 139(12) 147.2075 97.0069
10003 50.3404 139(12) 146.6871 96.9946
10004 50.3444 138(12) 146.1759 96.9824
10005 50.3484 138(12) 145.6737 96.9701
10006 50.3524 138(12) 145.1815 96.9579
10007 50.3565 137(12) 144.7002 96.9456
10008 50.3605 137(12) 144.2293 96.9334
10009 50.3645 137(12) 143.7697 96.9211
10010 50.3686 136(12) 143.3220 96.9089
10011 50.3726 136(12) 142.8877 96.8966
10012 50.3766 136(12) 142.4634 96.8844
10013 50.3807 135(12) 142.0512 96.8721
10014 50.3847 135(12) 141.6515 96.8599
10015 50.3887 135(12) 141.2638 96.8477
10016 50.3928 134(12) 140.8882 96.8354
10017 50.3968 134(12) 140.5252 96.8232
10018 50.4008 134(12) 140.1740 96.8110
10019 50.4049 134(12) 139.8347 96.7988
10020 50.4089 133(12) 139.5076 96.7866
10021 50.4129 133(12) 139.1919 96.7744
10022 50.4169 133(12) 138.8876 96.7621
10023 50.4210 132(11) 138.5945 96.7499
10024 50.4250 132(11) 138.3128 96.7377
10025 50.4290 132(11) 138.0416 96.7255
10026 50.4331 132(11) 137.7809 96.7133
10027 50.4371 132(11) 137.5307 96.7011
10028 50.4411 131(11) 137.2903 96.6889
10029 50.4452 131(11) 137.0597 96.6767
10030 50.4492 131(11) 136.8384 96.6645
10031 50.4532 131(11) 136.6265 96.6523
10032 50.4573 131(11) 136.4234 96.6401
10033 50.4613 130(11) 136.2289 96.6280
10034 50.4653 130(11) 136.0429 96.6158
10035 50.4693 130(11) 135.8649 96.6036
10036 50.4734 130(11) 135.6947 96.5914
10037 50.4774 130(11) 135.5323 96.5792
10038 50.4814 129(11) 135.3773 96.5671
10039 50.4855 129(11) 135.2293 96.5549
10040 50.4895 129(11) 135.0884 96.5427
10041 50.4935 129(11) 134.9553 96.5306
10042 50.4976 129(11) 134.8277 96.5184
10043 50.5016 129(11) 134.7065 96.5062
10044 50.5056 129(11) 134.5917 96.4941
10045 50.5097 128(11) 134.4828 96.4819
10046 50.5137 128(11) 134.3798 96.4698
10047 50.5177 128(11) 134.2828 96.4577
10048 50.5217 128(11) 134.1913 96.4455
10049 50.5258 128(11) 134.1053 96.4334
10050 50.5298 128(11) 134.0248 96.4212
10051 50.5338 128(11) 133.9497 96.4091
10052 50.5379 128(11) 133.8798 96.3969
10053 50.5419 128(11) 133.8151 96.3848
10054 50.5459 128(11) 133.7555 96.3727
10055 50.5500 128(11) 133.7009 96.3606
10056 50.5540 128(11) 133.6513 96.3484
10057 50.5580 128(11) 133.6067 96.3363
10058 50.5621 128(11) 133.5670 96.3242
10059 50.5661 128(11) 133.5320 96.3121
10060 50.5701 128(11) 133.5020 96.3000
10061 50.5742 128(11) 133.4768 96.2879
10062 50.5782 128(11) 133.4563 96.2757
10063 50.5822 128(11) 133.4406 96.2636
10064 50.5862 128(11) 133.4297 96.2515
10065 50.5903 128(11) 133.4236 96.2394
10066 50.5943 128(11) 133.4222 96.2273
10067 50.5983 128(11) 133.4256 96.2153
10068 50.6024 128(11) 133.4337 96.2032
10069 50.6064 128(11) 133.4466 96.1911
10070 50.6104 128(11) 133.4643 96.1790
10071 50.6145 128(11) 133.4867 96.1669
10072 50.6185 128(11) 133.5140 96.1548
10073 50.6225 128(11) 133.5461 96.1427
10074 50.6266 128(11) 133.5830 96.1307
10075 50.6306 128(11) 133.6248 96.1186
10076 50.6346 128(11) 133.6714 96.1065
10077 50.6386 128(11) 133.7230 96.0944
10078 50.6427 128(11) 133.7794 96.0824
10079 50.6467 128(11) 133.8409 96.0703
10080 50.6507 128(11) 133.9072 96.0583
10081 50.6548 128(11) 133.9785 96.0462
10082 50.6588 128(11) 134.0548 96.0341
10083 50.6628 127(11) 134.1362 96.0221
10084 50.6669 127(11) 134.2226 96.0100
10085 50.6709 127(11) 134.3142 95.9980
10086 50.6749 127(11) 134.4108 95.9860
10087 50.6790 127(11) 134.5126 95.9739
10088 50.6830 127(11) 134.6195 95.9619
10089 50.6870 127(11) 134.7317 95.9498
10090 50.6911 127(11) 134.8492 95.9378
10091 50.6951 127(11) 134.9718 95.9258
10092 50.6991 127(11) 135.0998 95.9137
10093 50.7031 127(11) 135.2333 95.9017
10094 50.7072 127(11) 135.3720 95.8897
10095 50.7112 127(11) 135.5162 95.8777
10096 50.7152 127(11) 135.6660 95.8656
10097 50.7193 127(11) 135.8213 95.8536
10098 50.7233 127(11) 135.9821 95.8416
10099 50.7273 128(11) 136.1486 95.8296
10100 50.7314 128(11) 136.3209 95.8176
10101 50.7354 128(11) 136.4987 95.8056
10102 50.7394 128(11) 136.6826 95.7936
10103 50.7435 128(11) 136.8724 95.7816
10104 50.7475 128(11) 137.0681 95.7696
10105 50.7515 128(11) 137.2698 95.7576
10106 50.7555 128(11) 137.4777 95.7456
10107 50.7596 129(11) 137.6919 95.7336
10108 50.7636 129(11) 137.9121 95.7216
10109 50.7676 129(11) 138.1390 95.7096
10110 50.7717 129(11) 138.3723 95.6976
10111 50.7757 129(11) 138.6121 95.6857
10112 50.7797 130(11) 138.8587 95.6737
10113 50.7838 130(11) 139.1122 95.6617
10114 50.7878 130(11) 139.3726 95.6497
10115 50.7918 130(11) 139.6398 95.6378
10116 50.7959 131(11) 139.9143 95.6258
10117 50.7999 131(11) 140.1962 95.6138
10118 50.8039 131(11) 140.4852 95.6019
10119 50.8079 131(11) 140.7820 95.5899
10120 50.8120 132(11) 141.0864 95.5780
10121 50.8160 132(11) 141.3983 95.5660
10122 50.8200 132(11) 141.7184 95.5540
10123 50.8241 133(12) 142.0466 95.5421
10124 50.8281 133(12) 142.3828 95.5301
10125 50.8321 133(12) 142.7270 95.5182
10126 50.8362 134(12) 143.0799 95.5063
10127 50.8402 134(12) 143.4412 95.4943
10128 50.8442 134(12) 143.8108 95.4824
10129 50.8483 135(12) 144.1894 95.4705
10130 50.8523 135(12) 144.5767 95.4585
10131 50.8563 136(12) 144.9724 95.4466
10132 50.8604 136(12) 145.3773 95.4347
10133 50.8644 137(12) 145.7911 95.4227
10134 50.8684 137(12) 146.2138 95.4108
10135 50.8724 137(12) 146.6450 95.3989
10136 50.8765 138(12) 147.0855 95.3870
10137 50.8805 138(12) 147.5349 95.3751
10138 50.8845 139(12) 147.9926 95.3632
10139 50.8886 139(12) 148.4595 95.3512
10140 50.8926 140(12) 148.9350 95.3393
10141 50.8966 140(12) 149.4185 95.3274
10142 50.9007 141(12) 149.9108 95.3155
10143 50.9047 141(12) 150.4113 95.3036
10144 50.9087 142(12) 150.9198 95.2917
10145 50.9128 142(12) 151.4356 95.2799
10146 50.9168 143(12) 151.9594 95.2680
10147 50.9208 143(12) 152.4906 95.2561
10148 50.9248 144(12) 153.0283 95.2442
10149 50.9289 145(12) 153.5733 95.2323
10150 50.9329 145(12) 154.1353 95.2204
10151 50.9369 146(12) 154.6932 95.2085
10152 50.9410 147(12) 155.2566 95.1967
10153 50.9450 147(12) 155.8263 95.1848
10154 50.9490 148(12) 156.4016 95.1729
10155 50.9531 149(12) 156.9818 95.1611
10156 50.9571 149(12) 157.5677 95.1492
10157 50.9611 150(12) 158.1587 95.1373
10158 50.9652 151(12) 158.7541 95.1255
10159 50.9692 152(12) 159.3551 95.1136
10160 50.9732 152(12) 159.9610 95.1017
10161 50.9773 153(12) 160.5720 95.0899
10162 50.9813 154(12) 161.1875 95.0781
10163 50.9853 154(12) 161.8090 95.0662
10164 50.9893 155(12) 162.4360 95.0543
10165 50.9934 156(12) 163.0683 95.0425
10166 50.9974 157(13) 163.7073 95.0307
10167 51.0014 157(13) 164.3529 95.0188
10168 51.0055 158(13) 165.0049 95.0070
10169 51.0095 159(13) 165.6649 94.9952
10170 51.0135 159(13) 166.3329 94.9833
10171 51.0176 160(13) 167.0093 94.9715
10172 51.0216 161(13) 167.6938 94.9597
10173 51.0256 161(13) 168.3884 94.9479
10174 51.0297 162(13) 169.0927 94.9360
10175 51.0337 163(13) 169.8065 94.9242
10176 51.0377 163(13) 170.5315 94.9124
10177 51.0417 164(13) 171.2670 94.9006
10178 51.0458 165(13) 172.0127 94.8888
10179 51.0498 165(13) 172.7700 94.8770
10180 51.0538 166(13) 173.5431 94.8652
10181 51.0579 167(13) 174.3214 94.8534
10182 51.0619 167(13) 175.1091 94.8416
10183 51.0659 168(13) 175.9071 94.8298
10184 51.0700 169(13) 176.7139 94.8180
10185 51.0740 169(13) 177.5277 94.8062
10186 51.0780 170(13) 178.3491 94.7944
10187 51.0821 171(13) 179.1759 94.7826
10188 51.0861 171(13) 180.0068 94.7708
10189 51.0901 172(13) 180.8392 94.7590
10190 51.0942 173(13) 181.6729 94.7472
10191 51.0982 173(13) 182.5052 94.7355
10192 51.1022 174(13) 183.3330 94.7237
10193 51.1062 174(13) 184.1548 94.7119
10194 51.1103 175(13) 184.9691 94.7001
10195 51.1143 176(13) 185.7716 94.6884
10196 51.1183 176(13) 186.5614 94.6766
10197 51.1224 177(13) 187.3348 94.6648
10198 51.1264 177(13) 188.0892 94.6531
10199 51.1304 178(13) 188.8210 94.6413
10200 51.1345 179(13) 189.5289 94.6296
10201 51.1385 179(13) 190.2095 94.6178
10202 51.1425 180(13) 190.8595 94.6061
10203 51.1466 180(13) 191.4775 94.5943
10204 51.1506 180(13) 192.0606 94.5826
10205 51.1546 181(13) 192.6491 94.5708
10206 51.1586 181(13) 193.1557 94.5591
10207 51.1627 182(13) 193.6210 94.5473
10208 51.1667 182(13) 194.0437 94.5356
10209 51.1707 182(13) 194.4219 94.5239
10210 51.1748 182(13) 194.7552 94.5121
10211 51.1788 183(14) 195.0425 94.5004
10212 51.1828 183(14) 195.2831 94.4887
10213 51.1869 183(14) 195.4773 94.4770
10214 51.1909 183(14) 195.6248 94.4652
10215 51.1949 183(14) 195.7261 94.4535
10216 51.1990 183(14) 195.7820 94.4418
10217 51.2030 183(14) 195.7932 94.4301
10218 51.2070 183(14) 195.7610 94.4184
10219 51.2110 183(14) 195.6868 94.4067
10220 51.2151 183(14) 195.5720 94.3950
10221 51.2191 183(14) 195.4184 94.3832
10222 51.2231 183(14) 195.2280 94.3715
10223 51.2272 182(13) 195.0025 94.3598
10224 51.2312 182(13) 194.7439 94.3481
10225 51.2352 182(13) 194.4543 94.3364
10226 51.2393 181(13) 194.1358 94.3248
10227 51.2433 181(13) 193.7900 94.3131
10228 51.2473 181(13) 193.4189 94.3014
10229 51.2514 180(13) 193.0243 94.2897
10230 51.2554 180(13) 192.6079 94.2780
10231 51.2594 179(13) 192.1714 94.2663
10232 51.2635 179(13) 191.7163 94.2547
10233 51.2675 178(13) 191.2433 94.2430
10234 51.2715 177(13) 190.7538 94.2313
10235 51.2755 177(13) 190.2487 94.2196
10236 51.2796 176(13) 189.7511 94.2080
10237 51.2836 175(13) 189.2174 94.1963
10238 51.2876 175(13) 188.6703 94.1846
10239 51.2917 174(13) 188.1107 94.1730
10240 51.2957 173(13) 187.5379 94.1613
10241 51.2997 172(13) 186.9528 94.1496
10242 51.3038 171(13) 186.3562 94.1380
10243 51.3078 171(13) 185.7471 94.1263
10244 51.3118 170(13) 185.1263 94.1147
10245 51.3159 169(13) 184.4941 94.1030
10246 51.3199 168(13) 183.8513 94.0914
10247 51.3239 167(13) 183.1969 94.0798
10248 51.3279 167(13) 182.5318 94.0681
10249 51.3320 166(13) 181.8573 94.0565
10250 51.3360 165(13) 181.1722 94.0448
10251 51.3400 164(13) 180.4781 94.0332
10252 51.3441 163(13) 179.7761 94.0216
10253 51.3481 163(13) 179.0657 94.0099
10254 51.3521 162(13) 178.3483 93.9983
10255 51.3562 161(13) 177.6248 93.9867
10256 51.3602 160(13) 176.8970 93.9751
10257 51.3642 160(13) 176.1645 93.9634
10258 51.3683 159(13) 175.4289 93.9518
10259 51.3723 158(13) 174.6924 93.9402
10260 51.3763 157(13) 173.9544 93.9286
10261 51.3804 157(13) 173.2171 93.9170
10262 51.3844 156(12) 172.4814 93.9054
10263 51.3884 155(12) 171.7494 93.8938
10264 51.3924 155(12) 171.0208 93.8822
10265 51.3965 154(12) 170.2973 93.8706
10266 51.4005 153(12) 169.5809 93.8590
10267 51.4045 152(12) 168.8710 93.8474
10268 51.4086 152(12) 168.1694 93.8358
10269 51.4126 151(12) 167.4777 93.8242
10270 51.4166 150(12) 166.7953 93.8126
10271 51.4207 150(12) 166.1235 93.8010
10272 51.4247 149(12) 165.4632 93.7894
10273 51.4287 148(12) 164.8154 93.7779
10274 51.4328 148(12) 164.1794 93.7663
10275 51.4368 147(12) 163.5563 93.7547
10276 51.4408 147(12) 162.9468 93.7431
10277 51.4448 146(12) 162.3502 93.7315
10278 51.4489 145(12) 161.7671 93.7200
10279 51.4529 145(12) 161.1982 93.7084
10280 51.4569 144(12) 160.6424 93.6968
10281 51.4610 144(12) 160.1003 93.6853
10282 51.4650 143(12) 159.5717 93.6737
10283 51.4690 143(12) 159.0571 93.6622
10284 51.4731 143(12) 158.5553 93.6506
10285 51.4771 142(12) 158.0665 93.6390
10286 51.4811 142(12) 157.5910 93.6275
10287 51.4852 141(12) 157.1275 93.6160
10288 51.4892 141(12) 156.6764 93.6044
10289 51.4932 141(12) 156.2377 93.5929
10290 51.4972 141(12) 155.8102 93.5813
10291 51.5013 140(12) 155.3941 93.5698
10292 51.5053 140(12) 154.9890 93.5582
10293 51.5093 140(12) 154.5952 93.5467
10294 51.5134 140(12) 154.2113 93.5352
10295 51.5174 139(12) 153.8377 93.5236
10296 51.5214 139(12) 153.4742 93.5121
10297 51.5255 139(12) 153.1201 93.5006
10298 51.5295 139(12) 152.7752 93.4891
10299 51.5335 139(12) 152.4397 93.4775
10300 51.5376 139(12) 152.1128 93.4660
10301 51.5416 138(12) 151.7944 93.4545
10302 51.5456 138(12) 151.5037 93.4430
10303 51.5497 138(12) 151.2023 93.4315
10304 51.5537 138(12) 150.9087 93.4200
10305 51.5577 138(12) 150.6228 93.4084
10306 51.5617 138(12) 150.3450 93.3969
10307 51.5658 138(12) 150.0745 93.3854
10308 51.5698 137(12) 149.8114 93.3739
10309 51.5738 137(12) 149.5557 93.3624
10310 51.5779 137(12) 149.3075 93.3509
10311 51.5819 137(12) 149.0661 93.3395
10312 51.5859 137(12) 148.8319 93.3279
10313 51.5900 137(12) 148.6049 93.3164
10314 51.5940 137(12) 148.3848 93.3050
10315 51.5980 137(12) 148.1716 93.2935
10316 51.6021 136(12) 147.9655 93.2820
10317 51.6061 136(12) 147.7663 93.2705
10318 51.6101 136(12) 147.5741 93.2590
10319 51.6142 136(12) 147.3889 93.2476
10320 51.6182 136(12) 147.2323 93.2361
10321 51.6222 136(12) 147.0614 93.2246
10322 51.6262 136(12) 146.8978 93.2132
10323 51.6303 136(12) 146.7416 93.2017
10324 51.6343 136(12) 146.5928 93.1902
10325 51.6383 136(12) 146.4516 93.1788
10326 51.6424 136(12) 146.3183 93.1673
10327 51.6464 136(12) 146.1927 93.1558
10328 51.6504 136(12) 146.0753 93.1444
10329 51.6545 136(12) 145.9663 93.1329
10330 51.6585 136(12) 145.8658 93.1215
10331 51.6625 136(12) 145.7740 93.1100
10332 51.6666 136(12) 145.6912 93.0985
10333 51.6706 136(12) 145.6273 93.0871
10334 51.6746 136(12) 145.5633 93.0757
10335 51.6786 136(12) 145.5092 93.0642
10336 51.6827 136(12) 145.4652 93.0528
10337 51.6867 136(12) 145.4317 93.0414
10338 51.6907 136(12) 145.4088 93.0299
10339 51.6948 136(12) 145.3971 93.0185
10340 51.6988 137(12) 145.3967 93.0071
10341 51.7028 137(12) 145.4081 92.9956
10342 51.7069 137(12) 145.4315 92.9842
10343 51.7109 137(12) 145.4672 92.9728
10344 51.7149 137(12) 145.5157 92.9613
10345 51.7190 137(12) 145.5771 92.9499
10346 51.7230 138(12) 145.6517 92.9385
10347 51.7270 138(12) 145.7400 92.9271
10348 51.7310 138(12) 145.8423 92.9157
10349 51.7351 138(12) 145.9586 92.9043
10350 51.7391 139(12) 146.0998 92.8929
10351 51.7431 139(12) 146.2450 92.8814
10352 51.7472 139(12) 146.4050 92.8700
10353 51.7512 139(12) 146.5795 92.8586
10354 51.7552 140(12) 146.7690 92.8473
10355 51.7593 140(12) 146.9734 92.8359
10356 51.7633 140(12) 147.1927 92.8244
10357 51.7673 140(12) 147.4264 92.8131
10358 51.7714 141(12) 147.6750 92.8017
10359 51.7754 141(12) 147.9378 92.7903
10360 51.7794 141(12) 148.2145 92.7789
10361 51.7835 141(12) 148.5050 92.7675
10362 51.7875 142(12) 148.8086 92.7561
10363 51.7915 142(12) 149.1245 92.7448
10364 51.7955 142(12) 149.4526 92.7334
10365 51.7996 142(12) 149.7919 92.7220
10366 51.8036 142(12) 150.1414 92.7106
10367 51.8076 143(12) 150.4999 92.6992
10368 51.8117 143(12) 150.8671 92.6879
10369 51.8157 143(12) 151.2414 92.6765
10370 51.8197 143(12) 151.6212 92.6651
10371 51.8238 143(12) 152.0059 92.6538
10372 51.8278 143(12) 152.3937 92.6424
10373 51.8318 144(12) 152.7827 92.6311
10374 51.8359 144(12) 153.1721 92.6197
10375 51.8399 144(12) 153.5599 92.6084
10376 51.8439 144(12) 153.9442 92.5970
10377 51.8479 144(12) 154.3232 92.5856
10378 51.8520 144(12) 154.6956 92.5743
10379 51.8560 144(12) 155.0594 92.5629
10380 51.8600 144(12) 155.4124 92.5516
10381 51.8641 144(12) 155.7536 92.5403
10382 51.8681 144(12) 156.0808 92.5289
10383 51.8721 144(12) 156.3926 92.5176
10384 51.8762 144(12) 156.6869 92.5062
10385 51.8802 144(12) 156.9630 92.4949
10386 51.8842 144(12) 157.2190 92.4836
10387 51.8883 144(12) 157.4537 92.4722
10388 51.8923 144(12) 157.6662 92.4609
10389 51.8963 144(12) 157.8555 92.4496
10390 51.9003 144(12) 158.0206 92.4383
10391 51.9044 144(12) 158.1611 92.4269
10392 51.9084 145(12) 158.2767 92.4156
10393 51.9124 145(12) 158.3668 92.4043
10394 51.9165 145(12) 158.4315 92.3930
10395 51.9205 145(12) 158.4709 92.3817
10396 51.9245 145(12) 158.4854 92.3703
10397 51.9286 145(12) 158.4751 92.3590
10398 51.9326 145(12) 158.4409 92.3477
10399 51.9366 145(12) 158.3833 92.3364
10400 51.9407 145(12) 158.3033 92.3251
10401 51.9447 145(12) 158.2017 92.3138
10402 51.9487 146(12) 158.0796 92.3025
10403 51.9528 146(12) 157.9379 92.2912
10404 51.9568 146(12) 157.7781 92.2799
10405 51.9608 146(12) 157.6011 92.2686
10406 51.9648 146(12) 157.4081 92.2573
10407 51.9689 146(12) 157.2003 92.2460
10408 51.9729 146(12) 156.9788 92.2348
10409 51.9769 146(12) 156.7447 92.2235
10410 51.9810 146(12) 156.4993 92.2122
10411 51.9850 146(12) 156.2432 92.2009
10412 51.9890 146(12) 155.9776 92.1896
10413 51.9931 147(12) 155.7034 92.1784
10414 51.9971 147(12) 155.4216 92.1671
10415 52.0011 147(12) 155.1325 92.1558
10416 52.0052 147(12) 154.8371 92.1445
10417 52.0092 147(12) 154.5363 92.1333
10418 52.0132 146(12) 154.2300 92.1220
10419 52.0173 146(12) 153.9191 92.1107
10420 52.0213 146(12) 153.6041 92.0995
10421 52.0253 146(12) 153.2857 92.0882
10422 52.0293 146(12) 152.9638 92.0769
10423 52.0334 146(12) 152.6390 92.0657
10424 52.0374 146(12) 152.3120 92.0544
10425 52.0414 146(12) 151.9827 92.0432
10426 52.0455 146(12) 151.6518 92.0319
10427 52.0495 145(12) 151.3199 92.0207
10428 52.0535 145(12) 150.9868 92.0094
10429 52.0576 145(12) 150.6534 91.9982
10430 52.0616 145(12) 150.3201 91.9869
10431 52.0656 145(12) 149.9877 91.9757
10432 52.0697 145(12) 149.6560 91.9645
10433 52.0737 144(12) 149.3260 91.9532
10434 52.0777 144(12) 148.9984 91.9420
10435 52.0817 144(12) 148.6947 91.9308
10436 52.0858 144(12) 148.3728 91.9195
10437 52.0898 144(12) 148.0551 91.9083
10438 52.0938 144(12) 147.7415 91.8971
10439 52.0979 143(12) 147.4328 91.8858
10440 52.1019 143(12) 147.1295 91.8746
10441 52.1059 143(12) 146.8325 91.8634
10442 52.1100 143(12) 146.5416 91.8521
10443 52.1140 143(12) 146.2575 91.8410
10444 52.1180 143(12) 145.9809 91.8297
10445 52.1221 142(12) 145.7114 91.8185
10446 52.1261 142(12) 145.4496 91.8073
10447 52.1301 142(12) 145.1960 91.7961
10448 52.1341 142(12) 144.9502 91.7849
10449 52.1382 142(12) 144.7123 91.7737
10450 52.1422 142(12) 144.4825 91.7625
10451 52.1462 141(12) 144.2607 91.7513
10452 52.1503 141(12) 144.0464 91.7401
10453 52.1543 141(12) 143.8395 91.7289
10454 52.1583 141(12) 143.6398 91.7177
10455 52.1624 141(12) 143.4467 91.7065
10456 52.1664 140(12) 143.2597 91.6953
10457 52.1704 140(12) 143.0786 91.6841
10458 52.1745 140(12) 142.9023 91.6729
10459 52.1785 140(12) 142.7305 91.6617
10460 52.1825 139(12) 142.5625 91.6505
10461 52.1866 139(12) 142.3977 91.6393
10462 52.1906 139(12) 142.2328 91.6282
10463 52.1946 139(12) 142.0718 91.6170
10464 52.1986 139(12) 141.9119 91.6058
10465 52.2027 138(12) 141.7519 91.5946
10466 52.2067 138(12) 141.6019 91.5834
10467 52.2107 138(12) 141.4486 91.5723
10468 52.2148 138(12) 141.2848 91.5611
10469 52.2188 137(12) 141.1183 91.5499
10470 52.2228 137(12) 140.9485 91.5387
10471 52.2269 137(12) 140.7751 91.5276
10472 52.2309 137(12) 140.5972 91.5164
10473 52.2349 137(12) 140.4146 91.5053
10474 52.2390 136(12) 140.2270 91.4941
10475 52.2430 136(12) 140.0339 91.4830
10476 52.2470 136(12) 139.8352 91.4718
10477 52.2510 136(12) 139.6306 91.4606
10478 52.2551 136(12) 139.4202 91.4495
10479 52.2591 135(12) 139.2037 91.4383
10480 52.2631 135(12) 138.9812 91.4272
10481 52.2672 135(12) 138.7530 91.4161
10482 52.2712 135(12) 138.5188 91.4049
10483 52.2752 134(12) 138.2790 91.3938
10484 52.2793 134(12) 138.0339 91.3826
10485 52.2833 134(12) 137.7834 91.3715
10486 52.2873 134(12) 137.5279 91.3603
10487 52.2914 134(12) 137.2678 91.3492
10488 52.2954 133(12) 137.0034 91.3381
10489 52.2994 133(12) 136.7347 91.3269
10490 52.3035 133(12) 136.4621 91.3158
10491 52.3075 133(12) 136.1862 91.3047
10492 52.3115 133(12) 135.9068 91.2935
10493 52.3155 133(12) 135.6244 91.2824
10494 52.3196 132(11) 135.3394 91.2713
10495 52.3236 132(11) 135.0516 91.2602
10496 52.3276 132(11) 134.7614 91.2491
10497 52.3317 132(11) 134.4691 91.2379
10498 52.3357 132(11) 134.1781 91.2268
10499 52.3397 132(11) 133.8819 91.2157
10500 52.3438 132(11) 133.5840 91.2046
10501 52.3478 132(11) 133.2848 91.1935
10502 52.3518 131(11) 132.9838 91.1824
10503 52.3559 131(11) 132.6814 91.1713
10504 52.3599 131(11) 132.3778 91.1602
10505 52.3639 131(11) 132.0732 91.1490
10506 52.3679 131(11) 131.7672 91.1379
10507 52.3720 131(11) 131.4602 91.1268
10508 52.3760 131(11) 131.1525 91.1158
10509 52.3800 131(11) 130.8438 91.1047
10510 52.3841 131(11) 130.5344 91.0936
10511 52.3881 131(11) 130.2247 91.0825
10512 52.3921 131(11) 129.9143 91.0714
10513 52.3962 130(11) 129.6037 91.0603
10514 52.4002 130(11) 129.2930 91.0492
10515 52.4042 130(11) 128.9827 91.0381
10516 52.4083 130(11) 128.6724 91.0270
10517 52.4123 130(11) 128.3626 91.0159
10518 52.4163 129(11) 128.0540 91.0049
10519 52.4203 129(11) 127.7460 90.9938
10520 52.4244 129(11) 127.4392 90.9827
10521 52.4284 129(11) 127.1343 90.9716
10522 52.4324 128(11) 126.8307 90.9606
10523 52.4365 128(11) 126.5292 90.9495
10524 52.4405 128(11) 126.2299 90.9384
10525 52.4445 127(11) 125.9335 90.9273
10526 52.4486 127(11) 125.6394 90.9163
10527 52.4526 127(11) 125.3484 90.9052
10528 52.4566 126(11) 125.0608 90.8941
10529 52.4607 126(11) 124.7763 90.8831
10530 52.4647 126(11) 124.4955 90.8720
10531 52.4687 125(11) 124.2187 90.8610
10532 52.4728 125(11) 123.9456 90.8499
10533 52.4768 125(11) 123.6766 90.8388
10534 52.4808 125(11) 123.4120 90.8278
10535 52.4848 124(11) 123.1519 90.8167
10536 52.4889 124(11) 122.8960 90.8057
10537 52.4929 124(11) 122.6448 90.7946
10538 52.4969 124(11) 122.3984 90.7836
10539 52.5010 124(11) 122.1565 90.7725
10540 52.5050 123(11) 121.9194 90.7615
10541 52.5090 123(11) 121.6870 90.7504
10542 52.5131 123(11) 121.4597 90.7394
10543 52.5171 123(11) 121.2369 90.7283
10544 52.5211 123(11) 121.0189 90.7173
10545 52.5252 123(11) 120.8058 90.7063
10546 52.5292 123(11) 120.5972 90.6952
10547 52.5332 123(11) 120.3933 90.6842
10548 52.5372 123(11) 120.1942 90.6732
10549 52.5413 123(11) 119.9995 90.6621
10550 52.5453 123(11) 119.8092 90.6511
10551 52.5493 123(11) 119.6234 90.6401
10552 52.5534 123(11) 119.4421 90.6291
10553 52.5574 123(11) 119.2648 90.6180
10554 52.5614 123(11) 119.0917 90.6070
10555 52.5655 123(11) 118.9229 90.5960
10556 52.5695 123(11) 118.7578 90.5850
10557 52.5735 123(11) 118.5967 90.5740
10558 52.5776 123(11) 118.4395 90.5630
10559 52.5816 123(11) 118.2859 90.5519
10560 52.5856 123(11) 118.1359 90.5409
10561 52.5897 123(11) 117.9893 90.5299
10562 52.5937 123(11) 117.8464 90.5189
10563 52.5977 123(11) 117.7067 90.5079
10564 52.6017 123(11) 117.5702 90.4969
10565 52.6058 123(11) 117.4370 90.4859
10566 52.6098 123(11) 117.3068 90.4749
10567 52.6138 123(11) 117.1796 90.4639
10568 52.6179 123(11) 117.0555 90.4529
10569 52.6219 123(11) 116.9340 90.4419
10570 52.6259 123(11) 116.8154 90.4309
10571 52.6300 123(11) 116.6994 90.4199
10572 52.6340 123(11) 116.5863 90.4089
10573 52.6380 123(11) 116.4756 90.3979
10574 52.6421 123(11) 116.3674 90.3869
10575 52.6461 123(11) 116.2617 90.3759
10576 52.6501 123(11) 116.1585 90.3649
10577 52.6541 122(11) 116.0575 90.3539
10578 52.6582 122(11) 115.9591 90.3430
10579 52.6622 122(11) 115.8296 90.3320
10580 52.6662 122(11) 115.7355 90.3210
10581 52.6703 122(11) 115.6437 90.3100
10582 52.6743 122(11) 115.5541 90.2990
10583 52.6783 121(11) 115.4666 90.2881
10584 52.6824 121(11) 115.3811 90.2771
10585 52.6864 121(11) 115.2978 90.2661
10586 52.6904 121(11) 115.2165 90.2551
10587 52.6945 120(11) 115.1372 90.2442
10588 52.6985 120(11) 115.0599 90.2332
10589 52.7025 120(11) 114.9847 90.2222
10590 52.7066 120(11) 114.9114 90.2113
10591 52.7106 119(11) 114.8409 90.2003
10592 52.7146 119(11) 114.7716 90.1893
10593 52.7186 119(11) 114.7041 90.1784
10594 52.7227 118(11) 114.6386 90.1674
10595 52.7267 118(11) 114.5750 90.1564
10596 52.7307 118(11) 114.5133 90.1455
10597 52.7348 118(11) 114.4535 90.1345
10598 52.7388 117(11) 114.3957 90.1236
10599 52.7428 117(11) 114.3397 90.1126
10600 52.7469 117(11) 114.2857 90.1017
10601 52.7509 117(11) 114.2335 90.0907
10602 52.7549 116(11) 114.1833 90.0798
10603 52.7590 116(11) 114.1350 90.0688
10604 52.7630 116(11) 114.0885 90.0579
10605 52.7670 116(11) 114.0440 90.0469
10606 52.7710 116(11) 114.0014 90.0360
10607 52.7751 116(11) 113.9608 90.0250
10608 52.7791 116(11) 113.9220 90.0141
10609 52.7831 115(11) 113.8852 90.0032
10610 52.7872 115(11) 113.8503 89.9922
10611 52.7912 115(11) 113.8173 89.9813
10612 52.7952 115(11) 113.7863 89.9703
10613 52.7993 115(11) 113.7573 89.9594
10614 52.8033 115(11) 113.7302 89.9485
10615 52.8073 115(11) 113.6886 89.9375
10616 52.8114 115(11) 113.6655 89.9266
10617 52.8154 115(11) 113.6443 89.9157
10618 52.8194 115(11) 113.6252 89.9047
10619 52.8234 116(11) 113.6080 89.8938
10620 52.8275 116(11) 113.5929 89.8829
10621 52.8315 116(11) 113.5797 89.8720
10622 52.8355 116(11) 113.5686 89.8611
10623 52.8396 116(11) 113.5600 89.8501
10624 52.8436 116(11) 113.5529 89.8392
10625 52.8476 116(11) 113.5479 89.8283
10626 52.8517 116(11) 113.5450 89.8174
10627 52.8557 116(11) 113.5441 89.8065
10628 52.8597 117(11) 113.5453 89.7956
10629 52.8638 117(11) 113.5486 89.7847
10630 52.8678 117(11) 113.5540 89.7737
10631 52.8718 117(11) 113.5615 89.7628
10632 52.8759 117(11) 113.5711 89.7519
10633 52.8799 117(11) 113.5828 89.7410
10634 52.8839 117(11) 113.5966 89.7301
10635 52.8879 118(11) 113.6126 89.7192
10636 52.8920 118(11) 113.6307 89.7083
10637 52.8960 118(11) 113.6511 89.6974
10638 52.9000 118(11) 113.6736 89.6865
10639 52.9041 118(11) 113.6982 89.6756
10640 52.9081 118(11) 113.7251 89.6647
10641 52.9121 118(11) 113.7542 89.6538
10642 52.9162 118(11) 113.7854 89.6429
10643 52.9202 118(11) 113.8190 89.6320
10644 52.9242 118(11) 113.8548 89.6211
10645 52.9283 118(11) 113.8928 89.6102
10646 52.9323 118(11) 113.9331 89.5993
10647 52.9363 119(11) 113.9757 89.5885
10648 52.9403 119(11) 114.0206 89.5776
10649 52.9444 119(11) 114.0677 89.5667
10650 52.9484 119(11) 114.1173 89.5558
10651 52.9524 119(11) 114.1692 89.5449
10652 52.9565 119(11) 114.2234 89.5340
10653 52.9605 119(11) 114.2800 89.5232
10654 52.9645 119(11) 114.3390 89.5123
10655 52.9686 119(11) 114.4004 89.5014
10656 52.9726 119(11) 114.4642 89.4905
10657 52.9766 119(11) 114.5599 89.4796
10658 52.9807 119(11) 114.6286 89.4688
10659 52.9847 119(11) 114.6998 89.4579
10660 52.9887 119(11) 114.7736 89.4470
10661 52.9928 119(11) 114.8499 89.4361
10662 52.9968 119(11) 114.9287 89.4253
10663 53.0008 120(11) 115.0101 89.4144
10664 53.0048 120(11) 115.0940 89.4035
10665 53.0089 120(11) 115.1806 89.3927
10666 53.0129 120(11) 115.2698 89.3818
10667 53.0169 120(11) 115.3616 89.3710
10668 53.0210 120(11) 115.4562 89.3601
10669 53.0250 120(11) 115.5534 89.3492
10670 53.0290 120(11) 115.6533 89.3384
10671 53.0331 120(11) 115.7561 89.3275
10672 53.0371 120(11) 115.8616 89.3166
10673 53.0411 120(11) 115.9698 89.3058
10674 53.0452 120(11) 116.0809 89.2949
10675 53.0492 120(11) 116.1949 89.2841
10676 53.0532 119(11) 116.3117 89.2732
10677 53.0572 119(11) 116.4315 89.2624
10678 53.0613 119(11) 116.5542 89.2515
10679 53.0653 119(11) 116.6798 89.2407
10680 53.0693 119(11) 116.8085 89.2298
10681 53.0734 119(11) 116.9403 89.2190
10682 53.0774 119(11) 117.0751 89.2081
10683 53.0814 119(11) 117.2128 89.1973
10684 53.0855 119(11) 117.3538 89.1864
10685 53.0895 119(11) 117.4980 89.1756
10686 53.0935 119(11) 117.6452 89.1648
10687 53.0976 119(11) 117.7957 89.1539
10688 53.1016 119(11) 117.9640 89.1431
10689 53.1056 119(11) 118.1209 89.1322
10690 53.1096 119(11) 118.2813 89.1214
10691 53.1137 120(11) 118.4450 89.1105
10692 53.1177 120(11) 118.6120 89.0997
10693 53.1217 120(11) 118.7823 89.0889
10694 53.1258 120(11) 118.9561 89.0780
10695 53.1298 120(11) 119.1335 89.0672
10696 53.1338 120(11) 119.3141 89.0564
10697 53.1379 120(11) 119.4984 89.0456
10698 53.1419 120(11) 119.6862 89.0347
10699 53.1459 121(11) 119.8776 89.0239
10700 53.1500 121(11) 120.0724 89.0131
10701 53.1540 121(11) 120.2710 89.0023
10702 53.1580 121(11) 120.4732 88.9914
10703 53.1621 121(11) 120.6789 88.9806
10704 53.1661 121(11) 120.9113 88.9698
10705 53.1701 121(11) 121.1245 88.9590
10706 53.1741 121(11) 121.3413 88.9481
10707 53.1782 121(11) 121.5620 88.9373
10708 53.1822 121(11) 121.7865 88.9265
10709 53.1862 121(11) 122.0147 88.9157
10710 53.1903 121(11) 122.2466 88.9049
10711 53.1943 121(11) 122.4824 88.8941
10712 53.1983 121(11) 122.7220 88.8832
10713 53.2024 121(11) 122.9652 88.8724
10714 53.2064 121(11) 123.2124 88.8616
10715 53.2104 121(11) 123.4634 88.8508
10716 53.2145 121(11) 123.7181 88.8400
10717 53.2185 121(11) 123.9767 88.8292
10718 53.2225 120(11) 124.2392 88.8184
10719 53.2266 120(11) 124.5054 88.8076
10720 53.2306 120(11) 124.7753 88.7968
10721 53.2346 120(11) 125.0491 88.7859
10722 53.2386 120(11) 125.3267 88.7752
10723 53.2427 120(11) 125.6077 88.7644
10724 53.2467 120(11) 125.8927 88.7535
10725 53.2507 120(11) 126.1815 88.7428
10726 53.2548 120(11) 126.4736 88.7320
10727 53.2588 120(11) 126.7696 88.7212
10728 53.2628 120(11) 127.0692 88.7104
10729 53.2669 120(11) 127.3724 88.6995
10730 53.2709 120(11) 127.6788 88.6888
10731 53.2749 120(11) 127.9890 88.6780
10732 53.2790 120(11) 128.3025 88.6672
10733 53.2830 120(11) 128.6192 88.6564
10734 53.2870 120(11) 128.9395 88.6456
10735 53.2910 120(11) 129.2744 88.6348
10736 53.2951 120(11) 129.6009 88.6240
10737 53.2991 120(11) 129.9308 88.6132
10738 53.3031 120(11) 130.2639 88.6024
10739 53.3072 120(11) 130.6000 88.5916
10740 53.3112 120(11) 130.9387 88.5808
10741 53.3152 119(11) 131.2806 88.5701
10742 53.3193 119(11) 131.6253 88.5593
10743 53.3233 119(11) 131.9725 88.5485
10744 53.3273 119(11) 132.3227 88.5377
10745 53.3314 119(11) 132.6755 88.5269
10746 53.3354 119(11) 133.0309 88.5161
10747 53.3394 119(11) 133.3884 88.5054
10748 53.3434 119(11) 133.7486 88.4946
10749 53.3475 119(11) 134.1112 88.4838
10750 53.3515 119(11) 134.4757 88.4730
10751 53.3555 119(11) 134.8428 88.4623
10752 53.3596 119(11) 135.2121 88.4515
10753 53.3636 119(11) 135.5831 88.4407
10754 53.3676 119(11) 135.9565 88.4299
10755 53.3717 119(11) 136.3588 88.4192
10756 53.3757 120(11) 136.7362 88.4084
10757 53.3797 120(11) 137.1153 88.3976
10758 53.3838 120(11) 137.4966 88.3868
10759 53.3878 120(11) 137.8798 88.3760
10760 53.3918 120(11) 138.2646 88.3653
10761 53.3959 120(11) 138.6517 88.3545
10762 53.3999 121(11) 139.0407 88.3437
10763 53.4039 121(11) 139.4314 88.3330
10764 53.4079 121(11) 139.8244 88.3222
10765 53.4120 122(11) 140.2195 88.3115
10766 53.4160 122(11) 140.6168 88.3007
10767 53.4200 122(11) 141.0160 88.2899
10768 53.4241 122(11) 141.4179 88.2792
10769 53.4281 123(11) 141.8223 88.2684
10770 53.4321 123(11) 142.2290 88.2576
10771 53.4362 124(11) 142.6388 88.2469
10772 53.4402 124(11) 143.0517 88.2361
10773 53.4442 124(11) 143.4675 88.2254
10774 53.4483 125(11) 143.8870 88.2146
10775 53.4523 125(11) 144.3104 88.2038
10776 53.4563 126(11) 144.7378 88.1931
10777 53.4603 126(11) 145.1691 88.1823
10778 53.4644 126(11) 145.6055 88.1716
10779 53.4684 127(11) 146.0470 88.1608
10780 53.4724 127(11) 146.4935 88.1501
10781 53.4765 128(11) 146.9464 88.1393
10782 53.4805 128(11) 147.4057 88.1286
10783 53.4845 128(11) 147.8718 88.1178
10784 53.4886 129(11) 148.3449 88.1071
10785 53.4926 129(11) 148.8264 88.0963
10786 53.4966 130(11) 149.3164 88.0856
10787 53.5007 130(11) 149.8285 88.0748
10788 53.5047 130(11) 150.3375 88.0641
10789 53.5087 131(11) 150.8569 88.0533
10790 53.5127 131(11) 151.3871 88.0426
10791 53.5168 132(11) 151.9297 88.0318
10792 53.5208 132(11) 152.5130 88.0211
10793 53.5248 133(12) 153.0817 88.0103
10794 53.5289 133(12) 153.6641 87.9996
10795 53.5329 133(12) 154.2621 87.9888
10796 53.5369 134(12) 154.8761 87.9781
10797 53.5410 134(12) 155.5062 87.9674
10798 53.5450 135(12) 156.1545 87.9566
10799 53.5490 135(12) 156.8213 87.9459
10800 53.5531 136(12) 157.5069 87.9351
10801 53.5571 136(12) 158.2133 87.9244
10802 53.5611 137(12) 158.9408 87.9137
10803 53.5652 137(12) 159.6902 87.9029
10804 53.5692 138(12) 160.4618 87.8922
10805 53.5732 138(12) 161.2577 87.8814
10806 53.5772 139(12) 162.0778 87.8707
10807 53.5813 139(12) 162.9223 87.8600
10808 53.5853 140(12) 163.7933 87.8492
10809 53.5893 140(12) 164.6908 87.8385
10810 53.5934 141(12) 165.6143 87.8278
10811 53.5974 142(12) 166.5662 87.8170
10812 53.6014 142(12) 167.5460 87.8063
10813 53.6055 143(12) 168.5540 87.7956
10814 53.6095 143(12) 169.5895 87.7848
10815 53.6135 144(12) 170.6544 87.7741
10816 53.6176 145(12) 171.7616 87.7634
10817 53.6216 145(12) 172.8824 87.7526
10818 53.6256 146(12) 174.0325 87.7419
10819 53.6297 147(12) 175.2102 87.7312
10820 53.6337 147(12) 176.4150 87.7205
10821 53.6377 148(12) 177.6450 87.7097
10822 53.6417 149(12) 178.9015 87.6990
10823 53.6458 150(12) 180.1824 87.6883
10824 53.6498 150(12) 181.4989 87.6776
10825 53.6538 151(12) 182.8242 87.6668
10826 53.6579 152(12) 184.1693 87.6561
10827 53.6619 153(12) 185.5311 87.6454
10828 53.6659 153(12) 186.9099 87.6347
10829 53.6700 154(12) 188.3022 87.6239
10830 53.6740 155(12) 189.7055 87.6132
10831 53.6780 155(12) 191.1158 87.6025
10832 53.6821 156(12) 192.5330 87.5918
10833 53.6861 157(13) 193.9525 87.5811
10834 53.6901 158(13) 195.3700 87.5703
10835 53.6941 158(13) 196.7847 87.5596
10836 53.6982 159(13) 198.1920 87.5489
10837 53.7022 160(13) 199.5867 87.5382
10838 53.7062 160(13) 200.9679 87.5275
10839 53.7103 161(13) 202.3306 87.5167
10840 53.7143 162(13) 203.6711 87.5060
10841 53.7183 162(13) 204.9843 87.4953
10842 53.7224 163(13) 206.2691 87.4846
10843 53.7264 163(13) 207.5203 87.4739
10844 53.7304 164(13) 208.7334 87.4631
10845 53.7345 164(13) 209.9073 87.4524
10846 53.7385 165(13) 211.0372 87.4417
10847 53.7425 166(13) 212.1191 87.4310
10848 53.7465 166(13) 213.1590 87.4203
10849 53.7506 167(13) 214.1395 87.4096
10850 53.7546 167(13) 215.0649 87.3988
10851 53.7586 167(13) 215.9324 87.3882
10852 53.7627 168(13) 216.7416 87.3774
10853 53.7667 168(13) 217.4902 87.3667
10854 53.7707 169(13) 218.1765 87.3560
10855 53.7748 169(13) 218.8010 87.3453
10856 53.7788 169(13) 219.3622 87.3346
10857 53.7828 170(13) 219.8599 87.3239
10858 53.7869 170(13) 220.2949 87.3132
10859 53.7909 171(13) 220.6675 87.3025
10860 53.7949 171(13) 220.9782 87.2918
10861 53.7990 171(13) 221.2282 87.2811
10862 53.8030 171(13) 221.4191 87.2703
10863 53.8070 172(13) 221.5525 87.2596
10864 53.8110 172(13) 221.6300 87.2489
10865 53.8151 172(13) 221.6537 87.2382
10866 53.8191 172(13) 221.6259 87.2275
10867 53.8231 173(13) 221.5487 87.2168
10868 53.8272 173(13) 221.4245 87.2061
10869 53.8312 173(13) 221.2558 87.1954
10870 53.8352 173(13) 221.0447 87.1847
10871 53.8393 173(13) 220.7940 87.1740
10872 53.8433 173(13) 220.5051 87.1633
10873 53.8473 173(13) 220.1814 87.1525
10874 53.8514 173(13) 219.8253 87.1419
10875 53.8554 173(13) 219.4378 87.1312
10876 53.8594 173(13) 219.0213 87.1205
10877 53.8634 173(13) 218.5777 87.1097
10878 53.8675 173(13) 218.1089 87.0991
10879 53.8715 173(13) 217.6157 87.0884
10880 53.8755 173(13) 217.0998 87.0777
10881 53.8796 173(13) 216.5630 87.0670
10882 53.8836 172(13) 216.0053 87.0563
10883 53.8876 172(13) 215.4283 87.0455
10884 53.8917 172(13) 214.8331 87.0349
10885 53.8957 172(13) 214.2196 87.0241
10886 53.8997 172(13) 213.5888 87.0135
10887 53.9038 171(13) 212.9413 87.0027
10888 53.9078 171(13) 212.2783 86.9920
10889 53.9118 171(13) 211.5989 86.9813
10890 53.9159 171(13) 210.9041 86.9706
10891 53.9199 170(13) 210.1951 86.9599
10892 53.9239 170(13) 209.4709 86.9492
10893 53.9279 170(13) 208.7326 86.9385
10894 53.9320 170(13) 207.9814 86.9278
10895 53.9360 170(13) 207.2164 86.9172
10896 53.9400 169(13) 206.4388 86.9064
10897 53.9441 169(13) 205.6492 86.8957
10898 53.9481 169(13) 204.8490 86.8851
10899 53.9521 169(13) 204.0376 86.8744
10900 53.9562 168(13) 203.2162 86.8636
10901 53.9602 168(13) 202.3867 86.8530
10902 53.9642 168(13) 201.5484 86.8423
10903 53.9683 168(13) 200.7030 86.8316
10904 53.9723 168(13) 199.8516 86.8209
10905 53.9763 167(13) 198.9960 86.8102
10906 53.9803 167(13) 198.1358 86.7995
10907 53.9844 167(13) 197.2730 86.7888
10908 53.9884 167(13) 196.4096 86.7781
10909 53.9924 166(13) 195.5838 86.7674
10910 53.9965 166(13) 194.7201 86.7567
10911 54.0005 166(13) 193.8597 86.7460
10912 54.0045 165(13) 193.0019 86.7353
10913 54.0086 165(13) 192.1489 86.7246
10914 54.0126 165(13) 191.3018 86.7139
10915 54.0166 164(13) 190.4625 86.7032
10916 54.0207 164(13) 189.6308 86.6925
10917 54.0247 163(13) 188.8083 86.6818
10918 54.0287 163(13) 187.9970 86.6711
10919 54.0327 162(13) 187.2198 86.6604
10920 54.0368 162(13) 186.4315 86.6497
10921 54.0408 161(13) 185.6572 86.6390
10922 54.0448 161(13) 184.8962 86.6284
10923 54.0489 160(13) 184.1501 86.6177
10924 54.0529 160(13) 183.4193 86.6070
10925 54.0569 159(13) 182.7055 86.5963
10926 54.0610 158(13) 182.0076 86.5856
10927 54.0650 158(13) 181.3267 86.5749
10928 54.0690 157(13) 180.6640 86.5642
10929 54.0731 157(13) 180.0184 86.5535
10930 54.0771 156(12) 179.3909 86.5428
10931 54.0811 155(12) 178.7821 86.5321
10932 54.0852 155(12) 178.1909 86.5214
10933 54.0892 154(12) 177.6181 86.5107
10934 54.0932 153(12) 177.0636 86.5000
10935 54.0972 153(12) 176.5277 86.4893
10936 54.1013 152(12) 176.0093 86.4786
10937 54.1053 151(12) 175.5088 86.4679
10938 54.1093 151(12) 175.0263 86.4572
10939 54.1134 150(12) 174.5606 86.4466
10940 54.1174 150(12) 174.1119 86.4359
10941 54.1214 149(12) 173.6798 86.4252
10942 54.1255 148(12) 173.2836 86.4145
10943 54.1295 148(12) 172.8835 86.4038
10944 54.1335 147(12) 172.4987 86.3931
10945 54.1376 147(12) 172.1291 86.3824
10946 54.1416 146(12) 171.7736 86.3717
10947 54.1456 146(12) 171.4320 86.3610
10948 54.1496 145(12) 171.1039 86.3503
10949 54.1537 145(12) 170.7884 86.3396
10950 54.1577 144(12) 170.4851 86.3289
10951 54.1617 144(12) 170.2051 86.3182
10952 54.1658 143(12) 169.9250 86.3075
10953 54.1698 143(12) 169.6550 86.2968
10954 54.1738 142(12) 169.3949 86.2861
10955 54.1779 142(12) 169.1443 86.2755
10956 54.1819 141(12) 168.9021 86.2647
10957 54.1859 141(12) 168.6678 86.2541
10958 54.1900 141(12) 168.4410 86.2434
10959 54.1940 140(12) 168.2206 86.2327
10960 54.1980 140(12) 168.0060 86.2220
10961 54.2021 140(12) 167.7966 86.2113
10962 54.2061 139(12) 167.5918 86.2006
10963 54.2101 139(12) 167.3903 86.1899
10964 54.2141 139(12) 167.1917 86.1792
10965 54.2182 139(12) 166.9953 86.1685
10966 54.2222 138(12) 166.7999 86.1578
10967 54.2262 138(12) 166.6048 86.1471
10968 54.2303 138(12) 166.4094 86.1364
10969 54.2343 138(12) 166.2126 86.1257
10970 54.2383 138(12) 166.0136 86.1150
10971 54.2424 138(12) 165.8116 86.1043
10972 54.2464 137(12) 165.6060 86.0936
10973 54.2504 137(12) 165.3957 86.0829
10974 54.2545 137(12) 165.1799 86.0722
10975 54.2585 137(12) 164.9582 86.0616
10976 54.2625 137(12) 164.7294 86.0508
10977 54.2665 137(12) 164.4931 86.0401
10978 54.2706 137(12) 164.2486 86.0294
10979 54.2746 137(12) 163.9955 86.0188
10980 54.2786 137(12) 163.7330 86.0081
10981 54.2827 136(12) 163.4607 85.9974
10982 54.2867 136(12) 163.1786 85.9866
10983 54.2907 136(12) 162.8857 85.9759
10984 54.2948 136(12) 162.5821 85.9652
10985 54.2988 136(12) 162.2679 85.9546
10986 54.3028 136(12) 161.9425 85.9439
10987 54.3069 136(12) 161.6060 85.9332
10988 54.3109 136(12) 161.2585 85.9224
10989 54.3149 135(12) 160.9006 85.9118
10990 54.3190 135(12) 160.5316 85.9011
10991 54.3230 135(12) 160.1523 85.8904
10992 54.3270 135(12) 159.7632 85.8797
10993 54.3310 135(12) 159.3640 85.8690
10994 54.3351 135(12) 158.9554 85.8582
10995 54.3391 134(12) 158.5384 85.8476
10996 54.3431 134(12) 158.1127 85.8369
10997 54.3472 134(12) 157.6790 85.8261
10998 54.3512 134(12) 157.2380 85.8155
10999 54.3552 134(12) 156.7905 85.8047
11000 54.3593 133(12) 156.3365 85.7940
11001 54.3633 133(12) 155.8767 85.7833
11002 54.3673 133(12) 155.4122 85.7727
11003 54.3714 133(12) 154.9425 85.7619
11004 54.3754 133(12) 154.4688 85.7512
11005 54.3794 132(11) 153.9919 85.7405
11006 54.3834 132(11) 153.5114 85.7298
11007 54.3875 132(11) 153.0281 85.7191
11008 54.3915 132(11) 152.5432 85.7084
11009 54.3955 132(11) 152.0562 85.6977
11010 54.3996 131(11) 151.5671 85.6870
11011 54.4036 131(11) 151.0769 85.6763
11012 54.4076 131(11) 150.5862 85.6656
11013 54.4117 131(11) 150.0944 85.6549
11014 54.4157 131(11) 149.6022 85.6442
11015 54.4197 130(11) 149.1104 85.6335
11016 54.4238 130(11) 148.6183 85.6228
11017 54.4278 130(11) 148.1265 85.6120
11018 54.4318 130(11) 147.6353 85.6013
11019 54.4358 130(11) 147.1454 85.5906
11020 54.4399 130(11) 146.6560 85.5799
11021 54.4439 129(11) 146.1680 85.5692
11022 54.4479 129(11) 145.6818 85.5585
11023 54.4520 129(11) 145.1968 85.5478
11024 54.4560 129(11) 144.7138 85.5371
11025 54.4600 129(11) 144.2330 85.5263
11026 54.4641 129(11) 143.7551 85.5156
11027 54.4681 129(11) 143.2794 85.5049
11028 54.4721 128(11) 142.8068 85.4942
11029 54.4762 128(11) 142.3380 85.4835
11030 54.4802 128(11) 141.8723 85.4728
11031 54.4842 128(11) 141.4105 85.4621
11032 54.4883 128(11) 140.9534 85.4514
11033 54.4923 128(11) 140.5005 85.4406
11034 54.4963 128(11) 140.0526 85.4299
11035 54.5003 128(11) 139.6098 85.4192
11036 54.5044 127(11) 139.1730 85.4085
11037 54.5084 127(11) 138.7418 85.3978
11038 54.5124 127(11) 138.3167 85.3870
11039 54.5165 127(11) 137.8985 85.3763
11040 54.5205 127(11) 137.4870 85.3656
11041 54.5245 127(11) 137.0822 85.3549
11042 54.5286 127(11) 136.6852 85.3442
11043 54.5326 126(11) 136.2953 85.3334
11044 54.5366 126(11) 135.9132 85.3227
11045 54.5407 126(11) 135.5390 85.3120
11046 54.5447 126(11) 135.1733 85.3013
11047 54.5487 126(11) 134.8154 85.2906
11048 54.5527 126(11) 134.4659 85.2798
11049 54.5568 126(11) 134.1251 85.2691
11050 54.5608 125(11) 133.7924 85.2584
11051 54.5648 125(11) 133.4682 85.2477
11052 54.5689 125(11) 133.1528 85.2370
11053 54.5729 125(11) 132.8456 85.2262
11054 54.5769 125(11) 132.5467 85.2155
11055 54.5810 125(11) 132.2560 85.2048
11056 54.5850 125(11) 131.9738 85.1940
11057 54.5890 124(11) 131.6994 85.1833
11058 54.5931 124(11) 131.4327 85.1726
11059 54.5971 124(11) 131.1739 85.1618
11060 54.6011 124(11) 130.9223 85.1511
11061 54.6052 124(11) 130.6778 85.1404
11062 54.6092 124(11) 130.4403 85.1296
11063 54.6132 124(11) 130.2097 85.1189
11064 54.6172 124(11) 129.9851 85.1082
11065 54.6213 124(11) 129.7667 85.0975
11066 54.6253 124(11) 129.5541 85.0867
11067 54.6293 124(11) 129.3467 85.0760
11068 54.6334 123(11) 129.1444 85.0652
11069 54.6374 123(11) 128.9470 85.0545
11070 54.6414 123(11) 128.7538 85.0438
11071 54.6455 123(11) 128.5648 85.0330
11072 54.6495 123(11) 128.3794 85.0223
11073 54.6535 123(11) 128.1976 85.0115
11074 54.6576 123(11) 128.0187 85.0008
11075 54.6616 123(11) 127.8426 84.9901
11076 54.6656 123(11) 127.6691 84.9793
11077 54.6696 123(11) 127.4976 84.9686
11078 54.6737 122(11) 127.3281 84.9578
11079 54.6777 122(11) 127.1604 84.9471
11080 54.6817 122(11) 126.9940 84.9363
11081 54.6858 122(11) 126.8288 84.9256
11082 54.6898 122(11) 126.6647 84.9148
11083 54.6938 122(11) 126.5016 84.9041
11084 54.6979 122(11) 126.3391 84.8934
11085 54.7019 122(11) 126.1772 84.8826
11086 54.7059 122(11) 126.0159 84.8719
11087 54.7100 121(11) 125.8550 84.8611
11088 54.7140 121(11) 125.6944 84.8504
11089 54.7180 121(11) 125.5343 84.8396
11090 54.7220 121(11) 125.3744 84.8289
11091 54.7261 121(11) 125.2148 84.8181
11092 54.7301 121(11) 125.0555 84.8074
11093 54.7341 121(11) 124.8967 84.7966
11094 54.7382 121(11) 124.7381 84.7859
11095 54.7422 121(11) 124.5799 84.7751
11096 54.7462 121(11) 124.4224 84.7643
11097 54.7503 121(11) 124.2652 84.7536
11098 54.7543 121(11) 124.1087 84.7428
11099 54.7583 121(11) 123.9528 84.7320
11100 54.7624 121(11) 123.7977 84.7213
11101 54.7664 121(11) 123.6433 84.7105
11102 54.7704 121(11) 123.4897 84.6998
11103 54.7745 121(11) 123.3372 84.6890
11104 54.7785 121(11) 123.1855 84.6783
11105 54.7825 121(11) 123.0347 84.6675
11106 54.7865 121(11) 122.8852 84.6567
11107 54.7906 121(11) 122.7366 84.6460
11108 54.7946 121(11) 122.5890 84.6352
11109 54.7986 121(11) 122.4427 84.6244
11110 54.8027 121(11) 122.2976 84.6137
11111 54.8067 121(11) 122.1536 84.6029
11112 54.8107 121(11) 122.0108 84.5921
11113 54.8148 121(11) 121.8693 84.5813
11114 54.8188 121(11) 121.7288 84.5706
11115 54.8228 121(11) 121.5896 84.5598
11116 54.8269 121(11) 121.4517 84.5490
11117 54.8309 121(11) 121.3149 84.5382
11118 54.8349 121(11) 121.2288 84.5275
11119 54.8390 121(11) 121.0945 84.5167
11120 54.8430 121(11) 120.9615 84.5059
11121 54.8470 121(11) 120.8296 84.4951
11122 54.8510 121(11) 120.6991 84.4843
11123 54.8551 121(11) 120.5699 84.4736
11124 54.8591 121(11) 120.4418 84.4628
11125 54.8631 121(11) 120.3150 84.4520
11126 54.8672 121(11) 120.1897 84.4412
11127 54.8712 121(11) 120.0657 84.4304
11128 54.8752 121(11) 119.9430 84.4197
11129 54.8793 121(11) 119.8217 84.4089
11130 54.8833 121(11) 119.7020 84.3981
11131 54.8873 121(11) 119.5836 84.3873
11132 54.8914 121(11) 119.4668 84.3765
11133 54.8954 121(11) 119.3517 84.3657
11134 54.8994 121(11) 119.1231 84.3549
11135 54.9034 120(11) 119.0114 84.3441
11136 54.9075 120(11) 118.9013 84.3333
11137 54.9115 120(11) 118.7931 84.3225
11138 54.9155 120(11) 118.7023 84.3117
11139 54.9196 120(11) 118.5977 84.3009
11140 54.9236 120(11) 118.4952 84.2901
11141 54.9276 120(11) 118.3945 84.2793
11142 54.9317 120(11) 118.2958 84.2685
11143 54.9357 120(11) 118.1993 84.2577
11144 54.9397 119(11) 118.1049 84.2469
11145 54.9438 119(11) 118.0126 84.2361
11146 54.9478 119(11) 117.9225 84.2253
11147 54.9518 119(11) 117.8347 84.2145
11148 54.9558 119(11) 117.7492 84.2037
11149 54.9599 119(11) 117.6660 84.1929
11150 54.9639 119(11) 117.6098 84.1821
11151 54.9679 119(11) 117.5315 84.1713
11152 54.9720 119(11) 117.4557 84.1605
11153 54.9760 119(11) 117.3826 84.1497
11154 54.9800 119(11) 117.3120 84.1388
11155 54.9841 119(11) 117.2441 84.1280
11156 54.9881 119(11) 117.1789 84.1172
11157 54.9921 119(11) 117.1165 84.1064
11158 54.9962 119(11) 117.0570 84.0956
11159 55.0002 119(11) 117.0004 84.0848
11160 55.0042 119(11) 116.9469 84.0739
11161 55.0083 119(11) 116.8965 84.0631
11162 55.0123 119(11) 116.8493 84.0523
11163 55.0163 119(11) 116.8054 84.0415
11164 55.0203 119(11) 116.7649 84.0306
11165 55.0244 119(11) 116.7279 84.0198
11166 55.0284 120(11) 116.6945 84.0090
11167 55.0324 120(11) 116.6652 83.9982
11168 55.0365 120(11) 116.6396 83.9873
11169 55.0405 120(11) 116.6179 83.9765
11170 55.0445 120(11) 116.6004 83.9657
11171 55.0486 120(11) 116.5950 83.9548
11172 55.0526 120(11) 116.5864 83.9440
11173 55.0566 120(11) 116.5254 83.9332
11174 55.0607 120(11) 116.5264 83.9223
11175 55.0647 120(11) 116.5323 83.9115
11176 55.0687 120(11) 116.5436 83.9006
11177 55.0727 120(11) 116.5602 83.8898
11178 55.0768 120(11) 116.5824 83.8790
11179 55.0808 120(11) 116.6105 83.8681
11180 55.0848 120(11) 116.6446 83.8573
11181 55.0889 120(11) 116.6848 83.8464
11182 55.0929 120(11) 116.7316 83.8356
11183 55.0969 120(11) 116.7850 83.8247
11184 55.1010 120(11) 116.8452 83.8139
11185 55.1050 120(11) 116.9125 83.8030
11186 55.1090 121(11) 116.9870 83.7922
11187 55.1131 121(11) 117.0689 83.7813
11188 55.1171 121(11) 117.1586 83.7704
11189 55.1211 121(11) 117.2560 83.7596
11190 55.1251 121(11) 117.3613 83.7487
11191 55.1292 121(11) 117.4813 83.7379
11192 55.1332 121(11) 117.6031 83.7270
11193 55.1372 121(11) 117.7332 83.7161
11194 55.1413 121(11) 117.8716 83.7053
11195 55.1453 121(11) 118.0187 83.6944
11196 55.1493 122(11) 118.1743 83.6835
11197 55.1534 122(11) 118.3384 83.6727
11198 55.1574 122(11) 118.5111 83.6618
11199 55.1614 122(11) 118.6923 83.6509
11200 55.1655 122(11) 118.8819 83.6401
11201 55.1695 122(11) 119.0798 83.6292
11202 55.1735 122(11) 119.2857 83.6183
11203 55.1776 122(11) 119.4996 83.6074
11204 55.1816 122(11) 119.7208 83.5966
11205 55.1856 123(11) 119.9495 83.5857
11206 55.1896 123(11) 120.1851 83.5748
11207 55.1937 123(11) 120.4270 83.5639
11208 55.1977 123(11) 120.6752 83.5530
11209 55.2017 123(11) 120.9289 83.5422
11210 55.2058 123(11) 121.1873 83.5313
11211 55.2098 123(11) 121.4502 83.5204
11212 55.2138 123(11) 121.7168 83.5095
11213 55.2179 123(11) 121.9862 83.4986
11214 55.2219 124(11) 122.2574 83.4877
11215 55.2259 124(11) 122.5302 83.4768
11216 55.2300 124(11) 122.8033 83.4659
11217 55.2340 124(11) 123.0757 83.4550
11218 55.2380 124(11) 123.3468 83.4441
11219 55.2421 124(11) 123.6154 83.4332
11220 55.2461 124(11) 123.8805 83.4223
11221 55.2501 124(11) 124.1422 83.4114
11222 55.2541 124(11) 124.3972 83.4005
11223 55.2582 124(11) 124.6457 83.3896
11224 55.2622 125(11) 124.8896 83.3787
11225 55.2662 125(11) 125.1219 83.3678
11226 55.2703 125(11) 125.3445 83.3569
11227 55.2743 125(11) 125.5564 83.3460
11228 55.2783 125(11) 125.7569 83.3350
11229 55.2824 125(11) 125.9451 83.3241
11230 55.2864 125(11) 126.1202 83.3132
11231 55.2904 125(11) 126.2811 83.3023
11232 55.2945 125(11) 126.4276 83.2914
11233 55.2985 125(11) 126.5589 83.2804
11234 55.3025 125(11) 126.6745 83.2695
11235 55.3065 125(11) 126.7740 83.2586
11236 55.3106 125(11) 126.8572 83.2477
11237 55.3146 125(11) 126.9235 83.2367
11238 55.3186 125(11) 126.9731 83.2258
11239 55.3227 125(11) 127.0059 83.2149
11240 55.3267 125(11) 127.0218 83.2039
11241 55.3307 125(11) 127.0210 83.1930
11242 55.3348 125(11) 127.0037 83.1821
11243 55.3388 125(11) 126.9703 83.1711
11244 55.3428 125(11) 126.9211 83.1602
11245 55.3469 125(11) 126.8565 83.1492
11246 55.3509 125(11) 126.7769 83.1383
11247 55.3549 125(11) 126.6830 83.1274
11248 55.3589 125(11) 126.5753 83.1164
11249 55.3630 125(11) 126.4544 83.1055
11250 55.3670 125(11) 126.3208 83.0945
11251 55.3710 125(11) 126.1755 83.0835
11252 55.3751 126(11) 126.0187 83.0726
11253 55.3791 126(11) 125.8513 83.0617
11254 55.3831 126(11) 125.6746 83.0507
11255 55.3872 126(11) 125.4877 83.0397
11256 55.3912 126(11) 125.2919 83.0288
11257 55.3952 126(11) 125.0878 83.0178
11258 55.3993 127(11) 124.8761 83.0068
11259 55.4033 127(11) 124.6570 82.9959
11260 55.4073 127(11) 124.4310 82.9849
11261 55.4114 127(11) 124.1989 82.9739
11262 55.4154 127(11) 123.9605 82.9630
11263 55.4194 127(11) 123.7164 82.9520
11264 55.4234 128(11) 123.4672 82.9410
11265 55.4275 128(11) 123.2127 82.9301
11266 55.4315 128(11) 122.9534 82.9191
11267 55.4355 128(11) 122.6896 82.9081
11268 55.4396 128(11) 122.4217 82.8971
11269 55.4436 128(11) 122.1493 82.8861
11270 55.4476 128(11) 121.8730 82.8751
11271 55.4517 128(11) 121.5932 82.8642
11272 55.4557 128(11) 121.3096 82.8532
11273 55.4597 128(11) 121.0225 82.8422
11274 55.4638 128(11) 120.7326 82.8312
11275 55.4678 128(11) 120.4399 82.8202
11276 55.4718 128(11) 120.1439 82.8092
11277 55.4758 127(11) 119.8453 82.7982
11278 55.4799 127(11) 119.5447 82.7872
11279 55.4839 127(11) 119.2417 82.7762
11280 55.4879 127(11) 118.9368 82.7652
11281 55.4920 127(11) 118.6307 82.7542
11282 55.4960 126(11) 118.3231 82.7431
11283 55.5000 126(11) 118.0147 82.7322
11284 55.5041 126(11) 117.7058 82.7211
11285 55.5081 126(11) 117.3965 82.7101
11286 55.5121 125(11) 117.0872 82.6991
11287 55.5162 125(11) 116.7783 82.6881
11288 55.5202 125(11) 116.4705 82.6771
11289 55.5242 125(11) 116.1636 82.6661
11290 55.5283 124(11) 115.8581 82.6550
11291 55.5323 124(11) 115.5547 82.6440
11292 55.5363 124(11) 115.2532 82.6330
11293 55.5403 124(11) 114.9542 82.6219
11294 55.5444 123(11) 114.6583 82.6109
11295 55.5484 123(11) 114.3651 82.5999
11296 55.5524 123(11) 114.0754 82.5888
11297 55.5565 122(11) 113.7893 82.5778
11298 55.5605 122(11) 113.5074 82.5668
11299 55.5645 122(11) 113.2293 82.5557
11300 55.5686 122(11) 112.9555 82.5447
11301 55.5726 122(11) 112.6865 82.5337
11302 55.5766 121(11) 112.4218 82.5226
11303 55.5807 121(11) 112.1620 82.5116
11304 55.5847 121(11) 111.9071 82.5005
11305 55.5887 121(11) 111.6574 82.4894
11306 55.5927 121(11) 111.4125 82.4784
11307 55.5968 120(11) 111.1727 82.4673
11308 55.6008 120(11) 110.9386 82.4563
11309 55.6048 120(11) 110.7092 82.4452
11310 55.6089 120(11) 110.4849 82.4341
11311 55.6129 120(11) 110.2659 82.4231
11312 55.6169 120(11) 110.0518 82.4120
11313 55.6210 120(11) 109.8427 82.4009
11314 55.6250 120(11) 109.6386 82.3899
11315 55.6290 119(11) 109.4395 82.3788
11316 55.6331 119(11) 109.2450 82.3677
11317 55.6371 119(11) 109.0552 82.3566
11318 55.6411 119(11) 108.8702 82.3456
11319 55.6451 119(11) 108.6893 82.3345
11320 55.6492 119(11) 108.5129 82.3234
11321 55.6532 119(11) 108.3408 82.3123
11322 55.6572 119(11) 108.1977 82.3012
11323 55.6613 119(11) 108.0334 82.2901
11324 55.6653 119(11) 107.8729 82.2790
11325 55.6693 119(11) 107.7161 82.2679
11326 55.6734 119(11) 107.5627 82.2568
11327 55.6774 119(11) 107.4127 82.2457
11328 55.6814 119(11) 107.2660 82.2346
11329 55.6855 119(11) 107.1222 82.2235
11330 55.6895 119(11) 106.9814 82.2124
11331 55.6935 119(11) 106.8435 82.2013
11332 55.6976 119(11) 106.7081 82.1902
11333 55.7016 119(11) 106.5752 82.1791
11334 55.7056 119(11) 106.4448 82.1680
11335 55.7096 119(11) 106.3167 82.1569
11336 55.7137 119(11) 106.1907 82.1457
11337 55.7177 119(11) 106.0667 82.1346
11338 55.7217 119(11) 105.9448 82.1235
11339 55.7258 118(11) 105.8247 82.1124
11340 55.7298 118(11) 105.7062 82.1012
11341 55.7338 118(11) 105.5894 82.0901
11342 55.7379 118(11) 105.4742 82.0790
11343 55.7419 118(11) 105.3605 82.0678
11344 55.7459 118(11) 105.2481 82.0567
11345 55.7500 117(11) 105.1371 82.0456
11346 55.7540 117(11) 105.0273 82.0344
11347 55.7580 117(11) 104.9187 82.0233
11348 55.7620 117(11) 104.8113 82.0121
11349 55.7661 117(11) 104.7048 82.0010
11350 55.7701 116(11) 104.5994 81.9898
11351 55.7741 116(11) 104.4950 81.9787
11352 55.7782 116(11) 104.3916 81.9675
11353 55.7822 116(11) 104.2890 81.9564
11354 55.7862 116(11) 104.1873 81.9452
11355 55.7903 115(11) 104.0990 81.9340
11356 55.7943 115(11) 103.9990 81.9229
11357 55.7983 115(11) 103.8998 81.9117
11358 55.8024 115(11) 103.8014 81.9006
11359 55.8064 115(11) 103.7038 81.8894
11360 55.8104 115(11) 103.6068 81.8782
11361 55.8145 114(11) 103.5107 81.8670
11362 55.8185 114(11) 103.4153 81.8559
11363 55.8225 114(11) 103.3207 81.8447
11364 55.8265 114(11) 103.2267 81.8335
11365 55.8306 114(11) 103.1336 81.8223
11366 55.8346 114(11) 103.0412 81.8111
11367 55.8386 114(11) 102.9495 81.7999
11368 55.8427 114(11) 102.8587 81.7887
11369 55.8467 114(11) 102.7686 81.7775
11370 55.8507 114(11) 102.6792 81.7663
11371 55.8548 114(11) 102.5907 81.7551
11372 55.8588 114(11) 102.5030 81.7439
11373 55.8628 114(11) 102.4161 81.7327
11374 55.8669 114(11) 102.3300 81.7215
11375 55.8709 114(11) 102.2449 81.7103
11376 55.8749 114(11) 102.1606 81.6991
11377 55.8789 114(11) 102.0771 81.6879
11378 55.8830 114(11) 101.9946 81.6766
11379 55.8870 114(11) 101.9131 81.6654
11380 55.8910 114(11) 101.8431 81.6542
11381 55.8951 114(11) 101.7635 81.6430
11382 55.8991 114(11) 101.6849 81.6318
11383 55.9031 114(11) 101.6072 81.6205
11384 55.9072 114(11) 101.5306 81.6093
11385 55.9112 114(11) 101.4551 81.5981
11386 55.9152 114(11) 101.3806 81.5868
11387 55.9193 114(11) 101.3071 81.5756
11388 55.9233 114(11) 101.2348 81.5643
11389 55.9273 114(11) 101.1637 81.5531
11390 55.9314 114(11) 101.0936 81.5418
11391 55.9354 114(11) 101.0247 81.5306
11392 55.9394 114(11) 100.9571 81.5194
11393 55.9434 114(11) 100.8905 81.5081
11394 55.9475 114(11) 100.8253 81.4968
11395 55.9515 114(11) 100.7612 81.4856
11396 55.9555 114(11) 100.6983 81.4743
11397 55.9596 113(11) 100.6368 81.4630
11398 55.9636 113(11) 100.5764 81.4518
11399 55.9676 113(11) 100.5174 81.4405
11400 55.9717 113(11) 100.4597 81.4292
11401 55.9757 113(11) 100.4032 81.4180
11402 55.9797 113(11) 100.3481 81.4067
11403 55.9838 113(11) 100.2943 81.3954
11404 55.9878 113(11) 100.2419 81.3841
11405 55.9918 112(11) 100.1908 81.3728
11406 55.9958 112(11) 100.1410 81.3615
11407 55.9999 112(11) 100.0926 81.3502
11408 56.0039 112(11) 100.0455 81.3389
11409 56.0079 112(11) 99.9999 81.3276
11410 56.0120 112(11) 99.9556 81.3163
11411 56.0160 112(11) 99.9127 81.3050
11412 56.0200 112(11) 99.8712 81.2937
11413 56.0241 111(11) 99.8364 81.2824
11414 56.0281 111(11) 99.7977 81.2711
11415 56.0321 111(11) 99.7604 81.2598
11416 56.0362 111(11) 99.7245 81.2485
11417 56.0402 111(11) 99.6900 81.2372
11418 56.0442 111(11) 99.6569 81.2259
11419 56.0482 111(11) 99.6252 81.2145
11420 56.0523 111(11) 99.5949 81.2032
11421 56.0563 111(11) 99.5660 81.1919
11422 56.0603 111(11) 99.5385 81.1805
11423 56.0644 111(11) 99.5124 81.1692
11424 56.0684 111(11) 99.4876 81.1579
11425 56.0724 111(11) 99.4643 81.1465
11426 56.0765 111(11) 99.4424 81.1352
11427 56.0805 111(11) 99.4218 81.1238
11428 56.0845 111(11) 99.4027 81.1125
11429 56.0886 111(11) 99.3849 81.1011
11430 56.0926 111(11) 99.3684 81.0898
11431 56.0966 111(11) 99.3534 81.0784
11432 56.1007 112(11) 99.3397 81.0671
11433 56.1047 112(11) 99.3665 81.0557
11434 56.1087 112(11) 99.3555 81.0443
11435 56.1127 112(11) 99.3458 81.0329
11436 56.1168 112(11) 99.3375 81.0216
11437 56.1208 112(11) 99.3304 81.0102
11438 56.1248 113(11) 99.3247 80.9988
11439 56.1289 113(11) 99.3202 80.9875
11440 56.1329 113(11) 99.3171 80.9761
11441 56.1369 113(11) 99.3152 80.9647
11442 56.1410 113(11) 99.3146 80.9533
11443 56.1450 113(11) 99.3152 80.9419
11444 56.1490 113(11) 99.3171 80.9305
11445 56.1531 114(11) 99.3202 80.9191
11446 56.1571 114(11) 99.3245 80.9077
11447 56.1611 114(11) 99.3300 80.8963
11448 56.1651 114(11) 99.3368 80.8849
11449 56.1692 114(11) 99.3447 80.8735
11450 56.1732 114(11) 99.3538 80.8621
11451 56.1772 114(11) 99.3640 80.8507
11452 56.1813 114(11) 99.3754 80.8392
11453 56.1853 114(11) 99.3880 80.8278
11454 56.1893 114(11) 99.4017 80.8164
11455 56.1934 114(11) 99.4165 80.8050
11456 56.1974 114(11) 99.4323 80.7935
11457 56.2014 114(11) 99.4493 80.7821
11458 56.2055 114(11) 99.4674 80.7707
11459 56.2095 114(11) 99.4865 80.7592
11460 56.2135 114(11) 99.5068 80.7478
11461 56.2176 114(11) 99.5280 80.7364
11462 56.2216 114(11) 99.5503 80.7249
11463 56.2256 114(11) 99.5737 80.7134
11464 56.2296 114(11) 99.5981 80.7020
11465 56.2337 114(11) 99.6234 80.6905
11466 56.2377 114(11) 99.6693 80.6791
11467 56.2417 114(11) 99.6968 80.6676
11468 56.2458 114(11) 99.7252 80.6561
11469 56.2498 114(11) 99.7546 80.6447
11470 56.2538 114(11) 99.7851 80.6332
11471 56.2579 114(11) 99.8165 80.6217
11472 56.2619 114(11) 99.8489 80.6103
11473 56.2659 114(11) 99.8823 80.5988
11474 56.2700 114(11) 99.9167 80.5873
11475 56.2740 114(11) 99.9521 80.5758
11476 56.2780 114(11) 99.9885 80.5643
11477 56.2820 114(11) 100.0259 80.5528
11478 56.2861 114(11) 100.0644 80.5413
11479 56.2901 114(11) 100.1039 80.5298
11480 56.2941 114(11) 100.1444 80.5183
11481 56.2982 114(11) 100.1859 80.5068
11482 56.3022 114(11) 100.2286 80.4953
11483 56.3062 114(11) 100.2722 80.4838
11484 56.3103 114(11) 100.3171 80.4723
11485 56.3143 114(11) 100.3630 80.4608
11486 56.3183 114(11) 100.4101 80.4492
11487 56.3224 114(11) 100.4583 80.4377
11488 56.3264 114(11) 100.5078 80.4262
11489 56.3304 114(11) 100.5584 80.4147
11490 56.3344 115(11) 100.6104 80.4031
11491 56.3385 115(11) 100.6636 80.3916
11492 56.3425 115(11) 100.7182 80.3801
11493 56.3465 115(11) 100.7741 80.3685
11494 56.3506 115(11) 100.8315 80.3570
11495 56.3546 114(11) 100.8903 80.3454
11496 56.3586 114(11) 100.9506 80.3339
11497 56.3627 114(11) 101.0125 80.3223
11498 56.3667 114(11) 101.0760 80.3107
11499 56.3707 114(11) 101.1412 80.2992
11500 56.3748 114(11) 101.2080 80.2876
11501 56.3788 114(11) 101.2766 80.2760
11502 56.3828 114(11) 101.3471 80.2645
11503 56.3869 114(11) 101.4194 80.2529
11504 56.3909 114(11) 101.4938 80.2413
11505 56.3949 114(11) 101.5702 80.2297
11506 56.3989 114(11) 101.6486 80.2182
11507 56.4030 114(11) 101.7292 80.2066
11508 56.4070 114(11) 101.8120 80.1950
11509 56.4110 114(11) 101.8972 80.1834
11510 56.4151 114(11) 101.9846 80.1718
11511 56.4191 114(11) 102.0746 80.1602
11512 56.4231 114(11) 102.1671 80.1486
11513 56.4272 114(11) 102.2621 80.1370
11514 56.4312 114(11) 102.3598 80.1254
11515 56.4352 114(11) 102.4602 80.1137
11516 56.4393 114(11) 102.5633 80.1021
11517 56.4433 114(11) 102.6693 80.0905
11518 56.4473 115(11) 102.7783 80.0788
11519 56.4514 115(11) 102.8902 80.0672
11520 56.4554 115(11) 103.0050 80.0556
11521 56.4594 115(11) 103.1229 80.0440
11522 56.4634 115(11) 103.2439 80.0323
11523 56.4675 115(11) 103.3680 80.0207
11524 56.4715 115(11) 103.4953 80.0090
11525 56.4755 115(11) 103.6259 79.9974
11526 56.4796 116(11) 103.7595 79.9858
11527 56.4836 116(11) 103.8964 79.9741
11528 56.4876 116(11) 104.0365 79.9624
11529 56.4917 116(11) 104.1798 79.9508
11530 56.4957 116(11) 104.3261 79.9391
11531 56.4997 116(11) 104.4756 79.9274
11532 56.5038 116(11) 104.6282 79.9158
11533 56.5078 116(11) 104.7836 79.9041
11534 56.5118 116(11) 104.9420 79.8924
11535 56.5158 116(11) 105.1033 79.8807
11536 56.5199 116(11) 105.2673 79.8690
11537 56.5239 116(11) 105.4336 79.8573
11538 56.5279 116(11) 105.6026 79.8457
11539 56.5320 117(11) 105.7738 79.8340
11540 56.5360 117(11) 105.9469 79.8223
11541 56.5400 117(11) 106.1221 79.8105
11542 56.5441 117(11) 106.2990 79.7988
11543 56.5481 117(11) 106.4771 79.7871
11544 56.5521 117(11) 106.6566 79.7754
11545 56.5562 117(11) 106.8370 79.7637
11546 56.5602 117(11) 107.0181 79.7520
11547 56.5642 117(11) 107.1993 79.7403
11548 56.5682 117(11) 107.3808 79.7285
11549 56.5723 117(11) 107.5620 79.7168
11550 56.5763 117(11) 107.7425 79.7051
11551 56.5803 117(11) 107.9222 79.6933
11552 56.5844 117(11) 108.1006 79.6816
11553 56.5884 117(11) 108.2773 79.6698
11554 56.5924 117(11) 108.4522 79.6581
11555 56.5965 118(11) 108.6248 79.6463
11556 56.6005 118(11) 108.7947 79.6346
11557 56.6045 118(11) 108.9615 79.6228
11558 56.6086 118(11) 109.1251 79.6111
11559 56.6126 118(11) 109.2851 79.5993
11560 56.6166 118(11) 109.4411 79.5875
11561 56.6207 118(11) 109.5930 79.5757
11562 56.6247 118(11) 109.7405 79.5640
11563 56.6287 118(11) 109.8831 79.5522
11564 56.6327 119(11) 110.0210 79.5404
11565 56.6368 119(11) 110.1539 79.5286
11566 56.6408 119(11) 110.2815 79.5168
11567 56.6448 119(11) 110.4037 79.5050
11568 56.6489 119(11) 110.5206 79.4932
11569 56.6529 119(11) 110.6321 79.4814
11570 56.6569 120(11) 110.7381 79.4696
11571 56.6610 120(11) 110.8387 79.4578
11572 56.6650 120(11) 110.9341 79.4460
11573 56.6690 120(11) 111.0242 79.4342
11574 56.6731 121(11) 111.1092 79.4223
11575 56.6771 121(11) 111.1894 79.4105
11576 56.6811 121(11) 111.2649 79.3987
11577 56.6851 121(11) 111.3359 79.3868
11578 56.6892 122(11) 111.4028 79.3750
11579 56.6932 122(11) 111.4658 79.3632
11580 56.6972 122(11) 111.5253 79.3513
11581 56.7013 123(11) 111.5816 79.3395
11582 56.7053 123(11) 111.6351 79.3276
11583 56.7093 123(11) 111.6861 79.3158
11584 56.7134 123(11) 111.7349 79.3039
11585 56.7174 124(11) 111.7822 79.2921
11586 56.7214 124(11) 111.8282 79.2802
11587 56.7255 124(11) 111.8733 79.2683
11588 56.7295 124(11) 111.9180 79.2565
11589 56.7335 125(11) 111.9626 79.2446
11590 56.7375 125(11) 112.0075 79.2327
11591 56.7416 125(11) 112.0532 79.2208
11592 56.7456 125(11) 112.0999 79.2089
11593 56.7496 125(11) 112.1483 79.1970
11594 56.7537 125(11) 112.1983 79.1851
11595 56.7577 126(11) 112.2507 79.1732
11596 56.7617 126(11) 112.3056 79.1613
11597 56.7658 126(11) 112.3633 79.1494
11598 56.7698 126(11) 112.4242 79.1375
11599 56.7738 126(11) 112.4886 79.1256
11600 56.7779 126(11) 112.5567 79.1137
11601 56.7819 126(11) 112.6289 79.1017
11602 56.7859 126(11) 112.7053 79.0898
11603 56.7900 126(11) 112.7864 79.0779
11604 56.7940 126(11) 112.8719 79.0659
11605 56.7980 126(11) 112.9624 79.0540
11606 56.8020 126(11) 113.0579 79.0420
11607 56.8061 126(11) 113.1586 79.0301
11608 56.8101 126(11) 113.2647 79.0182
11609 56.8141 126(11) 113.3763 79.0062
11610 56.8182 126(11) 113.4933 78.9942
11611 56.8222 126(11) 113.6161 78.9823
11612 56.8262 126(11) 113.7447 78.9703
11613 56.8303 126(11) 113.8789 78.9583
11614 56.8343 126(11) 114.0188 78.9464
11615 56.8383 126(11) 114.1644 78.9344
11616 56.8424 126(11) 114.3157 78.9224
11617 56.8464 126(11) 114.4724 78.9104
11618 56.8504 126(11) 114.6347 78.8984
11619 56.8545 126(11) 114.8022 78.8864
11620 56.8585 126(11) 114.9748 78.8744
11621 56.8625 127(11) 115.1520 78.8624
11622 56.8665 127(11) 115.3339 78.8504
11623 56.8706 127(11) 115.5201 78.8384
11624 56.8746 127(11) 115.7099 78.8264
11625 56.8786 127(11) 115.9034 78.8144
11626 56.8827 127(11) 116.1000 78.8024
11627 56.8867 127(11) 116.2988 78.7904
11628 56.8907 127(11) 116.4998 78.7783
11629 56.8948 127(11) 116.7024 78.7663
11630 56.8988 127(11) 116.9057 78.7542
11631 56.9028 127(11) 117.1091 78.7422
11632 56.9069 127(11) 117.3122 78.7301
11633 56.9109 127(11) 117.5142 78.7181
11634 56.9149 128(11) 117.7142 78.7060
11635 56.9189 128(11) 117.9118 78.6940
11636 56.9230 128(11) 118.1060 78.6819
11637 56.9270 128(11) 118.2961 78.6698
11638 56.9310 128(11) 118.4814 78.6578
11639 56.9351 128(11) 118.6611 78.6457
11640 56.9391 129(11) 118.8425 78.6336
11641 56.9431 129(11) 119.0086 78.6215
11642 56.9472 129(11) 119.1670 78.6095
11643 56.9512 129(11) 119.3170 78.5974
11644 56.9552 130(11) 119.4577 78.5853
11645 56.9593 130(11) 119.5887 78.5732
11646 56.9633 130(11) 119.7094 78.5611
11647 56.9673 130(11) 119.8191 78.5490
11648 56.9713 131(11) 119.9176 78.5368
11649 56.9754 131(11) 120.0043 78.5247
11650 56.9794 131(11) 120.0789 78.5126
11651 56.9834 132(11) 120.1410 78.5005
11652 56.9875 132(11) 120.1905 78.4883
11653 56.9915 132(11) 120.2272 78.4762
11654 56.9955 132(11) 120.2509 78.4641
11655 56.9996 133(12) 120.2616 78.4520
11656 57.0036 133(12) 120.2593 78.4398
11657 57.0076 133(12) 120.2441 78.4276
11658 57.0117 133(12) 120.2161 78.4155
11659 57.0157 133(12) 120.1755 78.4033
11660 57.0197 133(12) 120.1225 78.3912
11661 57.0238 134(12) 120.0575 78.3790
11662 57.0278 134(12) 119.9806 78.3668
11663 57.0318 134(12) 119.8922 78.3547
11664 57.0358 134(12) 119.7929 78.3425
11665 57.0399 134(12) 119.6828 78.3303
11666 57.0439 134(12) 119.5624 78.3181
11667 57.0479 134(12) 119.4322 78.3059
11668 57.0520 133(12) 119.2927 78.2937
11669 57.0560 133(12) 119.1441 78.2815
11670 57.0600 133(12) 118.9870 78.2693
11671 57.0641 133(12) 118.8220 78.2571
11672 57.0681 133(12) 118.6491 78.2449
11673 57.0721 133(12) 118.4689 78.2327
11674 57.0762 132(11) 118.2861 78.2205
11675 57.0802 132(11) 118.0925 78.2082
11676 57.0842 132(11) 117.8928 78.1960
11677 57.0882 132(11) 117.6873 78.1837
11678 57.0923 131(11) 117.4765 78.1715
11679 57.0963 131(11) 117.2603 78.1593
11680 57.1003 131(11) 117.0391 78.1470
11681 57.1044 131(11) 116.8136 78.1348
11682 57.1084 130(11) 116.5834 78.1225
11683 57.1124 130(11) 116.3489 78.1103
11684 57.1165 130(11) 116.1107 78.0980
11685 57.1205 129(11) 115.8686 78.0858
11686 57.1245 129(11) 115.6228 78.0735
11687 57.1286 129(11) 115.3736 78.0612
11688 57.1326 128(11) 115.1215 78.0489
11689 57.1366 128(11) 114.8661 78.0366
11690 57.1407 128(11) 114.6078 78.0243
11691 57.1447 127(11) 114.3471 78.0120
11692 57.1487 127(11) 114.0838 77.9997
11693 57.1527 127(11) 113.8181 77.9874
11694 57.1568 127(11) 113.5503 77.9751
11695 57.1608 126(11) 113.2810 77.9628
11696 57.1648 126(11) 113.0097 77.9505
11697 57.1689 126(11) 112.7371 77.9381
11698 57.1729 126(11) 112.4635 77.9258
11699 57.1769 125(11) 112.1888 77.9135
11700 57.1810 125(11) 111.9133 77.9012
11701 57.1850 125(11) 111.6377 77.8888
11702 57.1890 124(11) 111.3617 77.8765
11703 57.1931 124(11) 111.0857 77.8641
11704 57.1971 124(11) 110.8102 77.8518
11705 57.2011 124(11) 110.5356 77.8394
11706 57.2051 123(11) 110.2617 77.8271
11707 57.2092 123(11) 109.9889 77.8147
11708 57.2132 123(11) 109.7179 77.8023
11709 57.2172 123(11) 109.4484 77.7899
11710 57.2213 122(11) 109.1809 77.7775
11711 57.2253 122(11) 108.9159 77.7652
11712 57.2293 122(11) 108.6532 77.7528
11713 57.2334 122(11) 108.3931 77.7404
11714 57.2374 121(11) 108.1361 77.7280
11715 57.2414 121(11) 107.8823 77.7156
11716 57.2455 121(11) 107.6317 77.7032
11717 57.2495 120(11) 107.3846 77.6908
11718 57.2535 120(11) 107.1414 77.6784
11719 57.2575 120(11) 106.9018 77.6659
11720 57.2616 119(11) 106.6661 77.6535
11721 57.2656 119(11) 106.4347 77.6411
11722 57.2696 119(11) 106.2071 77.6286
11723 57.2737 118(11) 105.9839 77.6162
11724 57.2777 118(11) 105.7648 77.6038
11725 57.2817 118(11) 105.5503 77.5913
11726 57.2858 118(11) 105.3400 77.5789
11727 57.2898 117(11) 105.1339 77.5664
11728 57.2938 117(11) 104.9325 77.5539
11729 57.2979 117(11) 104.7351 77.5415
11730 57.3019 116(11) 104.5421 77.5290
11731 57.3059 116(11) 104.3536 77.5165
11732 57.3100 116(11) 104.1690 77.5040
11733 57.3140 115(11) 103.9887 77.4915
11734 57.3180 115(11) 103.8124 77.4790
11735 57.3220 115(11) 103.6403 77.4666
11736 57.3261 115(11) 103.4720 77.4541
11737 57.3301 114(11) 103.3278 77.4416
11738 57.3341 114(11) 103.1672 77.4291
11739 57.3382 114(11) 103.0100 77.4165
11740 57.3422 114(11) 102.8564 77.4040
11741 57.3462 114(11) 102.7062 77.3915
11742 57.3503 113(11) 102.5594 77.3790
11743 57.3543 113(11) 102.4156 77.3664
11744 57.3583 113(11) 102.2748 77.3539
11745 57.3624 113(11) 102.1372 77.3414
11746 57.3664 113(11) 102.0022 77.3288
11747 57.3704 113(11) 101.8699 77.3163
11748 57.3744 113(11) 101.7402 77.3037
11749 57.3785 113(11) 101.6130 77.2912
11750 57.3825 112(11) 101.4880 77.2786
11751 57.3865 112(11) 101.3653 77.2660
11752 57.3906 112(11) 101.2448 77.2534
11753 57.3946 112(11) 101.1262 77.2408
11754 57.3986 112(11) 101.0095 77.2283
11755 57.4027 112(11) 100.8947 77.2157
11756 57.4067 112(11) 100.7815 77.2031
11757 57.4107 112(11) 100.6699 77.1905
11758 57.4148 112(11) 100.5599 77.1779
11759 57.4188 112(11) 100.4512 77.1653
11760 57.4228 112(11) 100.3045 77.1526
11761 57.4269 113(11) 100.1985 77.1400
11762 57.4309 113(11) 100.0938 77.1274
11763 57.4349 113(11) 99.9901 77.1148
11764 57.4389 113(11) 99.8874 77.1021
11765 57.4430 113(11) 99.7859 77.0895
11766 57.4470 113(11) 99.6851 77.0769
11767 57.4510 113(11) 99.5852 77.0642
11768 57.4551 113(11) 99.4863 77.0516
11769 57.4591 113(11) 99.3880 77.0389
11770 57.4631 113(11) 99.2905 77.0263
11771 57.4672 113(11) 99.2041 77.0136
11772 57.4712 114(11) 99.1081 77.0009
11773 57.4752 114(11) 99.0125 76.9882
11774 57.4793 114(11) 98.9176 76.9755
11775 57.4833 114(11) 98.8232 76.9628
11776 57.4873 114(11) 98.7294 76.9502
11777 57.4913 114(11) 98.6320 76.9375
11778 57.4954 114(11) 98.5392 76.9248
11779 57.4994 114(11) 98.4470 76.9121
11780 57.5034 114(11) 98.3552 76.8994
11781 57.5075 114(11) 98.2639 76.8866
11782 57.5115 114(11) 98.1731 76.8739
11783 57.5155 114(11) 98.0828 76.8612
11784 57.5196 114(11) 97.9929 76.8485
11785 57.5236 114(11) 97.9035 76.8357
11786 57.5276 114(11) 97.8146 76.8230
11787 57.5317 114(11) 97.7261 76.8102
11788 57.5357 114(11) 97.6380 76.7975
11789 57.5397 114(11) 97.5506 76.7847
11790 57.5438 114(11) 97.4636 76.7720
11791 57.5478 114(11) 97.3770 76.7592
11792 57.5518 114(11) 97.2910 76.7464
11793 57.5558 114(11) 97.2055 76.7337
11794 57.5599 114(11) 97.1206 76.7209
11795 57.5639 114(11) 97.0362 76.7081
11796 57.5679 114(11) 96.9523 76.6953
11797 57.5720 114(11) 96.8690 76.6825
11798 57.5760 113(11) 96.7863 76.6697
11799 57.5800 113(11) 96.7042 76.6569
11800 57.5841 113(11) 96.6227 76.6441
11801 57.5881 113(11) 96.5222 76.6313
11802 57.5921 113(11) 96.4421 76.6185
11803 57.5962 113(11) 96.3625 76.6056
11804 57.6002 113(11) 96.2836 76.5928
11805 57.6042 113(11) 96.2056 76.5800
11806 57.6082 113(11) 96.1281 76.5671
11807 57.6123 113(11) 96.0513 76.5543
11808 57.6163 112(11) 95.9752 76.5414
11809 57.6203 112(11) 95.8999 76.5286
11810 57.6244 112(11) 95.8253 76.5157
11811 57.6284 112(11) 95.7515 76.5028
11812 57.6324 112(11) 95.6786 76.4900
11813 57.6365 112(11) 95.6063 76.4771
11814 57.6405 112(11) 95.5349 76.4642
11815 57.6445 111(11) 95.4643 76.4513
11816 57.6486 111(11) 95.3946 76.4384
11817 57.6526 111(11) 95.3257 76.4255
11818 57.6566 111(11) 95.2556 76.4126
11819 57.6606 111(11) 95.1885 76.3997
11820 57.6647 110(10) 95.1222 76.3868
11821 57.6687 110(10) 95.0567 76.3739
11822 57.6727 110(10) 94.9922 76.3610
11823 57.6768 110(10) 94.9286 76.3480
11824 57.6808 110(10) 94.8659 76.3351
11825 57.6848 110(10) 94.8041 76.3221
11826 57.6889 110(10) 94.7433 76.3092
11827 57.6929 109(10) 94.6834 76.2963
11828 57.6969 109(10) 94.6244 76.2833
11829 57.7010 109(10) 94.5664 76.2703
11830 57.7050 109(10) 94.5093 76.2574
11831 57.7090 109(10) 94.4532 76.2444
11832 57.7131 109(10) 94.3981 76.2314
11833 57.7171 109(10) 94.3439 76.2185
11834 57.7211 109(10) 94.2907 76.2055
11835 57.7251 109(10) 94.2385 76.1925
11836 57.7292 109(10) 94.1873 76.1795
11837 57.7332 109(10) 94.1370 76.1665
11838 57.7372 109(10) 94.0878 76.1535
11839 57.7413 109(10) 94.0395 76.1405
11840 57.7453 109(10) 93.9923 76.1275
11841 57.7493 109(10) 93.9460 76.1144
11842 57.7534 109(10) 93.9008 76.1014
11843 57.7574 109(10) 93.8565 76.0884
11844 57.7614 109(10) 93.8133 76.0753
11845 57.7655 109(10) 93.7711 76.0623
11846 57.7695 109(10) 93.7299 76.0492
11847 57.7735 110(10) 93.6897 76.0362
11848 57.7775 110(10) 93.6506 76.0231
11849 57.7816 110(10) 93.6125 76.0101
11850 57.7856 110(10) 93.5754 75.9970
11851 57.7896 110(10) 93.5394 75.9839
11852 57.7937 110(10) 93.5043 75.9708
11853 57.7977 110(10) 93.4704 75.9577
11854 57.8017 110(10) 93.4375 75.9446
11855 57.8058 110(10) 93.4056 75.9316
11856 57.8098 110(10) 93.3748 75.9185
11857 57.8138 110(10) 93.3451 75.9053
11858 57.8179 110(10) 93.3164 75.8922
11859 57.8219 110(10) 93.2888 75.8791
11860 57.8259 111(11) 93.2623 75.8660
11861 57.8300 111(11) 93.2368 75.8529
11862 57.8340 111(11) 93.2124 75.8397
11863 57.8380 111(11) 93.1892 75.8266
11864 57.8420 111(11) 93.1670 75.8135
11865 57.8461 111(11) 93.1459 75.8003
11866 57.8501 111(11) 93.1259 75.7871
11867 57.8541 111(11) 93.1071 75.7740
11868 57.8582 111(11) 93.0893 75.7608
11869 57.8622 111(11) 93.0727 75.7476
11870 57.8662 112(11) 93.0572 75.7345
11871 57.8703 112(11) 93.0429 75.7213
11872 57.8743 112(11) 93.0297 75.7081
11873 57.8783 112(11) 93.0176 75.6949
11874 57.8824 112(11) 93.0067 75.6817
11875 57.8864 112(11) 92.9970 75.6685
11876 57.8904 112(11) 92.9884 75.6553
11877 57.8944 112(11) 92.9810 75.6421
11878 57.8985 112(11) 92.9748 75.6288
11879 57.9025 112(11) 92.9697 75.6156
11880 57.9065 112(11) 92.9658 75.6024
11881 57.9106 112(11) 92.9632 75.5892
11882 57.9146 112(11) 92.9616 75.5759
11883 57.9186 112(11) 92.9613 75.5627
11884 57.9227 112(11) 92.9637 75.5494
11885 57.9267 112(11) 92.9658 75.5361
11886 57.9307 112(11) 92.9691 75.5229
11887 57.9348 112(11) 92.9735 75.5096
11888 57.9388 112(11) 92.9791 75.4963
11889 57.9428 112(11) 92.9859 75.4831
11890 57.9468 112(11) 92.9939 75.4698
11891 57.9509 112(11) 93.0030 75.4565
11892 57.9549 112(11) 93.0133 75.4432
11893 57.9589 112(11) 93.0247 75.4299
11894 57.9630 111(11) 93.0373 75.4165
11895 57.9670 111(11) 93.0509 75.4032
11896 57.9710 111(11) 93.0657 75.3899
11897 57.9751 111(11) 93.0816 75.3766
11898 57.9791 111(11) 93.0985 75.3633
11899 57.9831 111(11) 93.1165 75.3499
11900 57.9872 111(11) 93.1355 75.3366
11901 57.9912 111(11) 93.1555 75.3232
11902 57.9952 111(11) 93.1765 75.3099
11903 57.9993 111(11) 93.1984 75.2965
11904 58.0033 111(11) 93.2212 75.2831
11905 58.0073 111(11) 93.2450 75.2698
11906 58.0113 110(10) 93.2695 75.2564
11907 58.0154 110(10) 93.2949 75.2430
11908 58.0194 110(10) 93.3212 75.2296
11909 58.0234 110(10) 93.3481 75.2162
11910 58.0275 110(10) 93.3757 75.2028
11911 58.0315 110(10) 93.4041 75.1894
11912 58.0355 110(10) 93.4331 75.1760
11913 58.0396 110(10) 93.4627 75.1626
11914 58.0436 110(10) 93.4929 75.1492
11915 58.0476 110(10) 93.5236 75.1358
11916 58.0517 110(10) 93.5548 75.1223
11917 58.0557 110(10) 93.5864 75.1089
11918 58.0597 110(10) 93.6193 75.0954
11919 58.0638 110(10) 93.6518 75.0820
11920 58.0678 110(10) 93.6847 75.0685
11921 58.0718 110(10) 93.7179 75.0551
11922 58.0758 110(10) 93.7515 75.0416
11923 58.0799 110(10) 93.7853 75.0281
11924 58.0839 110(10) 93.8195 75.0147
11925 58.0879 110(10) 93.8689 75.0012
11926 58.0920 110(10) 93.9036 74.9877
11927 58.0960 110(10) 93.9385 74.9742
11928 58.1000 110(10) 93.9737 74.9607
11929 58.1041 110(10) 94.0091 74.9472
11930 58.1081 110(10) 94.0447 74.9337
11931 58.1121 110(10) 94.0807 74.9202
11932 58.1162 110(10) 94.1169 74.9066
11933 58.1202 110(10) 94.1533 74.8931
11934 58.1242 110(10) 94.1900 74.8796
11935 58.1282 110(10) 94.2271 74.8660
11936 58.1323 110(10) 94.2645 74.8525
11937 58.1363 110(10) 94.3022 74.8389
11938 58.1403 110(10) 94.3403 74.8254
11939 58.1444 110(10) 94.3789 74.8118
11940 58.1484 110(10) 94.4179 74.7982
11941 58.1524 110(10) 94.4573 74.7846
11942 58.1565 110(10) 94.4973 74.7710
11943 58.1605 110(10) 94.5378 74.7575
11944 58.1645 110(10) 94.5789 74.7439
11945 58.1686 109(10) 94.6206 74.7303
11946 58.1726 109(10) 94.6631 74.7167
11947 58.1766 109(10) 94.7061 74.7031
11948 58.1806 109(10) 94.7499 74.6894
11949 58.1847 109(10) 94.7945 74.6758
11950 58.1887 109(10) 94.8398 74.6622
11951 58.1927 109(10) 94.8860 74.6486
11952 58.1968 109(10) 94.9331 74.6349
11953 58.2008 109(10) 94.9810 74.6213
11954 58.2048 109(10) 95.0299 74.6076
11955 58.2089 109(10) 95.0797 74.5940
11956 58.2129 109(10) 95.1305 74.5803
11957 58.2169 109(10) 95.1823 74.5666
11958 58.2210 109(10) 95.2352 74.5530
11959 58.2250 109(10) 95.2966 74.5393
11960 58.2290 109(10) 95.3516 74.5256
11961 58.2331 109(10) 95.4077 74.5119
11962 58.2371 110(10) 95.4650 74.4982
11963 58.2411 110(10) 95.5234 74.4845
11964 58.2451 110(10) 95.5831 74.4708
11965 58.2492 110(10) 95.6439 74.4570
11966 58.2532 110(10) 95.7060 74.4433
11967 58.2572 110(10) 95.7692 74.4296
11968 58.2613 110(10) 95.8338 74.4159
11969 58.2653 111(11) 95.8996 74.4021
11970 58.2693 111(11) 95.9667 74.3884
11971 58.2734 111(11) 96.0352 74.3746
11972 58.2774 111(11) 96.1051 74.3609
11973 58.2814 111(11) 96.1763 74.3471
11974 58.2855 111(11) 96.2488 74.3333
11975 58.2895 112(11) 96.3228 74.3196
11976 58.2935 112(11) 96.3982 74.3058
11977 58.2975 112(11) 96.4750 74.2920
11978 58.3016 112(11) 96.5534 74.2782
11979 58.3056 112(11) 96.6332 74.2644
11980 58.3096 112(11) 96.7145 74.2506
11981 58.3137 112(11) 96.7973 74.2368
11982 58.3177 112(11) 96.8817 74.2230
11983 58.3217 112(11) 96.9677 74.2091
11984 58.3258 112(11) 97.0551 74.1953
11985 58.3298 112(11) 97.1442 74.1815
11986 58.3338 112(11) 97.2349 74.1676
11987 58.3379 112(11) 97.3300 74.1538
11988 58.3419 112(11) 97.4240 74.1399
11989 58.3459 112(11) 97.5196 74.1261
11990 58.3499 112(11) 97.6168 74.1122
11991 58.3540 112(11) 97.7158 74.0983
11992 58.3580 111(11) 97.8164 74.0844
11993 58.3620 111(11) 97.9187 74.0705
11994 58.3661 111(11) 98.0226 74.0567
11995 58.3701 111(11) 98.1283 74.0428
11996 58.3741 111(11) 98.2358 74.0289
11997 58.3782 111(11) 98.3448 74.0150
11998 58.3822 110(10) 98.4557 74.0010
11999 58.3862 110(10) 98.5718 73.9871
12000 58.3903 110(10) 98.6861 73.9732
12001 58.3943 110(10) 98.8021 73.9593
12002 58.3983 110(10) 98.9200 73.9453
12003 58.4024 109(10) 99.0396 73.9314
12004 58.4064 109(10) 99.1609 73.9174
12005 58.4104 109(10) 99.2840 73.9035
12006 58.4144 109(10) 99.4089 73.8895
12007 58.4185 109(10) 99.5355 73.8755
12008 58.4225 108(10) 99.6641 73.8616
12009 58.4265 108(10) 99.7944 73.8476
12010 58.4306 108(10) 99.9264 73.8336
12011 58.4346 108(10) 100.0603 73.8196
12012 58.4386 108(10) 100.1962 73.8056
12013 58.4427 108(10) 100.3338 73.7916
12014 58.4467 108(10) 100.4732 73.7776
12015 58.4507 108(10) 100.6147 73.7636
12016 58.4548 108(10) 100.7580 73.7495
12017 58.4588 107(10) 100.9030 73.7355
12018 58.4628 107(10) 101.0501 73.7215
12019 58.4669 107(10) 101.1992 73.7074
12020 58.4709 107(10) 101.3502 73.6934
12021 58.4749 107(10) 101.5030 73.6793
12022 58.4789 108(10) 101.6593 73.6653
12023 58.4830 108(10) 101.8162 73.6512
12024 58.4870 108(10) 101.9750 73.6371
12025 58.4910 108(10) 102.1359 73.6230
12026 58.4951 108(10) 102.2988 73.6089
12027 58.4991 108(10) 102.4636 73.5948
12028 58.5031 108(10) 102.6306 73.5808
12029 58.5072 108(10) 102.7995 73.5666
12030 58.5112 108(10) 102.9579 73.5525
12031 58.5152 108(10) 103.1309 73.5384
12032 58.5193 108(10) 103.3061 73.5243
12033 58.5233 109(10) 103.4833 73.5102
12034 58.5273 109(10) 103.6641 73.4960
12035 58.5313 109(10) 103.8454 73.4819
12036 58.5354 109(10) 104.0288 73.4677
12037 58.5394 109(10) 104.2140 73.4536
12038 58.5434 109(10) 104.4013 73.4394
12039 58.5475 109(10) 104.5907 73.4252
12040 58.5515 109(10) 104.7822 73.4111
12041 58.5555 109(10) 104.9753 73.3969
12042 58.5596 109(10) 105.1707 73.3827
12043 58.5636 109(10) 105.3680 73.3685
12044 58.5676 109(10) 105.5669 73.3543
12045 58.5717 109(10) 105.7680 73.3401
12046 58.5757 110(10) 105.9710 73.3259
12047 58.5797 110(10) 106.1756 73.3117
12048 58.5837 110(10) 106.3822 73.2975
12049 58.5878 110(10) 106.5907 73.2832
12050 58.5918 110(10) 106.8008 73.2690
12051 58.5958 110(10) 107.0125 73.2548
12052 58.5999 110(10) 107.2261 73.2405
12053 58.6039 110(10) 107.4413 73.2262
12054 58.6079 110(10) 107.6578 73.2120
12055 58.6120 110(10) 107.8762 73.1977
12056 58.6160 110(10) 108.0961 73.1834
12057 58.6200 110(10) 108.3174 73.1692
12058 58.6241 110(10) 108.5399 73.1549
12059 58.6281 110(10) 108.7640 73.1406
12060 58.6321 110(10) 108.9895 73.1263
12061 58.6362 110(10) 109.2160 73.1120
12062 58.6402 110(10) 109.4439 73.0976
12063 58.6442 110(10) 109.6729 73.0833
12064 58.6482 110(10) 109.8986 73.0690
12065 58.6523 110(10) 110.1297 73.0547
12066 58.6563 110(10) 110.3619 73.0403
12067 58.6603 110(10) 110.5950 73.0260
12068 58.6644 111(11) 110.8286 73.0117
12069 58.6684 111(11) 111.0633 72.9973
12070 58.6724 111(11) 111.2986 72.9829
12071 58.6765 111(11) 111.5281 72.9686
12072 58.6805 111(11) 111.7647 72.9542
12073 58.6845 111(11) 112.0017 72.9398
12074 58.6886 111(11) 112.2390 72.9254
12075 58.6926 111(11) 112.4768 72.9110
12076 58.6966 111(11) 112.7149 72.8966
12077 58.7006 111(11) 112.9532 72.8822
12078 58.7047 111(11) 113.1914 72.8678
12079 58.7087 111(11) 113.4298 72.8533
12080 58.7127 111(11) 113.6682 72.8389
12081 58.7168 111(11) 113.9082 72.8245
12082 58.7208 111(11) 114.1463 72.8101
12083 58.7248 111(11) 114.3843 72.7956
12084 58.7289 112(11) 114.6217 72.7812
12085 58.7329 112(11) 114.8589 72.7667
12086 58.7369 112(11) 115.0957 72.7522
12087 58.7410 112(11) 115.3321 72.7378
12088 58.7450 112(11) 115.5148 72.7233
12089 58.7490 112(11) 115.7500 72.7088
12090 58.7531 112(11) 115.9846 72.6943
12091 58.7571 112(11) 116.2183 72.6798
12092 58.7611 112(11) 116.4514 72.6653
12093 58.7651 112(11) 116.6838 72.6508
12094 58.7692 112(11) 116.9154 72.6363
12095 58.7732 112(11) 117.1459 72.6217
12096 58.7772 112(11) 117.3759 72.6072
12097 58.7813 113(11) 117.6050 72.5927
12098 58.7853 113(11) 117.8330 72.5781
12099 58.7893 113(11) 118.0605 72.5636
12100 58.7934 113(11) 118.2871 72.5490
12101 58.7974 113(11) 118.5127 72.5345
12102 58.8014 113(11) 118.7378 72.5199
12103 58.8055 113(11) 118.9622 72.5053
12104 58.8095 113(11) 119.1860 72.4907
12105 58.8135 113(11) 119.4089 72.4761
12106 58.8175 114(11) 119.6295 72.4615
12107 58.8216 114(11) 119.8518 72.4469
12108 58.8256 114(11) 120.0737 72.4323
12109 58.8296 114(11) 120.2956 72.4177
12110 58.8337 114(11) 120.5174 72.4031
12111 58.8377 114(11) 120.7392 72.3885
12112 58.8417 115(11) 120.9615 72.3738
12113 58.8458 115(11) 121.1843 72.3592
12114 58.8498 115(11) 121.4078 72.3445
12115 58.8538 115(11) 121.6319 72.3299
12116 58.8579 116(11) 121.8583 72.3152
12117 58.8619 116(11) 122.0851 72.3005
12118 58.8659 116(11) 122.3133 72.2859
12119 58.8699 116(11) 122.5436 72.2712
12120 58.8740 117(11) 122.7761 72.2565
12121 58.8780 117(11) 123.0109 72.2418
12122 58.8820 117(11) 123.2487 72.2271
12123 58.8861 118(11) 123.4896 72.2124
12124 58.8901 118(11) 123.7341 72.1977
12125 58.8941 118(11) 123.9823 72.1830
12126 58.8982 119(11) 124.2349 72.1682
12127 58.9022 119(11) 124.4921 72.1535
12128 58.9062 119(11) 124.7543 72.1388
12129 58.9103 120(11) 125.0222 72.1240
12130 58.9143 120(11) 125.2699 72.1093
12131 58.9183 121(11) 125.5502 72.0945
12132 58.9224 121(11) 125.8371 72.0797
12133 58.9264 121(11) 126.1317 72.0649
12134 58.9304 122(11) 126.4341 72.0502
12135 58.9344 122(11) 126.7445 72.0354
12136 58.9385 123(11) 127.0641 72.0206
12137 58.9425 123(11) 127.3930 72.0058
12138 58.9465 124(11) 127.7260 71.9910
12139 58.9506 124(11) 128.0750 71.9762
12140 58.9546 125(11) 128.4348 71.9613
12141 58.9586 125(11) 128.8059 71.9465
12142 58.9627 126(11) 129.1884 71.9317
12143 58.9667 126(11) 129.5836 71.9169
12144 58.9707 127(11) 129.9915 71.9020
12145 58.9748 128(11) 130.4122 71.8871
12146 58.9788 128(11) 130.8468 71.8723
12147 58.9828 129(11) 131.2954 71.8574
12148 58.9868 129(11) 131.7579 71.8426
12149 58.9909 130(11) 132.2357 71.8277
12150 58.9949 130(11) 132.7284 71.8128
12151 58.9989 131(11) 133.2365 71.7979
12152 59.0030 132(11) 133.7596 71.7830
12153 59.0070 132(11) 134.2990 71.7681
12154 59.0110 133(12) 134.8543 71.7532
12155 59.0151 133(12) 135.4315 71.7382
12156 59.0191 134(12) 136.0189 71.7233
12157 59.0231 134(12) 136.6224 71.7084
12158 59.0272 135(12) 137.2413 71.6935
12159 59.0312 136(12) 137.8766 71.6785
12160 59.0352 136(12) 138.5277 71.6636
12161 59.0393 137(12) 139.1941 71.6486
12162 59.0433 137(12) 139.8750 71.6336
12163 59.0473 138(12) 140.5713 71.6187
12164 59.0513 138(12) 141.2816 71.6037
12165 59.0554 139(12) 142.0049 71.5887
12166 59.0594 139(12) 142.7420 71.5737
12167 59.0634 140(12) 143.4913 71.5587
12168 59.0675 141(12) 144.2513 71.5437
12169 59.0715 141(12) 145.0227 71.5287
12170 59.0755 142(12) 145.8037 71.5136
12171 59.0796 142(12) 146.5934 71.4986
12172 59.0836 143(12) 147.3900 71.4836
12173 59.0876 144(12) 148.1937 71.4685
12174 59.0917 144(12) 149.0026 71.4535
12175 59.0957 145(12) 149.8148 71.4384
12176 59.0997 145(12) 150.6303 71.4233
12177 59.1037 146(12) 151.4472 71.4083
12178 59.1078 147(12) 152.2639 71.3932
12179 59.1118 147(12) 153.0784 71.3781
12180 59.1158 148(12) 153.8879 71.3630
12181 59.1199 149(12) 154.6957 71.3479
12182 59.1239 149(12) 155.4968 71.3328
12183 59.1279 150(12) 156.2912 71.3177
12184 59.1320 150(12) 157.0769 71.3026
12185 59.1360 151(12) 157.8515 71.2875
12186 59.1400 151(12) 158.6151 71.2724
12187 59.1441 152(12) 159.3656 71.2572
12188 59.1481 152(12) 160.1016 71.2421
12189 59.1521 153(12) 160.8212 71.2269
12190 59.1562 153(12) 161.5278 71.2118
12191 59.1602 154(12) 162.2129 71.1966
12192 59.1642 154(12) 162.8781 71.1814
12193 59.1682 155(12) 163.5237 71.1663
12194 59.1723 155(12) 164.1478 71.1511
12195 59.1763 155(12) 164.7491 71.1359
12196 59.1803 156(12) 165.3279 71.1207
12197 59.1844 156(12) 165.8828 71.1055
12198 59.1884 156(12) 166.4131 71.0903
12199 59.1924 156(12) 166.9176 71.0751
12200 59.1965 157(13) 167.3969 71.0598
12201 59.2005 157(13) 167.8497 71.0446
12202 59.2045 157(13) 168.2755 71.0294
12203 59.2086 157(13) 168.6744 71.0141
12204 59.2126 157(13) 169.0458 70.9989
12205 59.2166 157(13) 169.3891 70.9836
12206 59.2206 157(13) 169.7046 70.9683
12207 59.2247 157(13) 169.9919 70.9531
12208 59.2287 158(13) 170.2505 70.9378
12209 59.2327 158(13) 170.4804 70.9225
12210 59.2368 158(13) 170.6818 70.9072
12211 59.2408 158(13) 170.8543 70.8919
12212 59.2448 158(13) 170.9978 70.8766
12213 59.2489 158(13) 171.1124 70.8613
12214 59.2529 158(13) 171.1981 70.8460
12215 59.2569 158(13) 171.2548 70.8306
12216 59.2610 158(13) 171.2825 70.8153
12217 59.2650 158(13) 171.2868 70.8000
12218 59.2690 158(13) 171.2569 70.7846
12219 59.2730 158(13) 171.1983 70.7693
12220 59.2771 158(13) 171.1113 70.7539
12221 59.2811 158(13) 170.9959 70.7385
12222 59.2851 159(13) 170.8526 70.7231
12223 59.2892 159(13) 170.6813 70.7078
12224 59.2932 159(13) 170.4825 70.6924
12225 59.2972 159(13) 170.2567 70.6769
12226 59.3013 159(13) 170.0044 70.6616
12227 59.3053 159(13) 169.7256 70.6461
12228 59.3093 158(13) 169.4211 70.6307
12229 59.3134 158(13) 169.0917 70.6153
12230 59.3174 158(13) 168.7376 70.5999
12231 59.3214 158(13) 168.3597 70.5844
12232 59.3255 158(13) 167.9591 70.5690
12233 59.3295 158(13) 167.5359 70.5535
12234 59.3335 158(13) 167.0912 70.5381
12235 59.3375 158(13) 166.6260 70.5226
12236 59.3416 158(13) 166.1416 70.5071
12237 59.3456 157(13) 165.6381 70.4917
12238 59.3496 157(13) 165.1169 70.4762
12239 59.3537 157(13) 164.5794 70.4607
12240 59.3577 157(13) 164.0258 70.4452
12241 59.3617 156(12) 163.4575 70.4297
12242 59.3658 156(12) 162.8762 70.4141
12243 59.3698 156(12) 162.2818 70.3986
12244 59.3738 155(12) 161.6759 70.3831
12245 59.3779 155(12) 161.0597 70.3676
12246 59.3819 155(12) 160.4345 70.3520
12247 59.3859 154(12) 159.8003 70.3365
12248 59.3899 154(12) 159.1587 70.3209
12249 59.3940 154(12) 158.5112 70.3054
12250 59.3980 153(12) 157.8575 70.2898
12251 59.4020 153(12) 157.1991 70.2742
12252 59.4061 152(12) 156.5396 70.2586
12253 59.4101 152(12) 155.8751 70.2430
12254 59.4141 152(12) 155.2076 70.2274
12255 59.4182 151(12) 154.5388 70.2118
12256 59.4222 151(12) 153.8698 70.1962
12257 59.4262 150(12) 153.2002 70.1806
12258 59.4303 150(12) 152.5310 70.1649
12259 59.4343 149(12) 151.8636 70.1493
12260 59.4383 149(12) 151.1974 70.1337
12261 59.4424 148(12) 150.5333 70.1180
12262 59.4464 148(12) 149.8721 70.1024
12263 59.4504 147(12) 149.2148 70.0867
12264 59.4544 147(12) 148.5605 70.0711
12265 59.4585 146(12) 147.9104 70.0554
12266 59.4625 146(12) 147.2654 70.0397
12267 59.4665 145(12) 146.6248 70.0240
12268 59.4706 145(12) 145.9893 70.0083
12269 59.4746 144(12) 145.3603 69.9926
12270 59.4786 144(12) 144.7365 69.9769
12271 59.4827 143(12) 144.1190 69.9612
12272 59.4867 143(12) 143.5082 69.9455
12273 59.4907 142(12) 142.9048 69.9297
12274 59.4948 142(12) 142.3080 69.9140
12275 59.4988 142(12) 141.7187 69.8982
12276 59.5028 141(12) 141.1375 69.8825
12277 59.5068 141(12) 140.5637 69.8667
12278 59.5109 140(12) 139.9980 69.8510
12279 59.5149 140(12) 139.4411 69.8352
12280 59.5189 139(12) 138.8921 69.8194
12281 59.5230 139(12) 138.3519 69.8036
12282 59.5270 138(12) 137.8204 69.7878
12283 59.5310 138(12) 137.2984 69.7720
12284 59.5351 137(12) 136.7850 69.7562
12285 59.5391 137(12) 136.2807 69.7404
12286 59.5431 137(12) 135.7861 69.7246
12287 59.5472 136(12) 135.3004 69.7087
12288 59.5512 136(12) 134.8239 69.6929
12289 59.5552 135(12) 134.3572 69.6770
12290 59.5592 135(12) 133.8994 69.6612
12291 59.5633 134(12) 133.4509 69.6453
12292 59.5673 134(12) 133.0117 69.6295
12293 59.5713 133(12) 132.5821 69.6136
12294 59.5754 133(12) 132.1613 69.5977
12295 59.5794 132(11) 131.7495 69.5819
12296 59.5834 132(11) 131.3470 69.5660
12297 59.5875 132(11) 130.9530 69.5501
12298 59.5915 131(11) 130.5676 69.5342
12299 59.5955 131(11) 130.1907 69.5182
12300 59.5996 130(11) 129.8225 69.5023
12301 59.6036 130(11) 129.4622 69.4864
12302 59.6076 129(11) 129.1098 69.4704
12303 59.6117 129(11) 128.7655 69.4545
12304 59.6157 128(11) 128.4285 69.4386
12305 59.6197 128(11) 128.0988 69.4226
12306 59.6237 127(11) 127.7765 69.4066
12307 59.6278 127(11) 127.4609 69.3907
12308 59.6318 127(11) 127.1519 69.3747
12309 59.6358 126(11) 126.8494 69.3587
12310 59.6399 126(11) 126.5206 69.3427
12311 59.6439 125(11) 126.2303 69.3267
12312 59.6479 125(11) 125.9456 69.3107
12313 59.6520 124(11) 125.6692 69.2947
12314 59.6560 124(11) 125.3953 69.2787
12315 59.6600 124(11) 125.1265 69.2626
12316 59.6641 123(11) 124.8628 69.2466
12317 59.6681 123(11) 124.6033 69.2306
12318 59.6721 122(11) 124.3483 69.2145
12319 59.6762 122(11) 124.0973 69.1985
12320 59.6802 121(11) 123.8505 69.1824
12321 59.6842 121(11) 123.6072 69.1663
12322 59.6882 121(11) 123.3674 69.1502
12323 59.6923 120(11) 123.1312 69.1342
12324 59.6963 120(11) 122.8978 69.1181
12325 59.7003 119(11) 122.6674 69.1020
12326 59.7044 119(11) 122.4399 69.0859
12327 59.7084 119(11) 122.2149 69.0697
12328 59.7124 118(11) 121.9922 69.0536
12329 59.7165 118(11) 121.7718 69.0375
12330 59.7205 118(11) 121.5537 69.0214
12331 59.7245 117(11) 121.3373 69.0052
12332 59.7286 117(11) 121.1228 68.9891
12333 59.7326 117(11) 120.9101 68.9729
12334 59.7366 117(11) 120.6987 68.9568
12335 59.7406 117(11) 120.4887 68.9406
12336 59.7447 116(11) 120.2800 68.9244
12337 59.7487 116(11) 120.0725 68.9082
12338 59.7527 116(11) 119.8660 68.8920
12339 59.7568 116(11) 119.6603 68.8758
12340 59.7608 116(11) 119.4555 68.8596
12341 59.7648 116(11) 119.2513 68.8434
12342 59.7689 116(11) 119.0476 68.8272
12343 59.7729 116(11) 118.8445 68.8110
12344 59.7769 116(11) 118.6416 68.7947
12345 59.7810 116(11) 118.4390 68.7785
12346 59.7850 116(11) 118.2366 68.7623
12347 59.7890 116(11) 118.0344 68.7460
12348 59.7930 116(11) 117.8320 68.7297
12349 59.7971 115(11) 117.6306 68.7135
12350 59.8011 115(11) 117.4281 68.6972
12351 59.8051 115(11) 117.2251 68.6809
12352 59.8092 115(11) 117.0055 68.6646
12353 59.8132 115(11) 116.8019 68.6483
12354 59.8172 115(11) 116.5977 68.6320
12355 59.8213 115(11) 116.3928 68.6157
12356 59.8253 115(11) 116.1874 68.5994
12357 59.8293 115(11) 115.9815 68.5831
12358 59.8334 115(11) 115.7746 68.5667
12359 59.8374 115(11) 115.5670 68.5504
12360 59.8414 115(11) 115.3588 68.5340
12361 59.8455 115(11) 115.1495 68.5177
12362 59.8495 115(11) 114.9394 68.5013
12363 59.8535 115(11) 114.7287 68.4850
12364 59.8575 115(11) 114.5413 68.4686
12365 59.8616 114(11) 114.3286 68.4522
12366 59.8656 114(11) 114.1150 68.4358
12367 59.8696 114(11) 113.9007 68.4194
12368 59.8737 114(11) 113.6854 68.4030
12369 59.8777 114(11) 113.4694 68.3866
12370 59.8817 114(11) 113.2528 68.3702
12371 59.8858 114(11) 113.0352 68.3537
12372 59.8898 113(11) 112.8171 68.3373
12373 59.8938 113(11) 112.5984 68.3208
12374 59.8979 113(11) 112.3803 68.3044
12375 59.9019 113(11) 112.1606 68.2880
12376 59.9059 113(11) 111.9406 68.2715
12377 59.9099 113(11) 111.7206 68.2550
12378 59.9140 113(11) 111.5003 68.2386
12379 59.9180 112(11) 111.2798 68.2220
12380 59.9220 112(11) 111.0597 68.2056
12381 59.9261 112(11) 110.8396 68.1891
12382 59.9301 112(11) 110.6196 68.1726
12383 59.9341 112(11) 110.4002 68.1561
12384 59.9382 112(11) 110.1814 68.1395
12385 59.9422 112(11) 109.9630 68.1230
12386 59.9462 112(11) 109.7454 68.1065
12387 59.9503 112(11) 109.5289 68.0899
12388 59.9543 112(11) 109.3131 68.0734
12389 59.9583 112(11) 109.0984 68.0568
12390 59.9623 111(11) 108.8850 68.0403
12391 59.9664 111(11) 108.6719 68.0237
12392 59.9704 111(11) 108.4627 68.0071
12393 59.9744 111(11) 108.2533 67.9905
12394 59.9785 111(11) 108.0457 67.9739
12395 59.9825 111(11) 107.8395 67.9574
12396 59.9865 111(11) 107.6350 67.9407
12397 59.9906 111(11) 107.4325 67.9241
12398 59.9946 111(11) 107.2317 67.9075
12399 59.9986 111(11) 107.0328 67.8909
12400 60.0027 111(11) 106.8484 67.8743
12401 60.0067 111(11) 106.6536 67.8576
12402 60.0107 111(11) 106.4608 67.8410
12403 60.0148 110(10) 106.2703 67.8243
12404 60.0188 110(10) 106.0822 67.8077
12405 60.0228 110(10) 105.8961 67.7910
12406 60.0268 110(10) 105.7123 67.7743
12407 60.0309 110(10) 105.5310 67.7576
12408 60.0349 110(10) 105.3518 67.7409
12409 60.0389 110(10) 105.1750 67.7242
12410 60.0430 110(10) 105.0011 67.7075
12411 60.0470 110(10) 104.8292 67.6908
12412 60.0510 110(10) 104.6465 67.6741
12413 60.0551 110(10) 104.4794 67.6574
12414 60.0591 110(10) 104.3148 67.6406
12415 60.0631 110(10) 104.1526 67.6239
12416 60.0672 109(10) 103.9929 67.6071
12417 60.0712 109(10) 103.8358 67.5904
12418 60.0752 109(10) 103.6809 67.5736
12419 60.0793 109(10) 103.5286 67.5568
12420 60.0833 109(10) 103.3817 67.5401
12421 60.0873 109(10) 103.2345 67.5233
12422 60.0913 109(10) 103.0896 67.5065
12423 60.0954 109(10) 102.9472 67.4897
12424 60.0994 109(10) 102.8073 67.4729
12425 60.1034 109(10) 102.6698 67.4561
12426 60.1075 109(10) 102.5346 67.4392
12427 60.1115 109(10) 102.4021 67.4224
12428 60.1155 109(10) 102.2725 67.4056
12429 60.1196 109(10) 102.1446 67.3888
12430 60.1236 109(10) 102.0190 67.3719
12431 60.1276 108(10) 101.8957 67.3551
12432 60.1317 108(10) 101.7747 67.3382
12433 60.1357 108(10) 101.6559 67.3213
12434 60.1397 108(10) 101.5390 67.3044
12435 60.1437 108(10) 101.4246 67.2876
12436 60.1478 108(10) 101.3124 67.2707
12437 60.1518 108(10) 101.2024 67.2538
12438 60.1558 108(10) 101.0944 67.2369
12439 60.1599 109(10) 100.9884 67.2200
12440 60.1639 109(10) 100.8845 67.2030
12441 60.1679 109(10) 100.7825 67.1861
12442 60.1720 109(10) 100.6825 67.1692
12443 60.1760 109(10) 100.5844 67.1522
12444 60.1800 109(10) 100.4882 67.1353
12445 60.1841 109(10) 100.3937 67.1183
12446 60.1881 109(10) 100.3011 67.1014
12447 60.1921 109(10) 100.2103 67.0844
12448 60.1961 109(10) 100.1212 67.0674
12449 60.2002 109(10) 100.0339 67.0504
12450 60.2042 109(10) 99.9482 67.0334
12451 60.2082 109(10) 99.8643 67.0165
12452 60.2123 109(10) 99.7820 66.9994
12453 60.2163 109(10) 99.7013 66.9824
12454 60.2203 109(10) 99.6224 66.9654
12455 60.2244 109(10) 99.5384 66.9484
12456 60.2284 109(10) 99.4641 66.9313
12457 60.2324 109(10) 99.3899 66.9143
12458 60.2365 109(10) 99.3310 66.8972
12459 60.2405 109(10) 99.2600 66.8802
12460 60.2445 109(10) 99.1907 66.8631
12461 60.2486 109(10) 99.1230 66.8461
12462 60.2526 109(10) 99.0569 66.8290
12463 60.2566 109(10) 98.9924 66.8119
12464 60.2606 109(10) 98.9295 66.7948
12465 60.2647 109(10) 98.8682 66.7777
12466 60.2687 109(10) 98.8086 66.7606
12467 60.2727 109(10) 98.7505 66.7435
12468 60.2768 109(10) 98.6942 66.7264
12469 60.2808 109(10) 98.6394 66.7093
12470 60.2848 109(10) 98.5862 66.6921
12471 60.2889 109(10) 98.5347 66.6750
12472 60.2929 109(10) 98.4848 66.6578
12473 60.2969 109(10) 98.4382 66.6407
12474 60.3010 109(10) 98.3935 66.6235
12475 60.3050 109(10) 98.3486 66.6063
12476 60.3090 109(10) 98.3052 66.5891
12477 60.3130 109(10) 98.2635 66.5720
12478 60.3171 109(10) 98.2234 66.5548
12479 60.3211 109(10) 98.1850 66.5376
12480 60.3251 109(10) 98.1481 66.5204
12481 60.3292 109(10) 98.1129 66.5032
12482 60.3332 109(10) 98.0791 66.4859
12483 60.3372 109(10) 98.0471 66.4687
12484 60.3413 110(10) 98.0166 66.4515
12485 60.3453 110(10) 97.9877 66.4342
12486 60.3493 110(10) 97.9603 66.4170
12487 60.3534 110(10) 97.9345 66.3997
12488 60.3574 110(10) 97.9103 66.3825
12489 60.3614 110(10) 97.8877 66.3652
12490 60.3655 110(10) 97.8664 66.3479
12491 60.3695 110(10) 97.8468 66.3307
12492 60.3735 110(10) 97.8287 66.3134
12493 60.3775 110(10) 97.8121 66.2961
12494 60.3816 110(10) 97.8037 66.2788
12495 60.3856 110(10) 97.7901 66.2615
12496 60.3896 110(10) 97.7780 66.2441
12497 60.3937 110(10) 97.7674 66.2268
12498 60.3977 110(10) 97.7584 66.2095
12499 60.4017 110(10) 97.7508 66.1921
12500 60.4058 110(10) 97.7447 66.1748
12501 60.4098 110(10) 97.7401 66.1574
12502 60.4138 110(10) 97.7371 66.1401
12503 60.4179 110(10) 97.7355 66.1227
12504 60.4219 110(10) 97.7355 66.1053
12505 60.4259 110(10) 97.7370 66.0880
12506 60.4299 110(10) 97.7399 66.0705
12507 60.4340 110(10) 97.7445 66.0532
12508 60.4380 110(10) 97.7505 66.0358
12509 60.4420 110(10) 97.7589 66.0183
12510 60.4461 110(10) 97.7690 66.0009
12511 60.4501 109(10) 97.7796 65.9835
12512 60.4541 109(10) 97.7918 65.9660
12513 60.4582 109(10) 97.8056 65.9486
12514 60.4622 109(10) 97.8209 65.9312
12515 60.4662 109(10) 97.8378 65.9137
12516 60.4703 109(10) 97.8562 65.8963
12517 60.4743 109(10) 97.8762 65.8788
12518 60.4783 109(10) 97.8997 65.8613
12519 60.4823 109(10) 97.9228 65.8438
12520 60.4864 109(10) 97.9475 65.8263
12521 60.4904 109(10) 97.9737 65.8089
12522 60.4944 109(10) 98.0015 65.7914
12523 60.4985 109(10) 98.0309 65.7738
12524 60.5025 109(10) 98.0618 65.7563
12525 60.5065 109(10) 98.0943 65.7388
12526 60.5106 108(10) 98.1283 65.7213
12527 60.5146 108(10) 98.1640 65.7037
12528 60.5186 108(10) 98.2010 65.6862
12529 60.5227 108(10) 98.2397 65.6686
12530 60.5267 108(10) 98.2799 65.6511
12531 60.5307 108(10) 98.3216 65.6335
12532 60.5348 108(10) 98.3648 65.6159
12533 60.5388 108(10) 98.4096 65.5984
12534 60.5428 108(10) 98.4559 65.5807
12535 60.5468 108(10) 98.5036 65.5632
12536 60.5509 108(10) 98.5529 65.5456
12537 60.5549 108(10) 98.6037 65.5280
12538 60.5589 108(10) 98.6559 65.5103
12539 60.5630 108(10) 98.7097 65.4927
12540 60.5670 108(10) 98.7649 65.4751
12541 60.5710 108(10) 98.8216 65.4574
12542 60.5751 108(10) 98.8798 65.4398
12543 60.5791 108(10) 98.9395 65.4222
12544 60.5831 108(10) 99.0006 65.4045
12545 60.5872 108(10) 99.0631 65.3869
12546 60.5912 108(10) 99.1272 65.3692
12547 60.5952 108(10) 99.1927 65.3515
12548 60.5992 108(10) 99.2597 65.3338
12549 60.6033 108(10) 99.3281 65.3161
12550 60.6073 108(10) 99.3981 65.2984
12551 60.6113 108(10) 99.4695 65.2807
12552 60.6154 108(10) 99.5424 65.2630
12553 60.6194 108(10) 99.6168 65.2453
12554 60.6234 108(10) 99.6927 65.2276
12555 60.6275 108(10) 99.7710 65.2098
12556 60.6315 108(10) 99.8499 65.1921
12557 60.6355 108(10) 99.9304 65.1743
12558 60.6396 108(10) 100.0123 65.1566
12559 60.6436 108(10) 100.0959 65.1388
12560 60.6476 108(10) 100.1810 65.1210
12561 60.6517 108(10) 100.2677 65.1032
12562 60.6557 108(10) 100.3559 65.0855
12563 60.6597 108(10) 100.4459 65.0677
12564 60.6637 108(10) 100.5374 65.0499
12565 60.6678 108(10) 100.6306 65.0321
12566 60.6718 108(10) 100.7255 65.0143
12567 60.6758 108(10) 100.8221 64.9964
12568 60.6799 108(10) 100.9204 64.9786
12569 60.6839 108(10) 101.0204 64.9608
12570 60.6879 108(10) 101.1222 64.9430
12571 60.6920 108(10) 101.2259 64.9251
12572 60.6960 108(10) 101.3312 64.9073
12573 60.7000 108(10) 101.4385 64.8894
12574 60.7041 108(10) 101.5477 64.8715
12575 60.7081 108(10) 101.6586 64.8537
12576 60.7121 109(10) 101.7715 64.8358
12577 60.7161 109(10) 101.8864 64.8179
12578 60.7202 109(10) 102.0033 64.8000
12579 60.7242 109(10) 102.1220 64.7821
12580 60.7282 109(10) 102.2428 64.7642
12581 60.7323 109(10) 102.3656 64.7463
12582 60.7363 109(10) 102.4904 64.7284
12583 60.7403 109(10) 102.6173 64.7104
12584 60.7444 109(10) 102.7463 64.6925
12585 60.7484 109(10) 102.8772 64.6746
12586 60.7524 109(10) 103.0103 64.6566
12587 60.7565 109(10) 103.1456 64.6386
12588 60.7605 109(10) 103.2828 64.6207
12589 60.7645 109(10) 103.4221 64.6027
12590 60.7686 110(10) 103.5635 64.5847
12591 60.7726 110(10) 103.7071 64.5667
12592 60.7766 110(10) 103.8526 64.5488
12593 60.7806 110(10) 104.0001 64.5308
12594 60.7847 110(10) 104.1498 64.5128
12595 60.7887 110(10) 104.3012 64.4948
12596 60.7927 110(10) 104.4547 64.4767
12597 60.7968 110(10) 104.6101 64.4587
12598 60.8008 110(10) 104.7674 64.4407
12599 60.8048 110(10) 104.9263 64.4227
12600 60.8089 111(11) 105.0870 64.4046
12601 60.8129 111(11) 105.2494 64.3866
12602 60.8169 111(11) 105.4132 64.3685
12603 60.8210 111(11) 105.5787 64.3504
12604 60.8250 111(11) 105.7455 64.3324
12605 60.8290 111(11) 105.9135 64.3143
12606 60.8330 111(11) 106.0828 64.2962
12607 60.8371 111(11) 106.2532 64.2781
12608 60.8411 112(11) 106.4245 64.2600
12609 60.8451 112(11) 106.5965 64.2419
12610 60.8492 112(11) 106.7694 64.2238
12611 60.8532 112(11) 106.9427 64.2057
12612 60.8572 112(11) 107.1163 64.1875
12613 60.8613 112(11) 107.2903 64.1694
12614 60.8653 112(11) 107.4644 64.1512
12615 60.8693 112(11) 107.6385 64.1331
12616 60.8734 112(11) 107.8121 64.1150
12617 60.8774 112(11) 107.9855 64.0968
12618 60.8814 113(11) 108.1583 64.0786
12619 60.8854 113(11) 108.3304 64.0605
12620 60.8895 113(11) 108.5017 64.0423
12621 60.8935 113(11) 108.6720 64.0241
12622 60.8975 113(11) 108.8409 64.0059
12623 60.9016 113(11) 109.0087 63.9877
12624 60.9056 113(11) 109.1751 63.9695
12625 60.9096 113(11) 109.3399 63.9512
12626 60.9137 113(11) 109.5030 63.9330
12627 60.9177 113(11) 109.6644 63.9148
12628 60.9217 113(11) 109.8240 63.8966
12629 60.9258 113(11) 109.9816 63.8783
12630 60.9298 113(11) 110.1373 63.8601
12631 60.9338 113(11) 110.2911 63.8418
12632 60.9379 113(11) 110.4428 63.8236
12633 60.9419 113(11) 110.5931 63.8053
12634 60.9459 114(11) 110.7411 63.7870
12635 60.9499 114(11) 110.8872 63.7687
12636 60.9540 114(11) 111.0315 63.7505
12637 60.9580 114(11) 111.1742 63.7322
12638 60.9620 114(11) 111.3155 63.7138
12639 60.9661 114(11) 111.4553 63.6956
12640 60.9701 114(11) 111.5941 63.6772
12641 60.9741 115(11) 111.7319 63.6589
12642 60.9782 115(11) 111.8690 63.6406
12643 60.9822 115(11) 112.0058 63.6223
12644 60.9862 115(11) 112.1424 63.6039
12645 60.9903 115(11) 112.2793 63.5856
12646 60.9943 116(11) 112.4165 63.5672
12647 60.9983 116(11) 112.5546 63.5488
12648 61.0023 116(11) 112.6940 63.5305
12649 61.0064 116(11) 112.8348 63.5121
12650 61.0104 116(11) 112.9777 63.4937
12651 61.0144 117(11) 113.1230 63.4753
12652 61.0185 117(11) 113.2710 63.4569
12653 61.0225 117(11) 113.4221 63.4385
12654 61.0265 117(11) 113.5769 63.4201
12655 61.0306 117(11) 113.7356 63.4017
12656 61.0346 117(11) 113.8986 63.3833
12657 61.0386 117(11) 114.0665 63.3649
12658 61.0427 117(11) 114.2396 63.3464
12659 61.0467 117(11) 114.4180 63.3280
12660 61.0507 117(11) 114.6026 63.3096
12661 61.0548 117(11) 114.7933 63.2911
12662 61.0588 117(11) 114.9907 63.2726
12663 61.0628 117(11) 115.1947 63.2542
12664 61.0668 117(11) 115.4061 63.2357
12665 61.0709 117(11) 115.6250 63.2172
12666 61.0749 117(11) 115.8513 63.1987
12667 61.0789 116(11) 116.0857 63.1802
12668 61.0830 116(11) 116.3282 63.1617
12669 61.0870 116(11) 116.5785 63.1432
12670 61.0910 116(11) 116.8376 63.1247
12671 61.0951 116(11) 117.1049 63.1062
12672 61.0991 115(11) 117.3805 63.0876
12673 61.1031 115(11) 117.6643 63.0691
12674 61.1072 115(11) 117.9567 63.0506
12675 61.1112 115(11) 118.2573 63.0320
12676 61.1152 114(11) 118.5658 63.0135
12677 61.1192 114(11) 118.8825 62.9949
12678 61.1233 114(11) 119.2069 62.9763
12679 61.1273 114(11) 119.5386 62.9578
12680 61.1313 114(11) 119.8777 62.9392
12681 61.1354 113(11) 120.2236 62.9206
12682 61.1394 113(11) 120.5760 62.9020
12683 61.1434 113(11) 120.9342 62.8835
12684 61.1475 113(11) 121.2982 62.8648
12685 61.1515 113(11) 121.6671 62.8462
12686 61.1555 113(11) 122.0402 62.8276
12687 61.1596 113(11) 122.4176 62.8090
12688 61.1636 113(11) 122.7981 62.7903
12689 61.1676 113(11) 123.1811 62.7717
12690 61.1716 113(11) 123.5656 62.7531
12691 61.1757 113(11) 123.9516 62.7344
12692 61.1797 113(11) 124.3378 62.7158
12693 61.1837 113(11) 124.7231 62.6971
12694 61.1878 113(11) 125.1075 62.6784
12695 61.1918 113(11) 125.4897 62.6597
12696 61.1958 113(11) 125.8684 62.6411
12697 61.1999 113(11) 126.2436 62.6224
12698 61.2039 113(11) 126.6139 62.6037
12699 61.2079 114(11) 126.9785 62.5850
12700 61.2120 114(11) 127.3362 62.5663
12701 61.2160 114(11) 127.6868 62.5476
12702 61.2200 114(11) 128.0291 62.5288
12703 61.2241 114(11) 128.3619 62.5101
12704 61.2281 114(11) 128.6851 62.4914
12705 61.2321 115(11) 128.9975 62.4726
12706 61.2361 115(11) 129.2982 62.4539
12707 61.2402 115(11) 129.5870 62.4352
12708 61.2442 115(11) 129.8630 62.4164
12709 61.2482 115(11) 130.1256 62.3976
12710 61.2523 115(11) 130.3739 62.3789
12711 61.2563 115(11) 130.6081 62.3601
12712 61.2603 115(11) 130.8274 62.3413
12713 61.2644 115(11) 131.0314 62.3225
12714 61.2684 115(11) 131.2200 62.3037
12715 61.2724 115(11) 131.3929 62.2849
12716 61.2765 115(11) 131.5497 62.2661
12717 61.2805 115(11) 131.6908 62.2473
12718 61.2845 115(11) 131.8159 62.2285
12719 61.2886 115(11) 131.9249 62.2096
12720 61.2926 115(11) 132.0182 62.1908
12721 61.2966 115(11) 132.0958 62.1720
12722 61.3006 115(11) 132.1579 62.1531
12723 61.3047 115(11) 132.2049 62.1343
12724 61.3087 115(11) 132.2371 62.1154
12725 61.3127 115(11) 132.2547 62.0966
12726 61.3168 114(11) 132.2583 62.0777
12727 61.3208 114(11) 132.2482 62.0588
12728 61.3248 114(11) 132.2250 62.0399
12729 61.3289 114(11) 132.1890 62.0210
12730 61.3329 114(11) 132.1409 62.0022
12731 61.3369 114(11) 132.0810 61.9832
12732 61.3410 114(11) 132.0098 61.9643
12733 61.3450 114(11) 131.9282 61.9454
12734 61.3490 114(11) 131.8362 61.9265
12735 61.3530 114(11) 131.7345 61.9076
12736 61.3571 114(11) 131.6237 61.8887
12737 61.3611 114(11) 131.5042 61.8697
12738 61.3651 114(11) 131.3763 61.8507
12739 61.3692 115(11) 131.2406 61.8318
12740 61.3732 115(11) 131.0976 61.8129
12741 61.3772 115(11) 130.9474 61.7939
12742 61.3813 115(11) 130.7905 61.7749
12743 61.3853 115(11) 130.6274 61.7560
12744 61.3893 115(11) 130.4582 61.7370
12745 61.3934 115(11) 130.2832 61.7180
12746 61.3974 116(11) 130.1028 61.6990
12747 61.4014 116(11) 129.9173 61.6800
12748 61.4054 116(11) 129.7268 61.6610
12749 61.4095 116(11) 129.5316 61.6420
12750 61.4135 116(11) 129.3321 61.6230
12751 61.4175 116(11) 129.1281 61.6039
12752 61.4216 116(11) 128.9200 61.5849
12753 61.4256 116(11) 128.7083 61.5659
12754 61.4296 116(11) 128.4928 61.5468
12755 61.4337 117(11) 128.2738 61.5278
12756 61.4377 117(11) 128.0515 61.5087
12757 61.4417 117(11) 127.8265 61.4897
12758 61.4458 117(11) 127.5984 61.4706
12759 61.4498 117(11) 127.3678 61.4515
12760 61.4538 117(11) 127.1516 61.4325
12761 61.4579 117(11) 126.9165 61.4134
12762 61.4619 117(11) 126.6799 61.3943
12763 61.4659 117(11) 126.4419 61.3752
12764 61.4699 117(11) 126.2026 61.3561
12765 61.4740 117(11) 125.9624 61.3370
12766 61.4780 117(11) 125.7217 61.3179
12767 61.4820 117(11) 125.4810 61.2987
12768 61.4861 116(11) 125.2405 61.2796
12769 61.4901 116(11) 125.0004 61.2605
12770 61.4941 116(11) 124.7616 61.2413
12771 61.4982 116(11) 124.5240 61.2222
12772 61.5022 116(11) 124.2881 61.2031
12773 61.5062 116(11) 124.0544 61.1839
12774 61.5103 116(11) 123.8237 61.1648
12775 61.5143 116(11) 123.5956 61.1456
12776 61.5183 116(11) 123.3711 61.1264
12777 61.5223 116(11) 123.1515 61.1073
12778 61.5264 116(11) 122.9352 61.0880
12779 61.5304 116(11) 122.7236 61.0689
12780 61.5344 116(11) 122.5174 61.0497
12781 61.5385 116(11) 122.3165 61.0305
12782 61.5425 116(11) 122.1215 61.0112
12783 61.5465 116(11) 121.9329 60.9920
12784 61.5506 116(11) 121.7511 60.9728
12785 61.5546 116(11) 121.5762 60.9536
12786 61.5586 116(11) 121.4087 60.9344
12787 61.5627 116(11) 121.2491 60.9151
12788 61.5667 116(11) 121.0974 60.8959
12789 61.5707 116(11) 120.9541 60.8766
12790 61.5747 116(11) 120.8195 60.8574
12791 61.5788 116(11) 120.6937 60.8381
12792 61.5828 116(11) 120.5771 60.8189
12793 61.5868 116(11) 120.4698 60.7996
12794 61.5909 116(11) 120.3723 60.7803
12795 61.5949 116(11) 120.2844 60.7610
12796 61.5989 116(11) 120.2146 60.7417
12797 61.6030 116(11) 120.1469 60.7225
12798 61.6070 116(11) 120.0894 60.7032
12799 61.6110 116(11) 120.0423 60.6838
12800 61.6151 116(11) 120.0056 60.6645
12801 61.6191 116(11) 119.9795 60.6452
12802 61.6231 116(11) 119.9640 60.6259
12803 61.6272 116(11) 119.9591 60.6066
12804 61.6312 116(11) 119.9648 60.5873
12805 61.6352 117(11) 119.9812 60.5679
12806 61.6392 117(11) 120.0082 60.5486
12807 61.6433 117(11) 120.0457 60.5292
12808 61.6473 117(11) 120.0938 60.5099
12809 61.6513 117(11) 120.1523 60.4905
12810 61.6554 117(11) 120.2210 60.4711
12811 61.6594 118(11) 120.2999 60.4518
12812 61.6634 118(11) 120.3888 60.4324
12813 61.6675 118(11) 120.4880 60.4130
12814 61.6715 118(11) 120.5962 60.3936
12815 61.6755 118(11) 120.7140 60.3742
12816 61.6796 119(11) 120.8408 60.3548
12817 61.6836 119(11) 120.9764 60.3354
12818 61.6876 119(11) 121.1207 60.3160
12819 61.6917 119(11) 121.2732 60.2966
12820 61.6957 119(11) 121.4336 60.2772
12821 61.6997 120(11) 121.6015 60.2578
12822 61.7037 120(11) 121.7766 60.2383
12823 61.7078 120(11) 121.9608 60.2189
12824 61.7118 120(11) 122.1487 60.1994
12825 61.7158 120(11) 122.3428 60.1800
12826 61.7199 121(11) 122.5422 60.1605
12827 61.7239 121(11) 122.7464 60.1411
12828 61.7279 121(11) 122.9551 60.1216
12829 61.7320 121(11) 123.1676 60.1021
12830 61.7360 121(11) 123.3836 60.0827
12831 61.7400 122(11) 123.6021 60.0632
12832 61.7441 122(11) 123.8231 60.0437
12833 61.7481 122(11) 124.0457 60.0242
12834 61.7521 122(11) 124.2692 60.0047
12835 61.7561 122(11) 124.4933 59.9852
12836 61.7602 122(11) 124.7174 59.9657
12837 61.7642 123(11) 124.9406 59.9462
12838 61.7682 123(11) 125.1626 59.9267
12839 61.7723 123(11) 125.3829 59.9071
12840 61.7763 123(11) 125.6006 59.8876
12841 61.7803 123(11) 125.8151 59.8681
12842 61.7844 123(11) 126.0261 59.8486
12843 61.7884 123(11) 126.2330 59.8290
12844 61.7924 124(11) 126.4348 59.8094
12845 61.7965 124(11) 126.6317 59.7899
12846 61.8005 124(11) 126.8260 59.7703
12847 61.8045 124(11) 127.0106 59.7508
12848 61.8085 124(11) 127.1883 59.7312
12849 61.8126 124(11) 127.3589 59.7116
12850 61.8166 124(11) 127.5217 59.6921
12851 61.8206 124(11) 127.6762 59.6725
12852 61.8247 124(11) 127.8223 59.6529
12853 61.8287 124(11) 127.9594 59.6333
12854 61.8327 124(11) 128.0872 59.6137
12855 61.8368 124(11) 128.2053 59.5941
12856 61.8408 124(11) 128.3260 59.5744
12857 61.8448 125(11) 128.4239 59.5548
12858 61.8489 125(11) 128.5113 59.5352
12859 61.8529 125(11) 128.5881 59.5156
12860 61.8569 125(11) 128.6549 59.4959
12861 61.8610 125(11) 128.7095 59.4763
12862 61.8650 125(11) 128.7528 59.4567
12863 61.8690 125(11) 128.7847 59.4370
12864 61.8730 125(11) 128.8052 59.4174
12865 61.8771 125(11) 128.8140 59.3977
12866 61.8811 125(11) 128.8113 59.3780
12867 61.8851 125(11) 128.7969 59.3584
12868 61.8892 125(11) 128.7710 59.3387
12869 61.8932 125(11) 128.7334 59.3190
12870 61.8972 125(11) 128.6843 59.2993
12871 61.9013 125(11) 128.6239 59.2797
12872 61.9053 125(11) 128.5521 59.2600
12873 61.9093 125(11) 128.4485 59.2402
12874 61.9134 125(11) 128.3546 59.2206
12875 61.9174 125(11) 128.2498 59.2009
12876 61.9214 125(11) 128.1343 59.1811
12877 61.9254 125(11) 128.0084 59.1614
12878 61.9295 125(11) 127.8724 59.1417
12879 61.9335 125(11) 127.7263 59.1220
12880 61.9375 125(11) 127.5708 59.1022
12881 61.9416 125(11) 127.4059 59.0825
12882 61.9456 125(11) 127.2322 59.0628
12883 61.9496 125(11) 127.0510 59.0430
12884 61.9537 125(11) 126.8602 59.0233
12885 61.9577 124(11) 126.6610 59.0035
12886 61.9617 124(11) 126.4543 58.9837
12887 61.9658 124(11) 126.1647 58.9640
12888 61.9698 124(11) 125.9439 58.9442
12889 61.9738 124(11) 125.7163 58.9244
12890 61.9779 124(11) 125.4825 58.9046
12891 61.9819 124(11) 125.2429 58.8849
12892 61.9859 123(11) 124.9977 58.8651
12893 61.9899 123(11) 124.7536 58.8453
12894 61.9940 123(11) 124.4984 58.8255
12895 61.9980 123(11) 124.2389 58.8057
12896 62.0020 122(11) 123.9752 58.7859
12897 62.0061 122(11) 123.7077 58.7660
12898 62.0101 122(11) 123.4370 58.7463
12899 62.0141 122(11) 123.1630 58.7264
12900 62.0182 121(11) 122.8861 58.7066
12901 62.0222 121(11) 122.6070 58.6868
12902 62.0262 121(11) 122.3254 58.6669
12903 62.0303 121(11) 122.0418 58.6471
12904 62.0343 120(11) 121.7566 58.6272
12905 62.0383 120(11) 121.4703 58.6074
12906 62.0423 120(11) 121.1825 58.5875
12907 62.0464 120(11) 120.8938 58.5676
12908 62.0504 120(11) 120.6047 58.5478
12909 62.0544 119(11) 120.3149 58.5279
12910 62.0585 119(11) 120.0249 58.5081
12911 62.0625 119(11) 119.7352 58.4882
12912 62.0665 119(11) 119.4453 58.4683
12913 62.0706 119(11) 119.1776 58.4484
12914 62.0746 118(11) 118.8887 58.4285
12915 62.0786 118(11) 118.6009 58.4086
12916 62.0827 118(11) 118.3139 58.3887
12917 62.0867 118(11) 118.0177 58.3688
12918 62.0907 118(11) 117.7334 58.3489
12919 62.0947 118(11) 117.4504 58.3290
12920 62.0988 118(11) 117.1689 58.3091
12921 62.1028 118(11) 116.8896 58.2892
12922 62.1068 117(11) 116.6120 58.2692
12923 62.1109 117(11) 116.3366 58.2493
12924 62.1149 117(11) 116.0636 58.2294
12925 62.1189 117(11) 115.7933 58.2094
12926 62.1230 117(11) 115.5254 58.1895
12927 62.1270 117(11) 115.2603 58.1695
12928 62.1310 117(11) 114.9984 58.1496
12929 62.1351 117(11) 114.7443 58.1296
12930 62.1391 117(11) 114.4885 58.1096
12931 62.1431 117(11) 114.2361 58.0897
12932 62.1472 117(11) 113.9500 58.0697
12933 62.1512 117(11) 113.7049 58.0497
12934 62.1552 117(11) 113.4635 58.0297
12935 62.1592 117(11) 113.2262 58.0098
12936 62.1633 117(11) 112.9927 57.9898
12937 62.1673 117(11) 112.7633 57.9698
12938 62.1713 117(11) 112.5383 57.9498
12939 62.1754 117(11) 112.3174 57.9298
12940 62.1794 117(11) 112.1010 57.9098
12941 62.1834 117(11) 111.8890 57.8898
12942 62.1875 116(11) 111.6818 57.8698
12943 62.1915 116(11) 111.4790 57.8497
12944 62.1955 116(11) 111.2809 57.8297
12945 62.1996 116(11) 111.0877 57.8097
12946 62.2036 116(11) 110.8992 57.7897
12947 62.2076 116(11) 110.7155 57.7697
12948 62.2116 116(11) 110.5369 57.7496
12949 62.2157 116(11) 110.3630 57.7296
12950 62.2197 115(11) 110.2049 57.7095
12951 62.2237 115(11) 110.0410 57.6895
12952 62.2278 115(11) 109.8823 57.6694
12953 62.2318 115(11) 109.7163 57.6494
12954 62.2358 115(11) 109.5675 57.6293
12955 62.2399 114(11) 109.4239 57.6092
12956 62.2439 114(11) 109.2853 57.5892
12957 62.2479 114(11) 109.1517 57.5691
12958 62.2520 114(11) 109.0234 57.5490
12959 62.2560 114(11) 108.9000 57.5290
12960 62.2600 114(11) 108.7817 57.5088
12961 62.2641 113(11) 108.6685 57.4887
12962 62.2681 113(11) 108.5606 57.4687
12963 62.2721 113(11) 108.4577 57.4486
12964 62.2761 113(11) 108.3599 57.4285
12965 62.2802 113(11) 108.2673 57.4084
12966 62.2842 113(11) 108.1821 57.3883
12967 62.2882 112(11) 108.0997 57.3681
12968 62.2923 112(11) 108.0224 57.3480
12969 62.2963 112(11) 107.9503 57.3279
12970 62.3003 112(11) 107.8833 57.3078
12971 62.3044 112(11) 107.8214 57.2877
12972 62.3084 111(11) 107.7646 57.2675
12973 62.3124 111(11) 107.7131 57.2474
12974 62.3165 111(11) 107.6666 57.2273
12975 62.3205 111(11) 107.6254 57.2071
12976 62.3245 111(11) 107.5892 57.1870
12977 62.3285 111(11) 107.5582 57.1668
12978 62.3326 110(10) 107.5323 57.1467
12979 62.3366 110(10) 107.5116 57.1265
12980 62.3406 110(10) 107.4959 57.1064
12981 62.3447 110(10) 107.4854 57.0862
12982 62.3487 110(10) 107.4799 57.0660
12983 62.3527 110(10) 107.4795 57.0458
12984 62.3568 110(10) 107.4841 57.0257
12985 62.3608 110(10) 107.4937 57.0055
12986 62.3648 109(10) 107.5082 56.9853
12987 62.3689 109(10) 107.5275 56.9651
12988 62.3729 109(10) 107.5517 56.9449
12989 62.3769 109(10) 107.5806 56.9248
12990 62.3810 109(10) 107.6141 56.9045
12991 62.3850 109(10) 107.6522 56.8843
12992 62.3890 109(10) 107.6947 56.8642
12993 62.3930 109(10) 107.7414 56.8439
12994 62.3971 109(10) 107.7924 56.8237
12995 62.4011 109(10) 107.8474 56.8035
12996 62.4051 110(10) 107.9062 56.7833
12997 62.4092 110(10) 107.9687 56.7631
12998 62.4132 110(10) 108.0287 56.7429
12999 62.4172 110(10) 108.0979 56.7226
13000 62.4213 110(10) 108.1703 56.7024
13001 62.4253 110(10) 108.2458 56.6822
13002 62.4293 110(10) 108.3234 56.6619
13003 62.4334 110(10) 108.4034 56.6417
13004 62.4374 110(10) 108.4855 56.6215
13005 62.4414 111(11) 108.5693 56.6012
13006 62.4454 111(11) 108.6544 56.5810
13007 62.4495 111(11) 108.7407 56.5607
13008 62.4535 111(11) 108.8277 56.5404
13009 62.4575 111(11) 108.9151 56.5202
13010 62.4616 112(11) 109.0027 56.4999
13011 62.4656 112(11) 109.0901 56.4796
13012 62.4696 112(11) 109.1768 56.4594
13013 62.4737 112(11) 109.2625 56.4391
13014 62.4777 112(11) 109.3470 56.4188
13015 62.4817 112(11) 109.4297 56.3986
13016 62.4858 113(11) 109.5104 56.3783
13017 62.4898 113(11) 109.5887 56.3580
13018 62.4938 113(11) 109.6644 56.3377
13019 62.4978 113(11) 109.7369 56.3174
13020 62.5019 113(11) 109.8060 56.2971
13021 62.5059 113(11) 109.8716 56.2768
13022 62.5099 113(11) 109.9331 56.2565
13023 62.5140 114(11) 109.9904 56.2362
13024 62.5180 114(11) 110.0401 56.2159
13025 62.5220 114(11) 110.0882 56.1956
13026 62.5261 114(11) 110.1313 56.1753
13027 62.5301 114(11) 110.1694 56.1550
13028 62.5341 114(11) 110.2022 56.1346
13029 62.5382 114(11) 110.2296 56.1143
13030 62.5422 114(11) 110.2514 56.0940
13031 62.5462 114(11) 110.2677 56.0737
13032 62.5503 114(11) 110.2783 56.0534
13033 62.5543 114(11) 110.2832 56.0330
13034 62.5583 114(11) 110.2824 56.0127
13035 62.5623 115(11) 110.2759 55.9924
13036 62.5664 115(11) 110.2638 55.9720
13037 62.5704 115(11) 110.2461 55.9517
13038 62.5744 115(11) 110.2229 55.9313
13039 62.5785 115(11) 110.1944 55.9110
13040 62.5825 115(11) 110.1605 55.8906
13041 62.5865 115(11) 110.1214 55.8703
13042 62.5906 115(11) 110.0773 55.8499
13043 62.5946 115(11) 110.0283 55.8296
13044 62.5986 115(11) 109.9745 55.8092
13045 62.6027 115(11) 109.9161 55.7888
13046 62.6067 115(11) 109.8533 55.7685
13047 62.6107 115(11) 109.7658 55.7481
13048 62.6147 116(11) 109.6945 55.7277
13049 62.6188 116(11) 109.6194 55.7074
13050 62.6228 116(11) 109.5404 55.6870
13051 62.6268 116(11) 109.4576 55.6666
13052 62.6309 116(11) 109.3713 55.6462
13053 62.6349 116(11) 109.2816 55.6258
13054 62.6389 116(11) 109.1885 55.6054
13055 62.6430 116(11) 109.0920 55.5850
13056 62.6470 116(11) 108.9925 55.5647
13057 62.6510 116(11) 108.8898 55.5443
13058 62.6551 116(11) 108.7839 55.5238
13059 62.6591 116(11) 108.6751 55.5035
13060 62.6631 116(11) 108.5633 55.4831
13061 62.6672 116(11) 108.4484 55.4626
13062 62.6712 116(11) 108.3306 55.4422
13063 62.6752 116(11) 108.2099 55.4218
13064 62.6792 116(11) 108.0862 55.4014
13065 62.6833 116(11) 107.9595 55.3810
13066 62.6873 116(11) 107.8300 55.3606
13067 62.6913 116(11) 107.6974 55.3401
13068 62.6954 116(11) 107.5618 55.3197
13069 62.6994 116(11) 107.4218 55.2993
13070 62.7034 116(11) 107.2804 55.2789
13071 62.7075 116(11) 107.1360 55.2585
13072 62.7115 116(11) 106.9886 55.2380
13073 62.7155 116(11) 106.8384 55.2176
13074 62.7196 116(11) 106.6854 55.1972
13075 62.7236 115(11) 106.5295 55.1767
13076 62.7276 115(11) 106.3710 55.1563
13077 62.7316 115(11) 106.2098 55.1359
13078 62.7357 115(11) 106.0672 55.1154
13079 62.7397 115(11) 105.9011 55.0950
13080 62.7437 115(11) 105.7326 55.0745
13081 62.7478 115(11) 105.5619 55.0541
13082 62.7518 115(11) 105.3892 55.0336
13083 62.7558 115(11) 105.2148 55.0132
13084 62.7599 115(11) 105.0385 54.9927
13085 62.7639 114(11) 104.8608 54.9723
13086 62.7679 114(11) 104.6819 54.9518
13087 62.7720 114(11) 104.5017 54.9313
13088 62.7760 114(11) 104.3208 54.9109
13089 62.7800 114(11) 104.1392 54.8904
13090 62.7840 114(11) 103.9573 54.8700
13091 62.7881 114(11) 103.7751 54.8495
13092 62.7921 113(11) 103.5929 54.8290
13093 62.7961 113(11) 103.4009 54.8085
13094 62.8002 113(11) 103.2195 54.7881
13095 62.8042 113(11) 103.0388 54.7676
13096 62.8082 113(11) 102.8592 54.7471
13097 62.8123 113(11) 102.6805 54.7267
13098 62.8163 112(11) 102.5032 54.7062
13099 62.8203 112(11) 102.3274 54.6856
13100 62.8244 112(11) 102.1536 54.6652
13101 62.8284 112(11) 101.9815 54.6447
13102 62.8324 112(11) 101.8114 54.6242
13103 62.8365 111(11) 101.6438 54.6038
13104 62.8405 111(11) 101.4784 54.5832
13105 62.8445 111(11) 101.3154 54.5627
13106 62.8485 111(11) 101.1553 54.5423
13107 62.8526 111(11) 100.9977 54.5217
13108 62.8566 111(11) 100.8430 54.5013
13109 62.8606 111(11) 100.6912 54.4808
13110 62.8647 110(10) 100.5424 54.4603
13111 62.8687 110(10) 100.3966 54.4398
13112 62.8727 110(10) 100.2540 54.4193
13113 62.8768 110(10) 100.1145 54.3988
13114 62.8808 110(10) 99.9781 54.3782
13115 62.8848 110(10) 99.8555 54.3577
13116 62.8889 110(10) 99.7257 54.3373
13117 62.8929 110(10) 99.5990 54.3167
13118 62.8969 109(10) 99.4756 54.2962
13119 62.9010 109(10) 99.3553 54.2757
13120 62.9050 109(10) 99.2384 54.2552
13121 62.9090 109(10) 99.1247 54.2347
13122 62.9130 109(10) 99.0142 54.2142
13123 62.9171 109(10) 98.9069 54.1936
13124 62.9211 109(10) 98.8028 54.1731
13125 62.9251 109(10) 98.7018 54.1526
13126 62.9292 109(10) 98.6040 54.1321
13127 62.9332 109(10) 98.5293 54.1116
13128 62.9372 109(10) 98.4376 54.0910
13129 62.9413 108(10) 98.3491 54.0705
13130 62.9453 108(10) 98.2636 54.0500
13131 62.9493 108(10) 98.1811 54.0295
13132 62.9534 108(10) 98.1016 54.0089
13133 62.9574 108(10) 98.0252 53.9884
13134 62.9614 108(10) 97.9516 53.9679
13135 62.9654 108(10) 97.8809 53.9474
13136 62.9695 108(10) 97.8132 53.9268
13137 62.9735 108(10) 97.7483 53.9063
13138 62.9775 107(10) 97.6862 53.8858
13139 62.9816 107(10) 97.6270 53.8652
13140 62.9856 107(10) 97.5706 53.8447
13141 62.9896 107(10) 97.5169 53.8242
13142 62.9937 107(10) 97.4660 53.8036
13143 62.9977 107(10) 97.4178 53.7831
13144 63.0017 107(10) 97.3723 53.7626
13145 63.0058 107(10) 97.3294 53.7420
13146 63.0098 106(10) 97.2891 53.7214
13147 63.0138 106(10) 97.2515 53.7009
13148 63.0178 106(10) 97.2164 53.6804
13149 63.0219 106(10) 97.1838 53.6598
13150 63.0259 106(10) 97.1538 53.6393
13151 63.0299 106(10) 97.1262 53.6187
13152 63.0340 106(10) 97.1011 53.5982
13153 63.0380 106(10) 97.0784 53.5777
13154 63.0420 106(10) 97.0581 53.5571
13155 63.0461 106(10) 97.0400 53.5366
13156 63.0501 106(10) 97.0243 53.5160
13157 63.0541 106(10) 97.0108 53.4955
13158 63.0582 105(10) 96.9996 53.4749
13159 63.0622 105(10) 96.9905 53.4544
13160 63.0662 105(10) 96.9836 53.4338
13161 63.0703 105(10) 96.9788 53.4133
13162 63.0743 105(10) 96.9760 53.3927
13163 63.0783 105(10) 96.9752 53.3722
13164 63.0823 105(10) 96.9764 53.3516
13165 63.0864 105(10) 96.9895 53.3311
13166 63.0904 105(10) 96.9946 53.3105
13167 63.0944 105(10) 97.0015 53.2900
13168 63.0985 105(10) 97.0102 53.2694
13169 63.1025 105(10) 97.0158 53.2488
13170 63.1065 105(10) 97.0420 53.2283
13171 63.1106 105(10) 97.0559 53.2078
13172 63.1146 105(10) 97.0714 53.1872
13173 63.1186 105(10) 97.0886 53.1667
13174 63.1227 105(10) 97.1073 53.1461
13175 63.1267 105(10) 97.1274 53.1255
13176 63.1307 105(10) 97.1492 53.1050
13177 63.1347 105(10) 97.1723 53.0845
13178 63.1388 105(10) 97.1968 53.0639
13179 63.1428 105(10) 97.2227 53.0433
13180 63.1468 105(10) 97.2499 53.0228
13181 63.1509 105(10) 97.2784 53.0022
13182 63.1549 105(10) 97.3082 52.9817
13183 63.1589 105(10) 97.3392 52.9611
13184 63.1630 105(10) 97.3713 52.9405
13185 63.1670 105(10) 97.4047 52.9200
13186 63.1710 105(10) 97.4391 52.8994
13187 63.1751 105(10) 97.4747 52.8789
13188 63.1791 105(10) 97.5112 52.8584
13189 63.1831 105(10) 97.5488 52.8378
13190 63.1871 105(10) 97.5874 52.8172
13191 63.1912 105(10) 97.6270 52.7967
13192 63.1952 105(10) 97.6675 52.7761
13193 63.1992 105(10) 97.7089 52.7556
13194 63.2033 105(10) 97.7512 52.7350
13195 63.2073 106(10) 97.7943 52.7145
13196 63.2113 106(10) 97.8383 52.6939
13197 63.2154 106(10) 97.8831 52.6734
13198 63.2194 106(10) 97.9286 52.6528
13199 63.2234 106(10) 97.9749 52.6323
13200 63.2275 106(10) 98.0219 52.6117
13201 63.2315 106(10) 98.0696 52.5912
13202 63.2355 106(10) 98.1179 52.5706
13203 63.2396 106(10) 98.1669 52.5501
13204 63.2436 106(10) 98.2166 52.5295
13205 63.2476 106(10) 98.2668 52.5090
13206 63.2516 107(10) 98.3177 52.4884
13207 63.2557 107(10) 98.3691 52.4679
13208 63.2597 107(10) 98.4280 52.4473
13209 63.2637 107(10) 98.4805 52.4268
13210 63.2678 107(10) 98.5334 52.4062
13211 63.2718 107(10) 98.5868 52.3857
13212 63.2758 107(10) 98.6407 52.3652
13213 63.2799 107(10) 98.6950 52.3446
13214 63.2839 107(10) 98.7497 52.3241
13215 63.2879 107(10) 98.8024 52.3035
13216 63.2920 107(10) 98.8579 52.2830
13217 63.2960 107(10) 98.9138 52.2625
13218 63.3000 107(10) 98.9701 52.2419
13219 63.3041 107(10) 99.0266 52.2214
13220 63.3081 107(10) 99.0835 52.2008
13221 63.3121 107(10) 99.1406 52.1803
13222 63.3161 107(10) 99.1981 52.1597
13223 63.3202 107(10) 99.2559 52.1392
13224 63.3242 107(10) 99.3139 52.1187
13225 63.3282 107(10) 99.3722 52.0982
13226 63.3323 107(10) 99.4307 52.0776
13227 63.3363 106(10) 99.4895 52.0571
13228 63.3403 106(10) 99.5633 52.0366
13229 63.3444 106(10) 99.6226 52.0160
13230 63.3484 106(10) 99.6822 51.9955
13231 63.3524 106(10) 99.7419 51.9750
13232 63.3565 106(10) 99.8020 51.9545
13233 63.3605 106(10) 99.8623 51.9339
13234 63.3645 106(10) 99.9229 51.9134
13235 63.3685 106(10) 99.9838 51.8929
13236 63.3726 106(10) 100.0450 51.8724
13237 63.3766 106(10) 100.1065 51.8519
13238 63.3806 105(10) 100.1684 51.8313
13239 63.3847 105(10) 100.2308 51.8108
13240 63.3887 105(10) 100.2935 51.7903
13241 63.3927 105(10) 100.3567 51.7698
13242 63.3968 105(10) 100.4203 51.7493
13243 63.4008 105(10) 100.4846 51.7287
13244 63.4048 105(10) 100.5494 51.7083
13245 63.4089 105(10) 100.6149 51.6878
13246 63.4129 105(10) 100.6811 51.6672
13247 63.4169 105(10) 100.7482 51.6467
13248 63.4209 105(10) 100.8159 51.6262
13249 63.4250 105(10) 100.8847 51.6057
13250 63.4290 105(10) 100.9546 51.5852
13251 63.4330 105(10) 101.0254 51.5647
13252 63.4371 105(10) 101.0974 51.5442
13253 63.4411 105(10) 101.1708 51.5237
13254 63.4451 105(10) 101.2455 51.5032
13255 63.4492 105(10) 101.3217 51.4827
13256 63.4532 105(10) 101.3995 51.4623
13257 63.4572 105(10) 101.4790 51.4418
13258 63.4613 105(10) 101.5603 51.4213
13259 63.4653 105(10) 101.6436 51.4008
13260 63.4693 105(10) 101.7289 51.3803
13261 63.4734 105(10) 101.8164 51.3598
13262 63.4774 105(10) 101.9063 51.3393
13263 63.4814 105(10) 101.9987 51.3188
13264 63.4854 105(10) 102.0936 51.2984
13265 63.4895 105(10) 102.1987 51.2779
13266 63.4935 105(10) 102.2994 51.2574
13267 63.4975 105(10) 102.4031 51.2370
13268 63.5016 105(10) 102.5099 51.2165
13269 63.5056 105(10) 102.6201 51.1960
13270 63.5096 105(10) 102.7339 51.1756
13271 63.5137 105(10) 102.8512 51.1551
13272 63.5177 105(10) 102.9724 51.1347
13273 63.5217 106(10) 103.0976 51.1142
13274 63.5258 106(10) 103.2267 51.0938
13275 63.5298 106(10) 103.3602 51.0733
13276 63.5338 106(10) 103.4982 51.0529
13277 63.5378 106(10) 103.6406 51.0324
13278 63.5419 106(10) 103.7877 51.0120
13279 63.5459 106(10) 103.9396 50.9915
13280 63.5499 106(10) 104.0965 50.9710
13281 63.5540 106(10) 104.2584 50.9506
13282 63.5580 107(10) 104.4256 50.9302
13283 63.5620 107(10) 104.5981 50.9097
13284 63.5661 107(10) 104.7760 50.8893
13285 63.5701 107(10) 104.9593 50.8689
13286 63.5741 107(10) 105.1483 50.8484
13287 63.5782 107(10) 105.3431 50.8280
13288 63.5822 107(10) 105.5435 50.8076
13289 63.5862 107(10) 105.7498 50.7872
13290 63.5903 108(10) 105.9619 50.7668
13291 63.5943 108(10) 106.1799 50.7464
13292 63.5983 108(10) 106.4039 50.7260
13293 63.6023 108(10) 106.6338 50.7055
13294 63.6064 108(10) 106.8697 50.6851
13295 63.6104 108(10) 107.1112 50.6648
13296 63.6144 108(10) 107.3588 50.6444
13297 63.6185 108(10) 107.6122 50.6240
13298 63.6225 108(10) 107.8710 50.6036
13299 63.6265 108(10) 108.1357 50.5832
13300 63.6306 109(10) 108.4058 50.5628
13301 63.6346 109(10) 108.6812 50.5424
13302 63.6386 109(10) 108.9619 50.5220
13303 63.6427 109(10) 109.2477 50.5017
13304 63.6467 109(10) 109.5382 50.4812
13305 63.6507 109(10) 109.8331 50.4609
13306 63.6547 109(10) 110.1327 50.4405
13307 63.6588 109(10) 110.4364 50.4201
13308 63.6628 109(10) 110.7436 50.3998
13309 63.6668 109(10) 111.0547 50.3794
13310 63.6709 109(10) 111.3689 50.3590
13311 63.6749 109(10) 111.6857 50.3387
13312 63.6789 109(10) 112.0052 50.3184
13313 63.6830 110(10) 112.3270 50.2980
13314 63.6870 110(10) 112.6505 50.2777
13315 63.6910 110(10) 112.9751 50.2573
13316 63.6951 110(10) 113.3008 50.2370
13317 63.6991 110(10) 113.6272 50.2167
13318 63.7031 110(10) 113.9533 50.1963
13319 63.7071 110(10) 114.2793 50.1760
13320 63.7112 110(10) 114.6046 50.1557
13321 63.7152 110(10) 114.9284 50.1354
13322 63.7192 110(10) 115.2507 50.1150
13323 63.7233 110(10) 115.5710 50.0947
13324 63.7273 110(10) 115.8888 50.0744
13325 63.7313 111(11) 116.2033 50.0541
13326 63.7354 111(11) 116.5148 50.0338
13327 63.7394 111(11) 116.8225 50.0135
13328 63.7434 111(11) 117.1258 49.9932
13329 63.7475 111(11) 117.4250 49.9729
13330 63.7515 111(11) 117.7193 49.9526
13331 63.7555 111(11) 118.0085 49.9323
13332 63.7596 111(11) 118.2922 49.9121
13333 63.7636 112(11) 118.5705 49.8918
13334 63.7676 112(11) 118.8429 49.8715
13335 63.7716 112(11) 119.1091 49.8513
13336 63.7757 112(11) 119.3694 49.8310
13337 63.7797 112(11) 119.6233 49.8107
13338 63.7837 112(11) 119.8708 49.7905
13339 63.7878 112(11) 120.1121 49.7702
13340 63.7918 113(11) 120.3470 49.7499
13341 63.7958 113(11) 120.5754 49.7297
13342 63.7999 113(11) 120.7974 49.7095
13343 63.8039 113(11) 121.0134 49.6893
13344 63.8079 113(11) 121.2234 49.6690
13345 63.8120 113(11) 121.4272 49.6488
13346 63.8160 113(11) 121.6254 49.6285
13347 63.8200 114(11) 121.8182 49.6083
13348 63.8240 114(11) 122.0055 49.5881
13349 63.8281 114(11) 122.1880 49.5679
13350 63.8321 114(11) 122.3657 49.5477
13351 63.8361 114(11) 122.5389 49.5275
13352 63.8402 114(11) 122.7078 49.5073
13353 63.8442 114(11) 122.8730 49.4871
13354 63.8482 114(11) 123.0347 49.4669
13355 63.8523 114(11) 123.1930 49.4467
13356 63.8563 115(11) 123.3484 49.4265
13357 63.8603 115(11) 123.5013 49.4064
13358 63.8644 115(11) 123.6516 49.3862
13359 63.8684 115(11) 123.8000 49.3661
13360 63.8724 115(11) 123.9466 49.3459
13361 63.8765 115(11) 124.0644 49.3257
13362 63.8805 115(11) 124.2080 49.3056
13363 63.8845 115(11) 124.3530 49.2854
13364 63.8885 115(11) 124.4946 49.2653
13365 63.8926 115(11) 124.6353 49.2452
13366 63.8966 116(11) 124.7754 49.2250
13367 63.9006 116(11) 124.9150 49.2049
13368 63.9047 116(11) 125.0540 49.1847
13369 63.9087 116(11) 125.1926 49.1646
13370 63.9127 116(11) 125.3308 49.1445
13371 63.9168 116(11) 125.4686 49.1244
13372 63.9208 116(11) 125.6058 49.1043
13373 63.9248 116(11) 125.7426 49.0842
13374 63.9289 116(11) 125.8788 49.0641
13375 63.9329 116(11) 126.0141 49.0440
13376 63.9369 117(11) 126.1487 49.0240
13377 63.9409 117(11) 126.2823 49.0039
13378 63.9450 117(11) 126.4147 48.9838
13379 63.9490 117(11) 126.5457 48.9637
13380 63.9530 117(11) 126.6752 48.9437
13381 63.9571 117(11) 126.8030 48.9236
13382 63.9611 117(11) 126.9287 48.9036
13383 63.9651 117(11) 127.0524 48.8835
13384 63.9692 117(11) 127.1737 48.8635
13385 63.9732 118(11) 127.2922 48.8435
13386 63.9772 118(11) 127.4080 48.8234
13387 63.9813 118(11) 127.5208 48.8034
13388 63.9853 118(11) 127.6302 48.7834
13389 63.9893 118(11) 127.7361 48.7634
13390 63.9934 118(11) 127.8385 48.7434
13391 63.9974 118(11) 127.9371 48.7234
13392 64.0014 118(11) 128.0316 48.7034
13393 64.0054 118(11) 128.1222 48.6833
13394 64.0095 118(11) 128.2084 48.6634
13395 64.0135 118(11) 128.2903 48.6434
13396 64.0175 119(11) 128.3680 48.6234
13397 64.0216 119(11) 128.4412 48.6035
13398 64.0256 119(11) 128.5099 48.5835
13399 64.0296 119(11) 128.5742 48.5635
13400 64.0337 119(11) 128.6342 48.5436
13401 64.0377 119(11) 128.6910 48.5236
13402 64.0417 119(11) 128.7424 48.5037
13403 64.0458 119(11) 128.7896 48.4838
13404 64.0498 119(11) 128.8330 48.4638
13405 64.0538 119(11) 128.8726 48.4440
13406 64.0578 120(11) 128.9085 48.4240
13407 64.0619 120(11) 128.9411 48.4041
13408 64.0659 120(11) 128.9571 48.3842
13409 64.0699 120(11) 128.9837 48.3643
13410 64.0740 120(11) 129.0078 48.3444
13411 64.0780 120(11) 129.0296 48.3245
13412 64.0820 120(11) 129.0494 48.3047
13413 64.0861 120(11) 129.0677 48.2848
13414 64.0901 120(11) 129.0848 48.2649
13415 64.0941 120(11) 129.1009 48.2451
13416 64.0982 121(11) 129.1164 48.2252
13417 64.1022 121(11) 129.1318 48.2054
13418 64.1062 121(11) 129.1473 48.1855
13419 64.1103 121(11) 129.1635 48.1657
13420 64.1143 121(11) 129.1806 48.1459
13421 64.1183 121(11) 129.1989 48.1260
13422 64.1223 121(11) 129.2189 48.1063
13423 64.1264 121(11) 129.2407 48.0865
13424 64.1304 121(11) 129.2649 48.0666
13425 64.1344 121(11) 129.2916 48.0469
13426 64.1385 121(11) 129.3211 48.0271
13427 64.1425 121(11) 129.3538 48.0073
13428 64.1465 121(11) 129.3899 47.9875
13429 64.1506 120(11) 129.4295 47.9678
13430 64.1546 120(11) 129.4730 47.9480
13431 64.1586 120(11) 129.5203 47.9282
13432 64.1627 120(11) 129.5718 47.9085
13433 64.1667 120(11) 129.6276 47.8888
13434 64.1707 120(11) 129.6876 47.8690
13435 64.1748 120(11) 129.7522 47.8493
13436 64.1788 120(11) 129.8211 47.8296
13437 64.1828 120(11) 129.8945 47.8099
13438 64.1868 120(11) 129.9725 47.7902
13439 64.1909 120(11) 130.0547 47.7705
13440 64.1949 120(11) 130.1413 47.7508
13441 64.1989 120(11) 130.2324 47.7311
13442 64.2030 120(11) 130.3276 47.7115
13443 64.2070 120(11) 130.4268 47.6918
13444 64.2110 120(11) 130.5304 47.6721
13445 64.2151 120(11) 130.6372 47.6525
13446 64.2191 120(11) 130.7478 47.6329
13447 64.2231 120(11) 130.8620 47.6132
13448 64.2271 120(11) 130.9791 47.5936
13449 64.2312 120(11) 131.0991 47.5740
13450 64.2352 120(11) 131.2222 47.5544
13451 64.2392 120(11) 131.3476 47.5348
13452 64.2433 121(11) 131.4755 47.5152
13453 64.2473 121(11) 131.6051 47.4956
13454 64.2513 121(11) 131.7366 47.4760
13455 64.2554 121(11) 131.8698 47.4564
13456 64.2594 121(11) 132.0040 47.4369
13457 64.2634 121(11) 132.1393 47.4173
13458 64.2675 121(11) 132.2755 47.3978
13459 64.2715 121(11) 132.4121 47.3782
13460 64.2755 121(11) 132.5489 47.3587
13461 64.2796 121(11) 132.6861 47.3391
13462 64.2836 121(11) 132.8229 47.3196
13463 64.2876 121(11) 132.9594 47.3002
13464 64.2916 121(11) 133.0956 47.2806
13465 64.2957 121(11) 133.2309 47.2612
13466 64.2997 121(11) 133.3654 47.2417
13467 64.3037 121(11) 133.4992 47.2222
13468 64.3078 120(11) 133.6315 47.2027
13469 64.3118 120(11) 133.7628 47.1833
13470 64.3158 120(11) 133.8932 47.1638
13471 64.3199 120(11) 134.0220 47.1444
13472 64.3239 120(11) 134.1497 47.1249
13473 64.3279 119(11) 134.2759 47.1055
13474 64.3320 119(11) 134.4008 47.0861
13475 64.3360 119(11) 134.5248 47.0667
13476 64.3400 119(11) 134.6472 47.0473
13477 64.3440 119(11) 134.7686 47.0279
13478 64.3481 118(11) 134.8891 47.0085
13479 64.3521 118(11) 135.0085 46.9891
13480 64.3561 118(11) 135.1272 46.9698
13481 64.3602 118(11) 135.2455 46.9504
13482 64.3642 118(11) 135.3631 46.9311
13483 64.3682 118(11) 135.4803 46.9118
13484 64.3723 118(11) 135.5976 46.8924
13485 64.3763 118(11) 135.7147 46.8731
13486 64.3803 117(11) 135.8320 46.8538
13487 64.3844 117(11) 135.9499 46.8345
13488 64.3884 117(11) 136.0681 46.8152
13489 64.3924 117(11) 136.1872 46.7958
13490 64.3965 117(11) 136.3069 46.7766
13491 64.4005 118(11) 136.4278 46.7573
13492 64.4045 118(11) 136.5521 46.7380
13493 64.4085 118(11) 136.6753 46.7188
13494 64.4126 118(11) 136.7998 46.6996
13495 64.4166 118(11) 136.9258 46.6803
13496 64.4206 118(11) 137.0531 46.6611
13497 64.4247 118(11) 137.1818 46.6419
13498 64.4287 118(11) 137.3122 46.6227
13499 64.4327 118(11) 137.4437 46.6035
13500 64.4368 118(11) 137.5765 46.5844
13501 64.4408 118(11) 137.7108 46.5651
13502 64.4448 118(11) 137.8460 46.5460
13503 64.4489 118(11) 137.9820 46.5269
13504 64.4529 118(11) 138.1190 46.5077
13505 64.4569 118(11) 138.2563 46.4886
13506 64.4609 118(11) 138.3939 46.4695
13507 64.4650 118(11) 138.5317 46.4503
13508 64.4690 118(11) 138.6690 46.4312
13509 64.4730 118(11) 138.8059 46.4121
13510 64.4771 118(11) 138.9416 46.3930
13511 64.4811 118(11) 139.0759 46.3740
13512 64.4851 118(11) 139.2088 46.3549
13513 64.4892 118(11) 139.3395 46.3358
13514 64.4932 118(11) 139.4676 46.3168
13515 64.4972 118(11) 139.5932 46.2978
13516 64.5013 117(11) 139.7153 46.2787
13517 64.5053 117(11) 139.8339 46.2597
13518 64.5093 117(11) 139.9486 46.2407
13519 64.5134 117(11) 140.0587 46.2217
13520 64.5174 117(11) 140.1640 46.2028
13521 64.5214 117(11) 140.2644 46.1837
13522 64.5254 117(11) 140.3592 46.1648
13523 64.5295 117(11) 140.4482 46.1459
13524 64.5335 117(11) 140.5313 46.1269
13525 64.5375 117(11) 140.6079 46.1080
13526 64.5416 117(11) 140.6780 46.0890
13527 64.5456 116(11) 140.7411 46.0701
13528 64.5496 116(11) 140.8024 46.0512
13529 64.5537 116(11) 140.8514 46.0323
13530 64.5577 116(11) 140.8929 46.0134
13531 64.5617 116(11) 140.9281 45.9946
13532 64.5658 116(11) 140.9564 45.9757
13533 64.5698 116(11) 140.9753 45.9569
13534 64.5738 116(11) 140.9864 45.9380
13535 64.5779 116(11) 140.9898 45.9192
13536 64.5819 116(11) 140.9854 45.9004
13537 64.5859 116(11) 140.9733 45.8816
13538 64.5899 116(11) 140.9536 45.8628
13539 64.5940 116(11) 140.9263 45.8440
13540 64.5980 116(11) 140.8914 45.8252
13541 64.6020 116(11) 140.8490 45.8065
13542 64.6061 116(11) 140.7992 45.7877
13543 64.6101 116(11) 140.7422 45.7690
13544 64.6141 116(11) 140.6779 45.7502
13545 64.6182 116(11) 140.6068 45.7315
13546 64.6222 116(11) 140.5284 45.7128
13547 64.6262 116(11) 140.4435 45.6941
13548 64.6302 116(11) 140.3518 45.6754
13549 64.6343 116(11) 140.2533 45.6568
13550 64.6383 116(11) 140.1486 45.6381
13551 64.6423 115(11) 140.0376 45.6195
13552 64.6464 115(11) 139.9201 45.6008
13553 64.6504 115(11) 139.7967 45.5822
13554 64.6544 115(11) 139.6673 45.5636
13555 64.6585 115(11) 139.5317 45.5450
13556 64.6625 114(11) 139.3906 45.5264
13557 64.6665 114(11) 139.2437 45.5078
13558 64.6706 114(11) 139.0910 45.4893
13559 64.6746 114(11) 138.9329 45.4707
13560 64.6786 114(11) 138.7694 45.4522
13561 64.6827 113(11) 138.6001 45.4336
13562 64.6867 113(11) 138.4279 45.4151
13563 64.6907 113(11) 138.2482 45.3966
13564 64.6947 113(11) 138.0637 45.3781
13565 64.6988 112(11) 137.8741 45.3596
13566 64.7028 112(11) 137.6818 45.3412
13567 64.7068 112(11) 137.4825 45.3227
13568 64.7109 112(11) 137.2784 45.3043
13569 64.7149 112(11) 137.0694 45.2858
13570 64.7189 112(11) 136.8569 45.2674
13571 64.7230 112(11) 136.6393 45.2490
13572 64.7270 111(11) 136.4170 45.2306
13573 64.7310 111(11) 136.1908 45.2122
13574 64.7351 111(11) 135.9608 45.1939
13575 64.7391 111(11) 135.7263 45.1755
13576 64.7431 111(11) 135.4886 45.1572
13577 64.7471 111(11) 135.2474 45.1388
13578 64.7512 111(11) 135.0023 45.1205
13579 64.7552 111(11) 134.7544 45.1022
13580 64.7592 111(11) 134.5036 45.0839
13581 64.7633 111(11) 134.2494 45.0656
13582 64.7673 111(11) 133.9931 45.0473
13583 64.7713 111(11) 133.7337 45.0290
13584 64.7754 112(11) 133.4728 45.0108
13585 64.7794 112(11) 133.2098 44.9926
13586 64.7834 112(11) 132.9444 44.9744
13587 64.7875 112(11) 132.6780 44.9562
13588 64.7915 112(11) 132.4102 44.9380
13589 64.7955 112(11) 132.1408 44.9198
13590 64.7996 112(11) 131.8710 44.9016
13591 64.8036 112(11) 131.6023 44.8835
13592 64.8076 112(11) 131.3308 44.8653
13593 64.8116 112(11) 131.0597 44.8472
13594 64.8157 112(11) 130.7885 44.8291
13595 64.8197 112(11) 130.5171 44.8110
13596 64.8237 112(11) 130.2467 44.7929
13597 64.8278 113(11) 129.9771 44.7749
13598 64.8318 113(11) 129.7078 44.7568
13599 64.8358 113(11) 129.4402 44.7388
13600 64.8399 113(11) 129.1742 44.7207
13601 64.8439 113(11) 128.9102 44.7027
13602 64.8479 113(11) 128.6477 44.6847
13603 64.8520 113(11) 128.3868 44.6667
13604 64.8560 113(11) 128.1289 44.6487
13605 64.8600 113(11) 127.8736 44.6308
13606 64.8641 113(11) 127.6207 44.6128
13607 64.8681 113(11) 127.3714 44.5949
13608 64.8721 113(11) 127.1256 44.5770
13609 64.8761 113(11) 126.8828 44.5590
13610 64.8802 113(11) 126.6447 44.5412
13611 64.8842 113(11) 126.4105 44.5233
13612 64.8882 113(11) 126.1804 44.5054
13613 64.8923 113(11) 125.9554 44.4875
13614 64.8963 113(11) 125.7355 44.4697
13615 64.9003 112(11) 125.5203 44.4519
13616 64.9044 112(11) 125.3111 44.4341
13617 64.9084 112(11) 125.1077 44.4163
13618 64.9124 112(11) 124.9100 44.3985
13619 64.9165 112(11) 124.7192 44.3808
13620 64.9205 112(11) 124.5346 44.3630
13621 64.9245 112(11) 124.3573 44.3453
13622 64.9285 112(11) 124.1872 44.3275
13623 64.9326 112(11) 124.0243 44.3098
13624 64.9366 112(11) 123.8696 44.2922
13625 64.9406 112(11) 123.7228 44.2745
13626 64.9447 112(11) 123.5843 44.2568
13627 64.9487 112(11) 123.4546 44.2392
13628 64.9527 112(11) 123.3339 44.2215
13629 64.9568 112(11) 123.2220 44.2039
13630 64.9608 112(11) 123.1208 44.1863
13631 64.9648 112(11) 123.0284 44.1687
13632 64.9689 112(11) 122.9458 44.1512
13633 64.9729 112(11) 122.8735 44.1336
13634 64.9769 112(11) 122.8116 44.1160
13635 64.9809 112(11) 122.7604 44.0985
13636 64.9850 112(11) 122.7200 44.0810
13637 64.9890 112(11) 122.6907 44.0635
13638 64.9930 112(11) 122.6725 44.0460
13639 64.9971 112(11) 122.6658 44.0286
13640 65.0011 112(11) 122.6706 44.0111
13641 65.0051 112(11) 122.6871 43.9937
13642 65.0092 112(11) 122.7153 43.9763
13643 65.0132 112(11) 122.7555 43.9589
13644 65.0172 112(11) 122.8074 43.9415
13645 65.0213 112(11) 122.8713 43.9241
13646 65.0253 112(11) 122.9474 43.9068
13647 65.0293 112(11) 123.0352 43.8894
13648 65.0333 112(11) 123.1349 43.8721
13649 65.0374 112(11) 123.2467 43.8548
13650 65.0414 112(11) 123.3701 43.8375
13651 65.0454 112(11) 123.5050 43.8203
13652 65.0495 112(11) 123.6517 43.8030
13653 65.0535 112(11) 123.8093 43.7857
13654 65.0575 112(11) 123.9780 43.7685
13655 65.0616 112(11) 124.1577 43.7513
13656 65.0656 112(11) 124.3476 43.7341
13657 65.0696 112(11) 124.5480 43.7169
13658 65.0737 112(11) 124.7578 43.6997
13659 65.0777 112(11) 124.9768 43.6826
13660 65.0817 112(11) 125.2053 43.6655
13661 65.0858 112(11) 125.4417 43.6484
13662 65.0898 112(11) 125.6859 43.6313
13663 65.0938 112(11) 125.9380 43.6142
13664 65.0978 112(11) 126.1963 43.5971
13665 65.1019 112(11) 126.4608 43.5801
13666 65.1059 112(11) 126.7312 43.5630
13667 65.1099 112(11) 127.0058 43.5460
13668 65.1140 112(11) 127.2844 43.5290
13669 65.1180 112(11) 127.5668 43.5121
13670 65.1220 112(11) 127.8511 43.4951
13671 65.1261 112(11) 128.1372 43.4782
13672 65.1301 112(11) 128.4245 43.4612
13673 65.1341 112(11) 128.7115 43.4443
13674 65.1382 112(11) 128.9975 43.4274
13675 65.1422 112(11) 129.2824 43.4105
13676 65.1462 112(11) 129.5641 43.3937
13677 65.1503 112(11) 129.8428 43.3768
13678 65.1543 112(11) 130.1166 43.3600
13679 65.1583 112(11) 130.3852 43.3432
13680 65.1623 112(11) 130.6480 43.3264
13681 65.1664 112(11) 130.9034 43.3096
13682 65.1704 112(11) 131.1509 43.2929
13683 65.1744 112(11) 131.3901 43.2761
13684 65.1785 112(11) 131.6194 43.2594
13685 65.1825 112(11) 131.8384 43.2427
13686 65.1865 112(11) 132.0466 43.2260
13687 65.1906 112(11) 132.2428 43.2094
13688 65.1946 112(11) 132.4264 43.1927
13689 65.1986 112(11) 132.5973 43.1761
13690 65.2027 112(11) 132.7541 43.1595
13691 65.2067 112(11) 132.8968 43.1429
13692 65.2107 112(11) 133.0249 43.1263
13693 65.2147 112(11) 133.1376 43.1097
13694 65.2188 112(11) 133.2348 43.0932
13695 65.2228 112(11) 133.3161 43.0766
13696 65.2268 112(11) 133.3810 43.0601
13697 65.2309 112(11) 133.4297 43.0436
13698 65.2349 112(11) 133.4617 43.0272
13699 65.2389 112(11) 133.4771 43.0108
13700 65.2430 112(11) 133.4756 42.9943
13701 65.2470 112(11) 133.4574 42.9779
13702 65.2510 112(11) 133.4225 42.9615
13703 65.2551 112(11) 133.3710 42.9451
13704 65.2591 112(11) 133.3032 42.9288
13705 65.2631 112(11) 133.2192 42.9125
13706 65.2672 112(11) 133.1189 42.8961
13707 65.2712 112(11) 133.0032 42.8798
13708 65.2752 112(11) 132.8722 42.8635
13709 65.2792 112(11) 132.7259 42.8473
13710 65.2833 112(11) 132.5653 42.8310
13711 65.2873 112(11) 132.3905 42.8148
13712 65.2913 112(11) 132.2017 42.7986
13713 65.2954 112(11) 131.9999 42.7824
13714 65.2994 112(11) 131.7851 42.7662
13715 65.3034 112(11) 131.5582 42.7501
13716 65.3075 112(11) 131.3198 42.7339
13717 65.3115 112(11) 131.0695 42.7178
13718 65.3155 112(11) 130.8091 42.7017
13719 65.3195 112(11) 130.5385 42.6857
13720 65.3236 112(11) 130.2577 42.6696
13721 65.3276 112(11) 129.9683 42.6536
13722 65.3316 112(11) 129.6703 42.6376
13723 65.3357 112(11) 129.3637 42.6216
13724 65.3397 112(11) 129.0498 42.6056
13725 65.3437 112(11) 128.7288 42.5897
13726 65.3478 112(11) 128.4005 42.5737
13727 65.3518 112(11) 128.0666 42.5578
13728 65.3558 112(11) 127.7269 42.5419
13729 65.3599 112(11) 127.3811 42.5260
13730 65.3639 112(11) 127.0310 42.5102
13731 65.3679 112(11) 126.6757 42.4943
13732 65.3720 112(11) 126.3169 42.4785
13733 65.3760 112(11) 125.9543 42.4628
13734 65.3800 112(11) 125.5874 42.4470
13735 65.3840 112(11) 125.2182 42.4312
13736 65.3881 112(11) 124.8462 42.4155
13737 65.3921 112(11) 124.4710 42.3998
13738 65.3961 112(11) 124.0944 42.3841
13739 65.4002 112(11) 123.7159 42.3684
13740 65.4042 112(11) 123.3352 42.3528
13741 65.4082 112(11) 122.9539 42.3371
13742 65.4123 111(11) 122.5718 42.3215
13743 65.4163 111(11) 122.1882 42.3060
13744 65.4203 111(11) 121.8050 42.2904
13745 65.4244 111(11) 121.4217 42.2748
13746 65.4284 111(11) 121.0378 42.2593
13747 65.4324 111(11) 120.6552 42.2438
13748 65.4364 111(11) 120.2733 42.2283
13749 65.4405 110(10) 119.8917 42.2128
13750 65.4445 110(10) 119.5121 42.1974
13751 65.4485 110(10) 119.1336 42.1820
13752 65.4526 110(10) 118.7576 42.1666
13753 65.4566 110(10) 118.3837 42.1512
13754 65.4606 109(10) 118.0117 42.1358
13755 65.4647 109(10) 117.6431 42.1205
13756 65.4687 109(10) 117.2776 42.1052
13757 65.4727 109(10) 116.9148 42.0899
13758 65.4768 109(10) 116.5563 42.0747
13759 65.4808 108(10) 116.2016 42.0594
13760 65.4848 108(10) 115.8506 42.0442
13761 65.4889 108(10) 115.5139 42.0289
13762 65.4929 108(10) 115.1727 42.0138
13763 65.4969 107(10) 114.8358 41.9986
13764 65.5009 107(10) 114.5048 41.9835
13765 65.5050 107(10) 114.1793 41.9684
13766 65.5090 107(10) 113.8589 41.9532
13767 65.5130 107(10) 113.5451 41.9382
13768 65.5171 106(10) 113.2369 41.9231
13769 65.5211 106(10) 112.9356 41.9080
13770 65.5251 106(10) 112.6411 41.8931
13771 65.5292 106(10) 112.3527 41.8781
13772 65.5332 106(10) 112.0717 41.8631
13773 65.5372 106(10) 111.7979 41.8482
13774 65.5413 105(10) 111.5307 41.8332
13775 65.5453 105(10) 111.2714 41.8184
13776 65.5493 105(10) 111.0197 41.8035
13777 65.5534 105(10) 110.7749 41.7886
13778 65.5574 105(10) 110.5383 41.7738
13779 65.5614 105(10) 110.2987 41.7590
13780 65.5654 105(10) 110.0771 41.7442
13781 65.5695 104(10) 109.8636 41.7295
13782 65.5735 104(10) 109.6579 41.7148
13783 65.5775 104(10) 109.4594 41.7000
13784 65.5816 104(10) 109.2692 41.6853
13785 65.5856 104(10) 109.0867 41.6707
13786 65.5896 104(10) 108.9114 41.6560
13787 65.5937 103(10) 108.7441 41.6414
13788 65.5977 103(10) 108.5840 41.6268
13789 65.6017 103(10) 108.4316 41.6122
13790 65.6058 103(10) 108.2866 41.5977
13791 65.6098 103(10) 108.1484 41.5831
13792 65.6138 103(10) 108.0177 41.5686
13793 65.6178 103(10) 107.8938 41.5541
13794 65.6219 102(10) 107.7765 41.5397
13795 65.6259 102(10) 107.6660 41.5252
13796 65.6299 102(10) 107.5621 41.5109
13797 65.6340 102(10) 107.4641 41.4965
13798 65.6380 102(10) 107.3725 41.4821
13799 65.6420 102(10) 107.2869 41.4678
13800 65.6461 101(10) 107.2114 41.4534
13801 65.6501 101(10) 107.1370 41.4391
13802 65.6541 101(10) 107.0679 41.4249
13803 65.6582 101(10) 107.0037 41.4106
13804 65.6622 101(10) 106.9446 41.3964
13805 65.6662 101(10) 106.8901 41.3822
13806 65.6702 101(10) 106.8401 41.3680
13807 65.6743 100(10) 106.7944 41.3539
13808 65.6783 100(10) 106.7612 41.3398
13809 65.6823 100(10) 106.7234 41.3257
13810 65.6864 100(10) 106.6890 41.3116
13811 65.6904 100(10) 106.6580 41.2975
13812 65.6944 100(10) 106.6303 41.2835
13813 65.6985 100(10) 106.6054 41.2696
13814 65.7025 100(10) 106.5832 41.2556
13815 65.7065 99(10) 106.5635 41.2416
13816 65.7106 99(10) 106.5462 41.2277
13817 65.7146 99(10) 106.5309 41.2138
13818 65.7186 99(10) 106.5175 41.2000
13819 65.7226 99(10) 106.5057 41.1861
13820 65.7267 99(10) 106.4955 41.1723
13821 65.7307 99(10) 106.4865 41.1585
13822 65.7347 99(10) 106.4787 41.1447
13823 65.7388 98(10) 106.4717 41.1310
13824 65.7428 98(10) 106.4654 41.1172
13825 65.7468 98(10) 106.4598 41.1035
13826 65.7509 98(10) 106.4545 41.0899
13827 65.7549 98(10) 106.4442 41.0762
13828 65.7589 98(10) 106.4392 41.0626
13829 65.7630 98(10) 106.4341 41.0490
13830 65.7670 98(10) 106.4288 41.0355
13831 65.7710 98(10) 106.4230 41.0219
13832 65.7751 98(10) 106.4167 41.0084
13833 65.7791 98(10) 106.4099 40.9949
13834 65.7831 98(10) 106.4022 40.9814
13835 65.7871 98(10) 106.3936 40.9680
13836 65.7912 98(10) 106.3839 40.9545
13837 65.7952 98(10) 106.3731 40.9412
13838 65.7992 98(10) 106.3611 40.9278
13839 65.8033 98(10) 106.3478 40.9145
13840 65.8073 98(10) 106.3329 40.9012
13841 65.8113 98(10) 106.3166 40.8879
13842 65.8154 98(10) 106.2986 40.8746
13843 65.8194 98(10) 106.2789 40.8614
13844 65.8234 98(10) 106.2574 40.8482
13845 65.8275 98(10) 106.2341 40.8351
13846 65.8315 98(10) 106.2088 40.8219
13847 65.8355 98(10) 106.1859 40.8088
13848 65.8396 98(10) 106.1566 40.7957
13849 65.8436 98(10) 106.1253 40.7826
13850 65.8476 98(10) 106.0918 40.7696
13851 65.8516 98(10) 106.0561 40.7566
13852 65.8557 98(10) 106.0181 40.7436
13853 65.8597 98(10) 105.9779 40.7306
13854 65.8637 98(10) 105.9355 40.7177
13855 65.8678 98(10) 105.8910 40.7048
13856 65.8718 98(10) 105.8439 40.6919
13857 65.8758 98(10) 105.7943 40.6791
13858 65.8799 97(10) 105.7424 40.6663
13859 65.8839 97(10) 105.6881 40.6535
13860 65.8879 97(10) 105.6314 40.6407
13861 65.8920 97(10) 105.5723 40.6280
13862 65.8960 97(10) 105.5107 40.6152
13863 65.9000 97(10) 105.4468 40.6026
13864 65.9040 97(10) 105.3805 40.5899
13865 65.9081 97(10) 105.3119 40.5773
13866 65.9121 97(10) 105.2409 40.5647
13867 65.9161 97(10) 105.1675 40.5521
13868 65.9202 97(10) 105.0918 40.5395
13869 65.9242 97(10) 105.0326 40.5271
13870 65.9282 97(10) 104.9525 40.5146
13871 65.9323 97(10) 104.8719 40.5021
13872 65.9363 97(10) 104.7875 40.4897
13873 65.9403 97(10) 104.7011 40.4773
13874 65.9444 97(10) 104.6124 40.4649
13875 65.9484 97(10) 104.5219 40.4526
13876 65.9524 97(10) 104.4161 40.4403
13877 65.9565 97(10) 104.3218 40.4280
13878 65.9605 97(10) 104.2259 40.4157
13879 65.9645 97(10) 104.1284 40.4035
13880 65.9685 97(10) 104.0332 40.3913
13881 65.9726 97(10) 103.9327 40.3792
13882 65.9766 97(10) 103.8306 40.3670
13883 65.9806 97(10) 103.7274 40.3549
13884 65.9847 97(10) 103.6232 40.3428
13885 65.9887 97(10) 103.5176 40.3307
13886 65.9927 97(10) 103.4114 40.3187
13887 65.9968 97(10) 103.2908 40.3067
13888 66.0008 97(10) 103.1831 40.2948
13889 66.0048 97(10) 103.0751 40.2829
13890 66.0089 97(10) 102.9667 40.2709
13891 66.0129 97(10) 102.8580 40.2591
13892 66.0169 97(10) 102.7495 40.2472
13893 66.0209 97(10) 102.6413 40.2354
13894 66.0250 97(10) 102.5333 40.2236
13895 66.0290 97(10) 102.4259 40.2119
13896 66.0330 97(10) 102.3193 40.2001
13897 66.0371 97(10) 102.2133 40.1884
13898 66.0411 97(10) 102.1088 40.1768
13899 66.0451 97(10) 102.0054 40.1651
13900 66.0492 97(10) 101.9037 40.1535
13901 66.0532 97(10) 101.8039 40.1420
13902 66.0572 97(10) 101.7058 40.1304
13903 66.0613 97(10) 101.6103 40.1189
13904 66.0653 97(10) 101.5171 40.1074
13905 66.0693 97(10) 101.4265 40.0959
13906 66.0733 97(10) 101.3391 40.0845
13907 66.0774 98(10) 101.2549 40.0732
13908 66.0814 98(10) 101.1833 40.0618
13909 66.0854 98(10) 101.1062 40.0504
13910 66.0895 98(10) 101.0342 40.0392
13911 66.0935 98(10) 100.9653 40.0279
13912 66.0975 98(10) 100.9010 40.0166
13913 66.1016 98(10) 100.8416 40.0054
13914 66.1056 98(10) 100.7871 39.9942
13915 66.1096 98(10) 100.7381 39.9831
13916 66.1137 98(10) 100.6947 39.9720
13917 66.1177 98(10) 100.6570 39.9609
13918 66.1217 98(10) 100.6256 39.9499
13919 66.1258 99(10) 100.6026 39.9389
13920 66.1298 99(10) 100.5842 39.9279
13921 66.1338 99(10) 100.5727 39.9169
13922 66.1378 99(10) 100.5685 39.9060
13923 66.1419 99(10) 100.5716 39.8951
13924 66.1459 99(10) 100.5757 39.8843
13925 66.1499 99(10) 100.5952 39.8734
13926 66.1540 99(10) 100.6221 39.8626
13927 66.1580 99(10) 100.6572 39.8519
13928 66.1620 99(10) 100.7010 39.8411
13929 66.1661 99(10) 100.7535 39.8304
13930 66.1701 99(10) 100.8149 39.8198
13931 66.1741 99(10) 100.8854 39.8091
13932 66.1782 99(10) 100.9652 39.7985
13933 66.1822 99(10) 101.0542 39.7880
13934 66.1862 99(10) 101.1530 39.7775
13935 66.1902 99(10) 101.2611 39.7669
13936 66.1943 99(10) 101.3725 39.7565
13937 66.1983 99(10) 101.5000 39.7460
13938 66.2023 99(10) 101.6373 39.7356
13939 66.2064 99(10) 101.7848 39.7253
13940 66.2104 99(10) 101.9416 39.7149
13941 66.2144 99(10) 102.1082 39.7046
13942 66.2185 99(10) 102.2848 39.6944
13943 66.2225 99(10) 102.4706 39.6841
13944 66.2265 99(10) 102.6664 39.6739
13945 66.2306 99(10) 102.8714 39.6638
13946 66.2346 99(10) 103.0851 39.6536
13947 66.2386 99(10) 103.3077 39.6435
13948 66.2427 99(10) 103.5394 39.6334
13949 66.2467 99(10) 103.7792 39.6234
13950 66.2507 99(10) 104.0269 39.6134
13951 66.2547 99(10) 104.2830 39.6034
13952 66.2588 99(10) 104.5459 39.5935
13953 66.2628 99(10) 104.8159 39.5836
13954 66.2668 99(10) 105.0929 39.5737
13955 66.2709 99(10) 105.3755 39.5639
13956 66.2749 99(10) 105.6643 39.5541
13957 66.2789 100(10) 105.9576 39.5443
13958 66.2830 100(10) 106.2554 39.5346
13959 66.2870 100(10) 106.5579 39.5249
13960 66.2910 100(10) 106.8632 39.5152
13961 66.2951 100(10) 107.1712 39.5056
13962 66.2991 100(10) 107.4819 39.4960
13963 66.3031 101(10) 107.7936 39.4865
13964 66.3071 101(10) 108.1066 39.4770
13965 66.3112 101(10) 108.4196 39.4674
13966 66.3152 101(10) 108.7317 39.4580
13967 66.3192 101(10) 109.0425 39.4486
13968 66.3233 101(10) 109.3519 39.4392
13969 66.3273 102(10) 109.6581 39.4298
13970 66.3313 102(10) 109.9609 39.4205
13971 66.3354 102(10) 110.2602 39.4112
13972 66.3394 102(10) 110.5541 39.4020
13973 66.3434 102(10) 110.8432 39.3928
13974 66.3475 103(10) 111.1255 39.3836
13975 66.3515 103(10) 111.4011 39.3745
13976 66.3555 103(10) 111.6699 39.3654
13977 66.3596 103(10) 111.9301 39.3563
13978 66.3636 103(10) 112.1818 39.3473
13979 66.3676 103(10) 112.4248 39.3383
13980 66.3716 103(10) 112.6577 39.3294
13981 66.3757 104(10) 112.8805 39.3205
13982 66.3797 104(10) 113.0930 39.3115
13983 66.3837 104(10) 113.2945 39.3027
13984 66.3878 104(10) 113.4843 39.2939
13985 66.3918 104(10) 113.6628 39.2851
13986 66.3958 104(10) 113.8289 39.2764
13987 66.3999 104(10) 113.9828 39.2677
13988 66.4039 104(10) 114.1245 39.2590
13989 66.4079 104(10) 114.2533 39.2504
13990 66.4119 104(10) 114.3693 39.2418
13991 66.4160 104(10) 114.4725 39.2332
13992 66.4200 104(10) 114.5628 39.2247
13993 66.4240 104(10) 114.6401 39.2162
13994 66.4281 104(10) 114.7044 39.2078
13995 66.4321 104(10) 114.7557 39.1994
13996 66.4361 104(10) 114.7943 39.1910
13997 66.4402 104(10) 114.8200 39.1827
13998 66.4442 104(10) 114.8332 39.1744
13999 66.4482 104(10) 114.8340 39.1661
14000 66.4523 104(10) 114.8225 39.1579
14001 66.4563 104(10) 114.7990 39.1497
14002 66.4603 103(10) 114.7636 39.1416
14003 66.4644 103(10) 114.7166 39.1335
14004 66.4684 103(10) 114.6584 39.1254
14005 66.4724 103(10) 114.5889 39.1174
14006 66.4764 103(10) 114.5088 39.1094
14007 66.4805 103(10) 114.4182 39.1014
14008 66.4845 103(10) 114.3171 39.0935
14009 66.4885 103(10) 114.2192 39.0856
14010 66.4926 103(10) 114.0986 39.0778
14011 66.4966 103(10) 113.9690 39.0700
14012 66.5006 103(10) 113.8303 39.0622
14013 66.5047 104(10) 113.6827 39.0545
14014 66.5087 104(10) 113.5270 39.0468
14015 66.5127 104(10) 113.3633 39.0392
14016 66.5168 104(10) 113.1914 39.0316
14017 66.5208 104(10) 113.0124 39.0240
14018 66.5248 104(10) 112.8263 39.0164
14019 66.5289 104(10) 112.6332 39.0089
14020 66.5329 104(10) 112.4337 39.0015
14021 66.5369 104(10) 112.2280 38.9940
14022 66.5409 104(10) 112.0161 38.9866
14023 66.5450 104(10) 111.7990 38.9793
14024 66.5490 104(10) 111.5766 38.9720
14025 66.5530 104(10) 111.3489 38.9648
14026 66.5571 104(10) 111.1168 38.9576
14027 66.5611 104(10) 110.8804 38.9504
14028 66.5651 104(10) 110.6396 38.9433
14029 66.5692 104(10) 110.3953 38.9361
14030 66.5732 104(10) 110.1473 38.9291
14031 66.5772 104(10) 109.8966 38.9221
14032 66.5813 103(10) 109.6431 38.9151
14033 66.5853 103(10) 109.3866 38.9081
14034 66.5893 103(10) 109.1284 38.9012
14035 66.5933 103(10) 108.8685 38.8944
14036 66.5974 103(10) 108.6065 38.8876
14037 66.6014 103(10) 108.3437 38.8808
14038 66.6054 102(10) 108.0801 38.8741
14039 66.6095 102(10) 107.8154 38.8673
14040 66.6135 102(10) 107.5508 38.8607
14041 66.6175 102(10) 107.2865 38.8541
14042 66.6216 102(10) 107.0219 38.8475
14043 66.6256 102(10) 106.7584 38.8410
14044 66.6296 101(10) 106.4960 38.8345
14045 66.6337 101(10) 106.2343 38.8280
14046 66.6377 101(10) 105.9745 38.8216
14047 66.6417 101(10) 105.7161 38.8152
14048 66.6458 101(10) 105.4603 38.8089
14049 66.6498 101(10) 105.2132 38.8026
14050 66.6538 101(10) 104.9618 38.7963
14051 66.6578 101(10) 104.7138 38.7901
14052 66.6619 101(10) 104.4689 38.7840
14053 66.6659 100(10) 104.2267 38.7778
14054 66.6699 100(10) 103.9885 38.7718
14055 66.6740 100(10) 103.7540 38.7657
14056 66.6780 100(10) 103.5228 38.7597
14057 66.6820 100(10) 103.2963 38.7538
14058 66.6861 100(10) 103.0739 38.7478
14059 66.6901 100(10) 102.8555 38.7420
14060 66.6941 100(10) 102.6419 38.7361
14061 66.6982 100(10) 102.4329 38.7304
14062 66.7022 100(10) 102.2283 38.7246
14063 66.7062 100(10) 102.0288 38.7189
14064 66.7102 100(10) 101.8341 38.7132
14065 66.7143 100(10) 101.6440 38.7076
14066 66.7183 100(10) 101.4593 38.7021
14067 66.7223 100(10) 101.2792 38.6965
14068 66.7264 100(10) 101.1045 38.6910
14069 66.7304 100(10) 100.9348 38.6856
14070 66.7344 100(10) 100.7699 38.6802
14071 66.7385 100(10) 100.6103 38.6748
14072 66.7425 100(10) 100.4557 38.6695
14073 66.7465 100(10) 100.3058 38.6642
14074 66.7506 100(10) 100.1611 38.6590
14075 66.7546 100(10) 100.0212 38.6538
14076 66.7586 100(10) 99.8860 38.6487
14077 66.7626 100(10) 99.7558 38.6436
14078 66.7667 100(10) 99.6302 38.6385
14079 66.7707 100(10) 99.5091 38.6335
14080 66.7747 100(10) 99.3926 38.6285
14081 66.7788 100(10) 99.2806 38.6236
14082 66.7828 100(10) 99.1727 38.6187
14083 66.7868 100(10) 99.0692 38.6139
14084 66.7909 100(10) 98.9697 38.6091
14085 66.7949 100(10) 98.8743 38.6044
14086 66.7989 99(10) 98.7828 38.5997
14087 66.8030 99(10) 98.6949 38.5950
14088 66.8070 99(10) 98.6109 38.5904
14089 66.8110 99(10) 98.5303 38.5858
14090 66.8151 99(10) 98.4531 38.5813
14091 66.8191 99(10) 98.3793 38.5768
14092 66.8231 99(10) 98.3086 38.5724
14093 66.8271 99(10) 98.2409 38.5680
14094 66.8312 99(10) 98.1762 38.5636
14095 66.8352 99(10) 98.1143 38.5593
14096 66.8392 98(10) 98.0549 38.5550
14097 66.8433 98(10) 97.9982 38.5509
14098 66.8473 98(10) 97.9439 38.5467
14099 66.8513 98(10) 97.8919 38.5426
14100 66.8554 98(10) 97.8420 38.5385
14101 66.8594 98(10) 97.7943 38.5345
14102 66.8634 98(10) 97.7484 38.5305
14103 66.8675 98(10) 97.7043 38.5266
14104 66.8715 97(10) 97.6619 38.5226
14105 66.8755 97(10) 97.6211 38.5188
14106 66.8795 97(10) 97.5818 38.5151
14107 66.8836 97(10) 97.5437 38.5113
14108 66.8876 97(10) 97.5069 38.5076
14109 66.8916 97(10) 97.4712 38.5040
14110 66.8957 97(10) 97.4504 38.5003
14111 66.8997 96(10) 97.4165 38.4967
14112 66.9037 96(10) 97.3833 38.4932
14113 66.9078 96(10) 97.3507 38.4898
14114 66.9118 96(10) 97.3186 38.4863
14115 66.9158 96(10) 97.2868 38.4829
14116 66.9199 96(10) 97.2554 38.4796
14117 66.9239 96(10) 97.2241 38.4763
14118 66.9279 96(10) 97.1928 38.4731
14119 66.9320 95(10) 97.1614 38.4699
14120 66.9360 95(10) 97.1299 38.4667
14121 66.9400 95(10) 97.0981 38.4637
14122 66.9440 95(10) 97.0658 38.4606
14123 66.9481 95(10) 97.0332 38.4576
14124 66.9521 95(10) 96.9998 38.4547
14125 66.9561 95(10) 96.9659 38.4517
14126 66.9602 95(10) 96.9311 38.4489
14127 66.9642 95(10) 96.8955 38.4461
14128 66.9682 95(10) 96.8589 38.4433
14129 66.9723 95(10) 96.8213 38.4406
14130 66.9763 95(10) 96.7826 38.4379
14131 66.9803 94(10) 96.7427 38.4353
14132 66.9844 94(10) 96.7015 38.4328
14133 66.9884 94(10) 96.6590 38.4302
14134 66.9924 94(10) 96.6152 38.4278
14135 66.9964 94(10) 96.5700 38.4253
14136 67.0005 94(10) 96.5232 38.4229
14137 67.0045 94(10) 96.4750 38.4206
14138 67.0085 94(10) 96.4253 38.4184
14139 67.0126 94(10) 96.3739 38.4161
14140 67.0166 94(10) 96.3210 38.4140
14141 67.0206 94(10) 96.2663 38.4118
14142 67.0247 94(10) 96.2103 38.4097
14143 67.0287 93(10) 96.1525 38.4077
14144 67.0327 93(10) 96.0930 38.4057
14145 67.0368 93(10) 96.0320 38.4038
14146 67.0408 93(10) 95.9694 38.4019
14147 67.0448 93(10) 95.9051 38.4001
14148 67.0489 93(10) 95.8394 38.3983
14149 67.0529 93(10) 95.7790 38.3965
14150 67.0569 92(10) 95.7101 38.3949
14151 67.0609 92(10) 95.6398 38.3932
14152 67.0650 92(10) 95.5687 38.3917
14153 67.0690 92(10) 95.4954 38.3902
14154 67.0730 92(10) 95.4209 38.3886
14155 67.0771 92(10) 95.3451 38.3872
14156 67.0811 92(10) 95.2680 38.3858
14157 67.0851 92(10) 95.1897 38.3845
14158 67.0892 91(10) 95.1104 38.3833
14159 67.0932 91(10) 95.0298 38.3820
14160 67.0972 91(10) 94.9484 38.3808
14161 67.1013 91(10) 94.8659 38.3797
14162 67.1053 91(10) 94.7827 38.3786
14163 67.1093 91(10) 94.6987 38.3776
14164 67.1133 91(10) 94.6137 38.3766
14165 67.1174 91(10) 94.5284 38.3757
14166 67.1214 91(10) 94.4424 38.3748
14167 67.1254 91(10) 94.3558 38.3740
14168 67.1295 91(10) 94.2690 38.3733
14169 67.1335 91(10) 94.1818 38.3725
14170 67.1375 91(10) 94.0942 38.3719
14171 67.1416 92(10) 94.0066 38.3712
14172 67.1456 92(10) 93.9189 38.3707
14173 67.1496 92(10) 93.8311 38.3702
14174 67.1537 92(10) 93.7435 38.3697
14175 67.1577 92(10) 93.6669 38.3694
14176 67.1617 92(10) 93.5796 38.3690
14177 67.1657 92(10) 93.4929 38.3687
14178 67.1698 92(10) 93.4064 38.3685
14179 67.1738 92(10) 93.3206 38.3683
14180 67.1778 93(10) 93.2355 38.3681
14181 67.1819 93(10) 93.1509 38.3680
14182 67.1859 93(10) 93.0673 38.3680
14183 67.1899 93(10) 92.9847 38.3680
14184 67.1940 93(10) 92.9029 38.3680
14185 67.1980 93(10) 92.8224 38.3682
14186 67.2020 93(10) 92.7432 38.3684
14187 67.2061 93(10) 92.6651 38.3686
14188 67.2101 93(10) 92.5886 38.3689
14189 67.2141 93(10) 92.5136 38.3692
14190 67.2182 93(10) 92.4400 38.3696
14191 67.2222 93(10) 92.3685 38.3701
14192 67.2262 93(10) 92.3053 38.3705
14193 67.2302 93(10) 92.2374 38.3711
14194 67.2343 93(10) 92.1716 38.3717
14195 67.2383 93(10) 92.1081 38.3724
14196 67.2423 93(10) 92.0468 38.3731
14197 67.2464 93(10) 91.9879 38.3739
14198 67.2504 93(10) 91.9315 38.3747
14199 67.2544 93(10) 91.8777 38.3756
14200 67.2585 93(10) 91.8267 38.3765
14201 67.2625 93(10) 91.7785 38.3775
14202 67.2665 93(10) 91.7333 38.3786
14203 67.2706 93(10) 91.6911 38.3796
14204 67.2746 93(10) 91.6521 38.3808
14205 67.2786 93(10) 91.6164 38.3820
14206 67.2826 92(10) 91.5841 38.3833
14207 67.2867 92(10) 91.5551 38.3846
14208 67.2907 92(10) 91.5299 38.3860
14209 67.2947 92(10) 91.5083 38.3874
14210 67.2988 92(10) 91.4904 38.3889
14211 67.3028 92(10) 91.4765 38.3904
14212 67.3068 92(10) 91.4664 38.3921
14213 67.3109 92(10) 91.4605 38.3937
14214 67.3149 92(10) 91.4586 38.3954
14215 67.3189 92(10) 91.4662 38.3972
14216 67.3230 92(10) 91.4728 38.3990
14217 67.3270 91(10) 91.4837 38.4009
14218 67.3310 91(10) 91.4990 38.4028
14219 67.3351 91(10) 91.5186 38.4048
14220 67.3391 91(10) 91.5428 38.4068
14221 67.3431 91(10) 91.5714 38.4090
14222 67.3471 91(10) 91.6045 38.4111
14223 67.3512 91(10) 91.6422 38.4133
14224 67.3552 91(10) 91.6844 38.4156
14225 67.3592 91(10) 91.7344 38.4180
14226 67.3633 91(10) 91.7856 38.4203
14227 67.3673 91(10) 91.8413 38.4228
14228 67.3713 91(10) 91.9014 38.4252
14229 67.3754 91(10) 91.9659 38.4278
14230 67.3794 91(10) 92.0336 38.4305
14231 67.3834 91(10) 92.1066 38.4331
14232 67.3875 91(10) 92.1870 38.4359
14233 67.3915 91(10) 92.2684 38.4387
14234 67.3955 91(10) 92.3536 38.4415
14235 67.3996 91(10) 92.4429 38.4445
14236 67.4036 91(10) 92.5355 38.4474
14237 67.4076 91(10) 92.6317 38.4504
14238 67.4116 91(10) 92.7315 38.4535
14239 67.4157 91(10) 92.8342 38.4566
14240 67.4197 91(10) 92.9399 38.4599
14241 67.4237 91(10) 93.0485 38.4631
14242 67.4278 91(10) 93.1595 38.4665
14243 67.4318 91(10) 93.2728 38.4699
14244 67.4358 91(10) 93.3883 38.4733
14245 67.4399 91(10) 93.5053 38.4768
14246 67.4439 91(10) 93.6239 38.4803
14247 67.4479 91(10) 93.7439 38.4839
14248 67.4520 91(10) 93.8646 38.4876
14249 67.4560 91(10) 93.9860 38.4914
14250 67.4600 91(10) 94.1080 38.4951
14251 67.4640 91(10) 94.2297 38.4990
14252 67.4681 91(10) 94.3514 38.5029
14253 67.4721 91(10) 94.4722 38.5069
14254 67.4761 91(10) 94.5922 38.5109
14255 67.4802 92(10) 94.7110 38.5150
14256 67.4842 92(10) 94.8282 38.5192
14257 67.4882 92(10) 94.9433 38.5234
14258 67.4923 92(10) 95.0566 38.5277
14259 67.4963 92(10) 95.1670 38.5320
14260 67.5003 92(10) 95.2747 38.5364
14261 67.5044 93(10) 95.3795 38.5409
14262 67.5084 93(10) 95.4807 38.5453
14263 67.5124 93(10) 95.5781 38.5500
14264 67.5164 93(10) 95.6718 38.5546
14265 67.5205 93(10) 95.7628 38.5593
14266 67.5245 94(10) 95.8477 38.5640
14267 67.5285 94(10) 95.9281 38.5689
14268 67.5326 94(10) 96.0035 38.5737
14269 67.5366 94(10) 96.0739 38.5787
14270 67.5406 95(10) 96.1392 38.5837
14271 67.5447 95(10) 96.1991 38.5888
14272 67.5487 95(10) 96.2536 38.5939
14273 67.5527 95(10) 96.3025 38.5991
14274 67.5568 96(10) 96.3457 38.6044
14275 67.5608 96(10) 96.3833 38.6097
14276 67.5648 96(10) 96.4152 38.6151
14277 67.5688 96(10) 96.4413 38.6205
14278 67.5729 96(10) 96.4617 38.6260
14279 67.5769 96(10) 96.4764 38.6315
14280 67.5809 97(10) 96.5299 38.6372
14281 67.5850 97(10) 96.5334 38.6429
14282 67.5890 97(10) 96.5314 38.6487
14283 67.5930 97(10) 96.5239 38.6545
14284 67.5971 97(10) 96.5112 38.6604
14285 67.6011 97(10) 96.4933 38.6663
14286 67.6051 97(10) 96.4704 38.6723
14287 67.6092 97(10) 96.4427 38.6784
14288 67.6132 97(10) 96.4103 38.6845
14289 67.6172 97(10) 96.3734 38.6908
14290 67.6213 97(10) 96.3322 38.6970
14291 67.6253 97(10) 96.2869 38.7033
14292 67.6293 97(10) 96.2375 38.7097
14293 67.6333 96(10) 96.1846 38.7162
14294 67.6374 96(10) 96.1281 38.7227
14295 67.6414 96(10) 96.0682 38.7293
14296 67.6454 96(10) 96.0052 38.7359
14297 67.6495 96(10) 95.9394 38.7427
14298 67.6535 96(10) 95.8707 38.7494
14299 67.6575 95(10) 95.7996 38.7563
14300 67.6616 95(10) 95.7261 38.7632
14301 67.6656 95(10) 95.6505 38.7702
14302 67.6696 95(10) 95.5729 38.7772
14303 67.6737 95(10) 95.4934 38.7843
14304 67.6777 94(10) 95.4122 38.7915
14305 67.6817 94(10) 95.3295 38.7987
14306 67.6857 94(10) 95.2454 38.8060
14307 67.6898 94(10) 95.1600 38.8134
14308 67.6938 94(10) 95.0735 38.8208
14309 67.6978 94(10) 94.9859 38.8283
14310 67.7019 94(10) 94.8976 38.8359
14311 67.7059 93(10) 94.8084 38.8435
14312 67.7099 93(10) 94.7184 38.8512
14313 67.7140 93(10) 94.6278 38.8589
14314 67.7180 93(10) 94.5367 38.8668
14315 67.7220 93(10) 94.4450 38.8746
14316 67.7261 93(10) 94.3530 38.8826
14317 67.7301 93(10) 94.2606 38.8907
14318 67.7341 93(10) 94.1677 38.8987
14319 67.7382 93(10) 94.0972 38.9069
14320 67.7422 93(10) 94.0041 38.9151
14321 67.7462 93(10) 93.9105 38.9234
14322 67.7502 93(10) 93.8171 38.9318
14323 67.7543 93(10) 93.7234 38.9402
14324 67.7583 94(10) 93.6297 38.9487
14325 67.7623 94(10) 93.5359 38.9573
14326 67.7664 94(10) 93.4421 38.9659
14327 67.7704 94(10) 93.3485 38.9746
14328 67.7744 94(10) 93.2550 38.9834
14329 67.7785 94(10) 93.1613 38.9922
14330 67.7825 94(10) 93.0681 39.0012
14331 67.7865 94(10) 92.9750 39.0101
14332 67.7906 94(10) 92.8814 39.0192
14333 67.7946 94(10) 92.7889 39.0283
14334 67.7986 94(10) 92.6967 39.0374
14335 67.8027 94(10) 92.6048 39.0467
14336 67.8067 94(10) 92.5135 39.0560
14337 67.8107 94(10) 92.4227 39.0654
14338 67.8147 94(10) 92.3323 39.0749
14339 67.8188 94(10) 92.2428 39.0844
14340 67.8228 94(10) 92.1540 39.0939
14341 67.8268 94(10) 92.0660 39.1037
14342 67.8309 94(10) 91.9789 39.1134
14343 67.8349 94(10) 91.8929 39.1232
14344 67.8389 94(10) 91.8077 39.1330
14345 67.8430 94(10) 91.7240 39.1430
14346 67.8470 94(10) 91.6413 39.1530
14347 67.8510 94(10) 91.5603 39.1631
14348 67.8550 94(10) 91.4807 39.1732
14349 67.8591 94(10) 91.4027 39.1835
14350 67.8631 94(10) 91.3266 39.1938
14351 67.8671 94(10) 91.2524 39.2041
14352 67.8712 94(10) 91.1802 39.2146
14353 67.8752 94(10) 91.1103 39.2251
14354 67.8792 94(10) 91.0426 39.2356
14355 67.8833 94(10) 90.9775 39.2463
14356 67.8873 94(10) 90.9149 39.2570
14357 67.8913 94(10) 90.8554 39.2678
14358 67.8954 94(10) 90.7987 39.2786
14359 67.8994 94(10) 90.7452 39.2896
14360 67.9034 94(10) 90.6950 39.3005
14361 67.9075 94(10) 90.6483 39.3116
14362 67.9115 94(10) 90.6053 39.3228
14363 67.9155 94(10) 90.5660 39.3340
14364 67.9195 94(10) 90.5309 39.3453
14365 67.9236 94(10) 90.5000 39.3566
14366 67.9276 94(10) 90.4733 39.3681
14367 67.9316 94(10) 90.4514 39.3796
14368 67.9357 94(10) 90.4340 39.3912
14369 67.9397 94(10) 90.4215 39.4028
14370 67.9437 94(10) 90.4140 39.4146
14371 67.9478 95(10) 90.4118 39.4264
14372 67.9518 95(10) 90.4148 39.4382
14373 67.9558 95(10) 90.4232 39.4502
14374 67.9599 95(10) 90.4372 39.4622
14375 67.9639 95(10) 90.4570 39.4743
14376 67.9679 95(10) 90.4825 39.4864
14377 67.9719 95(10) 90.5138 39.4986
14378 67.9760 95(10) 90.5512 39.5110
14379 67.9800 95(10) 90.5945 39.5233
14380 67.9840 95(10) 90.6439 39.5358
14381 67.9881 95(10) 90.6992 39.5484
14382 67.9921 95(10) 90.7607 39.5610
14383 67.9961 95(10) 90.8285 39.5736
14384 68.0002 94(10) 90.9022 39.5864
14385 68.0042 94(10) 90.9819 39.5992
14386 68.0082 94(10) 91.0677 39.6121
14387 68.0123 94(10) 91.1593 39.6251
14388 68.0163 94(10) 91.2566 39.6381
14389 68.0203 94(10) 91.3597 39.6513
14390 68.0244 94(10) 91.4682 39.6645
14391 68.0284 94(10) 91.5820 39.6778
14392 68.0324 94(10) 91.7011 39.6911
14393 68.0364 94(10) 91.8249 39.7046
14394 68.0405 94(10) 91.9534 39.7180
14395 68.0445 94(10) 92.0866 39.7316
14396 68.0485 94(10) 92.2236 39.7453
14397 68.0526 94(10) 92.3646 39.7590
14398 68.0566 94(10) 92.5094 39.7728
14399 68.0606 94(10) 92.6586 39.7867
14400 68.0647 94(10) 92.8094 39.8006
14401 68.0687 94(10) 92.9625 39.8147
14402 68.0727 94(10) 93.1177 39.8288
14403 68.0768 94(10) 93.2748 39.8430
14404 68.0808 94(10) 93.4329 39.8573
14405 68.0848 94(10) 93.5918 39.8716
14406 68.0889 94(10) 93.7515 39.8860
14407 68.0929 94(10) 93.9109 39.9005
14408 68.0969 94(10) 94.0697 39.9151
14409 68.1009 94(10) 94.2279 39.9298
14410 68.1050 94(10) 94.3844 39.9445
14411 68.1090 94(10) 94.5389 39.9593
14412 68.1130 94(10) 94.6914 39.9742
14413 68.1171 94(10) 94.8408 39.9892
14414 68.1211 94(10) 94.9869 40.0042
14415 68.1251 94(10) 95.1294 40.0193
14416 68.1292 94(10) 95.2675 40.0345
14417 68.1332 94(10) 95.4010 40.0498
14418 68.1372 94(10) 95.5295 40.0651
14419 68.1413 94(10) 95.6523 40.0806
14420 68.1453 93(10) 95.7695 40.0961
14421 68.1493 93(10) 95.8801 40.1116
14422 68.1533 93(10) 95.9841 40.1273
14423 68.1574 93(10) 96.0812 40.1431
14424 68.1614 93(10) 96.1708 40.1589
14425 68.1654 93(10) 96.2529 40.1748
14426 68.1695 93(10) 96.3272 40.1908
14427 68.1735 93(10) 96.3932 40.2068
14428 68.1775 93(10) 96.4628 40.2230
14429 68.1816 93(10) 96.5120 40.2392
14430 68.1856 93(10) 96.5525 40.2555
14431 68.1896 93(10) 96.5841 40.2719
14432 68.1937 93(10) 96.6069 40.2884
14433 68.1977 93(10) 96.6206 40.3049
14434 68.2017 93(10) 96.6253 40.3215
14435 68.2057 93(10) 96.6210 40.3383
14436 68.2098 93(10) 96.6076 40.3550
14437 68.2138 93(10) 96.5853 40.3719
14438 68.2178 93(10) 96.5541 40.3889
14439 68.2219 93(10) 96.5150 40.4058
14440 68.2259 93(10) 96.4663 40.4230
14441 68.2299 93(10) 96.4092 40.4402
14442 68.2340 94(10) 96.3438 40.4574
14443 68.2380 94(10) 96.2701 40.4748
14444 68.2420 94(10) 96.1887 40.4922
14445 68.2461 94(10) 96.0996 40.5098
14446 68.2501 94(10) 96.0029 40.5274
14447 68.2541 94(10) 95.8991 40.5450
14448 68.2581 94(10) 95.7884 40.5627
14449 68.2622 94(10) 95.6709 40.5807
14450 68.2662 94(10) 95.5471 40.5986
14451 68.2702 94(10) 95.4173 40.6165
14452 68.2743 94(10) 95.2814 40.6347
14453 68.2783 95(10) 95.1403 40.6529
14454 68.2823 95(10) 94.9939 40.6711
14455 68.2864 95(10) 94.8423 40.6895
14456 68.2904 95(10) 94.6862 40.7079
14457 68.2944 95(10) 94.5255 40.7264
14458 68.2985 95(10) 94.3610 40.7450
14459 68.3025 95(10) 94.1925 40.7637
14460 68.3065 95(10) 94.0202 40.7824
14461 68.3106 95(10) 93.8447 40.8013
14462 68.3146 95(10) 93.6661 40.8201
14463 68.3186 95(10) 93.4843 40.8392
14464 68.3226 95(10) 93.3000 40.8583
14465 68.3267 95(10) 93.1132 40.8775
14466 68.3307 95(10) 92.9237 40.8968
14467 68.3347 96(10) 92.7324 40.9160
14468 68.3388 96(10) 92.5452 40.9355
14469 68.3428 96(10) 92.3498 40.9550
14470 68.3468 96(10) 92.1531 40.9746
14471 68.3509 96(10) 91.9549 40.9943
14472 68.3549 96(10) 91.7550 41.0141
14473 68.3589 96(10) 91.5542 41.0340
14474 68.3630 96(10) 91.3524 41.0539
14475 68.3670 96(10) 91.1490 41.0739
14476 68.3710 96(10) 90.9453 41.0940
14477 68.3751 96(10) 90.7404 41.1143
14478 68.3791 96(10) 90.5353 41.1345
14479 68.3831 96(10) 90.3297 41.1549
14480 68.3871 96(10) 90.1232 41.1754
14481 68.3912 96(10) 89.9169 41.1959
14482 68.3952 95(10) 89.7103 41.2166
14483 68.3992 95(10) 89.5033 41.2373
14484 68.4033 95(10) 89.2967 41.2580
14485 68.4073 95(10) 89.0903 41.2790
14486 68.4113 95(10) 88.8837 41.3000
14487 68.4154 95(10) 88.6931 41.3210
14488 68.4194 95(10) 88.4878 41.3421
14489 68.4234 94(10) 88.2828 41.3634
14490 68.4275 94(10) 88.0947 41.3847
14491 68.4315 94(10) 87.8918 41.4061
14492 68.4355 94(10) 87.6894 41.4276
14493 68.4395 94(10) 87.4887 41.4492
14494 68.4436 93(10) 87.2888 41.4709
14495 68.4476 93(10) 87.0908 41.4927
14496 68.4516 93(10) 86.8943 41.5146
14497 68.4557 93(10) 86.6991 41.5365
14498 68.4597 93(10) 86.5061 41.5585
14499 68.4637 92(10) 86.3151 41.5807
14500 68.4678 92(10) 86.1258 41.6028
14501 68.4718 92(10) 85.9392 41.6251
14502 68.4758 92(10) 85.7550 41.6476
14503 68.4799 92(10) 85.5727 41.6700
14504 68.4839 91(10) 85.3935 41.6926
14505 68.4879 91(10) 85.2170 41.7152
14506 68.4920 91(10) 85.0430 41.7380
14507 68.4960 91(10) 84.8724 41.7609
14508 68.5000 90(9) 84.7047 41.7837
14509 68.5040 90(9) 84.5399 41.8068
14510 68.5081 90(9) 84.3787 41.8299
14511 68.5121 90(9) 84.2209 41.8531
14512 68.5161 90(9) 84.0660 41.8764
14513 68.5202 89(9) 83.9149 41.8997
14514 68.5242 89(9) 83.7672 41.9232
14515 68.5282 89(9) 83.6232 41.9468
14516 68.5323 89(9) 83.4829 41.9704
14517 68.5363 89(9) 83.3461 41.9942
14518 68.5403 89(9) 83.2132 42.0180
14519 68.5443 88(9) 83.0840 42.0419
14520 68.5484 88(9) 82.9584 42.0660
14521 68.5524 88(9) 82.8366 42.0900
14522 68.5564 88(9) 82.7187 42.1143
14523 68.5605 88(9) 82.6044 42.1386
14524 68.5645 88(9) 82.4939 42.1629
14525 68.5685 88(9) 82.3871 42.1873
14526 68.5726 88(9) 82.2838 42.2120
14527 68.5766 87(9) 82.1919 42.2366
14528 68.5806 87(9) 82.0961 42.2614
14529 68.5847 87(9) 82.0036 42.2863
14530 68.5887 87(9) 81.9226 42.3112
14531 68.5927 87(9) 81.8585 42.3362
14532 68.5968 87(9) 81.7765 42.3614
14533 68.6008 87(9) 81.6978 42.3865
14534 68.6048 87(9) 81.6223 42.4119
14535 68.6088 87(9) 81.5500 42.4373
14536 68.6129 87(9) 81.4807 42.4628
14537 68.6169 87(9) 81.4144 42.4884
14538 68.6209 87(9) 81.3510 42.5141
14539 68.6250 87(9) 81.2904 42.5399
14540 68.6290 88(9) 81.2324 42.5658
14541 68.6330 88(9) 81.1771 42.5917
14542 68.6371 88(9) 81.1244 42.6178
14543 68.6411 88(9) 81.0739 42.6439
14544 68.6451 88(9) 81.0260 42.6702
14545 68.6492 88(9) 80.9801 42.6965
14546 68.6532 88(9) 80.9364 42.7231
14547 68.6572 88(9) 80.8947 42.7496
14548 68.6612 88(9) 80.8549 42.7762
14549 68.6653 88(9) 80.8168 42.8029
14550 68.6693 88(9) 80.7806 42.8297
14551 68.6733 88(9) 80.7458 42.8567
14552 68.6774 88(9) 80.7126 42.8837
14553 68.6814 88(9) 80.6809 42.9108
14554 68.6854 88(9) 80.6503 42.9380
14555 68.6895 88(9) 80.6345 42.9653
14556 68.6935 88(9) 80.6063 42.9927
14557 68.6975 88(9) 80.5791 43.0202
14558 68.7016 88(9) 80.5529 43.0478
14559 68.7056 88(9) 80.5277 43.0755
14560 68.7096 88(9) 80.5030 43.1033
14561 68.7137 88(9) 80.4790 43.1312
14562 68.7177 88(9) 80.4557 43.1592
14563 68.7217 88(9) 80.4328 43.1873
14564 68.7257 88(9) 80.4104 43.2155
14565 68.7298 88(9) 80.3323 43.2437
14566 68.7338 87(9) 80.3105 43.2722
14567 68.7378 87(9) 80.2890 43.3006
14568 68.7419 87(9) 80.2675 43.3292
14569 68.7459 87(9) 80.2462 43.3578
14570 68.7499 87(9) 80.2249 43.3866
14571 68.7540 87(9) 80.2036 43.4155
14572 68.7580 87(9) 80.1929 43.4445
14573 68.7620 87(9) 80.1713 43.4735
14574 68.7661 87(9) 80.1495 43.5027
14575 68.7701 87(9) 80.1275 43.5320
14576 68.7741 87(9) 80.1053 43.5613
14577 68.7782 87(9) 80.0826 43.5908
14578 68.7822 87(9) 80.0596 43.6204
14579 68.7862 87(9) 80.0362 43.6500
14580 68.7902 87(9) 80.0123 43.6797
14581 68.7943 87(9) 79.9881 43.7097
14582 68.7983 88(9) 79.9633 43.7396
14583 68.8023 88(9) 79.9379 43.7696
14584 68.8064 88(9) 79.9121 43.7998
14585 68.8104 88(9) 79.8857 43.8301
14586 68.8144 88(9) 79.8586 43.8605
14587 68.8185 88(9) 79.8286 43.8909
14588 68.8225 88(9) 79.8003 43.9215
14589 68.8265 88(9) 79.7715 43.9521
14590 68.8306 88(9) 79.7420 43.9829
14591 68.8346 88(9) 79.7120 44.0139
14592 68.8386 88(9) 79.6813 44.0449
14593 68.8426 88(9) 79.6499 44.0759
14594 68.8467 88(9) 79.6212 44.1071
14595 68.8507 88(9) 79.5952 44.1383
14596 68.8547 88(9) 79.5620 44.1697
14597 68.8588 88(9) 79.5295 44.2012
14598 68.8628 88(9) 79.4950 44.2328
14599 68.8668 88(9) 79.4599 44.2644
14600 68.8709 88(9) 79.4241 44.2963
14601 68.8749 88(9) 79.3878 44.3281
14602 68.8789 88(9) 79.3118 44.3602
14603 68.8830 88(9) 79.2743 44.3923
14604 68.8870 88(9) 79.2364 44.4244
14605 68.8910 88(9) 79.1979 44.4568
14606 68.8951 88(9) 79.1590 44.4892
14607 68.8991 88(9) 79.1196 44.5217
14608 68.9031 88(9) 79.0797 44.5544
14609 68.9071 88(9) 79.0395 44.5871
14610 68.9112 88(9) 78.9989 44.6200
14611 68.9152 88(9) 78.9577 44.6528
14612 68.9192 88(9) 78.9165 44.6859
14613 68.9233 88(9) 78.8748 44.7190
14614 68.9273 88(9) 78.8364 44.7523
14615 68.9313 87(9) 78.7942 44.7856
14616 68.9354 87(9) 78.7240 44.8191
14617 68.9394 87(9) 78.6814 44.8527
14618 68.9434 87(9) 78.6387 44.8863
14619 68.9474 87(9) 78.5959 44.9201
14620 68.9515 87(9) 78.5529 44.9540
14621 68.9555 87(9) 78.5101 44.9880
14622 68.9595 87(9) 78.4738 45.0220
14623 68.9636 87(9) 78.4309 45.0563
14624 68.9676 87(9) 78.3882 45.0906
14625 68.9716 87(9) 78.3455 45.1251
14626 68.9757 87(9) 78.3030 45.1595
14627 68.9797 86(9) 78.2607 45.1942
14628 68.9837 86(9) 78.2186 45.2289
14629 68.9878 86(9) 78.1769 45.2638
14630 68.9918 86(9) 78.1354 45.2986
14631 68.9958 86(9) 78.0943 45.3338
14632 68.9999 86(9) 78.0537 45.3689
14633 69.0039 86(9) 78.0136 45.4042
14634 69.0079 86(9) 77.9755 45.4396
14635 69.0119 86(9) 77.9364 45.4750
14636 69.0160 86(9) 77.8978 45.5106
14637 69.0200 86(9) 77.8606 45.5463
14638 69.0240 86(9) 77.8222 45.5822
14639 69.0281 86(9) 77.7857 45.6181
14640 69.0321 86(9) 77.7499 45.6541
14641 69.0361 86(9) 77.7150 45.6903
14642 69.0402 86(9) 77.6808 45.7265
14643 69.0442 86(9) 77.6476 45.7628
14644 69.0482 86(9) 77.6155 45.7993
14645 69.0523 85(9) 77.5841 45.8360
14646 69.0563 85(9) 77.5538 45.8725
14647 69.0603 86(9) 77.5248 45.9094
14648 69.0644 86(9) 77.4966 45.9463
14649 69.0684 86(9) 77.4697 45.9833
14650 69.0724 86(9) 77.4441 46.0205
14651 69.0764 86(9) 77.4196 46.0577
14652 69.0805 86(9) 77.3963 46.0950
14653 69.0845 86(9) 77.3550 46.1325
14654 69.0885 86(9) 77.3345 46.1701
14655 69.0926 86(9) 77.3172 46.2077
14656 69.0966 86(9) 77.2996 46.2456
14657 69.1006 86(9) 77.2834 46.2835
14658 69.1047 86(9) 77.2686 46.3214
14659 69.1087 86(9) 77.2555 46.3596
14660 69.1127 86(9) 77.2439 46.3979
14661 69.1168 86(9) 77.2340 46.4362
14662 69.1208 86(9) 77.2288 46.4747
14663 69.1248 86(9) 77.2222 46.5133
14664 69.1288 86(9) 77.2171 46.5519
14665 69.1329 86(9) 77.2138 46.5907
14666 69.1369 86(9) 77.2123 46.6296
14667 69.1409 86(9) 77.2125 46.6686
14668 69.1450 87(9) 77.2144 46.7078
14669 69.1490 87(9) 77.2182 46.7470
14670 69.1530 87(9) 77.2238 46.7864
14671 69.1571 87(9) 77.2313 46.8260
14672 69.1611 87(9) 77.2462 46.8655
14673 69.1651 87(9) 77.2572 46.9052
14674 69.1692 87(9) 77.2701 46.9450
14675 69.1732 87(9) 77.2850 46.9850
14676 69.1772 88(9) 77.3016 47.0250
14677 69.1813 88(9) 77.3200 47.0652
14678 69.1853 88(9) 77.3403 47.1054
14679 69.1893 88(9) 77.3625 47.1459
14680 69.1933 88(9) 77.3864 47.1864
14681 69.1974 88(9) 77.4122 47.2270
14682 69.2014 88(9) 77.4398 47.2678
14683 69.2054 89(9) 77.4689 47.3086
14684 69.2095 89(9) 77.4999 47.3496
14685 69.2135 89(9) 77.5326 47.3907
14686 69.2175 89(9) 77.5670 47.4319
14687 69.2216 89(9) 77.6029 47.4732
14688 69.2256 89(9) 77.6404 47.5147
14689 69.2296 89(9) 77.6794 47.5562
14690 69.2337 89(9) 77.7199 47.5978
14691 69.2377 90(9) 77.7618 47.6397
14692 69.2417 90(9) 77.8051 47.6816
14693 69.2457 90(9) 77.8496 47.7236
14694 69.2498 90(9) 77.8953 47.7657
14695 69.2538 90(9) 77.9422 47.8080
14696 69.2578 90(9) 77.9902 47.8504
14697 69.2619 90(9) 78.0392 47.8929
14698 69.2659 90(9) 78.0890 47.9355
14699 69.2699 90(9) 78.1397 47.9783
14700 69.2740 90(9) 78.1910 48.0211
14701 69.2780 90(9) 78.2430 48.0640
14702 69.2820 90(9) 78.2956 48.1071
14703 69.2861 90(9) 78.3486 48.1503
14704 69.2901 90(9) 78.4018 48.1936
14705 69.2941 90(9) 78.4555 48.2371
14706 69.2981 90(9) 78.5092 48.2807
14707 69.3022 90(9) 78.5629 48.3243
14708 69.3062 90(9) 78.6166 48.3682
14709 69.3102 90(9) 78.6700 48.4120
14710 69.3143 90(9) 78.7232 48.4561
14711 69.3183 90(9) 78.7761 48.5003
14712 69.3223 90(9) 78.8311 48.5445
14713 69.3264 90(9) 78.8828 48.5889
14714 69.3304 90(9) 78.9338 48.6335
14715 69.3344 90(9) 78.9840 48.6781
14716 69.3385 89(9) 79.0334 48.7230
14717 69.3425 89(9) 79.0817 48.7678
14718 69.3465 89(9) 79.1289 48.8127
14719 69.3506 89(9) 79.1750 48.8579
14720 69.3546 89(9) 79.2198 48.9032
14721 69.3586 89(9) 79.2632 48.9485
14722 69.3626 89(9) 79.3054 48.9941
14723 69.3667 89(9) 79.3460 49.0397
14724 69.3707 89(9) 79.3849 49.0854
14725 69.3747 89(9) 79.4223 49.1312
14726 69.3788 89(9) 79.4581 49.1772
14727 69.3828 89(9) 79.4922 49.2232
14728 69.3868 89(9) 79.5247 49.2696
14729 69.3909 89(9) 79.5553 49.3159
14730 69.3949 88(9) 79.5891 49.3623
14731 69.3989 88(9) 79.6162 49.4090
14732 69.4030 88(9) 79.6413 49.4557
14733 69.4070 88(9) 79.6646 49.5025
14734 69.4110 88(9) 79.6861 49.5495
14735 69.4150 88(9) 79.7057 49.5966
14736 69.4191 88(9) 79.7235 49.6439
14737 69.4231 88(9) 79.7394 49.6912
14738 69.4271 88(9) 79.7535 49.7386
14739 69.4312 88(9) 79.7659 49.7863
14740 69.4352 88(9) 79.7765 49.8339
14741 69.4392 88(9) 79.7854 49.8818
14742 69.4433 88(9) 79.7926 49.9297
14743 69.4473 88(9) 79.7997 49.9779
14744 69.4513 88(9) 79.8036 50.0261
14745 69.4554 88(9) 79.8061 50.0745
14746 69.4594 88(9) 79.8070 50.1229
14747 69.4634 88(9) 79.8066 50.1714
14748 69.4675 88(9) 79.8047 50.2202
14749 69.4715 87(9) 79.8017 50.2690
14750 69.4755 87(9) 79.7973 50.3180
14751 69.4795 87(9) 79.7917 50.3672
14752 69.4836 87(9) 79.7850 50.4164
14753 69.4876 87(9) 79.7774 50.4657
14754 69.4916 87(9) 79.7685 50.5151
14755 69.4957 87(9) 79.7590 50.5648
14756 69.4997 87(9) 79.7485 50.6145
14757 69.5037 87(9) 79.7372 50.6643
14758 69.5078 87(9) 79.7254 50.7144
14759 69.5118 87(9) 79.7128 50.7646
14760 69.5158 87(9) 79.6997 50.8147
14761 69.5199 87(9) 79.6861 50.8651
14762 69.5239 87(9) 79.6720 50.9156
14763 69.5279 87(9) 79.6576 50.9662
14764 69.5319 87(9) 79.6430 51.0170
14765 69.5360 87(9) 79.6281 51.0680
14766 69.5400 87(9) 79.6131 51.1190
14767 69.5440 87(9) 79.5980 51.1700
14768 69.5481 87(9) 79.5830 51.2214
14769 69.5521 87(9) 79.5680 51.2727
14770 69.5561 87(9) 79.5533 51.3243
14771 69.5602 87(9) 79.5413 51.3760
14772 69.5642 87(9) 79.5269 51.4278
14773 69.5682 87(9) 79.5131 51.4798
14774 69.5723 87(9) 79.4997 51.5319
14775 69.5763 87(9) 79.4868 51.5840
14776 69.5803 87(9) 79.4745 51.6364
14777 69.5844 87(9) 79.4630 51.6888
14778 69.5884 87(9) 79.4522 51.7413
14779 69.5924 87(9) 79.4423 51.7941
14780 69.5964 86(9) 79.4334 51.8469
14781 69.6005 86(9) 79.4255 51.8999
14782 69.6045 86(9) 79.4188 51.9531
14783 69.6085 86(9) 79.4133 52.0063
14784 69.6126 86(9) 79.4125 52.0597
14785 69.6166 86(9) 79.4097 52.1132
14786 69.6206 86(9) 79.4085 52.1669
14787 69.6247 86(9) 79.4050 52.2206
14788 69.6287 86(9) 79.4070 52.2745
14789 69.6327 86(9) 79.4110 52.3286
14790 69.6367 85(9) 79.4168 52.3828
14791 69.6408 85(9) 79.4245 52.4370
14792 69.6448 85(9) 79.4344 52.4915
14793 69.6488 85(9) 79.4466 52.5462
14794 69.6529 85(9) 79.4610 52.6009
14795 69.6569 85(9) 79.4778 52.6557
14796 69.6609 85(9) 79.4971 52.7108
14797 69.6650 85(9) 79.5189 52.7657
14798 69.6690 85(9) 79.5435 52.8210
14799 69.6730 85(9) 79.5710 52.8765
14800 69.6771 85(9) 79.6012 52.9319
14801 69.6811 85(9) 79.6345 52.9875
14802 69.6851 85(9) 79.6709 53.0435
14803 69.6892 85(9) 79.7307 53.0993
14804 69.6932 85(9) 79.7734 53.1554
14805 69.6972 85(9) 79.8196 53.2117
14806 69.7012 85(9) 79.8689 53.2679
14807 69.7053 85(9) 79.9218 53.3244
14808 69.7093 85(9) 79.9782 53.3811
14809 69.7133 85(9) 80.0382 53.4378
14810 69.7174 85(9) 80.1018 53.4948
14811 69.7214 85(9) 80.1691 53.5518
14812 69.7254 86(9) 80.2400 53.6089
14813 69.7295 86(9) 80.3149 53.6663
14814 69.7335 86(9) 80.3934 53.7237
14815 69.7375 86(9) 80.4756 53.7812
14816 69.7416 86(9) 80.5619 53.8390
14817 69.7456 86(9) 80.6518 53.8968
14818 69.7496 86(9) 80.7455 53.9548
14819 69.7537 86(9) 80.8432 54.0130
14820 69.7577 86(9) 80.9445 54.0712
14821 69.7617 86(9) 81.0494 54.1295
14822 69.7657 86(9) 81.1585 54.1882
14823 69.7698 86(9) 81.2709 54.2469
14824 69.7738 86(9) 81.3882 54.3056
14825 69.7778 85(9) 81.5080 54.3647
14826 69.7819 85(9) 81.6310 54.4237
14827 69.7859 85(9) 81.7573 54.4829
14828 69.7899 85(9) 81.8873 54.5424
14829 69.7940 85(9) 82.0201 54.6019
14830 69.7980 85(9) 82.1562 54.6616
14831 69.8020 85(9) 82.2951 54.7214
14832 69.8061 85(9) 82.4367 54.7813
14833 69.8101 85(9) 82.5812 54.8415
14834 69.8141 85(9) 82.7280 54.9017
14835 69.8181 85(9) 82.8771 54.9620
14836 69.8222 85(9) 83.0287 55.0226
14837 69.8262 85(9) 83.1821 55.0833
14838 69.8302 85(9) 83.3371 55.1440
14839 69.8343 85(9) 83.4922 55.2050
14840 69.8383 85(9) 83.6503 55.2661
14841 69.8423 84(9) 83.8096 55.3272
14842 69.8464 84(9) 83.9702 55.3887
14843 69.8504 84(9) 84.1414 55.4502
14844 69.8544 84(9) 84.3031 55.5118
14845 69.8585 84(9) 84.4654 55.5737
14846 69.8625 84(9) 84.6274 55.6356
14847 69.8665 84(9) 84.7896 55.6977
14848 69.8706 84(9) 84.9513 55.7599
14849 69.8746 85(9) 85.1123 55.8223
14850 69.8786 85(9) 85.2728 55.8849
14851 69.8826 85(9) 85.4320 55.9475
14852 69.8867 85(9) 85.5898 56.0103
14853 69.8907 85(9) 85.7465 56.0732
14854 69.8947 85(9) 85.9012 56.1364
14855 69.8988 85(9) 86.0540 56.1996
14856 69.9028 85(9) 86.2049 56.2630
14857 69.9068 85(9) 86.3532 56.3265
14858 69.9109 85(9) 86.4989 56.3901
14859 69.9149 86(9) 86.6423 56.4541
14860 69.9189 86(9) 86.7825 56.5180
14861 69.9230 86(9) 86.9197 56.5821
14862 69.9270 86(9) 87.0539 56.6465
14863 69.9310 86(9) 87.1845 56.7108
14864 69.9350 86(9) 87.3117 56.7754
14865 69.9391 87(9) 87.4354 56.8401
14866 69.9431 87(9) 87.5554 56.9049
14867 69.9471 87(9) 87.6718 56.9700
14868 69.9512 87(9) 87.7841 57.0352
14869 69.9552 87(9) 87.8925 57.1005
14870 69.9592 87(9) 87.9972 57.1660
14871 69.9633 88(9) 88.0976 57.2315
14872 69.9673 88(9) 88.1941 57.2972
14873 69.9713 88(9) 88.2866 57.3632
14874 69.9754 88(9) 88.3750 57.4292
14875 69.9794 88(9) 88.4595 57.4954
14876 69.9834 88(9) 88.5400 57.5617
14877 69.9874 88(9) 88.6165 57.6282
14878 69.9915 88(9) 88.6892 57.6948
14879 69.9955 88(9) 88.7581 57.7617
14880 69.9995 88(9) 88.8232 57.8286
14881 70.0036 88(9) 88.8846 57.8957
14882 70.0076 88(9) 88.9425 57.9630
14883 70.0116 88(9) 88.9968 58.0303
14884 70.0157 88(9) 89.0479 58.0980
14885 70.0197 88(9) 89.0955 58.1656
14886 70.0237 88(9) 89.1401 58.2333
14887 70.0278 88(9) 89.1817 58.3015
14888 70.0318 88(9) 89.2182 58.3696
14889 70.0358 88(9) 89.2540 58.4378
14890 70.0399 88(9) 89.2872 58.5065
14891 70.0439 88(9) 89.3176 58.5749
14892 70.0479 88(9) 89.3458 58.6437
14893 70.0519 88(9) 89.3715 58.7127
14894 70.0560 88(9) 89.3950 58.7817
14895 70.0600 88(9) 89.4165 58.8509
14896 70.0640 87(9) 89.4361 58.9203
14897 70.0681 87(9) 89.4537 58.9898
14898 70.0721 87(9) 89.4697 59.0594
14899 70.0761 87(9) 89.4841 59.1294
14900 70.0802 87(9) 89.4968 59.1992
14901 70.0842 87(9) 89.5083 59.2694
14902 70.0882 87(9) 89.5184 59.3398
14903 70.0923 87(9) 89.5318 59.4101
14904 70.0963 87(9) 89.5414 59.4809
14905 70.1003 87(9) 89.5481 59.5516
14906 70.1043 87(9) 89.5537 59.6225
14907 70.1084 87(9) 89.5585 59.6937
14908 70.1124 87(9) 89.5624 59.7648
14909 70.1164 87(9) 89.5656 59.8361
14910 70.1205 87(9) 89.5683 59.9078
14911 70.1245 87(9) 89.5702 59.9795
14912 70.1285 87(9) 89.5715 60.0511
14913 70.1326 87(9) 89.5725 60.1233
14914 70.1366 87(9) 89.5730 60.1954
14915 70.1406 87(9) 89.5731 60.2677
14916 70.1447 87(9) 89.5730 60.3403
14917 70.1487 87(9) 89.5726 60.4129
14918 70.1527 87(9) 89.5720 60.4856
14919 70.1568 87(9) 89.5714 60.5587
14920 70.1608 87(9) 89.5707 60.6318
14921 70.1648 87(9) 89.5697 60.7050
14922 70.1688 87(9) 89.5691 60.7785
14923 70.1729 87(9) 89.5685 60.8520
14924 70.1769 87(9) 89.5681 60.9258
14925 70.1809 87(9) 89.5679 60.9997
14926 70.1850 87(9) 89.5680 61.0737
14927 70.1890 87(9) 89.5684 61.1479
14928 70.1930 87(9) 89.5693 61.2223
14929 70.1971 87(9) 89.5707 61.2969
14930 70.2011 88(9) 89.5725 61.3716
14931 70.2051 88(9) 89.5750 61.4464
14932 70.2092 88(9) 89.5782 61.5214
14933 70.2132 88(9) 89.5821 61.5966
14934 70.2172 88(9) 89.5868 61.6719
14935 70.2212 88(9) 89.5924 61.7474
14936 70.2253 88(9) 89.5989 61.8231
14937 70.2293 88(9) 89.6064 61.8990
14938 70.2333 88(9) 89.6149 61.9749
14939 70.2374 88(9) 89.6246 62.0511
14940 70.2414 88(9) 89.6345 62.1274
14941 70.2454 88(9) 89.6465 62.2039
14942 70.2495 88(9) 89.6600 62.2805
14943 70.2535 88(9) 89.6748 62.3573
14944 70.2575 88(9) 89.6932 62.4343
14945 70.2616 88(9) 89.7117 62.5114
14946 70.2656 88(9) 89.7308 62.5886
14947 70.2696 88(9) 89.7514 62.6661
14948 70.2737 88(9) 89.7737 62.7437
14949 70.2777 88(9) 89.7975 62.8215
14950 70.2817 88(9) 89.8230 62.8995
14951 70.2857 88(9) 89.8502 62.9775
14952 70.2898 88(9) 89.8792 63.0558
14953 70.2938 88(9) 89.9098 63.1343
14954 70.2978 88(9) 89.9422 63.2129
14955 70.3019 88(9) 89.9763 63.2916
14956 70.3059 88(9) 90.0124 63.3706
14957 70.3099 88(9) 90.0502 63.4497
14958 70.3140 88(9) 90.0897 63.5290
14959 70.3180 88(9) 90.1311 63.6084
14960 70.3220 88(9) 90.1742 63.6879
14961 70.3261 88(9) 90.2192 63.7678
14962 70.3301 88(9) 90.2659 63.8476
14963 70.3341 88(9) 90.3145 63.9277
14964 70.3382 88(9) 90.3648 64.0080
14965 70.3422 88(9) 90.4168 64.0884
14966 70.3462 88(9) 90.4705 64.1689
14967 70.3502 88(9) 90.5260 64.2498
14968 70.3543 88(9) 90.5831 64.3307
14969 70.3583 88(9) 90.6418 64.4117
14970 70.3623 88(9) 90.7021 64.4931
14971 70.3664 88(9) 90.7639 64.5745
14972 70.3704 88(9) 90.8273 64.6561
14973 70.3744 88(9) 90.8921 64.7378
14974 70.3785 88(9) 90.9584 64.8198
14975 70.3825 88(9) 91.0260 64.9019
14976 70.3865 88(9) 91.0951 64.9842
14977 70.3905 88(9) 91.1654 65.0666
14978 70.3946 88(9) 91.2371 65.1494
14979 70.3986 88(9) 91.3096 65.2320
14980 70.4026 88(9) 91.3835 65.3149
14981 70.4067 88(9) 91.4586 65.3983
14982 70.4107 88(9) 91.5345 65.4814
14983 70.4147 88(9) 91.6115 65.5648
14984 70.4188 87(9) 91.6896 65.6487
14985 70.4228 87(9) 91.7732 65.7323
14986 70.4268 87(9) 91.8528 65.8162
14987 70.4309 87(9) 91.9335 65.9006
14988 70.4349 87(9) 92.0144 65.9848
14989 70.4389 87(9) 92.0962 66.0692
14990 70.4430 87(9) 92.1788 66.1541
14991 70.4470 87(9) 92.2615 66.2388
14992 70.4510 87(9) 92.3449 66.3237
14993 70.4550 87(9) 92.4290 66.4091
14994 70.4591 87(9) 92.5132 66.4943
14995 70.4631 87(9) 92.5981 66.5800
14996 70.4671 87(9) 92.6830 66.6657
14997 70.4712 87(9) 92.7681 66.7515
14998 70.4752 87(9) 92.8538 66.8377
14999 70.4792 87(9) 92.9394 66.9239
15000 70.4833 87(9) 93.0250 67.0101
15001 70.4873 87(9) 93.1111 67.0969
15002 70.4913 87(9) 93.1970 67.1836
15003 70.4954 87(9) 93.2828 67.2704
15004 70.4994 87(9) 93.3690 67.3577
15005 70.5034 87(9) 93.4548 67.4449
15006 70.5074 87(9) 93.5405 67.5323
15007 70.5115 87(9) 93.6264 67.6201
15008 70.5155 87(9) 93.7118 67.7078
15009 70.5195 87(9) 93.7971 67.7957
15010 70.5236 88(9) 93.8824 67.8840
15011 70.5276 88(9) 93.9673 67.9723
15012 70.5316 88(9) 94.0519 68.0607
15013 70.5357 88(9) 94.1365 68.1496
15014 70.5397 88(9) 94.2207 68.2384
15015 70.5437 88(9) 94.3045 68.3275
15016 70.5478 88(9) 94.3880 68.4166
15017 70.5518 88(9) 94.4712 68.5060
15018 70.5558 88(9) 94.5542 68.5957
15019 70.5599 88(9) 94.6367 68.6854
15020 70.5639 88(9) 94.7189 68.7753
15021 70.5679 88(9) 94.8009 68.8655
15022 70.5719 88(9) 94.8849 68.9558
15023 70.5760 88(9) 94.9660 69.0462
15024 70.5800 88(9) 95.0469 69.1370
15025 70.5840 88(9) 95.1273 69.2278
15026 70.5881 88(9) 95.2099 69.3187
15027 70.5921 88(9) 95.2897 69.4100
15028 70.5961 88(9) 95.3692 69.5013
15029 70.6002 87(9) 95.4483 69.5929
15030 70.6042 87(9) 95.5271 69.6846
15031 70.6082 87(9) 95.6058 69.7766
15032 70.6123 87(9) 95.6839 69.8686
15033 70.6163 87(9) 95.7620 69.9609
15034 70.6203 87(9) 95.8397 70.0533
15035 70.6244 87(9) 95.9174 70.1461
15036 70.6284 87(9) 95.9992 70.2390
15037 70.6324 87(9) 96.0764 70.3319
15038 70.6364 87(9) 96.1535 70.4252
15039 70.6405 86(9) 96.2304 70.5185
15040 70.6445 86(9) 96.3072 70.6120
15041 70.6485 86(9) 96.3841 70.7059
15042 70.6526 86(9) 96.4608 70.7998
15043 70.6566 86(9) 96.5375 70.8938
15044 70.6606 86(9) 96.6144 70.9882
15045 70.6647 86(9) 96.6912 71.0826
15046 70.6687 86(9) 96.7682 71.1772
15047 70.6727 86(9) 96.8454 71.2722
15048 70.6768 86(9) 96.9226 71.3672
15049 70.6808 86(9) 97.0000 71.4623
15050 70.6848 86(9) 97.0778 71.5578
15051 70.6888 86(9) 97.1558 71.6534
15052 70.6929 86(9) 97.2343 71.7493
15053 70.6969 86(9) 97.3130 71.8452
15054 70.7009 86(9) 97.3922 71.9413
15055 70.7050 86(9) 97.4718 72.0376
15056 70.7090 86(9) 97.5520 72.1342
15057 70.7130 86(9) 97.6327 72.2309
15058 70.7171 86(9) 97.7139 72.3278
15059 70.7211 86(9) 97.7958 72.4248
15060 70.7251 86(9) 97.8783 72.5221
15061 70.7292 86(9) 97.9618 72.6196
15062 70.7332 86(9) 98.0458 72.7172
15063 70.7372 86(9) 98.1319 72.8150
15064 70.7412 86(9) 98.2178 72.9131
15065 70.7453 86(9) 98.3044 73.0113
15066 70.7493 86(9) 98.3920 73.1097
15067 70.7533 86(9) 98.4808 73.2084
15068 70.7574 85(9) 98.5705 73.3071
15069 70.7614 85(9) 98.6612 73.4060
15070 70.7654 85(9) 98.7532 73.5053
15071 70.7695 85(9) 98.8462 73.6046
15072 70.7735 85(9) 98.9407 73.7043
15073 70.7775 85(9) 99.0362 73.8039
15074 70.7816 85(9) 99.1330 73.9037
15075 70.7856 85(9) 99.2315 74.0041
15076 70.7896 85(9) 99.3310 74.1043
15077 70.7936 85(9) 99.4342 74.2047
15078 70.7977 85(9) 99.5369 74.3056
15079 70.8017 85(9) 99.6407 74.4063
15080 70.8057 85(9) 99.7462 74.5074
15081 70.8098 85(9) 99.8534 74.6088
15082 70.8138 85(9) 99.9618 74.7101
15083 70.8178 85(9) 100.0720 74.8116
15084 70.8219 85(9) 100.1841 74.9138
15085 70.8259 85(9) 100.2974 75.0156
15086 70.8299 85(9) 100.4125 75.1178
15087 70.8340 85(9) 100.5294 75.2204
15088 70.8380 85(9) 100.6477 75.3229
15089 70.8420 85(9) 100.7681 75.4259
15090 70.8461 85(9) 100.8899 75.5289
15091 70.8501 85(9) 101.0131 75.6319
15092 70.8541 85(9) 101.1385 75.7355
15093 70.8581 86(9) 101.2652 75.8391
15094 70.8622 86(9) 101.3934 75.9427
15095 70.8662 86(9) 101.5236 76.0469
15096 70.8702 86(9) 101.6551 76.1510
15097 70.8743 86(9) 101.7880 76.2552
15098 70.8783 86(9) 101.9228 76.3600
15099 70.8823 86(9) 102.0587 76.4647
15100 70.8864 86(9) 102.2059 76.5696
15101 70.8904 86(9) 102.3449 76.6749
loop_
_refln_index_h
_refln_index_k
_refln_index_l
_refln_mult
_pd_refln_phase_id
_refln_observed_status
_refln_F_squared_meas
_refln_F_squared_calc
_refln_phase_calc
_refln_d_spacing
0.00 0.00 1.00 2 1 o 0.0000 0.0000 0.00 7.27476
0.00 0.00 1.00 2 1 o 0.0000 0.0000 0.00 7.27476
1 0 1 4 1 o 0.0000 3405.4502 17.86 5.67479
1 0 1 4 1 o 0.0000 3405.4502 17.86 5.67479
0.00 -1.00 0.00 4 1 o 0.0000 0.0000 180.00 5.51771
0.00 -1.00 0.00 4 1 o 0.0000 0.0000 180.00 5.51771
-1.00 -1.00 0.00 8 1 o 0.0000 0.0000 0.00 4.71389
-1.00 -1.00 0.00 8 1 o 0.0000 0.0000 0.00 4.71389
2 0 0 2 1 o 0.0000 58324.1094 192.83 4.53478
2 0 0 2 1 o 0.0000 58324.1094 192.83 4.53478
0 1 1 4 1 o 0.0000 86730.3203 192.86 4.39622
0 1 1 4 1 o 0.0000 86730.3203 192.86 4.39622
1 1 1 8 1 o 0.0000 68061.7031 189.50 3.95598
1 1 1 8 1 o 0.0000 68061.7031 189.50 3.95598
2.00 0.00 1.00 2 1 o 0.0000 64010.0156 191.16 3.84832
-2.00 0.00 1.00 2 1 o 0.0000 64010.0039 11.16 3.84832
2.00 0.00 1.00 2 1 o 0.0000 64010.0156 191.16 3.84832
-2.00 0.00 1.00 2 1 o 0.0000 64010.0039 11.16 3.84832
0 0 2 2 1 o 0.0000 80119.0859 187.26 3.63738
0 0 2 2 1 o 0.0000 80119.0859 187.26 3.63738
2 1 0 4 1 o 0.0000 217152.8438 187.97 3.50340
2 1 0 4 1 o 0.0000 217152.8438 187.97 3.50340
1.00 0.00 2.00 4 1 o 0.0000 201658.6719 189.27 3.37599
1.00 0.00 2.00 4 1 o 0.0000 201658.6719 189.27 3.37599
2.00 1.00 1.00 4 1 o 0.0000 157796.0156 7.44 3.15645
-2.00 -1.00 1.00 4 1 o 0.0000 157796.0469 187.44 3.15645
2.00 1.00 1.00 4 1 o 0.0000 157796.0156 7.44 3.15645
-2.00 -1.00 1.00 4 1 o 0.0000 157796.0469 187.44 3.15645
0.00 1.00 2.00 4 1 o 0.0000 0.0000 180.00 3.03688
0.00 1.00 2.00 4 1 o 0.0000 0.0000 180.00 3.03688
-3.00 0.00 0.00 4 1 o 0.0000 0.0000 180.00 3.02319
-3.00 0.00 0.00 4 1 o 0.0000 0.0000 180.00 3.02319
1.00 1.00 2.00 8 1 o 0.0000 80794.4453 186.74 2.87973
1.00 1.00 2.00 8 1 o 0.0000 80794.4453 186.74 2.87973
2.00 0.00 2.00 4 1 o 0.0000 1528.2968 27.48 2.83740
2.00 0.00 2.00 4 1 o 0.0000 1528.2968 27.48 2.83740
3 0 1 4 1 o 0.0000 56447.7891 190.92 2.79172
3 0 1 4 1 o 0.0000 56447.7891 190.92 2.79172
0 2 0 2 1 o 0.0000 439731.7500 187.75 2.75886
0 2 0 2 1 o 0.0000 439731.7500 187.75 2.75886
-3.00 -1.00 0.00 8 1 o 0.0000 0.0000 180.00 2.65130
-3.00 -1.00 0.00 8 1 o 0.0000 0.0000 180.00 2.65130
-1.00 -2.00 0.00 8 1 o 0.0000 0.0000 180.00 2.63944
-1.00 -2.00 0.00 8 1 o 0.0000 0.0000 180.00 2.63944
0.00 2.00 1.00 2 1 o 0.0000 0.0000 0.00 2.57959
0.00 -2.00 1.00 2 1 o 0.0000 0.0000 180.00 2.57959
0.00 2.00 1.00 2 1 o 0.0000 0.0000 0.00 2.57959
0.00 -2.00 1.00 2 1 o 0.0000 0.0000 180.00 2.57959
2.00 1.00 2.00 8 1 o 0.0000 26006.3477 9.07 2.52331
2.00 1.00 2.00 8 1 o 0.0000 26006.3477 9.07 2.52331
3 1 1 8 1 o 0.0000 8074.2329 10.37 2.49102
3 1 1 8 1 o 0.0000 8074.2329 10.37 2.49102
1 2 1 8 1 o 0.0000 740.1863 220.56 2.48118
1 2 1 8 1 o 0.0000 740.1863 220.56 2.48118
0.00 0.00 3.00 2 1 o 0.0000 0.0000 180.00 2.42492
0.00 0.00 3.00 2 1 o 0.0000 0.0000 180.00 2.42492
2 2 0 4 1 o 0.0000 79376.2266 11.04 2.35694
2 2 0 4 1 o 0.0000 79376.2266 11.04 2.35694
1.00 0.00 3.00 4 1 o 0.0000 33256.5000 189.78 2.34263
1.00 0.00 3.00 4 1 o 0.0000 33256.5000 189.78 2.34263
3.00 0.00 2.00 4 1 o 0.0000 35855.1602 7.56 2.32498
3.00 0.00 2.00 4 1 o 0.0000 35855.1602 7.56 2.32498
4 0 0 2 1 o 0.0000 6247.6772 183.74 2.26739
4 0 0 2 1 o 0.0000 6247.6772 183.74 2.26739
2.00 2.00 1.00 4 1 o 0.0000 84984.3281 9.74 2.24220
-2.00 -2.00 1.00 4 1 o 0.0000 84984.2266 189.74 2.24220
2.00 2.00 1.00 4 1 o 0.0000 84984.3281 9.74 2.24220
-2.00 -2.00 1.00 4 1 o 0.0000 84984.2266 189.74 2.24220
0 1 3 4 1 o 0.0000 10781.8984 191.58 2.21999
0 1 3 4 1 o 0.0000 10781.8984 191.58 2.21999
0 2 2 4 1 o 0.0000 39896.2383 10.23 2.19811
0 2 2 4 1 o 0.0000 39896.2383 10.23 2.19811
4.00 0.00 1.00 2 1 o 0.0000 239627.4844 8.71 2.16468
-4.00 0.00 1.00 2 1 o 0.0000 239627.5625 188.71 2.16468
4.00 0.00 1.00 2 1 o 0.0000 239627.4844 8.71 2.16468
-4.00 0.00 1.00 2 1 o 0.0000 239627.5625 188.71 2.16468
1.00 1.00 3.00 8 1 o 0.0000 205738.0469 9.57 2.15633
1.00 1.00 3.00 8 1 o 0.0000 205738.0469 9.57 2.15633
3.00 1.00 2.00 8 1 o 0.0000 187014.9688 9.75 2.14254
2.00 0.00 3.00 4 1 o 0.0000 13503.9688 187.40 2.13839
3.00 1.00 2.00 8 1 o 0.0000 187014.9688 9.75 2.14254
1.00 2.00 2.00 8 1 o 0.0000 188016.7812 9.63 2.13627
2.00 0.00 3.00 4 1 o 0.0000 13503.9688 187.40 2.13839
1.00 2.00 2.00 8 1 o 0.0000 188016.7812 9.63 2.13627
4 1 0 4 1 o 0.0000 198709.1719 10.42 2.09722
4 1 0 4 1 o 0.0000 198709.1719 10.42 2.09722
-3.00 -2.00 0.00 8 1 o 0.0000 0.0000 0.00 2.03786
-3.00 -2.00 0.00 8 1 o 0.0000 0.0000 0.00 2.03786
4.00 1.00 1.00 4 1 o 0.0000 1066.1483 12.05 2.01515
-4.00 -1.00 1.00 4 1 o 0.0000 1066.1357 192.05 2.01515
4.00 1.00 1.00 4 1 o 0.0000 1066.1483 12.05 2.01515
-4.00 -1.00 1.00 4 1 o 0.0000 1066.1357 192.05 2.01515
2.00 1.00 3.00 8 1 o 0.0000 363.4281 27.93 1.99389
2.00 1.00 3.00 8 1 o 0.0000 363.4281 27.93 1.99389
2.00 2.00 2.00 8 1 o 0.0000 4752.9995 195.33 1.97799
2.00 2.00 2.00 8 1 o 0.0000 4752.9995 195.33 1.97799
3 2 1 8 1 o 0.0000 52218.9609 11.37 1.96232
3 2 1 8 1 o 0.0000 52218.9609 11.37 1.96232
4.00 0.00 2.00 4 1 o 0.0000 1723.7190 179.11 1.92416
4.00 0.00 2.00 4 1 o 0.0000 1723.7190 179.11 1.92416
3.00 0.00 3.00 4 1 o 0.0000 218687.2344 9.83 1.89160
3.00 0.00 3.00 4 1 o 0.0000 218687.2344 9.83 1.89160
0.00 -3.00 0.00 4 1 o 0.0000 0.0000 180.00 1.83924
0.00 -3.00 0.00 4 1 o 0.0000 0.0000 180.00 1.83924
0.00 2.00 3.00 4 1 o 0.0000 0.0000 180.00 1.82136
0 0 4 2 1 o 0.0000 97666.6719 190.70 1.81869
4.00 1.00 2.00 8 1 o 0.0000 7840.5586 198.24 1.81686
0.00 2.00 3.00 4 1 o 0.0000 0.0000 180.00 1.82136
0 0 4 2 1 o 0.0000 97666.6719 190.70 1.81869
-5.00 0.00 0.00 4 1 o 0.0000 0.0000 0.00 1.81391
4.00 1.00 2.00 8 1 o 0.0000 7840.5586 198.24 1.81686
-5.00 0.00 0.00 4 1 o 0.0000 0.0000 0.00 1.81391
-1.00 -3.00 0.00 8 1 o 0.0000 0.0000 180.00 1.80255
-1.00 -3.00 0.00 8 1 o 0.0000 0.0000 180.00 1.80255
3.00 1.00 3.00 8 1 o 0.0000 22490.6172 191.15 1.78937
1.00 2.00 3.00 8 1 o 0.0000 11292.4678 16.69 1.78571
3.00 1.00 3.00 8 1 o 0.0000 22490.6172 191.15 1.78937
1.00 0.00 4.00 4 1 o 0.0000 74707.0703 11.52 1.78319
0 3 1 4 1 o 0.0000 80704.6172 13.37 1.78313
1.00 2.00 3.00 8 1 o 0.0000 11292.4678 16.69 1.78571
1.00 0.00 4.00 4 1 o 0.0000 74707.0703 11.52 1.78319
0 3 1 4 1 o 0.0000 80704.6172 13.37 1.78313
3.00 2.00 2.00 8 1 o 0.0000 13229.3662 192.32 1.77785
3.00 2.00 2.00 8 1 o 0.0000 13229.3662 192.32 1.77785
5 0 1 4 1 o 0.0000 61347.0234 9.75 1.76002
5 0 1 4 1 o 0.0000 61347.0234 9.75 1.76002
4 2 0 4 1 o 0.0000 2573.1106 5.71 1.75170
1 3 1 8 1 o 0.0000 46237.1875 11.55 1.74964
4 2 0 4 1 o 0.0000 2573.1106 5.71 1.75170
1 3 1 8 1 o 0.0000 46237.1875 11.55 1.74964
0.00 1.00 4.00 4 1 o 0.0000 0.0000 180.00 1.72728
-5.00 -1.00 0.00 8 1 o 0.0000 0.0000 180.00 1.72319
0.00 1.00 4.00 4 1 o 0.0000 0.0000 180.00 1.72728
-5.00 -1.00 0.00 8 1 o 0.0000 0.0000 180.00 1.72319
2 3 0 4 1 o 0.0000 132650.0625 10.20 1.70439
4.00 2.00 1.00 4 1 o 0.0000 153709.8281 190.83 1.70303
-4.00 -2.00 1.00 4 1 o 0.0000 153709.7500 10.83 1.70303
2 3 0 4 1 o 0.0000 132650.0625 10.20 1.70439
4.00 2.00 1.00 4 1 o 0.0000 153709.8281 190.83 1.70303
-4.00 -2.00 1.00 4 1 o 0.0000 153709.7500 10.83 1.70303
1.00 1.00 4.00 8 1 o 0.0000 20391.4395 10.62 1.69678
1.00 1.00 4.00 8 1 o 0.0000 20391.4395 10.62 1.69678
2.00 2.00 3.00 8 1 o 0.0000 9501.5586 8.80 1.69013
2.00 0.00 4.00 4 1 o 0.0000 58658.1680 10.43 1.68800
2.00 2.00 3.00 8 1 o 0.0000 9501.5586 8.80 1.69013
2.00 0.00 4.00 4 1 o 0.0000 58658.1680 10.43 1.68800
5 1 1 8 1 o 0.0000 8582.3135 14.21 1.67679
5 1 1 8 1 o 0.0000 8582.3135 14.21 1.67679
2.00 3.00 1.00 4 1 o 0.0000 97184.2578 189.48 1.65945
-2.00 -3.00 1.00 4 1 o 0.0000 97184.2734 9.48 1.65945
4.00 0.00 3.00 4 1 o 0.0000 211.8735 108.18 1.65618
2.00 3.00 1.00 4 1 o 0.0000 97184.2578 189.48 1.65945
-2.00 -3.00 1.00 4 1 o 0.0000 97184.2734 9.48 1.65945
4.00 0.00 3.00 4 1 o 0.0000 211.8735 108.18 1.65618
0.00 3.00 2.00 4 1 o 0.0000 0.0000 180.00 1.64134
0.00 3.00 2.00 4 1 o 0.0000 0.0000 180.00 1.64134
5.00 0.00 2.00 4 1 o 0.0000 45413.3086 9.58 1.62326
5.00 0.00 2.00 4 1 o 0.0000 45413.3086 9.58 1.62326
1.00 3.00 2.00 8 1 o 0.0000 57341.4727 8.03 1.61510
2.00 1.00 4.00 8 1 o 0.0000 29409.2051 14.40 1.61415
1.00 3.00 2.00 8 1 o 0.0000 57341.4727 8.03 1.61510
2.00 1.00 4.00 8 1 o 0.0000 29409.2051 14.40 1.61415
4.00 1.00 3.00 8 1 o 0.0000 3316.1611 180.42 1.58626
4.00 1.00 3.00 8 1 o 0.0000 3316.1611 180.42 1.58626
4.00 2.00 2.00 8 1 o 0.0000 1906.6213 359.24 1.57822
4.00 2.00 2.00 8 1 o 0.0000 1906.6213 359.24 1.57822
-3.00 -3.00 0.00 8 1 o 0.0000 0.0000 0.00 1.57130
-3.00 -3.00 0.00 8 1 o 0.0000 0.0000 0.00 1.57130
3.00 2.00 3.00 8 1 o 0.0000 200674.5938 190.28 1.56011
3.00 0.00 4.00 4 1 o 0.0000 8537.4189 190.74 1.55843
5.00 1.00 2.00 8 1 o 0.0000 108074.2266 192.17 1.55727
3.00 2.00 3.00 8 1 o 0.0000 200674.5938 190.28 1.56011
3.00 0.00 4.00 4 1 o 0.0000 8537.4189 190.74 1.55843
5.00 1.00 2.00 8 1 o 0.0000 108074.2266 192.17 1.55727
2.00 3.00 2.00 8 1 o 0.0000 17295.3613 191.11 1.54336
2.00 3.00 2.00 8 1 o 0.0000 17295.3613 191.11 1.54336
3 3 1 8 1 o 0.0000 7498.4404 190.81 1.53588
3 3 1 8 1 o 0.0000 7498.4404 190.81 1.53588
0 2 4 4 1 o 0.0000 74406.5000 12.25 1.51844
-5.00 -2.00 0.00 8 1 o 0.0000 0.0000 180.00 1.51566
0 2 4 4 1 o 0.0000 74406.5000 12.25 1.51844
-5.00 -2.00 0.00 8 1 o 0.0000 0.0000 180.00 1.51566
6 0 0 2 1 o 0.0000 81549.0000 13.18 1.51159
6 0 0 2 1 o 0.0000 81549.0000 13.18 1.51159
3.00 1.00 4.00 8 1 o 0.0000 50531.6484 193.72 1.49975
1.00 2.00 4.00 8 1 o 0.0000 79980.5078 191.18 1.49760
3.00 1.00 4.00 8 1 o 0.0000 50531.6484 193.72 1.49975
1.00 2.00 4.00 8 1 o 0.0000 79980.5078 191.18 1.49760
5 2 1 8 1 o 0.0000 60636.5430 189.84 1.48379
5 2 1 8 1 o 0.0000 60636.5430 189.84 1.48379
6.00 0.00 1.00 2 1 o 0.0000 21234.9551 195.66 1.47998
-6.00 0.00 1.00 2 1 o 0.0000 21234.9355 15.66 1.47998
6.00 0.00 1.00 2 1 o 0.0000 21234.9551 195.66 1.47998
-6.00 0.00 1.00 2 1 o 0.0000 21234.9355 15.66 1.47998
0 3 3 4 1 o 0.0000 9209.0742 12.54 1.46541
0 3 3 4 1 o 0.0000 9209.0742 12.54 1.46541
6 1 0 4 1 o 0.0000 101026.1250 190.32 1.45788
0.00 0.00 5.00 2 1 o 0.0000 0.0000 180.00 1.45495
6 1 0 4 1 o 0.0000 101026.1250 190.32 1.45788
5.00 0.00 3.00 4 1 o 0.0000 125784.2109 191.86 1.45250
0.00 0.00 5.00 2 1 o 0.0000 0.0000 180.00 1.45495
5.00 0.00 3.00 4 1 o 0.0000 125784.2109 191.86 1.45250
1.00 3.00 3.00 8 1 o 0.0000 146691.6406 191.34 1.44665
1.00 3.00 3.00 8 1 o 0.0000 146691.6406 191.34 1.44665
3.00 3.00 2.00 8 1 o 0.0000 136712.4844 191.42 1.44246
2.00 2.00 4.00 8 1 o 0.0000 57307.0703 190.58 1.43987
3.00 3.00 2.00 8 1 o 0.0000 136712.4844 191.42 1.44246
1.00 0.00 5.00 4 1 o 0.0000 241.7705 10.06 1.43658
2.00 2.00 4.00 8 1 o 0.0000 57307.0703 190.58 1.43987
1.00 0.00 5.00 4 1 o 0.0000 241.7705 10.06 1.43658
6.00 1.00 1.00 4 1 o 0.0000 91250.3906 190.67 1.42945
-6.00 -1.00 1.00 4 1 o 0.0000 91250.3750 10.67 1.42945
4 3 0 4 1 o 0.0000 160245.9062 191.64 1.42839
6.00 1.00 1.00 4 1 o 0.0000 91250.3906 190.67 1.42945
-6.00 -1.00 1.00 4 1 o 0.0000 91250.3750 10.67 1.42945
4 3 0 4 1 o 0.0000 160245.9062 191.64 1.42839
4.00 2.00 3.00 8 1 o 0.0000 262.2751 239.19 1.41997
4.00 0.00 4.00 4 1 o 0.0000 2888.5869 6.34 1.41870
4.00 2.00 3.00 8 1 o 0.0000 262.2751 239.19 1.41997
4.00 0.00 4.00 4 1 o 0.0000 2888.5869 6.34 1.41870
0 1 5 4 1 o 0.0000 215916.9062 10.66 1.40686
5.00 1.00 3.00 8 1 o 0.0000 56084.6211 190.06 1.40465
0 1 5 4 1 o 0.0000 215916.9062 10.66 1.40686
4.00 3.00 1.00 4 1 o 0.0000 1241.4568 191.20 1.40162
-4.00 -3.00 1.00 4 1 o 0.0000 1241.4481 11.20 1.40162
5.00 1.00 3.00 8 1 o 0.0000 56084.6211 190.06 1.40465
5.00 2.00 2.00 8 1 o 0.0000 26769.3906 192.41 1.39906
4.00 3.00 1.00 4 1 o 0.0000 1241.4568 191.20 1.40162
-4.00 -3.00 1.00 4 1 o 0.0000 1241.4481 11.20 1.40162
6.00 0.00 2.00 4 1 o 0.0000 7775.7573 195.69 1.39586
5.00 2.00 2.00 8 1 o 0.0000 26769.3906 192.41 1.39906
2.00 3.00 3.00 8 1 o 0.0000 367.0654 207.83 1.39441
6.00 0.00 2.00 4 1 o 0.0000 7775.7573 195.69 1.39586
2.00 3.00 3.00 8 1 o 0.0000 367.0654 207.83 1.39441
1.00 1.00 5.00 8 1 o 0.0000 1578.9579 198.08 1.39024
1.00 1.00 5.00 8 1 o 0.0000 1578.9579 198.08 1.39024
2.00 0.00 5.00 4 1 o 0.0000 116629.5312 10.58 1.38539
2.00 0.00 5.00 4 1 o 0.0000 116629.5312 10.58 1.38539
0 4 0 2 1 o 0.0000 313197.9062 9.24 1.37943
0 4 0 2 1 o 0.0000 313197.9062 9.24 1.37943
4.00 1.00 4.00 8 1 o 0.0000 127621.0078 190.28 1.37401
4.00 1.00 4.00 8 1 o 0.0000 127621.0078 190.28 1.37401
-1.00 -4.00 0.00 8 1 o 0.0000 0.0000 0.00 1.36374
-1.00 -4.00 0.00 8 1 o 0.0000 0.0000 0.00 1.36374
3.00 2.00 4.00 8 1 o 0.0000 1471.7307 25.89 1.35690
0.00 4.00 1.00 2 1 o 0.0000 0.0000 0.00 1.35528
0.00 -4.00 1.00 2 1 o 0.0000 0.0000 180.00 1.35528
3.00 2.00 4.00 8 1 o 0.0000 1471.7307 25.89 1.35690
6.00 1.00 2.00 8 1 o 0.0000 30361.3164 7.90 1.35323
0.00 4.00 1.00 2 1 o 0.0000 0.0000 0.00 1.35528
0.00 -4.00 1.00 2 1 o 0.0000 0.0000 180.00 1.35528
6.00 1.00 2.00 8 1 o 0.0000 30361.3164 7.90 1.35323
2.00 1.00 5.00 8 1 o 0.0000 65116.5273 192.39 1.34368
1 4 1 8 1 o 0.0000 3163.5769 18.54 1.34040
2.00 1.00 5.00 8 1 o 0.0000 65116.5273 192.39 1.34368
1 4 1 8 1 o 0.0000 3163.5769 18.54 1.34040
4.00 3.00 2.00 8 1 o 0.0000 8318.8711 17.75 1.32955
4.00 3.00 2.00 8 1 o 0.0000 8318.8711 17.75 1.32955
6 2 0 4 1 o 0.0000 101662.3359 191.87 1.32565
6 2 0 4 1 o 0.0000 101662.3359 191.87 1.32565
2 4 0 4 1 o 0.0000 41180.7734 195.34 1.31972
3.00 3.00 3.00 8 1 o 0.0000 22780.3691 11.13 1.31866
2 4 0 4 1 o 0.0000 41180.7734 195.34 1.31972
3.00 3.00 3.00 8 1 o 0.0000 22780.3691 11.13 1.31866
3.00 0.00 5.00 4 1 o 0.0000 10560.9893 189.12 1.31103
3.00 0.00 5.00 4 1 o 0.0000 10560.9893 189.12 1.31103
6.00 2.00 1.00 4 1 o 0.0000 24895.0879 14.51 1.30418
-6.00 -2.00 1.00 4 1 o 0.0000 24895.1230 194.51 1.30418
6.00 2.00 1.00 4 1 o 0.0000 24895.0879 14.51 1.30418
-6.00 -2.00 1.00 4 1 o 0.0000 24895.1230 194.51 1.30418
2.00 4.00 1.00 4 1 o 0.0000 40897.8711 194.02 1.29853
-2.00 -4.00 1.00 4 1 o 0.0000 40897.9492 14.02 1.29853
-7.00 0.00 0.00 4 1 o 0.0000 0.0000 180.00 1.29565
2.00 4.00 1.00 4 1 o 0.0000 40897.8711 194.02 1.29853
-2.00 -4.00 1.00 4 1 o 0.0000 40897.9492 14.02 1.29853
0.00 3.00 4.00 4 1 o 0.0000 0.0000 0.00 1.29321
-7.00 0.00 0.00 4 1 o 0.0000 0.0000 180.00 1.29565
-5.00 -3.00 0.00 8 1 o 0.0000 0.0000 180.00 1.29149
0.00 3.00 4.00 4 1 o 0.0000 0.0000 0.00 1.29321
0 4 2 4 1 o 0.0000 40276.6836 190.26 1.28979
-5.00 -3.00 0.00 8 1 o 0.0000 0.0000 180.00 1.29149
0.00 2.00 5.00 4 1 o 0.0000 0.0000 0.00 1.28695
0 4 2 4 1 o 0.0000 40276.6836 190.26 1.28979
5.00 2.00 3.00 8 1 o 0.0000 134990.1094 11.49 1.28525
5.00 0.00 4.00 4 1 o 0.0000 6045.9590 198.24 1.28431
0.00 2.00 5.00 4 1 o 0.0000 0.0000 0.00 1.28695
6.00 0.00 3.00 4 1 o 0.0000 14299.1328 187.07 1.28277
5.00 2.00 3.00 8 1 o 0.0000 134990.1094 11.49 1.28525
5.00 0.00 4.00 4 1 o 0.0000 6045.9590 198.24 1.28431
1.00 3.00 4.00 8 1 o 0.0000 20584.7598 190.62 1.28026
6.00 0.00 3.00 4 1 o 0.0000 14299.1328 187.07 1.28277
1.00 3.00 4.00 8 1 o 0.0000 20584.7598 190.62 1.28026
1.00 4.00 2.00 8 1 o 0.0000 115730.3828 192.28 1.27695
7 0 1 4 1 o 0.0000 5301.2437 189.47 1.27558
3.00 1.00 5.00 8 1 o 0.0000 7256.4297 5.35 1.27551
1.00 2.00 5.00 8 1 o 0.0000 400.0923 353.13 1.27419
1.00 4.00 2.00 8 1 o 0.0000 115730.3828 192.28 1.27695
7 0 1 4 1 o 0.0000 5301.2437 189.47 1.27558
3.00 1.00 5.00 8 1 o 0.0000 7256.4297 5.35 1.27551
5 3 1 8 1 o 0.0000 8687.1260 194.16 1.27161
1.00 2.00 5.00 8 1 o 0.0000 400.0923 353.13 1.27419
5 3 1 8 1 o 0.0000 8687.1260 194.16 1.27161
4.00 2.00 4.00 8 1 o 0.0000 2197.5266 187.23 1.26166
-7.00 -1.00 0.00 8 1 o 0.0000 0.0000 0.00 1.26134
4.00 2.00 4.00 8 1 o 0.0000 2197.5266 187.23 1.26166
-7.00 -1.00 0.00 8 1 o 0.0000 0.0000 0.00 1.26134
-3.00 -4.00 0.00 8 1 o 0.0000 0.0000 180.00 1.25496
-3.00 -4.00 0.00 8 1 o 0.0000 0.0000 180.00 1.25496
5.00 1.00 4.00 8 1 o 0.0000 70109.0938 11.43 1.25088
6.00 1.00 3.00 8 1 o 0.0000 3886.3711 192.17 1.24945
5.00 1.00 4.00 8 1 o 0.0000 70109.0938 11.43 1.25088
6.00 1.00 3.00 8 1 o 0.0000 3886.3711 192.17 1.24945
6.00 2.00 2.00 8 1 o 0.0000 12170.8291 12.63 1.24551
2.00 3.00 4.00 8 1 o 0.0000 24370.9043 195.85 1.24363
7 1 1 8 1 o 0.0000 36818.4062 193.52 1.24280
6.00 2.00 2.00 8 1 o 0.0000 12170.8291 12.63 1.24551
2.00 4.00 2.00 8 1 o 0.0000 1848.9694 24.83 1.24059
2.00 3.00 4.00 8 1 o 0.0000 24370.9043 195.85 1.24363
7 1 1 8 1 o 0.0000 36818.4062 193.52 1.24280
2.00 2.00 5.00 8 1 o 0.0000 121960.6016 190.39 1.23806
2.00 4.00 2.00 8 1 o 0.0000 1848.9694 24.83 1.24059
3 4 1 8 1 o 0.0000 37340.5898 193.47 1.23670
2.00 2.00 5.00 8 1 o 0.0000 121960.6016 190.39 1.23806
3 4 1 8 1 o 0.0000 37340.5898 193.47 1.23670
4.00 3.00 3.00 8 1 o 0.0000 2152.4155 0.53 1.23074
4.00 3.00 3.00 8 1 o 0.0000 2152.4155 0.53 1.23074
4.00 0.00 5.00 4 1 o 0.0000 139199.8750 192.56 1.22453
4.00 0.00 5.00 4 1 o 0.0000 139199.8750 192.56 1.22453
7.00 0.00 2.00 4 1 o 0.0000 152161.9844 191.47 1.22053
7.00 0.00 2.00 4 1 o 0.0000 152161.9844 191.47 1.22053
5.00 3.00 2.00 8 1 o 0.0000 86499.3516 13.61 1.21705
5.00 3.00 2.00 8 1 o 0.0000 86499.3516 13.61 1.21705
0 0 6 2 1 o 0.0000 113024.3125 13.02 1.21246
0 0 6 2 1 o 0.0000 113024.3125 13.02 1.21246
1.00 0.00 6.00 4 1 o 0.0000 11005.2803 16.66 1.20177
0.00 4.00 3.00 4 1 o 0.0000 0.0000 0.00 1.19901
1.00 0.00 6.00 4 1 o 0.0000 11005.2803 16.66 1.20177
0.00 4.00 3.00 4 1 o 0.0000 0.0000 0.00 1.19901
4.00 1.00 5.00 8 1 o 0.0000 951.7024 190.37 1.19544
4.00 1.00 5.00 8 1 o 0.0000 951.7024 190.37 1.19544
7.00 1.00 2.00 8 1 o 0.0000 10684.0127 11.71 1.19172
3.00 3.00 4.00 8 1 o 0.0000 41794.3125 15.11 1.18900
7.00 1.00 2.00 8 1 o 0.0000 10684.0127 11.71 1.19172
1.00 4.00 3.00 8 1 o 0.0000 17744.6289 193.43 1.18866
3.00 4.00 2.00 8 1 o 0.0000 17024.7227 11.00 1.18634
3.00 3.00 4.00 8 1 o 0.0000 41794.3125 15.11 1.18900
1.00 4.00 3.00 8 1 o 0.0000 17744.6289 193.43 1.18866
0.00 1.00 6.00 4 1 o 0.0000 0.0000 180.00 1.18421
3.00 2.00 5.00 8 1 o 0.0000 11035.6670 8.97 1.18412
3.00 4.00 2.00 8 1 o 0.0000 17024.7227 11.00 1.18634
0.00 1.00 6.00 4 1 o 0.0000 0.0000 180.00 1.18421
3.00 2.00 5.00 8 1 o 0.0000 11035.6670 8.97 1.18412
4 4 0 4 1 o 0.0000 1950.7356 186.70 1.17847
4 4 0 4 1 o 0.0000 1950.7356 186.70 1.17847
1.00 1.00 6.00 8 1 o 0.0000 189.3783 45.80 1.17424
-7.00 -2.00 0.00 8 1 o 0.0000 0.0000 180.00 1.17276
1.00 1.00 6.00 8 1 o 0.0000 189.3783 45.80 1.17424
2.00 0.00 6.00 4 1 o 0.0000 62069.9062 192.49 1.17132
-7.00 -2.00 0.00 8 1 o 0.0000 0.0000 180.00 1.17276
2.00 0.00 6.00 4 1 o 0.0000 62069.9062 192.49 1.17132
6 3 0 4 1 o 0.0000 81031.2031 11.53 1.16780
6 3 0 4 1 o 0.0000 81031.2031 11.53 1.16780
5.00 2.00 4.00 8 1 o 0.0000 2017.7708 32.25 1.16433
4.00 4.00 1.00 4 1 o 0.0000 142289.8125 11.33 1.16331
-4.00 -4.00 1.00 4 1 o 0.0000 142289.7969 191.33 1.16331
6.00 2.00 3.00 8 1 o 0.0000 12191.2988 7.64 1.16319
6.00 0.00 4.00 4 1 o 0.0000 38329.1016 194.17 1.16249
5.00 2.00 4.00 8 1 o 0.0000 2017.7708 32.25 1.16433
4.00 4.00 1.00 4 1 o 0.0000 142289.8125 11.33 1.16331
-4.00 -4.00 1.00 4 1 o 0.0000 142289.7969 191.33 1.16331
6.00 2.00 3.00 8 1 o 0.0000 12191.2988 7.64 1.16319
6.00 0.00 4.00 4 1 o 0.0000 38329.1016 194.17 1.16249
2.00 4.00 3.00 8 1 o 0.0000 7887.1084 189.70 1.15917
7 2 1 8 1 o 0.0000 2388.5630 13.91 1.15781
2.00 4.00 3.00 8 1 o 0.0000 7887.1084 189.70 1.15917
7 2 1 8 1 o 0.0000 2388.5630 13.91 1.15781
6.00 3.00 1.00 4 1 o 0.0000 69087.7109 12.27 1.15304
-6.00 -3.00 1.00 4 1 o 0.0000 69087.8438 192.27 1.15304
6.00 3.00 1.00 4 1 o 0.0000 69087.7109 12.27 1.15304
-6.00 -3.00 1.00 4 1 o 0.0000 69087.8438 192.27 1.15304
2.00 1.00 6.00 8 1 o 0.0000 60654.0469 193.11 1.14578
2.00 1.00 6.00 8 1 o 0.0000 60654.0469 193.11 1.14578
7.00 0.00 3.00 4 1 o 0.0000 6636.2275 14.32 1.14276
0 3 5 4 1 o 0.0000 184654.2656 191.56 1.14108
7.00 0.00 3.00 4 1 o 0.0000 6636.2275 14.32 1.14276
5.00 3.00 3.00 8 1 o 0.0000 50194.2852 10.67 1.13990
0 3 5 4 1 o 0.0000 184654.2656 191.56 1.14108
6.00 1.00 4.00 8 1 o 0.0000 18778.0273 14.77 1.13752
5.00 3.00 3.00 8 1 o 0.0000 50194.2852 10.67 1.13990
5.00 0.00 5.00 4 1 o 0.0000 640.6972 29.09 1.13496
6.00 1.00 4.00 8 1 o 0.0000 18778.0273 14.77 1.13752
8 0 0 2 1 o 0.0000 183652.9219 191.71 1.13369
1.00 3.00 5.00 8 1 o 0.0000 1153.3505 21.22 1.13216
5.00 0.00 5.00 4 1 o 0.0000 640.6972 29.09 1.13496
8 0 0 2 1 o 0.0000 183652.9219 191.71 1.13369
1.00 3.00 5.00 8 1 o 0.0000 1153.3505 21.22 1.13216
3.00 0.00 6.00 4 1 o 0.0000 13513.3867 187.30 1.12533
4.00 3.00 4.00 8 1 o 0.0000 107310.4297 11.23 1.12334
3.00 0.00 6.00 4 1 o 0.0000 13513.3867 187.30 1.12533
4.00 4.00 2.00 8 1 o 0.0000 732.6491 178.64 1.12110
4.00 3.00 4.00 8 1 o 0.0000 107310.4297 11.23 1.12334
8.00 0.00 1.00 2 1 o 0.0000 108.3152 314.71 1.12017
-8.00 0.00 1.00 2 1 o 0.0000 108.3121 134.71 1.12017
4.00 2.00 5.00 8 1 o 0.0000 107867.1797 14.24 1.11923
7.00 1.00 3.00 8 1 o 0.0000 101259.1641 14.14 1.11901
4.00 4.00 2.00 8 1 o 0.0000 732.6491 178.64 1.12110
8.00 0.00 1.00 2 1 o 0.0000 108.3152 314.71 1.12017
-8.00 0.00 1.00 2 1 o 0.0000 108.3121 134.71 1.12017
4.00 2.00 5.00 8 1 o 0.0000 107867.1797 14.24 1.11923
7.00 1.00 3.00 8 1 o 0.0000 101259.1641 14.14 1.11901
7.00 2.00 2.00 8 1 o 0.0000 138943.9375 12.01 1.11618
3.00 4.00 3.00 8 1 o 0.0000 140740.1719 12.29 1.11455
7.00 2.00 2.00 8 1 o 0.0000 138943.9375 12.01 1.11618
6.00 3.00 2.00 8 1 o 0.0000 23795.2695 188.92 1.11190
3.00 4.00 3.00 8 1 o 0.0000 140740.1719 12.29 1.11455
5.00 1.00 5.00 8 1 o 0.0000 7837.7690 6.94 1.11168
8 1 0 4 1 o 0.0000 18366.1387 186.95 1.11050
0 2 6 4 1 o 0.0000 80489.4609 195.38 1.11000
6.00 3.00 2.00 8 1 o 0.0000 23795.2695 188.92 1.11190
5.00 1.00 5.00 8 1 o 0.0000 7837.7690 6.94 1.11168
8 1 0 4 1 o 0.0000 18366.1387 186.95 1.11050
0 2 6 4 1 o 0.0000 80489.4609 195.38 1.11000
2.00 3.00 5.00 8 1 o 0.0000 51613.1484 13.93 1.10659
2.00 3.00 5.00 8 1 o 0.0000 51613.1484 13.93 1.10659
0.00 -5.00 0.00 4 1 o 0.0000 0.0000 180.00 1.10354
3.00 1.00 6.00 8 1 o 0.0000 27194.1055 192.23 1.10263
1.00 2.00 6.00 8 1 o 0.0000 9280.9551 198.14 1.10177
0.00 -5.00 0.00 4 1 o 0.0000 0.0000 180.00 1.10354
3.00 1.00 6.00 8 1 o 0.0000 27194.1055 192.23 1.10263
0 4 4 4 1 o 0.0000 60522.9258 193.64 1.09906
1.00 2.00 6.00 8 1 o 0.0000 9280.9551 198.14 1.10177
-5.00 -4.00 0.00 8 1 o 0.0000 0.0000 180.00 1.09800
8.00 1.00 1.00 4 1 o 0.0000 69712.0703 14.55 1.09778
-8.00 -1.00 1.00 4 1 o 0.0000 69712.0938 194.55 1.09778
0 4 4 4 1 o 0.0000 60522.9258 193.64 1.09906
-1.00 -5.00 0.00 8 1 o 0.0000 0.0000 0.00 1.09546
-5.00 -4.00 0.00 8 1 o 0.0000 0.0000 180.00 1.09800
8.00 1.00 1.00 4 1 o 0.0000 69712.0703 14.55 1.09778
-8.00 -1.00 1.00 4 1 o 0.0000 69712.0938 194.55 1.09778
-1.00 -5.00 0.00 8 1 o 0.0000 0.0000 0.00 1.09546
1.00 4.00 4.00 8 1 o 0.0000 53419.3086 13.67 1.09107
0 5 1 4 1 o 0.0000 47704.3164 197.44 1.09106
1.00 4.00 4.00 8 1 o 0.0000 53419.3086 13.67 1.09107
0 5 1 4 1 o 0.0000 47704.3164 197.44 1.09106
5 4 1 8 1 o 0.0000 39088.1914 12.25 1.08570
1 5 1 8 1 o 0.0000 33482.4375 193.62 1.08325
5 4 1 8 1 o 0.0000 39088.1914 12.25 1.08570
8.00 0.00 2.00 4 1 o 0.0000 39318.7305 10.03 1.08234
1 5 1 8 1 o 0.0000 33482.4375 193.62 1.08325
8.00 0.00 2.00 4 1 o 0.0000 39318.7305 10.03 1.08234
2.00 2.00 6.00 8 1 o 0.0000 69240.9844 11.88 1.07817
2.00 2.00 6.00 8 1 o 0.0000 69240.9844 11.88 1.07817
2 5 0 4 1 o 0.0000 100214.9375 191.80 1.07225
6.00 2.00 4.00 8 1 o 0.0000 40057.3945 13.90 1.07127
2 5 0 4 1 o 0.0000 100214.9375 191.80 1.07225
4.00 0.00 6.00 4 1 o 0.0000 632.3918 194.73 1.06919
6.00 2.00 4.00 8 1 o 0.0000 40057.3945 13.90 1.07127
2.00 4.00 4.00 8 1 o 0.0000 41318.4258 12.46 1.06813
3.00 3.00 5.00 8 1 o 0.0000 7104.0190 185.47 1.06757
4.00 0.00 6.00 4 1 o 0.0000 632.3918 194.73 1.06919
2.00 4.00 4.00 8 1 o 0.0000 41318.4258 12.46 1.06813
3.00 3.00 5.00 8 1 o 0.0000 7104.0190 185.47 1.06757
8.00 1.00 2.00 8 1 o 0.0000 2010.3955 9.66 1.06210
2.00 5.00 1.00 4 1 o 0.0000 71700.4766 11.09 1.06079
-2.00 -5.00 1.00 4 1 o 0.0000 71700.4766 191.09 1.06079
4.00 4.00 3.00 8 1 o 0.0000 213.5207 71.24 1.05993
8.00 1.00 2.00 8 1 o 0.0000 2010.3955 9.66 1.06210
-7.00 -3.00 0.00 8 1 o 0.0000 0.0000 180.00 1.05922
2.00 5.00 1.00 4 1 o 0.0000 71700.4766 11.09 1.06079
-2.00 -5.00 1.00 4 1 o 0.0000 71700.4766 191.09 1.06079
4.00 4.00 3.00 8 1 o 0.0000 213.5207 71.24 1.05993
-7.00 -3.00 0.00 8 1 o 0.0000 0.0000 180.00 1.05922
0.00 5.00 2.00 4 1 o 0.0000 0.0000 0.00 1.05601
7.00 2.00 3.00 8 1 o 0.0000 1717.0491 208.30 1.05577
7.00 0.00 4.00 4 1 o 0.0000 78847.7500 12.26 1.05525
0.00 5.00 2.00 4 1 o 0.0000 0.0000 0.00 1.05601
7.00 2.00 3.00 8 1 o 0.0000 1717.0491 208.30 1.05577
5.00 3.00 4.00 8 1 o 0.0000 55479.0273 192.85 1.05300
7.00 0.00 4.00 4 1 o 0.0000 78847.7500 12.26 1.05525
6.00 3.00 3.00 8 1 o 0.0000 3388.7117 13.07 1.05215
5.00 4.00 2.00 8 1 o 0.0000 27012.4434 12.45 1.05115
5.00 3.00 4.00 8 1 o 0.0000 55479.0273 192.85 1.05300
4.00 1.00 6.00 8 1 o 0.0000 116137.0000 13.32 1.04967
5.00 2.00 5.00 8 1 o 0.0000 1767.3357 197.34 1.04961
6.00 3.00 3.00 8 1 o 0.0000 3388.7117 13.07 1.05215
1.00 5.00 2.00 8 1 o 0.0000 29706.0332 191.12 1.04893
8 2 0 4 1 o 0.0000 142249.5625 13.26 1.04861
5.00 4.00 2.00 8 1 o 0.0000 27012.4434 12.45 1.05115
6.00 0.00 5.00 4 1 o 0.0000 54085.3672 13.42 1.04826
7 3 1 8 1 o 0.0000 31624.2051 14.61 1.04817
4.00 1.00 6.00 8 1 o 0.0000 116137.0000 13.32 1.04967
5.00 2.00 5.00 8 1 o 0.0000 1767.3357 197.34 1.04961
1.00 5.00 2.00 8 1 o 0.0000 29706.0332 191.12 1.04893
8 2 0 4 1 o 0.0000 142249.5625 13.26 1.04861
6.00 0.00 5.00 4 1 o 0.0000 54085.3672 13.42 1.04826
7 3 1 8 1 o 0.0000 31624.2051 14.61 1.04817
3.00 2.00 6.00 8 1 o 0.0000 15149.1064 6.97 1.04198
3.00 2.00 6.00 8 1 o 0.0000 15149.1064 6.97 1.04198
0.00 0.00 7.00 2 1 o 0.0000 0.0000 0.00 1.03925
8.00 2.00 1.00 4 1 o 0.0000 538.9802 161.94 1.03788
-8.00 -2.00 1.00 4 1 o 0.0000 538.9799 341.94 1.03788
0.00 0.00 7.00 2 1 o 0.0000 0.0000 0.00 1.03925
7.00 1.00 4.00 8 1 o 0.0000 9296.7051 190.01 1.03647
8.00 2.00 1.00 4 1 o 0.0000 538.9802 161.94 1.03788
-8.00 -2.00 1.00 4 1 o 0.0000 538.9799 341.94 1.03788
7.00 1.00 4.00 8 1 o 0.0000 9296.7051 190.01 1.03647
3.00 4.00 4.00 8 1 o 0.0000 4625.0864 194.63 1.03292
1.00 0.00 7.00 4 1 o 0.0000 34706.5430 10.21 1.03249
3.00 4.00 4.00 8 1 o 0.0000 4625.0864 194.63 1.03292
1.00 0.00 7.00 4 1 o 0.0000 34706.5430 10.21 1.03249
6.00 1.00 5.00 8 1 o 0.0000 85494.2969 12.86 1.02984
2.00 5.00 2.00 8 1 o 0.0000 15269.7627 11.90 1.02849
6.00 1.00 5.00 8 1 o 0.0000 85494.2969 12.86 1.02984
8.00 0.00 3.00 4 1 o 0.0000 286.3076 196.80 1.02700
2.00 5.00 2.00 8 1 o 0.0000 15269.7627 11.90 1.02849
8.00 0.00 3.00 4 1 o 0.0000 286.3076 196.80 1.02700
