#------------------------------------------------------------------------------
#$Date: 2021-05-10 14:55:41 +0300 (Mon, 10 May 2021) $
#$Revision: 265070 $
#$URL: file:///home/coder/svn-repositories/cod/cif/3/00/02/3000295.cif $
#------------------------------------------------------------------------------
#
# This file is available in the Crystallography Open Database (COD),
# http://www.crystallography.net/
#
# All data on this site have been placed in the public domain by the
# contributors.
#
data_3000295
loop_
_publ_author_name
'Selter, Sebastian'
'Shemerliuk, Yuliia'
'Buechner, Bernd'
'Aswartham, Saicharan'
_publ_section_title
;
 Crystal Growth of the Quasi-2D Quarternary Compound Ag Cr P2 S6 by
 Chemical Vapor Transport
;
_journal_name_full
;
Crystals
;
_journal_page_first              500
_journal_paper_doi               10.3390/cryst11050500
_journal_volume                  11
_journal_year                    2021
_chemical_absolute_configuration .
_chemical_formula_analytical     'Ag1.03(2) Cr1.06(2) P2.03(2) S5.88(1)'
_chemical_formula_structural     'Ag1 Cr1 P2 S6'
_chemical_formula_sum            'Ag Cr P2 S6'
_chemical_formula_weight         414.2
_chemical_name_common            'Silver chromium diphosphorus hexasulfide'
_chemical_name_systematic        'Silver chromium diphosphorus hexasulfide'
_space_group_IT_number           13
_space_group_name_Hall           '-P 2ya'
_space_group_name_H-M_alt        'P 1 2/a 1'
_symmetry_cell_setting           monoclinic
_symmetry_Int_Tables_number      13
_symmetry_space_group_name_Hall  '-P 2ya'
_symmetry_space_group_name_H-M   'P 1 2/a 1'
_cell_angle_alpha                90
_cell_angle_beta                 106.0425(19)
_cell_angle_gamma                90
_cell_formula_units_Z            2
_cell_length_a                   5.88318(13)
_cell_length_b                   10.6214(2)
_cell_length_c                   6.7450(3)
_cell_measurement_temperature    293
_cell_volume                     405.07(2)
_diffrn_ambient_temperature      293
_diffrn_detector                 'one-dimensional silicon strip detector'
_diffrn_detector_type            'MYTHEN 1K'
_diffrn_measurement_device       'two-circle transmission diffractometer'
_diffrn_measurement_device_type  'STOE STADI P'
_diffrn_radiation_monochromator  'Ge 111'
_diffrn_radiation_probe          x-ray
_diffrn_radiation_type           'Cu K\a~1~'
_diffrn_radiation_wavelength     1.54059
_exptl_absorpt_coefficient_mu    48.464
_exptl_crystal_density_diffrn    3.3957
_exptl_crystal_F_000             0
_pd_char_colour                  dark_gray
_pd_instr_location
'STOE STADI P Cu K\a~1~ diffractometer, IFW Dresden, Dresden (Germany)'
_pd_meas_2theta_range_inc        0.03
_pd_meas_2theta_range_max        120.130
_pd_meas_2theta_range_min        10.000
_pd_meas_number_of_points        3672
_pd_proc_2theta_range_inc        0.03
_pd_proc_2theta_range_max        120.13
_pd_proc_2theta_range_min        10
_pd_proc_ls_background_function  '12 Legendre polynoms'
_pd_proc_ls_pref_orient_corr     'March & Dollase'
_pd_proc_ls_profile_function     Pseudo-Voigt
_pd_proc_ls_prof_R_factor        0.0208
_pd_proc_ls_prof_wR_expected     0.0146
_pd_proc_ls_prof_wR_factor       0.0311
_refine_ls_goodness_of_fit_all   2.13
_refine_ls_number_constraints    0
_refine_ls_number_parameters     47
_refine_ls_number_restraints     0
_refine_ls_R_factor_all          0.0545
_refine_ls_R_factor_gt           0.0523
_refine_ls_shift/su_max          0.0496
_refine_ls_shift/su_mean         0.0131
_refine_ls_weighting_scheme      sigma
_refine_ls_wR_factor_all         0.0569
_refine_ls_wR_factor_gt          0.0567
_cod_data_source_file            AgCrP2S6_Rietveld_Selter.cif
_cod_data_source_block           I
_cod_depositor_comments
;
The following automatic conversions were performed:

data item '_journal_paper_doi' value
'https://doi.org/10.3390/cryst11050500' was changed to
'10.3390/cryst11050500'.

Automatic conversion script
Id: cif_fix_values 8369 2020-08-20 11:38:08Z andrius 

 Releasing structure 3000295 into public domain as published material.
;
_cod_original_formula_sum        'Ag1 Cr1 P2 S6'
_cod_database_code               3000295
loop_
_space_group_symop_id
_space_group_symop_operation_xyz
1 x,y,z
2 -x+1/2,y,-z
3 -x,-y,-z
4 x+1/2,-y,z
loop_
_atom_site_label
_atom_site_type_symbol
_atom_site_fract_x
_atom_site_fract_y
_atom_site_fract_z
_atom_site_adp_type
_atom_site_U_iso_or_equiv
_atom_site_site_symmetry_multiplicity
_atom_site_occupancy
_atom_site_calc_flag
_atom_site_refinement_flags
_atom_site_disorder_assembly
_atom_site_disorder_group
S1 S -0.0208(7) 0.2309(5) 0.2336(8) Uiso 0.0179(13) 4 1 d . . .
S2 S -0.0120(5) 0.9233(4) 0.2165(8) Uiso 0.0067(10) 4 1 d . . .
S3 S 0.4777(7) 0.3947(4) 0.2802(7) Uiso 0.0148(14) 4 1 d . . .
P1 P 0.2979(6) 0.2466(4) 0.1659(6) Uiso 0.0024(10) 4 1 d . . .
Cr1 Cr 0.25 0.9229(4) 0 Uiso 0.0202(15) 2 1 d . . .
Ag1 Ag 0.75 0.4364(2) 0 Uiso 0.0336(8) 2 1 d . . .
loop_
_atom_type_symbol
_atom_type_scat_dispersion_real
_atom_type_scat_dispersion_imag
_atom_type_scat_source
Ag 0.1273 4.3227 'International Tables Vol C tables 4.2.6.8 and 6.1.1.1'
Cr -0.1450 2.4366 'International Tables Vol C tables 4.2.6.8 and 6.1.1.1'
P 0.2991 0.4404 'International Tables Vol C tables 4.2.6.8 and 6.1.1.1'
S 0.3357 0.5642 'International Tables Vol C tables 4.2.6.8 and 6.1.1.1'
loop_
_pd_proc_point_id
_pd_proc_2theta_corrected
_pd_proc_d_spacing
_pd_proc_intensity_net
_pd_calc_intensity_net
_pd_proc_ls_weight
1 10.0200 8.820548 22211.00 22087.00 149.03
2 10.0500 8.794286 22301.00 22046.20 149.34
3 10.0800 8.768179 21988.00 22005.70 148.28
4 10.1100 8.742229 22184.00 21965.40 148.94
5 10.1400 8.716431 22045.00 21925.30 148.48
6 10.1700 8.690785 21830.00 21885.40 147.75
7 10.2000 8.665292 22031.00 21845.70 148.43
8 10.2300 8.639948 21707.00 21806.20 147.33
9 10.2600 8.614752 22121.00 21767.00 148.73
10 10.2900 8.589704 21799.00 21727.90 147.65
11 10.3200 8.564800 21650.00 21689.10 147.14
12 10.3500 8.540042 21764.00 21650.40 147.53
13 10.3800 8.515427 21516.00 21611.90 146.68
14 10.4100 8.490954 21774.00 21573.70 147.56
15 10.4400 8.466622 21558.00 21535.60 146.83
16 10.4700 8.442430 21505.00 21497.70 146.65
17 10.5000 8.418376 21411.00 21460.00 146.32
18 10.5300 8.394460 21718.00 21422.50 147.37
19 10.5600 8.370679 21280.00 21385.20 145.88
20 10.5900 8.347033 21398.00 21348.10 146.28
21 10.6200 8.323522 21225.00 21311.10 145.69
22 10.6500 8.300142 21430.00 21274.30 146.39
23 10.6800 8.276894 21551.00 21237.70 146.80
24 10.7100 8.253777 21230.00 21201.30 145.71
25 10.7400 8.230788 21042.00 21165.00 145.06
26 10.7700 8.207929 21130.00 21129.00 145.36
27 10.8000 8.185196 21229.00 21093.00 145.70
28 10.8300 8.162590 21035.00 21057.30 145.03
29 10.8600 8.140109 20878.00 21021.70 144.49
30 10.8900 8.117751 21345.00 20986.20 146.10
31 10.9200 8.095517 21024.00 20951.00 145.00
32 10.9500 8.073405 21205.00 20915.80 145.62
33 10.9800 8.051414 20927.00 20880.90 144.66
34 11.0100 8.029542 20632.00 20846.10 143.64
35 11.0400 8.007791 20800.00 20811.40 144.22
36 11.0700 7.986156 20787.00 20776.90 144.18
37 11.1000 7.964639 20796.00 20742.50 144.21
38 11.1300 7.943239 20678.00 20708.30 143.80
39 11.1600 7.921953 20754.00 20674.30 144.06
40 11.1900 7.900782 20802.00 20640.30 144.23
41 11.2200 7.879724 20696.00 20606.50 143.86
42 11.2500 7.858779 20683.00 20572.90 143.82
43 11.2800 7.837945 20502.00 20539.40 143.18
44 11.3100 7.817222 20616.00 20506.00 143.58
45 11.3400 7.796608 20260.00 20472.80 142.34
46 11.3700 7.776105 20630.00 20439.70 143.63
47 11.4000 7.755709 20449.00 20406.70 143.00
48 11.4300 7.735420 20102.00 20373.80 141.78
49 11.4600 7.715237 20541.00 20341.10 143.32
50 11.4900 7.695160 20197.00 20308.50 142.12
51 11.5200 7.675188 20077.00 20276.00 141.69
52 11.5500 7.655319 20439.00 20243.70 142.96
53 11.5800 7.635554 20218.00 20211.40 142.19
54 11.6100 7.615892 20068.00 20179.30 141.66
55 11.6400 7.596330 20173.00 20147.30 142.03
56 11.6700 7.576870 20161.00 20115.40 141.99
57 11.7000 7.557509 20243.00 20083.70 142.28
58 11.7300 7.538248 20146.00 20052.00 141.94
59 11.7600 7.519085 20027.00 20020.40 141.52
60 11.7900 7.500020 20038.00 19989.00 141.56
61 11.8200 7.481052 19975.00 19957.70 141.33
62 11.8500 7.462179 19942.00 19926.50 141.22
63 11.8800 7.443403 19874.00 19895.30 140.98
64 11.9100 7.424721 19986.00 19864.30 141.37
65 11.9400 7.406134 19834.00 19833.40 140.83
66 11.9700 7.387639 20094.00 19802.60 141.75
67 12.0000 7.369237 19663.00 19771.90 140.23
68 12.0300 7.350927 19584.00 19741.30 139.94
69 12.0600 7.332708 19935.00 19710.80 141.19
70 12.0900 7.314581 19783.00 19680.30 140.65
71 12.1200 7.296543 20010.00 19650.00 141.46
72 12.1500 7.278594 19542.00 19619.80 139.79
73 12.1800 7.260734 19701.00 19589.60 140.36
74 12.2100 7.242961 19864.00 19559.60 140.94
75 12.2400 7.225276 19526.00 19529.60 139.74
76 12.2700 7.207677 19449.00 19520.80 139.46
77 12.3000 7.190165 19716.00 19492.00 140.41
78 12.3300 7.172739 19675.00 19463.30 140.27
79 12.3600 7.155396 19336.00 19434.70 139.05
80 12.3900 7.138138 19335.00 19406.40 139.05
81 12.4200 7.120964 19538.00 19378.20 139.78
82 12.4500 7.103872 19270.00 19350.10 138.82
83 12.4800 7.086863 19470.00 19322.30 139.54
84 12.5100 7.069935 19122.00 19294.60 138.28
85 12.5400 7.053089 18992.00 19267.20 137.81
86 12.5700 7.036323 19246.00 19239.90 138.73
87 12.6000 7.019637 19158.00 19212.90 138.41
88 12.6300 7.003031 19200.00 19186.20 138.56
89 12.6600 6.986504 18915.00 19159.70 137.53
90 12.6900 6.970054 18850.00 19133.60 137.29
91 12.7200 6.953682 19128.00 19107.70 138.30
92 12.7500 6.937388 18872.00 19082.20 137.38
93 12.7800 6.921171 19035.00 19057.10 137.97
94 12.8100 6.905029 18864.00 19032.50 137.35
95 12.8400 6.888963 18972.00 19008.30 137.74
96 12.8700 6.872972 18840.00 18984.80 137.26
97 12.9000 6.857056 18850.00 18961.90 137.29
98 12.9300 6.841213 18782.00 18939.70 137.05
99 12.9600 6.825445 18818.00 18918.40 137.18
100 12.9900 6.809749 18655.00 18898.10 136.58
101 13.0200 6.794126 18515.00 18879.00 136.07
102 13.0500 6.778574 18668.00 18861.30 136.63
103 13.0800 6.763094 19029.00 18845.40 137.95
104 13.1100 6.747686 18755.00 18831.60 136.95
105 13.1400 6.732347 18500.00 18820.40 136.01
106 13.1700 6.717079 18442.00 18812.30 135.80
107 13.2000 6.701880 18640.00 18808.40 136.53
108 13.2300 6.686751 18663.00 18809.80 136.61
109 13.2600 6.671690 18843.00 18818.30 137.27
110 13.2900 6.656697 18831.00 18837.10 137.23
111 13.3200 6.641772 18840.00 18872.20 137.26
112 13.3500 6.626913 19099.00 18937.40 138.20
113 13.3800 6.612122 19668.00 19062.40 140.24
114 13.4100 6.597397 20060.00 19304.80 141.63
115 13.4400 6.582738 20849.00 19758.50 144.39
116 13.4700 6.568145 21574.00 20554.10 146.88
117 13.5000 6.553617 22999.00 21894.50 151.65
118 13.5300 6.539153 24504.00 24207.00 156.54
119 13.5600 6.524753 27970.00 28064.50 167.24
120 13.5900 6.510417 34410.00 33166.10 185.50
121 13.6200 6.496144 43886.00 37128.10 209.49
122 13.6500 6.481935 43314.00 34907.50 208.12
123 13.6800 6.467787 25825.00 26652.90 160.70
124 13.7100 6.453701 20043.00 20366.20 141.57
125 13.7400 6.439678 18912.00 18029.80 137.52
126 13.7700 6.425715 18686.00 17742.70 136.70
127 13.8000 6.411813 18065.00 18002.00 134.41
128 13.8300 6.397973 18182.00 18278.50 134.84
129 13.8600 6.384192 17906.00 18432.30 133.81
130 13.8900 6.370470 17729.00 18460.40 133.15
131 13.9200 6.356808 17705.00 18411.40 133.06
132 13.9500 6.343205 18135.00 18331.80 134.67
133 13.9800 6.329660 17675.00 18248.60 132.95
134 14.0100 6.316174 17671.00 18172.10 132.93
135 14.0400 6.302745 17570.00 18104.40 132.55
136 14.0700 6.289374 17669.00 18044.30 132.93
137 14.1000 6.276060 17653.00 17990.50 132.87
138 14.1300 6.262802 17783.00 17941.50 133.35
139 14.1600 6.249600 17684.00 17896.30 132.98
140 14.1900 6.236455 17556.00 17854.10 132.50
141 14.2200 6.223366 17411.00 17814.30 131.95
142 14.2500 6.210331 17713.00 17776.40 133.09
143 14.2800 6.197352 17416.00 17740.20 131.97
144 14.3100 6.184427 17423.00 17705.30 132.00
145 14.3400 6.171556 17601.00 17671.50 132.67
146 14.3700 6.158739 17522.00 17638.70 132.37
147 14.4000 6.145976 17192.00 17606.60 131.12
148 14.4300 6.133266 17118.00 17575.20 130.84
149 14.4600 6.120608 16975.00 17544.50 130.29
150 14.4900 6.108004 17115.00 17514.20 130.82
151 14.5200 6.095451 17311.00 17484.30 131.57
152 14.5500 6.082951 17269.00 17454.90 131.41
153 14.5800 6.070502 16961.00 17425.80 130.23
154 14.6100 6.058105 17149.00 17397.00 130.95
155 14.6400 6.045757 17192.00 17369.10 131.12
156 14.6700 6.033462 17087.00 17340.80 130.72
157 14.7000 6.021216 16741.00 17312.80 129.39
158 14.7300 6.009020 16962.00 17285.00 130.24
159 14.7600 5.996874 17045.00 17257.30 130.56
160 14.7900 5.984777 16901.00 17229.80 130.00
161 14.8200 5.972730 16825.00 17202.40 129.71
162 14.8500 5.960731 16828.00 17175.20 129.72
163 14.8800 5.948781 16908.00 17148.10 130.03
164 14.9100 5.936879 16739.00 17121.10 129.38
165 14.9400 5.925025 16785.00 17094.20 129.56
166 14.9700 5.913218 16801.00 17067.40 129.62
167 15.0000 5.901460 16864.00 17040.80 129.86
168 15.0300 5.889748 16995.00 17014.20 130.37
169 15.0600 5.878082 16689.00 16967.70 129.19
170 15.0900 5.866464 16524.00 16942.10 128.55
171 15.1200 5.854891 16924.00 16916.50 130.09
172 15.1500 5.843365 16740.00 16890.90 129.38
173 15.1800 5.831884 16535.00 16865.40 128.59
174 15.2100 5.820449 16406.00 16839.80 128.09
175 15.2400 5.809059 16306.00 16814.40 127.69
176 15.2700 5.797713 16551.00 16788.90 128.65
177 15.3000 5.786413 16673.00 16763.50 129.12
178 15.3300 5.775156 16513.00 16738.10 128.50
179 15.3600 5.763945 16539.00 16712.80 128.60
180 15.3900 5.752776 16428.00 16687.50 128.17
181 15.4200 5.741651 16433.00 16662.30 128.19
182 15.4500 5.730570 16320.00 16637.20 127.75
183 15.4800 5.719532 16457.00 16612.10 128.29
184 15.5100 5.708536 16247.00 16587.10 127.46
185 15.5400 5.697583 16321.00 16562.30 127.75
186 15.5700 5.686673 16025.00 16538.50 126.59
187 15.6000 5.675804 16246.00 16514.20 127.46
188 15.6300 5.664978 16113.00 16490.20 126.94
189 15.6600 5.654193 16264.00 16466.50 127.53
190 15.6900 5.643449 16417.00 16443.60 128.13
191 15.7200 5.632747 16275.00 16423.60 127.57
192 15.7500 5.622085 16366.00 16404.40 127.93
193 15.7800 5.611465 16229.00 16389.80 127.39
194 15.8100 5.600883 16324.00 16383.30 127.76
195 15.8400 5.590343 16098.00 16390.30 126.88
196 15.8700 5.579843 16321.00 16422.40 127.75
197 15.9000 5.569383 16422.00 16522.00 128.15
198 15.9300 5.558961 16862.00 16817.50 129.85
199 15.9600 5.548580 17260.00 17267.10 131.38
200 15.9900 5.538237 16891.00 16800.10 129.96
201 16.0200 5.527934 16528.00 16602.90 128.56
202 16.0500 5.517669 16252.00 16323.20 127.48
203 16.0800 5.507442 15760.00 16156.30 125.54
204 16.1100 5.497252 15814.00 16090.30 125.75
205 16.1400 5.487103 16087.00 16062.20 126.83
206 16.1700 5.476990 15899.00 16042.40 126.09
207 16.2000 5.466915 15704.00 16021.60 125.32
208 16.2300 5.456877 15847.00 15998.10 125.89
209 16.2600 5.446877 15571.00 15972.70 124.78
210 16.2900 5.436913 15783.00 15946.60 125.63
211 16.3200 5.426986 15698.00 15920.90 125.29
212 16.3500 5.417095 15767.00 15895.90 125.57
213 16.3800 5.407242 15528.00 15871.20 124.61
214 16.4100 5.397424 15683.00 15848.70 125.23
215 16.4400 5.387642 15668.00 15828.10 125.17
216 16.4700 5.377896 15816.00 15811.20 125.76
217 16.5000 5.368186 15738.00 15803.00 125.45
218 16.5300 5.358510 15658.00 15816.30 125.13
219 16.5600 5.348870 15967.00 15881.20 126.36
220 16.5900 5.339265 16012.00 16128.90 126.54
221 16.6200 5.329695 16536.00 16945.50 128.59
222 16.6500 5.320159 17297.00 18136.90 131.52
223 16.6800 5.310659 17512.00 18051.40 132.33
224 16.7100 5.301192 16260.00 16470.30 127.51
225 16.7400 5.291759 15544.00 15654.70 124.68
226 16.7700 5.282360 15461.00 15536.40 124.34
227 16.8000 5.272995 15418.00 15524.60 124.17
228 16.8300 5.263663 15628.00 15508.90 125.01
229 16.8600 5.254364 15099.00 15481.70 122.88
230 16.8900 5.245100 15381.00 15449.80 124.02
231 16.9200 5.235867 15290.00 15418.20 123.65
232 16.9500 5.226667 15150.00 15388.00 123.08
233 16.9800 5.217501 15195.00 15359.20 123.27
234 17.0100 5.208366 15144.00 15331.20 123.06
235 17.0400 5.199264 15120.00 15303.90 122.96
236 17.0700 5.190194 15520.00 15277.10 124.58
237 17.1000 5.181156 15260.00 15250.60 123.53
238 17.1300 5.172150 15161.00 15224.40 123.13
239 17.1600 5.163175 15043.00 15198.30 122.65
240 17.1900 5.154231 15126.00 15172.50 122.99
241 17.2200 5.145320 15319.00 15146.70 123.77
242 17.2500 5.136438 15029.00 15121.10 122.59
243 17.2800 5.127588 14978.00 15095.50 122.39
244 17.3100 5.118770 15140.00 15070.00 123.04
245 17.3400 5.109981 15046.00 15044.60 122.66
246 17.3700 5.101223 14805.00 15018.70 121.68
247 17.4000 5.092495 15109.00 14993.40 122.92
248 17.4300 5.083798 14831.00 14968.30 121.78
249 17.4600 5.075130 14581.00 14943.20 120.75
250 17.4900 5.066493 14678.00 14918.30 121.15
251 17.5200 5.057885 14778.00 14893.50 121.57
252 17.5500 5.049306 14787.00 14869.20 121.60
253 17.5800 5.040757 14940.00 14846.30 122.23
254 17.6100 5.032238 14869.00 14824.90 121.94
255 17.6400 5.023747 14980.00 14807.80 122.39
256 17.6700 5.015285 14953.00 14801.20 122.28
257 17.7000 5.006852 14821.00 14818.60 121.74
258 17.7300 4.998448 14566.00 14839.30 120.69
259 17.7600 4.990072 14812.00 14802.60 121.71
260 17.7900 4.981724 14625.00 14711.90 120.93
261 17.8200 4.973405 14721.00 14650.20 121.33
262 17.8500 4.965114 14668.00 14618.20 121.11
263 17.8800 4.956851 14627.00 14594.40 120.94
264 17.9100 4.948616 14717.00 14572.30 121.31
265 17.9400 4.940408 14606.00 14552.50 120.86
266 17.9700 4.932228 14538.00 14549.00 120.57
267 18.0000 4.924075 14814.00 14609.30 121.71
268 18.0300 4.915949 14672.00 14764.50 121.13
269 18.0600 4.907851 14519.00 14480.40 120.50
270 18.0900 4.899779 14541.00 14423.40 120.59
271 18.1200 4.891735 14358.00 14401.00 119.82
272 18.1500 4.883717 14237.00 14371.50 119.32
273 18.1800 4.875725 14463.00 14343.50 120.26
274 18.2100 4.867761 14204.00 14316.80 119.18
275 18.2400 4.859822 14158.00 14290.80 118.99
276 18.2700 4.851909 14170.00 14265.20 119.04
277 18.3000 4.844023 14137.00 14239.70 118.90
278 18.3300 4.836163 14286.00 14214.40 119.52
279 18.3600 4.828328 14151.00 14189.10 118.96
280 18.3900 4.820519 14044.00 14164.30 118.51
281 18.4200 4.812736 13968.00 14139.20 118.19
282 18.4500 4.804977 14200.00 14114.10 119.16
283 18.4800 4.797245 13888.00 14089.10 117.85
284 18.5100 4.789537 14061.00 14063.60 118.58
285 18.5400 4.781854 14280.00 14038.60 119.50
286 18.5700 4.774197 14189.00 14013.70 119.12
287 18.6000 4.766564 14291.00 13988.80 119.54
288 18.6300 4.758956 14045.00 13963.80 118.51
289 18.6600 4.751373 13874.00 13938.90 117.79
290 18.6900 4.743814 14115.00 13914.00 118.81
291 18.7200 4.736279 14034.00 13889.10 118.46
292 18.7500 4.728769 13973.00 13864.30 118.21
293 18.7800 4.721282 13824.00 13839.40 117.58
294 18.8100 4.713820 13776.00 13814.60 117.37
295 18.8400 4.706381 13802.00 13789.70 117.48
296 18.8700 4.698967 13772.00 13764.80 117.35
297 18.9000 4.691576 13719.00 13740.00 117.13
298 18.9300 4.684208 13925.00 13715.20 118.00
299 18.9600 4.676864 13497.00 13690.50 116.18
300 18.9900 4.669543 13690.00 13665.70 117.00
301 19.0200 4.662246 13585.00 13641.00 116.56
302 19.0500 4.654971 13593.00 13616.30 116.59
303 19.0800 4.647719 13618.00 13591.70 116.70
304 19.1100 4.640491 13586.00 13567.10 116.56
305 19.1400 4.633285 13453.00 13542.50 115.99
306 19.1700 4.626101 13374.00 13518.00 115.65
307 19.2000 4.618941 13730.00 13493.60 117.18
308 19.2300 4.611803 13603.00 13469.30 116.63
309 19.2600 4.604687 13615.00 13445.10 116.68
310 19.2900 4.597593 13497.00 13421.10 116.18
311 19.3200 4.590522 13632.00 13397.40 116.76
312 19.3500 4.583472 13701.00 13374.40 117.05
313 19.3800 4.576445 13548.00 13352.40 116.40
314 19.4100 4.569439 13393.00 13332.80 115.73
315 19.4400 4.562455 13631.00 13317.50 116.75
316 19.4700 4.555493 13588.00 13310.20 116.57
317 19.5000 4.548552 13400.00 13320.90 115.76
318 19.5300 4.541633 13539.00 13368.00 116.36
319 19.5600 4.534735 13662.00 13449.50 116.89
320 19.5900 4.527858 13595.00 13498.00 116.60
321 19.6200 4.521002 13656.00 13395.00 116.86
322 19.6500 4.514167 13203.00 13226.00 114.90
323 19.6800 4.507353 13019.00 13125.30 114.10
324 19.7100 4.500561 13170.00 13080.00 114.76
325 19.7400 4.493789 13327.00 13053.00 115.44
326 19.7700 4.487037 13326.00 13030.20 115.44
327 19.8000 4.480307 13234.00 13006.00 115.04
328 19.8300 4.473596 13028.00 12980.90 114.14
329 19.8600 4.466906 13171.00 12955.30 114.76
330 19.8900 4.460236 13195.00 12929.80 114.87
331 19.9200 4.453587 12962.00 12904.50 113.85
332 19.9500 4.446957 13063.00 12879.50 114.29
333 19.9800 4.440348 12994.00 12854.80 113.99
334 20.0100 4.433758 13055.00 12830.40 114.26
335 20.0400 4.427188 13012.00 12806.30 114.07
336 20.0700 4.420639 12954.00 12782.60 113.82
337 20.1000 4.414108 12860.00 12759.60 113.40
338 20.1300 4.407598 13195.00 12737.80 114.87
339 20.1600 4.401106 12921.00 12718.70 113.67
340 20.1900 4.394634 12828.00 12709.30 113.26
341 20.2200 4.388182 12948.00 12743.80 113.79
342 20.2500 4.381748 12968.00 12888.70 113.88
343 20.2800 4.375334 12926.00 13074.70 113.69
344 20.3100 4.368939 12745.00 12649.20 112.89
345 20.3400 4.362563 12842.00 12580.70 113.32
346 20.3700 4.356205 12760.00 12557.90 112.96
347 20.4000 4.349867 12691.00 12526.90 112.65
348 20.4300 4.343547 12747.00 12497.70 112.90
349 20.4600 4.337246 12721.00 12470.70 112.79
350 20.4900 4.330963 12622.00 12444.90 112.35
351 20.5200 4.324699 12751.00 12419.70 112.92
352 20.5500 4.318453 12594.00 12394.90 112.22
353 20.5800 4.312226 12700.00 12370.40 112.69
354 20.6100 4.306016 12453.00 12346.00 111.59
355 20.6400 4.299826 12665.00 12321.90 112.54
356 20.6700 4.293653 12682.00 12297.90 112.61
357 20.7000 4.287498 12496.00 12274.00 111.79
358 20.7300 4.281361 12769.00 12250.20 113.00
359 20.7600 4.275241 12383.00 12226.50 111.28
360 20.7900 4.269140 12363.00 12202.90 111.19
361 20.8200 4.263056 12593.00 12178.70 112.22
362 20.8500 4.256990 12349.00 12155.10 111.13
363 20.8800 4.250941 12551.00 12132.00 112.03
364 20.9100 4.244910 12573.00 12109.10 112.13
365 20.9400 4.238896 12151.00 12086.30 110.23
366 20.9700 4.232900 12327.00 12063.70 111.03
367 21.0000 4.226920 12262.00 12041.40 110.73
368 21.0300 4.220958 12289.00 12019.30 110.86
369 21.0600 4.215013 12139.00 11997.60 110.18
370 21.0900 4.209085 12273.00 11976.40 110.78
371 21.1200 4.203174 12346.00 11955.60 111.11
372 21.1500 4.197279 12463.00 11935.50 111.64
373 21.1800 4.191402 12107.00 11916.30 110.03
374 21.2100 4.185542 12159.00 11898.10 110.27
375 21.2400 4.179698 12442.00 11881.40 111.54
376 21.2700 4.173870 12175.00 11866.80 110.34
377 21.3000 4.168059 12318.00 11855.30 110.99
378 21.3300 4.162265 11999.00 11849.30 109.54
379 21.3600 4.156486 12093.00 11853.60 109.97
380 21.3900 4.150724 11929.00 11877.30 109.22
381 21.4200 4.144979 12234.00 11935.70 110.61
382 21.4500 4.139249 12447.00 12052.60 111.57
383 21.4800 4.133536 12654.00 12278.20 112.49
384 21.5100 4.127839 12929.00 12727.80 113.71
385 21.5400 4.122157 13515.00 13535.70 116.25
386 21.5700 4.116492 14498.00 14594.60 120.41
387 21.6000 4.110842 15096.00 15195.10 122.87
388 21.6300 4.105208 14003.00 14284.70 118.33
389 21.6600 4.099590 13059.00 12807.70 114.28
390 21.6900 4.093987 12208.00 11947.70 110.49
391 21.7200 4.088401 12052.00 11632.50 109.78
392 21.7500 4.082829 11973.00 11543.50 109.42
393 21.7800 4.077273 11739.00 11515.50 108.35
394 21.8100 4.071733 11721.00 11494.80 108.26
395 21.8400 4.066207 11664.00 11464.80 108.00
396 21.8700 4.060698 11867.00 11428.90 108.94
397 21.9000 4.055203 11623.00 11391.60 107.81
398 21.9300 4.049723 11708.00 11355.60 108.20
399 21.9600 4.044259 11611.00 11321.70 107.75
400 21.9900 4.038809 11603.00 11290.00 107.72
401 22.0200 4.033374 11406.00 11260.00 106.80
402 22.0500 4.027954 11451.00 11231.30 107.01
403 22.0800 4.022549 11500.00 11203.70 107.24
404 22.1100 4.017159 11545.00 11176.80 107.45
405 22.1400 4.011784 11560.00 11150.60 107.52
406 22.1700 4.006422 11503.00 11125.00 107.25
407 22.2000 4.001076 11296.00 11099.80 106.28
408 22.2300 3.995744 11148.00 11074.90 105.58
409 22.2600 3.990427 11504.00 11050.40 107.26
410 22.2900 3.985124 11264.00 11026.10 106.13
411 22.3200 3.979835 11384.00 11002.20 106.70
412 22.3500 3.974561 11259.00 10978.40 106.11
413 22.3800 3.969301 11380.00 10954.90 106.68
414 22.4100 3.964055 11144.00 10931.70 105.57
415 22.4400 3.958823 11180.00 10908.60 105.74
416 22.4700 3.953606 11266.00 10885.90 106.14
417 22.5000 3.948402 11265.00 10863.40 106.14
418 22.5300 3.943212 10981.00 10841.30 104.79
419 22.5600 3.938036 10884.00 10819.50 104.33
420 22.5900 3.932874 11035.00 10798.30 105.05
421 22.6200 3.927726 10862.00 10777.80 104.22
422 22.6500 3.922592 10892.00 10758.20 104.36
423 22.6800 3.917471 11136.00 10740.10 105.53
424 22.7100 3.912364 10753.00 10724.40 103.70
425 22.7400 3.907270 10913.00 10713.80 104.46
426 22.7700 3.902190 10985.00 10713.60 104.81
427 22.8000 3.897123 11051.00 10734.10 105.12
428 22.8300 3.892070 11013.00 10797.80 104.94
429 22.8600 3.887030 11181.00 10977.90 105.74
430 22.8900 3.882004 11693.00 11405.30 108.13
431 22.9200 3.876990 12020.00 12016.20 109.64
432 22.9500 3.871990 12125.00 12219.60 110.11
433 22.9800 3.867003 11486.00 11509.70 107.17
434 23.0100 3.862029 10989.00 10819.70 104.83
435 23.0400 3.857068 10769.00 10544.00 103.77
436 23.0700 3.852121 10560.00 10466.80 102.76
437 23.1000 3.847186 10442.00 10437.20 102.19
438 23.1300 3.842263 10590.00 10412.70 102.91
439 23.1600 3.837354 10318.00 10385.40 101.58
440 23.1900 3.832458 10423.00 10356.40 102.09
441 23.2200 3.827574 10310.00 10328.00 101.54
442 23.2500 3.822703 10309.00 10300.70 101.53
443 23.2800 3.817845 10341.00 10274.60 101.69
444 23.3100 3.812999 10463.00 10249.40 102.29
445 23.3400 3.808166 10338.00 10224.90 101.68
446 23.3700 3.803345 10350.00 10200.90 101.74
447 23.4000 3.798537 10262.00 10177.20 101.30
448 23.4300 3.793741 10059.00 10153.90 100.29
449 23.4600 3.788958 10092.00 10130.80 100.46
450 23.4900 3.784186 10183.00 10107.90 100.91
451 23.5200 3.779427 10236.00 10085.10 101.17
452 23.5500 3.774681 10190.00 10064.00 100.95
453 23.5800 3.769946 10029.00 10041.50 100.14
454 23.6100 3.765224 10008.00 10019.20 100.04
455 23.6400 3.760514 10068.00 9996.97 100.34
456 23.6700 3.755815 9963.00 9974.83 99.81
457 23.7000 3.751129 10133.00 9952.77 100.66
458 23.7300 3.746454 9804.00 9930.78 99.02
459 23.7600 3.741792 9955.00 9908.87 99.77
460 23.7900 3.737141 9859.00 9887.03 99.29
461 23.8200 3.732502 9981.00 9865.27 99.90
462 23.8500 3.727875 9821.00 9843.57 99.10
463 23.8800 3.723260 9860.00 9821.94 99.30
464 23.9100 3.718656 9939.00 9800.39 99.69
465 23.9400 3.714064 9819.00 9778.91 99.09
466 23.9700 3.709484 9855.00 9757.51 99.27
467 24.0000 3.704915 9670.00 9736.21 98.34
468 24.0300 3.700357 9678.00 9715.50 98.38
469 24.0600 3.695811 9703.00 9694.44 98.50
470 24.0900 3.691276 9711.00 9673.52 98.54
471 24.1200 3.686753 9807.00 9651.28 99.03
472 24.1500 3.682241 9774.00 9630.87 98.86
473 24.1800 3.677740 9484.00 9610.87 97.39
474 24.2100 3.673251 9615.00 9591.61 98.06
475 24.2400 3.668773 9491.00 9573.68 97.42
476 24.2700 3.664306 9560.00 9558.11 97.78
477 24.3000 3.659850 9638.00 9547.12 98.17
478 24.3300 3.655405 9476.00 9546.57 97.34
479 24.3600 3.650971 9518.00 9564.89 97.56
480 24.3900 3.646549 9676.00 9597.82 98.37
481 24.4200 3.642136 9526.00 9606.37 97.60
482 24.4500 3.637735 9452.00 9539.47 97.22
483 24.4800 3.633345 9523.00 9454.53 97.59
484 24.5100 3.628966 9204.00 9401.58 95.94
485 24.5400 3.624597 9071.00 9371.77 95.24
486 24.5700 3.620240 9305.00 9350.58 96.46
487 24.6000 3.615893 9365.00 9331.83 96.77
488 24.6300 3.611557 9319.00 9313.87 96.54
489 24.6600 3.607231 9168.00 9296.65 95.75
490 24.6900 3.602916 9191.00 9280.82 95.87
491 24.7200 3.598611 9284.00 9267.47 96.35
492 24.7500 3.594317 9252.00 9258.48 96.19
493 24.7800 3.590034 9318.00 9256.98 96.53
494 24.8100 3.585760 9453.00 9267.78 97.23
495 24.8400 3.581498 9225.00 9298.50 96.05
496 24.8700 3.577245 9445.00 9364.77 97.19
497 24.9000 3.573004 9442.00 9499.13 97.17
498 24.9300 3.568772 9669.00 9740.05 98.33
499 24.9600 3.564550 9951.00 10074.90 99.75
500 24.9900 3.560339 10223.00 10342.00 101.11
501 25.0200 3.556138 10106.00 10206.00 100.53
502 25.0500 3.551947 9933.00 9814.26 99.66
503 25.0800 3.547766 9627.00 9648.52 98.12
504 25.1100 3.543595 9762.00 9684.48 98.80
505 25.1400 3.539435 9806.00 9533.29 99.03
506 25.1700 3.535284 9175.00 9202.68 95.79
507 25.2000 3.531143 8957.00 9015.19 94.64
508 25.2300 3.527013 8979.00 8947.52 94.76
509 25.2600 3.522892 8826.00 8914.74 93.95
510 25.2900 3.518780 8901.00 8887.44 94.35
511 25.3200 3.514679 8698.00 8860.16 93.26
512 25.3500 3.510588 8771.00 8833.16 93.65
513 25.3800 3.506506 8591.00 8807.19 92.69
514 25.4100 3.502434 8692.00 8782.43 93.23
515 25.4400 3.498372 8707.00 8758.71 93.31
516 25.4700 3.494319 8873.00 8735.80 94.20
517 25.5000 3.490276 8542.00 8713.52 92.42
518 25.5300 3.486243 8625.00 8691.72 92.87
519 25.5600 3.482219 8640.00 8670.31 92.95
520 25.5900 3.478205 8495.00 8649.20 92.17
521 25.6200 3.474200 8532.00 8628.35 92.37
522 25.6500 3.470205 8545.00 8607.71 92.44
523 25.6800 3.466218 8413.00 8587.25 91.72
524 25.7100 3.462242 8642.00 8566.79 92.96
525 25.7400 3.458275 8567.00 8546.63 92.56
526 25.7700 3.454316 8417.00 8526.59 91.74
527 25.8000 3.450368 8189.00 8506.66 90.49
528 25.8300 3.446428 8511.00 8486.83 92.26
529 25.8600 3.442498 8522.00 8467.47 92.31
530 25.8900 3.438577 8456.00 8447.82 91.96
531 25.9200 3.434665 8253.00 8428.26 90.85
532 25.9500 3.430763 8320.00 8408.76 91.21
533 25.9800 3.426869 8357.00 8389.33 91.42
534 26.0100 3.422984 8484.00 8369.97 92.11
535 26.0400 3.419109 8401.00 8350.67 91.66
536 26.0700 3.415243 8234.00 8331.43 90.74
537 26.1000 3.411385 8170.00 8312.25 90.39
538 26.1300 3.407536 8084.00 8293.13 89.91
539 26.1600 3.403697 8208.00 8274.06 90.60
540 26.1900 3.399866 8153.00 8255.04 90.29
541 26.2200 3.396044 8153.00 8236.08 90.29
542 26.2500 3.392231 8230.00 8216.69 90.72
543 26.2800 3.388426 8038.00 8197.86 89.65
544 26.3100 3.384630 8048.00 8179.07 89.71
545 26.3400 3.380843 8077.00 8160.33 89.87
546 26.3700 3.377065 8064.00 8141.65 89.80
547 26.4000 3.373296 8023.00 8123.01 89.57
548 26.4300 3.369535 8070.00 8104.42 89.83
549 26.4600 3.365783 8015.00 8085.88 89.53
550 26.4900 3.362039 7863.00 8065.95 88.67
551 26.5200 3.358304 7942.00 8047.56 89.12
552 26.5500 3.354577 7944.00 8029.22 89.13
553 26.5800 3.350859 7862.00 8010.93 88.67
554 26.6100 3.347149 7967.00 7992.68 89.26
555 26.6400 3.343448 7977.00 7974.49 89.31
556 26.6700 3.339755 7919.00 7956.34 88.99
557 26.7000 3.336070 7862.00 7938.25 88.67
558 26.7300 3.332394 7679.00 7920.22 87.63
559 26.7600 3.328727 7772.00 7902.24 88.16
560 26.7900 3.325067 7557.00 7884.32 86.93
561 26.8200 3.321416 7711.00 7866.46 87.81
562 26.8500 3.317773 7826.00 7848.72 88.46
563 26.8800 3.314138 7833.00 7831.00 88.50
564 26.9100 3.310511 7617.00 7813.37 87.28
565 26.9400 3.306893 7672.00 7795.83 87.59
566 26.9700 3.303282 7651.00 7778.38 87.47
567 27.0000 3.299680 7621.00 7761.05 87.30
568 27.0300 3.296086 7571.00 7743.84 87.01
569 27.0600 3.292500 7436.00 7726.80 86.23
570 27.0900 3.288922 7615.00 7709.96 87.26
571 27.1200 3.285352 7623.00 7694.10 87.31
572 27.1500 3.281789 7437.00 7677.96 86.24
573 27.1800 3.278235 7515.00 7662.43 86.69
574 27.2100 3.274689 7479.00 7647.90 86.48
575 27.2400 3.271151 7498.00 7634.93 86.59
576 27.2700 3.267620 7683.00 7624.35 87.65
577 27.3000 3.264097 7531.00 7617.39 86.78
578 27.3300 3.260582 7487.00 7617.14 86.53
579 27.3600 3.257075 7541.00 7627.94 86.84
580 27.3900 3.253576 7633.00 7652.44 87.37
581 27.4200 3.250084 7855.00 7696.23 88.63
582 27.4500 3.246600 7897.00 7751.45 88.87
583 27.4800 3.243124 8180.00 7780.10 90.44
584 27.5100 3.239655 7968.00 7727.94 89.26
585 27.5400 3.236194 7644.00 7629.43 87.43
586 27.5700 3.232741 7413.00 7529.13 86.10
587 27.6000 3.229295 7357.00 7461.73 85.77
588 27.6300 3.225857 7270.00 7425.77 85.26
589 27.6600 3.222427 7272.00 7402.13 85.28
590 27.6900 3.219003 7346.00 7382.80 85.71
591 27.7200 3.215588 7255.00 7364.86 85.18
592 27.7500 3.212180 7371.00 7347.26 85.85
593 27.7800 3.208779 7253.00 7329.69 85.16
594 27.8100 3.205386 7153.00 7312.22 84.58
595 27.8400 3.202000 7093.00 7294.93 84.22
596 27.8700 3.198621 7168.00 7277.90 84.66
597 27.9000 3.195250 7013.00 7261.16 83.74
598 27.9300 3.191886 7068.00 7244.70 84.07
599 27.9600 3.188529 7213.00 7228.50 84.93
600 27.9900 3.185180 6871.00 7212.56 82.89
601 28.0200 3.181838 7130.00 7196.86 84.44
602 28.0500 3.178503 6997.00 7181.41 83.65
603 28.0800 3.175175 6952.00 7166.22 83.38
604 28.1100 3.171854 7302.00 7151.29 85.45
605 28.1400 3.168541 7012.00 7136.66 83.74
606 28.1700 3.165235 6892.00 7122.36 83.02
607 28.2000 3.161936 7156.00 7108.44 84.59
608 28.2300 3.158644 6960.00 7094.96 83.43
609 28.2600 3.155359 6952.00 7081.99 83.38
610 28.2900 3.152081 7023.00 7069.62 83.80
611 28.3200 3.148810 6892.00 7058.07 83.02
612 28.3500 3.145546 7022.00 7047.52 83.80
613 28.3800 3.142289 6926.00 7038.34 83.22
614 28.4100 3.139039 6902.00 7031.13 83.08
615 28.4400 3.135796 6881.00 7027.02 82.95
616 28.4700 3.132560 6974.00 7028.04 83.51
617 28.5000 3.129331 6761.00 7073.91 82.23
618 28.5300 3.126108 6871.00 7099.05 82.89
619 28.5600 3.122893 7029.00 7148.06 83.84
620 28.5900 3.119684 7142.00 7242.92 84.51
621 28.6200 3.116482 7430.00 7420.81 86.20
622 28.6500 3.113287 7698.00 7703.92 87.74
623 28.6800 3.110098 7822.00 8026.74 88.44
624 28.7100 3.106917 8300.00 8160.05 91.10
625 28.7400 3.103742 8241.00 8051.39 90.78
626 28.7700 3.100574 8001.00 7923.26 89.45
627 28.8000 3.097412 7898.00 7829.15 88.87
628 28.8300 3.094257 7774.00 7895.50 88.17
629 28.8600 3.091109 8074.00 8211.23 89.86
630 28.8900 3.087967 8706.00 8725.71 93.31
631 28.9200 3.084832 9119.00 9163.72 95.49
632 28.9500 3.081703 8925.00 9133.84 94.47
633 28.9800 3.078581 8567.00 8749.13 92.56
634 29.0100 3.075466 8008.00 8128.56 89.49
635 29.0400 3.072357 7376.00 7518.63 85.88
636 29.0700 3.069255 7006.00 7155.44 83.70
637 29.1000 3.066159 6804.00 6990.66 82.49
638 29.1300 3.063069 6768.00 6924.74 82.27
639 29.1600 3.059986 6779.00 6896.82 82.33
640 29.1900 3.056909 6557.00 6882.31 80.98
641 29.2200 3.053839 6612.00 6873.10 81.31
642 29.2500 3.050775 6538.00 6868.53 80.86
643 29.2800 3.047718 6518.00 6870.17 80.73
644 29.3100 3.044666 6647.00 6880.30 81.53
645 29.3400 3.041621 6641.00 6900.22 81.49
646 29.3700 3.038583 6580.00 6932.70 81.12
647 29.4000 3.035550 6769.00 6981.33 82.27
648 29.4300 3.032524 6768.00 7051.97 82.27
649 29.4600 3.029505 6849.00 7155.34 82.76
650 29.4900 3.026491 7044.00 7313.38 83.93
651 29.5200 3.023483 7300.00 7601.35 85.44
652 29.5500 3.020482 8105.00 8053.67 90.03
653 29.5800 3.017487 9195.00 8862.62 95.89
654 29.6100 3.014498 11063.00 10377.20 105.18
655 29.6400 3.011515 14959.00 13604.00 122.31
656 29.6700 3.008538 21369.00 20643.30 146.18
657 29.7000 3.005568 31602.00 32339.90 177.77
658 29.7300 3.002603 42828.00 42541.70 206.95
659 29.7600 2.999645 38224.00 37022.90 195.51
660 29.7900 2.996692 21532.00 21907.90 146.74
661 29.8200 2.993745 12960.00 12548.90 113.84
662 29.8500 2.990805 9386.00 9043.94 96.88
663 29.8800 2.987870 7969.00 8008.14 89.27
664 29.9100 2.984941 7517.00 7675.88 86.70
665 29.9400 2.982019 7063.00 7478.34 84.04
666 29.9700 2.979102 6811.00 7297.54 82.53
667 30.0000 2.976192 6523.00 7144.70 80.77
668 30.0300 2.973286 6768.00 7049.67 82.27
669 30.0600 2.970387 7042.00 7015.67 83.92
670 30.0900 2.967494 7193.00 6830.43 84.81
671 30.1200 2.964607 6584.00 6676.31 81.14
672 30.1500 2.961725 6326.00 6600.16 79.54
673 30.1800 2.958849 6267.00 6549.51 79.16
674 30.2100 2.955979 6169.00 6510.05 78.54
675 30.2400 2.953115 6080.00 6479.55 77.97
676 30.2700 2.950257 6236.00 6457.54 78.97
677 30.3000 2.947404 6271.00 6443.67 79.19
678 30.3300 2.944557 6214.00 6437.69 78.83
679 30.3600 2.941715 6116.00 6440.21 78.20
680 30.3900 2.938880 6240.00 6452.42 78.99
681 30.4200 2.936050 6282.00 6476.41 79.26
682 30.4500 2.933226 6260.00 6514.90 79.12
683 30.4800 2.930407 6318.00 6573.99 79.49
684 30.5100 2.927594 6257.00 6665.23 79.10
685 30.5400 2.924786 6674.00 6815.43 81.69
686 30.5700 2.921984 6915.00 7070.72 83.16
687 30.6000 2.919188 7554.00 7520.19 86.91
688 30.6300 2.916397 8715.00 8327.52 93.35
689 30.6600 2.913612 10696.00 9903.53 103.42
690 30.6900 2.910832 14223.00 13312.00 119.26
691 30.7200 2.908058 20086.00 20077.50 141.73
692 30.7500 2.905289 28959.00 29401.30 170.17
693 30.7800 2.902525 34394.00 33880.70 185.46
694 30.8100 2.899768 25565.00 25472.30 159.89
695 30.8400 2.897015 15002.00 15039.00 122.48
696 30.8700 2.894268 10089.00 9700.15 100.44
697 30.9000 2.891526 7974.00 7823.13 89.30
698 30.9300 2.888790 7186.00 7219.71 84.77
699 30.9600 2.886060 6833.00 6942.71 82.66
700 30.9900 2.883334 6373.00 6742.07 79.83
701 31.0200 2.880614 6116.00 6533.94 78.20
702 31.0500 2.877899 6149.00 6386.58 78.42
703 31.0800 2.875190 5993.00 6265.25 77.41
704 31.1100 2.872485 5963.00 6167.63 77.22
705 31.1400 2.869787 5961.00 6089.14 77.21
706 31.1700 2.867092 5827.00 6025.32 76.33
707 31.2000 2.864404 5826.00 5972.40 76.33
708 31.2300 2.861721 5877.00 5927.86 76.66
709 31.2600 2.859043 5734.00 5889.83 75.72
710 31.2900 2.856370 5571.00 5856.97 74.64
711 31.3200 2.853703 5788.00 5828.30 76.08
712 31.3500 2.851040 5548.00 5803.17 74.48
713 31.3800 2.848383 5520.00 5781.17 74.30
714 31.4100 2.845731 5507.00 5765.04 74.21
715 31.4400 2.843083 5586.00 5749.24 74.74
716 31.4700 2.840442 5750.00 5737.08 75.83
717 31.5000 2.837805 5605.00 5730.27 74.87
718 31.5300 2.835173 5578.00 5732.63 74.69
719 31.5600 2.832546 5669.00 5747.69 75.29
720 31.5900 2.829925 5662.00 5770.14 75.25
721 31.6200 2.827308 5647.00 5774.62 75.15
722 31.6500 2.824697 5636.00 5746.47 75.07
723 31.6800 2.822090 5650.00 5724.77 75.17
724 31.7100 2.819489 5663.00 5731.13 75.25
725 31.7400 2.816892 5740.00 5770.55 75.76
726 31.7700 2.814301 5845.00 5855.35 76.45
727 31.8000 2.811714 6122.00 6020.01 78.24
728 31.8300 2.809133 6378.00 6364.96 79.86
729 31.8600 2.806556 7073.00 7111.57 84.10
730 31.8900 2.803984 8228.00 8420.13 90.71
731 31.9200 2.801417 9621.00 9820.27 98.09
732 31.9500 2.798855 9932.00 9727.44 99.66
733 31.9800 2.796298 8077.00 8012.18 89.87
734 32.0100 2.793746 6795.00 6651.10 82.43
735 32.0400 2.791198 6062.00 6023.29 77.86
736 32.0700 2.788656 5946.00 5801.16 77.11
737 32.1000 2.786118 5857.00 5773.18 76.53
738 32.1300 2.783585 5847.00 5809.48 76.47
739 32.1600 2.781057 5848.00 5896.55 76.47
740 32.1900 2.778533 6089.00 6063.01 78.03
741 32.2200 2.776015 6429.00 6361.91 80.18
742 32.2500 2.773501 6912.00 6831.17 83.14
743 32.2800 2.770992 7710.00 7429.13 87.81
744 32.3100 2.768487 8338.00 7919.69 91.31
745 32.3400 2.765988 8157.00 7809.48 90.32
746 32.3700 2.763492 7403.00 7221.22 86.04
747 32.4000 2.761002 6651.00 6796.66 81.55
748 32.4300 2.758516 6510.00 6695.45 80.68
749 32.4600 2.756036 6567.00 6676.55 81.04
750 32.4900 2.753559 6275.00 6414.60 79.21
751 32.5200 2.751087 5914.00 6027.36 76.90
752 32.5500 2.748621 5794.00 5767.19 76.12
753 32.5800 2.746158 5579.00 5666.04 74.69
754 32.6100 2.743700 5598.00 5695.57 74.82
755 32.6400 2.741247 5919.00 5875.84 76.93
756 32.6700 2.738798 6102.00 6295.56 78.12
757 32.7000 2.736354 6862.00 6992.04 82.84
758 32.7300 2.733914 7532.00 7675.98 86.79
759 32.7600 2.731479 7481.00 7529.95 86.49
760 32.7900 2.729048 6573.00 6576.95 81.07
761 32.8200 2.726622 5899.00 5819.08 76.80
762 32.8500 2.724201 5505.00 5452.11 74.20
763 32.8800 2.721784 5342.00 5305.04 73.09
764 32.9100 2.719371 5291.00 5242.75 72.74
765 32.9400 2.716963 5235.00 5206.33 72.35
766 32.9700 2.714559 5224.00 5176.26 72.28
767 33.0000 2.712160 5258.00 5148.57 72.51
768 33.0300 2.709765 5130.00 5123.13 71.62
769 33.0600 2.707375 5109.00 5100.25 71.48
770 33.0900 2.704988 5088.00 5079.84 71.33
771 33.1200 2.702607 5226.00 5061.47 72.29
772 33.1500 2.700229 5226.00 5044.77 72.29
773 33.1800 2.697857 4967.00 5064.13 70.48
774 33.2100 2.695488 5178.00 5051.14 71.96
775 33.2400 2.693124 5137.00 5034.40 71.67
776 33.2700 2.690764 5016.00 5023.28 70.82
777 33.3000 2.688409 5059.00 5012.79 71.13
778 33.3300 2.686057 5088.00 5006.67 71.33
779 33.3600 2.683710 5110.00 4997.56 71.48
780 33.3900 2.681368 5087.00 4988.96 71.32
781 33.4200 2.679029 4976.00 4980.89 70.54
782 33.4500 2.676695 5102.00 4973.39 71.43
783 33.4800 2.674365 4959.00 4966.53 70.42
784 33.5100 2.672040 5026.00 4960.53 70.89
785 33.5400 2.669718 4934.00 4955.75 70.24
786 33.5700 2.667401 5022.00 4952.94 70.87
787 33.6000 2.665088 4937.00 4953.97 70.26
788 33.6300 2.662779 5044.00 4964.18 71.02
789 33.6600 2.660474 5012.00 4991.75 70.80
790 33.6900 2.658174 5093.00 5033.30 71.37
791 33.7200 2.655877 5052.00 5050.75 71.08
792 33.7500 2.653585 5031.00 5006.44 70.93
793 33.7800 2.651297 4951.00 4956.49 70.36
794 33.8100 2.649013 5011.00 4932.03 70.79
795 33.8400 2.646733 4928.00 4924.40 70.20
796 33.8700 2.644457 4965.00 4924.04 70.46
797 33.9000 2.642185 4977.00 4928.24 70.55
798 33.9300 2.639918 4984.00 4934.31 70.60
799 33.9600 2.637655 4980.00 4943.91 70.57
800 33.9900 2.635395 4950.00 4958.42 70.36
801 34.0200 2.633140 5081.00 4977.38 71.28
802 34.0500 2.630888 5084.00 5013.14 71.30
803 34.0800 2.628641 4905.00 5076.57 70.04
804 34.1100 2.626398 5101.00 5204.54 71.42
805 34.1400 2.624159 5205.00 5454.14 72.15
806 34.1700 2.621923 5689.00 5945.75 75.43
807 34.2000 2.619692 6287.00 6842.95 79.29
808 34.2300 2.617464 7457.00 6968.74 86.35
809 34.2600 2.615241 6603.00 5848.09 81.26
810 34.2900 2.613022 5576.00 5427.76 74.67
811 34.3200 2.610806 5456.00 5365.88 73.86
812 34.3500 2.608595 5375.00 5420.76 73.31
813 34.3800 2.606387 5517.00 5505.38 74.28
814 34.4100 2.604183 5618.00 5644.24 74.95
815 34.4400 2.601984 5899.00 5869.87 76.80
816 34.4700 2.599787 6193.00 6233.55 78.70
817 34.5000 2.597595 6860.00 6817.01 82.83
818 34.5300 2.595407 7866.00 7763.59 88.69
819 34.5600 2.593223 9295.00 9378.25 96.41
820 34.5900 2.591043 11977.00 12273.80 109.44
821 34.6200 2.588866 16675.00 17260.60 129.13
822 34.6500 2.586693 22814.00 24450.10 151.04
823 34.6800 2.584524 29072.00 31330.70 170.51
824 34.7100 2.582359 28864.00 31012.50 169.89
825 34.7400 2.580197 21400.00 22429.00 146.29
826 34.7700 2.578040 14201.00 14233.60 119.17
827 34.8000 2.575886 10058.00 9567.66 100.29
828 34.8300 2.573736 7903.00 7421.43 88.90
829 34.8600 2.571590 6877.00 6513.50 82.93
830 34.8900 2.569448 6221.00 6102.49 78.87
831 34.9200 2.567309 5799.00 5861.32 76.15
832 34.9500 2.565174 5434.00 5673.77 73.72
833 34.9800 2.563042 5399.00 5511.72 73.48
834 35.0100 2.560915 5123.00 5375.82 71.58
835 35.0400 2.558791 5206.00 5271.71 72.15
836 35.0700 2.556671 5231.00 5207.33 72.33
837 35.1000 2.554554 5126.00 5201.62 71.60
838 35.1300 2.552441 5347.00 5290.54 73.12
839 35.1600 2.550332 5693.00 5504.75 75.45
840 35.1900 2.548227 5913.00 5743.48 76.90
841 35.2200 2.546125 5811.00 5704.15 76.23
842 35.2500 2.544027 5519.00 5380.19 74.29
843 35.2800 2.541932 5138.00 5130.93 71.68
844 35.3100 2.539841 4996.00 4923.98 70.68
845 35.3400 2.537754 4905.00 4808.61 70.04
846 35.3700 2.535670 4933.00 4764.87 70.24
847 35.4000 2.533590 4758.00 4746.66 68.98
848 35.4300 2.531513 4864.00 4738.68 69.74
849 35.4600 2.529440 4722.00 4738.26 68.72
850 35.4900 2.527370 4878.00 4746.40 69.84
851 35.5200 2.525305 4820.00 4765.13 69.43
852 35.5500 2.523242 4869.00 4797.76 69.78
853 35.5800 2.521183 4904.00 4850.68 70.03
854 35.6100 2.519128 5033.00 4933.85 70.94
855 35.6400 2.517077 5196.00 5066.03 72.08
856 35.6700 2.515028 5398.00 5276.90 73.47
857 35.7000 2.512984 5830.00 5615.73 76.35
858 35.7300 2.510942 6233.00 6178.95 78.95
859 35.7600 2.508905 7315.00 7170.07 85.53
860 35.7900 2.506871 8659.00 8921.06 93.05
861 35.8200 2.504840 10612.00 11686.80 103.01
862 35.8500 2.502812 13189.00 15077.40 114.84
863 35.8800 2.500788 14420.00 17012.00 120.08
864 35.9100 2.498768 13292.00 15044.90 115.29
865 35.9400 2.496751 10978.00 11464.30 104.78
866 35.9700 2.494737 8685.00 8583.68 93.19
867 36.0000 2.492727 6956.00 6685.17 83.40
868 36.0300 2.490720 6018.00 5693.66 77.58
869 36.0600 2.488717 5539.00 5237.71 74.42
870 36.0900 2.486717 5026.00 5023.44 70.89
871 36.1200 2.484720 4849.00 4893.85 69.63
872 36.1500 2.482727 4829.00 4795.26 69.49
873 36.1800 2.480737 4601.00 4712.15 67.83
874 36.2100 2.478751 4654.00 4642.45 68.22
875 36.2400 2.476768 4642.00 4586.49 68.13
876 36.2700 2.474788 4636.00 4512.22 68.09
877 36.3000 2.472811 4515.00 4486.94 67.19
878 36.3300 2.470838 4568.00 4478.15 67.59
879 36.3600 2.468868 4453.00 4490.84 66.73
880 36.3900 2.466902 4509.00 4535.65 67.15
881 36.4200 2.464939 4667.00 4629.93 68.32
882 36.4500 2.462979 4783.00 4786.50 69.16
883 36.4800 2.461022 4846.00 4996.22 69.61
884 36.5100 2.459069 5142.00 5179.08 71.71
885 36.5400 2.457118 5110.00 5140.02 71.48
886 36.5700 2.455171 4779.00 4792.46 69.13
887 36.6000 2.453228 4643.00 4513.74 68.14
888 36.6300 2.451287 4357.00 4366.99 66.01
889 36.6600 2.449350 4429.00 4293.30 66.55
890 36.6900 2.447416 4298.00 4254.52 65.56
891 36.7200 2.445486 4283.00 4232.31 65.44
892 36.7500 2.443558 4274.00 4219.54 65.38
893 36.7800 2.441634 4226.00 4215.04 65.01
894 36.8100 2.439713 4257.00 4220.93 65.25
895 36.8400 2.437795 4214.00 4238.62 64.92
896 36.8700 2.435880 4296.00 4261.56 65.54
897 36.9000 2.433969 4338.00 4269.57 65.86
898 36.9300 2.432060 4264.00 4231.76 65.30
899 36.9600 2.430155 4206.00 4184.83 64.85
900 36.9900 2.428253 4188.00 4153.12 64.71
901 37.0200 2.426354 4254.00 4135.86 65.22
902 37.0500 2.424458 4278.00 4127.49 65.41
903 37.0800 2.422565 4150.00 4124.42 64.42
904 37.1100 2.420676 4160.00 4125.46 64.50
905 37.1400 2.418790 4191.00 4131.40 64.74
906 37.1700 2.416906 4169.00 4144.84 64.57
907 37.2000 2.415026 4218.00 4170.84 64.95
908 37.2300 2.413149 4293.00 4219.75 65.52
909 37.2600 2.411275 4355.00 4317.75 65.99
910 37.2900 2.409404 4528.00 4521.52 67.29
911 37.3200 2.407536 4789.00 4888.32 69.20
912 37.3500 2.405671 5372.00 5349.45 73.29
913 37.3800 2.403809 5537.00 5522.82 74.41
914 37.4100 2.401950 5058.00 5114.76 71.12
915 37.4400 2.400095 4626.00 4651.68 68.01
916 37.4700 2.398242 4378.00 4410.66 66.17
917 37.5000 2.396392 4503.00 4369.52 67.10
918 37.5300 2.394546 4406.00 4437.00 66.38
919 37.5600 2.392702 4788.00 4581.01 69.20
920 37.5900 2.390861 4937.00 4799.49 70.26
921 37.6200 2.389024 5193.00 5132.27 72.06
922 37.6500 2.387189 5763.00 5636.51 75.91
923 37.6800 2.385357 6640.00 6215.47 81.49
924 37.7100 2.383528 6716.00 6427.77 81.95
925 37.7400 2.381702 6267.00 5901.94 79.16
926 37.7700 2.379880 5473.00 5153.06 73.98
927 37.8000 2.378060 4950.00 4638.74 70.36
928 37.8300 2.376243 4630.00 4371.15 68.04
929 37.8600 2.374429 4402.00 4256.59 66.35
930 37.8900 2.372618 4406.00 4226.47 66.38
931 37.9200 2.370810 4498.00 4251.80 67.07
932 37.9500 2.369005 4490.00 4330.30 67.01
933 37.9800 2.367202 4523.00 4463.72 67.25
934 38.0100 2.365403 4701.00 4622.45 68.56
935 38.0400 2.363606 4989.00 4693.45 70.63
936 38.0700 2.361813 4730.00 4573.97 68.78
937 38.1000 2.360022 4529.00 4400.32 67.30
938 38.1300 2.358234 4374.00 4309.65 66.14
939 38.1600 2.356449 4478.00 4322.95 66.92
940 38.1900 2.354667 4563.00 4445.28 67.55
941 38.2200 2.352888 4941.00 4730.66 70.29
942 38.2500 2.351111 5236.00 5309.31 72.36
943 38.2800 2.349338 6160.00 6321.87 78.49
944 38.3100 2.347567 7572.00 7631.66 87.02
945 38.3400 2.345799 8573.00 8342.20 92.59
946 38.3700 2.344034 7383.00 7368.03 85.92
947 38.4000 2.342272 5844.00 5830.54 76.45
948 38.4300 2.340512 4868.00 4837.69 69.77
949 38.4600 2.338756 4356.00 4361.34 66.00
950 38.4900 2.337002 4250.00 4156.33 65.19
951 38.5200 2.335251 4090.00 4062.94 63.95
952 38.5500 2.333502 3918.00 4008.67 62.59
953 38.5800 2.331757 4051.00 3967.96 63.65
954 38.6100 2.330014 3871.00 3934.09 62.22
955 38.6400 2.328274 3827.00 3905.83 61.86
956 38.6700 2.326537 3923.00 3882.97 62.63
957 38.7000 2.324802 3849.00 3865.23 62.04
958 38.7300 2.323071 3867.00 3852.72 62.19
959 38.7600 2.321342 3990.00 3843.42 63.17
960 38.7900 2.319615 3821.00 3841.71 61.81
961 38.8200 2.317891 3903.00 3847.85 62.47
962 38.8500 2.316171 3821.00 3866.13 61.81
963 38.8800 2.314452 3810.00 3905.39 61.73
964 38.9100 2.312737 4051.00 3979.53 63.65
965 38.9400 2.311024 4105.00 4099.29 64.07
966 38.9700 2.309314 4143.00 4249.85 64.37
967 39.0000 2.307607 4347.00 4346.29 65.93
968 39.0300 2.305902 4169.00 4261.92 64.57
969 39.0600 2.304200 4058.00 4067.73 63.70
970 39.0900 2.302501 3969.00 3911.77 63.00
971 39.1200 2.300804 3884.00 3820.76 62.32
972 39.1500 2.299110 3892.00 3773.04 62.39
973 39.1800 2.297419 3762.00 3747.73 61.34
974 39.2100 2.295730 3726.00 3732.51 61.04
975 39.2400 2.294044 3846.00 3721.56 62.02
976 39.2700 2.292361 3790.00 3712.54 61.56
977 39.3000 2.290680 3733.00 3704.73 61.10
978 39.3300 2.289001 3724.00 3698.59 61.02
979 39.3600 2.287326 3681.00 3693.88 60.67
980 39.3900 2.285653 3772.00 3686.53 61.42
981 39.4200 2.283983 3686.00 3683.49 60.71
982 39.4500 2.282315 3750.00 3681.36 61.24
983 39.4800 2.280650 3693.00 3680.04 60.77
984 39.5100 2.278987 3730.00 3680.43 61.07
985 39.5400 2.277327 3758.00 3683.98 61.30
986 39.5700 2.275670 3662.00 3692.40 60.51
987 39.6000 2.274015 3865.00 3708.27 62.17
988 39.6300 2.272362 3822.00 3736.14 61.82
989 39.6600 2.270713 3807.00 3785.21 61.70
990 39.6900 2.269066 3802.00 3873.43 61.66
991 39.7200 2.267421 3933.00 4030.91 62.71
992 39.7500 2.265779 4213.00 4275.11 64.91
993 39.7800 2.264139 4369.00 4563.07 66.10
994 39.8100 2.262502 4369.00 4695.65 66.10
995 39.8400 2.260867 4295.00 4480.88 65.54
996 39.8700 2.259235 4059.00 4133.74 63.71
997 39.9000 2.257606 3843.00 3888.56 61.99
998 39.9300 2.255979 3770.00 3757.93 61.40
999 39.9600 2.254354 3794.00 3697.37 61.60
1000 39.9900 2.252732 3768.00 3673.72 61.38
1001 40.0200 2.251112 3799.00 3672.83 61.64
1002 40.0500 2.249496 3750.00 3696.01 61.24
1003 40.0800 2.247881 3871.00 3749.48 62.22
1004 40.1100 2.246269 3938.00 3822.87 62.75
1005 40.1400 2.244659 3959.00 3849.30 62.92
1006 40.1700 2.243052 3923.00 3771.34 62.63
1007 40.2000 2.241447 3725.00 3673.34 61.03
1008 40.2300 2.239845 3662.00 3612.51 60.51
1009 40.2600 2.238245 3752.00 3581.82 61.25
1010 40.2900 2.236647 3701.00 3566.27 60.84
1011 40.3200 2.235053 3597.00 3556.93 59.97
1012 40.3500 2.233460 3649.00 3550.02 60.41
1013 40.3800 2.231870 3676.00 3544.28 60.63
1014 40.4100 2.230282 3566.00 3539.45 59.72
1015 40.4400 2.228697 3545.00 3535.49 59.54
1016 40.4700 2.227114 3544.00 3532.48 59.53
1017 40.5000 2.225533 3598.00 3530.57 59.98
1018 40.5300 2.223955 3580.00 3530.10 59.83
1019 40.5600 2.222379 3458.00 3531.71 58.80
1020 40.5900 2.220806 3593.00 3536.56 59.94
1021 40.6200 2.219235 3700.00 3546.70 60.83
1022 40.6500 2.217666 3586.00 3566.28 59.88
1023 40.6800 2.216100 3689.00 3604.10 60.74
1024 40.7100 2.214536 3623.00 3681.08 60.19
1025 40.7400 2.212975 3763.00 3814.92 61.34
1026 40.7700 2.211416 4060.00 3992.52 63.72
1027 40.8000 2.209859 4207.00 4103.86 64.86
1028 40.8300 2.208304 3996.00 3993.26 63.21
1029 40.8600 2.206752 3859.00 3785.11 62.12
1030 40.8900 2.205203 3764.00 3642.76 61.35
1031 40.9200 2.203655 3650.00 3573.17 60.42
1032 40.9500 2.202110 3597.00 3545.82 59.97
1033 40.9800 2.200567 3652.00 3539.31 60.43
1034 41.0100 2.199027 3609.00 3544.44 60.08
1035 41.0400 2.197488 3599.00 3560.04 59.99
1036 41.0700 2.195952 3654.00 3590.39 60.45
1037 41.1000 2.194419 3748.00 3644.85 61.22
1038 41.1300 2.192887 3743.00 3738.12 61.18
1039 41.1600 2.191358 3928.00 3884.69 62.67
1040 41.1900 2.189831 4185.00 4094.60 64.69
1041 41.2200 2.188307 4179.00 4309.66 64.65
1042 41.2500 2.186785 4182.00 4254.36 64.67
1043 41.2800 2.185265 4055.00 3978.61 63.68
1044 41.3100 2.183747 3863.00 3761.86 62.15
1045 41.3400 2.182232 3628.00 3632.48 60.23
1046 41.3700 2.180719 3684.00 3560.83 60.70
1047 41.4000 2.179207 3566.00 3522.17 59.72
1048 41.4300 2.177699 3537.00 3500.45 59.47
1049 41.4600 2.176192 3656.00 3491.00 60.46
1050 41.4900 2.174688 3680.00 3489.00 60.66
1051 41.5200 2.173186 3609.00 3493.37 60.08
1052 41.5500 2.171686 3573.00 3504.52 59.77
1053 41.5800 2.170189 3496.00 3525.34 59.13
1054 41.6100 2.168693 3629.00 3563.58 60.24
1055 41.6400 2.167200 3724.00 3631.02 61.02
1056 41.6700 2.165709 3894.00 3749.25 62.40
1057 41.7000 2.164221 4050.00 3948.72 63.64
1058 41.7300 2.162734 4286.00 4248.07 65.47
1059 41.7600 2.161250 4680.00 4601.60 68.41
1060 41.7900 2.159767 4633.00 4810.26 68.07
1061 41.8200 2.158287 4554.00 4613.09 67.48
1062 41.8500 2.156810 4254.00 4181.68 65.22
1063 41.8800 2.155334 3909.00 3835.47 62.52
1064 41.9100 2.153860 3750.00 3632.23 61.24
1065 41.9400 2.152389 3604.00 3525.65 60.03
1066 41.9700 2.150920 3652.00 3470.54 60.43
1067 42.0000 2.149453 3520.00 3439.67 59.33
1068 42.0300 2.147988 3429.00 3419.24 58.56
1069 42.0600 2.146525 3478.00 3403.64 58.97
1070 42.0900 2.145065 3463.00 3390.84 58.85
1071 42.1200 2.143606 3462.00 3380.21 58.84
1072 42.1500 2.142150 3466.00 3372.91 58.87
1073 42.1800 2.140696 3390.00 3366.22 58.22
1074 42.2100 2.139244 3447.00 3361.44 58.71
1075 42.2400 2.137794 3330.00 3358.74 57.71
1076 42.2700 2.136346 3372.00 3358.71 58.07
1077 42.3000 2.134900 3449.00 3361.42 58.73
1078 42.3300 2.133456 3409.00 3370.40 58.39
1079 42.3600 2.132015 3457.00 3388.40 58.80
1080 42.3900 2.130575 3605.00 3426.22 60.04
1081 42.4200 2.129138 3536.00 3506.03 59.46
1082 42.4500 2.127703 3639.00 3652.85 60.32
1083 42.4800 2.126269 3926.00 3858.60 62.66
1084 42.5100 2.124838 4215.00 4000.84 64.92
1085 42.5400 2.123409 4169.00 3914.55 64.57
1086 42.5700 2.121982 3799.00 3762.90 61.64
1087 42.6000 2.120557 3704.00 3707.60 60.86
1088 42.6300 2.119134 3957.00 3720.75 62.90
1089 42.6600 2.117713 3934.00 3712.09 62.72
1090 42.6900 2.116295 3745.00 3627.13 61.20
1091 42.7200 2.114878 3530.00 3513.13 59.41
1092 42.7500 2.113463 3491.00 3422.67 59.08
1093 42.7800 2.112051 3379.00 3363.74 58.13
1094 42.8100 2.110640 3320.00 3327.58 57.62
1095 42.8400 2.109231 3406.00 3305.22 58.36
1096 42.8700 2.107825 3362.00 3290.51 57.98
1097 42.9000 2.106420 3319.00 3279.85 57.61
1098 42.9300 2.105018 3438.00 3271.35 58.63
1099 42.9600 2.103617 3311.00 3264.08 57.54
1100 42.9900 2.102219 3251.00 3257.64 57.02
1101 43.0200 2.100822 3362.00 3251.85 57.98
1102 43.0500 2.099428 3295.00 3246.60 57.40
1103 43.0800 2.098035 3333.00 3241.83 57.73
1104 43.1100 2.096644 3205.00 3237.49 56.61
1105 43.1400 2.095256 3233.00 3232.71 56.86
1106 43.1700 2.093869 3305.00 3229.10 57.49
1107 43.2000 2.092485 3267.00 3225.79 57.16
1108 43.2300 2.091102 3307.00 3222.75 57.51
1109 43.2600 2.089722 3300.00 3220.00 57.45
1110 43.2900 2.088343 3263.00 3217.50 57.12
1111 43.3200 2.086966 3247.00 3216.66 56.98
1112 43.3500 2.085592 3245.00 3214.71 56.96
1113 43.3800 2.084219 3275.00 3213.06 57.23
1114 43.4100 2.082848 3303.00 3211.74 57.47
1115 43.4400 2.081479 3239.00 3210.78 56.91
1116 43.4700 2.080112 3217.00 3212.95 56.72
1117 43.5000 2.078747 3325.00 3211.29 57.66
1118 43.5300 2.077384 3263.00 3212.16 57.12
1119 43.5600 2.076022 3299.00 3213.87 57.44
1120 43.5900 2.074663 3204.00 3216.69 56.60
1121 43.6200 2.073306 3290.00 3221.02 57.36
1122 43.6500 2.071950 3227.00 3227.51 56.81
1123 43.6800 2.070597 3325.00 3237.12 57.66
1124 43.7100 2.069245 3315.00 3251.39 57.58
1125 43.7400 2.067895 3414.00 3272.61 58.43
1126 43.7700 2.066548 3354.00 3304.92 57.91
1127 43.8000 2.065202 3301.00 3354.73 57.45
1128 43.8300 2.063858 3368.00 3432.63 58.03
1129 43.8600 2.062515 3430.00 3553.24 58.57
1130 43.8900 2.061175 3596.00 3728.66 59.97
1131 43.9200 2.059837 3861.00 3953.15 62.14
1132 43.9500 2.058501 4066.00 4188.01 63.77
1133 43.9800 2.057166 4098.00 4313.94 64.02
1134 44.0100 2.055833 4001.00 4222.10 63.25
1135 44.0400 2.054502 3967.00 4049.10 62.98
1136 44.0700 2.053173 3841.00 3966.74 61.98
1137 44.1000 2.051846 3781.00 4009.56 61.49
1138 44.1300 2.050521 3987.00 4104.90 63.14
1139 44.1600 2.049198 3796.00 4071.23 61.61
1140 44.1900 2.047876 3795.00 3847.96 61.60
1141 44.2200 2.046556 3585.00 3614.73 59.87
1142 44.2500 2.045238 3453.00 3468.75 58.76
1143 44.2800 2.043922 3412.00 3395.82 58.41
1144 44.3100 2.042608 3458.00 3354.66 58.80
1145 44.3400 2.041296 3410.00 3313.49 58.40
1146 44.3700 2.039985 3267.00 3276.61 57.16
1147 44.4000 2.038676 3280.00 3254.49 57.27
1148 44.4300 2.037369 3296.00 3247.40 57.41
1149 44.4600 2.036064 3269.00 3254.75 57.18
1150 44.4900 2.034761 3270.00 3276.79 57.18
1151 44.5200 2.033459 3270.00 3321.46 57.18
1152 44.5500 2.032160 3338.00 3412.25 57.78
1153 44.5800 2.030862 3393.00 3584.65 58.25
1154 44.6100 2.029566 3817.00 3901.81 61.78
1155 44.6400 2.028271 4439.00 4409.97 66.63
1156 44.6700 2.026979 4854.00 4661.60 69.67
1157 44.7000 2.025688 4029.00 4094.86 63.47
1158 44.7300 2.024399 3503.00 3599.61 59.19
1159 44.7600 2.023112 3315.00 3384.87 57.58
1160 44.7900 2.021826 3154.00 3295.89 56.16
1161 44.8200 2.020543 3268.00 3255.51 57.17
1162 44.8500 2.019261 3186.00 3229.14 56.44
1163 44.8800 2.017981 3189.00 3206.34 56.47
1164 44.9100 2.016702 3227.00 3187.90 56.81
1165 44.9400 2.015426 3152.00 3177.94 56.14
1166 44.9700 2.014151 3068.00 3177.24 55.39
1167 45.0000 2.012878 3233.00 3186.26 56.86
1168 45.0300 2.011607 3351.00 3207.15 57.89
1169 45.0600 2.010337 3383.00 3244.69 58.16
1170 45.0900 2.009069 3335.00 3306.47 57.75
1171 45.1200 2.007803 3422.00 3401.37 58.50
1172 45.1500 2.006538 3562.00 3533.03 59.68
1173 45.1800 2.005276 3670.00 3685.82 60.58
1174 45.2100 2.004015 3949.00 3827.43 62.84
1175 45.2400 2.002756 4233.00 3924.03 65.06
1176 45.2700 2.001498 4213.00 3896.68 64.91
1177 45.3000 2.000242 3786.00 3722.31 61.53
1178 45.3300 1.998988 3571.00 3521.64 59.76
1179 45.3600 1.997736 3445.00 3379.68 58.69
1180 45.3900 1.996485 3378.00 3305.52 58.12
1181 45.4200 1.995237 3278.00 3288.95 57.25
1182 45.4500 1.993989 3469.00 3332.48 58.90
1183 45.4800 1.992743 3519.00 3460.15 59.32
1184 45.5100 1.991500 3750.00 3698.39 61.24
1185 45.5400 1.990258 4201.00 4009.46 64.82
1186 45.5700 1.989017 4449.00 4177.76 66.70
1187 45.6000 1.987778 4074.00 3951.67 63.83
1188 45.6300 1.986541 3665.00 3582.01 60.54
1189 45.6600 1.985306 3387.00 3329.62 58.20
1190 45.6900 1.984072 3107.00 3196.86 55.74
1191 45.7200 1.982840 3110.00 3132.20 55.77
1192 45.7500 1.981609 3116.00 3099.03 55.82
1193 45.7800 1.980380 3106.00 3079.05 55.73
1194 45.8100 1.979153 3048.00 3064.89 55.21
1195 45.8400 1.977928 3070.00 3054.32 55.41
1196 45.8700 1.976704 3057.00 3045.14 55.29
1197 45.9000 1.975482 3122.00 3036.68 55.87
1198 45.9300 1.974261 3120.00 3035.01 55.86
1199 45.9600 1.973042 2981.00 3036.60 54.60
1200 45.9900 1.971825 3132.00 3041.70 55.96
1201 46.0200 1.970609 3092.00 3050.03 55.61
1202 46.0500 1.969395 3065.00 3061.70 55.36
1203 46.0800 1.968183 3096.00 3078.64 55.64
1204 46.1100 1.966972 3096.00 3100.69 55.64
1205 46.1400 1.965763 3188.00 3121.96 56.46
1206 46.1700 1.964556 3029.00 3132.87 55.04
1207 46.2000 1.963350 3147.00 3157.46 56.10
1208 46.2300 1.962146 3225.00 3215.90 56.79
1209 46.2600 1.960943 3331.00 3330.07 57.71
1210 46.2900 1.959742 3618.00 3522.90 60.15
1211 46.3200 1.958543 3846.00 3813.11 62.02
1212 46.3500 1.957345 4236.00 4208.86 65.08
1213 46.3800 1.956148 4596.00 4572.73 67.79
1214 46.4100 1.954954 4604.00 4513.98 67.85
1215 46.4400 1.953761 4041.00 4026.29 63.57
1216 46.4700 1.952569 3608.00 3573.12 60.07
1217 46.5000 1.951379 3321.00 3302.63 57.63
1218 46.5300 1.950191 3147.00 3163.50 56.10
1219 46.5600 1.949004 3194.00 3094.38 56.52
1220 46.5900 1.947819 3078.00 3059.21 55.48
1221 46.6200 1.946636 3057.00 3037.41 55.29
1222 46.6500 1.945454 3094.00 3023.68 55.62
1223 46.6800 1.944273 2938.00 3016.51 54.20
1224 46.7100 1.943094 3095.00 3016.87 55.63
1225 46.7400 1.941917 3042.00 3028.31 55.15
1226 46.7700 1.940741 3104.00 3058.78 55.71
1227 46.8000 1.939567 3086.00 3122.66 55.55
1228 46.8300 1.938395 3197.00 3233.05 56.54
1229 46.8600 1.937224 3313.00 3377.47 57.56
1230 46.8900 1.936054 3391.00 3471.92 58.23
1231 46.9200 1.934886 3369.00 3396.11 58.04
1232 46.9500 1.933720 3228.00 3231.19 56.82
1233 46.9800 1.932555 3083.00 3112.48 55.52
1234 47.0100 1.931391 3040.00 3053.88 55.14
1235 47.0400 1.930229 2999.00 3019.67 54.76
1236 47.0700 1.929069 3000.00 2995.06 54.77
1237 47.1000 1.927910 2939.00 2969.90 54.21
1238 47.1300 1.926753 2997.00 2945.39 54.74
1239 47.1600 1.925597 2950.00 2929.11 54.31
1240 47.1900 1.924443 2919.00 2918.81 54.03
1241 47.2200 1.923290 2866.00 2911.68 53.53
1242 47.2500 1.922139 2812.00 2906.34 53.03
1243 47.2800 1.920990 2961.00 2901.09 54.42
1244 47.3100 1.919841 2920.00 2897.87 54.04
1245 47.3400 1.918695 2869.00 2895.39 53.56
1246 47.3700 1.917549 2811.00 2893.65 53.02
1247 47.4000 1.916406 2898.00 2892.44 53.83
1248 47.4300 1.915264 2934.00 2892.89 54.17
1249 47.4600 1.914123 2922.00 2892.90 54.06
1250 47.4900 1.912984 2935.00 2893.55 54.18
1251 47.5200 1.911846 2976.00 2894.91 54.55
1252 47.5500 1.910710 2951.00 2897.06 54.32
1253 47.5800 1.909575 2929.00 2900.15 54.12
1254 47.6100 1.908442 2940.00 2904.36 54.22
1255 47.6400 1.907310 2940.00 2909.95 54.22
1256 47.6700 1.906180 2900.00 2917.28 53.85
1257 47.7000 1.905051 2938.00 2926.86 54.20
1258 47.7300 1.903923 2931.00 2939.48 54.14
1259 47.7600 1.902797 2944.00 2956.42 54.26
1260 47.7900 1.901673 2965.00 2979.28 54.45
1261 47.8200 1.900550 3096.00 3010.92 55.64
1262 47.8500 1.899428 3102.00 3055.63 55.70
1263 47.8800 1.898308 3075.00 3120.77 55.45
1264 47.9100 1.897190 3265.00 3218.75 57.14
1265 47.9400 1.896072 3378.00 3369.51 58.12
1266 47.9700 1.894956 3616.00 3605.69 60.13
1267 48.0000 1.893842 4128.00 3959.89 64.25
1268 48.0300 1.892729 4579.00 4443.24 67.67
1269 48.0600 1.891618 5268.00 5010.39 72.58
1270 48.0900 1.890508 5906.00 5489.84 76.85
1271 48.1200 1.889399 5898.00 5592.64 76.80
1272 48.1500 1.888292 5589.00 5292.10 74.76
1273 48.1800 1.887186 4948.00 4748.52 70.34
1274 48.2100 1.886082 4357.00 4168.86 66.01
1275 48.2400 1.884979 3895.00 3735.46 62.41
1276 48.2700 1.883878 3678.00 3473.18 60.65
1277 48.3000 1.882778 3501.00 3337.47 59.17
1278 48.3300 1.881679 3373.00 3289.76 58.08
1279 48.3600 1.880582 3321.00 3312.50 57.63
1280 48.3900 1.879486 3325.00 3403.64 57.66
1281 48.4200 1.878392 3377.00 3560.88 58.11
1282 48.4500 1.877299 3603.00 3752.17 60.03
1283 48.4800 1.876207 3534.00 3867.24 59.45
1284 48.5100 1.875117 3568.00 3763.41 59.73
1285 48.5400 1.874028 3418.00 3504.99 58.46
1286 48.5700 1.872941 3126.00 3266.43 55.91
1287 48.6000 1.871855 3100.00 3105.77 55.68
1288 48.6300 1.870770 2967.00 3008.22 54.47
1289 48.6600 1.869687 2970.00 2950.12 54.50
1290 48.6900 1.868605 2958.00 2914.55 54.39
1291 48.7200 1.867524 2872.00 2891.53 53.59
1292 48.7500 1.866445 2946.00 2875.95 54.28
1293 48.7800 1.865367 2878.00 2865.72 53.65
1294 48.8100 1.864291 2885.00 2860.49 53.71
1295 48.8400 1.863216 2942.00 2860.94 54.24
1296 48.8700 1.862142 2756.00 2868.30 52.50
1297 48.9000 1.861070 2872.00 2883.71 53.59
1298 48.9300 1.859999 2907.00 2906.73 53.92
1299 48.9600 1.858930 2967.00 2933.28 54.47
1300 48.9900 1.857861 2926.00 2961.82 54.09
1301 49.0200 1.856794 2937.00 3003.48 54.19
1302 49.0500 1.855729 3086.00 3069.60 55.55
1303 49.0800 1.854665 3143.00 3174.50 56.06
1304 49.1100 1.853602 3271.00 3333.44 57.19
1305 49.1400 1.852541 3549.00 3503.32 59.57
1306 49.1700 1.851481 3647.00 3540.18 60.39
1307 49.2000 1.850422 3396.00 3367.76 58.28
1308 49.2300 1.849364 3080.00 3147.28 55.50
1309 49.2600 1.848308 2929.00 2993.97 54.12
1310 49.2900 1.847253 2875.00 2908.93 53.62
1311 49.3200 1.846200 2811.00 2870.50 53.02
1312 49.3500 1.845148 2837.00 2861.54 53.26
1313 49.3800 1.844097 2865.00 2879.13 53.53
1314 49.4100 1.843048 2914.00 2928.04 53.98
1315 49.4400 1.842000 2968.00 3010.44 54.48
1316 49.4700 1.840953 3201.00 3101.17 56.58
1317 49.5000 1.839907 3147.00 3133.54 56.10
1318 49.5300 1.838863 3153.00 3050.09 56.15
1319 49.5600 1.837820 2896.00 2926.14 53.81
1320 49.5900 1.836778 2772.00 2841.16 52.65
1321 49.6200 1.835738 2726.00 2797.25 52.21
1322 49.6500 1.834699 2754.00 2780.64 52.48
1323 49.6800 1.833661 2746.00 2779.07 52.40
1324 49.7100 1.832625 2812.00 2789.25 53.03
1325 49.7400 1.831590 2856.00 2811.71 53.44
1326 49.7700 1.830556 2881.00 2847.34 53.67
1327 49.8000 1.829524 2901.00 2894.41 53.86
1328 49.8300 1.828493 2968.00 2941.43 54.48
1329 49.8600 1.827463 2974.00 2958.53 54.53
1330 49.8900 1.826434 2888.00 2922.51 53.74
1331 49.9200 1.825407 2889.00 2858.79 53.75
1332 49.9500 1.824381 2724.00 2805.09 52.19
1333 49.9800 1.823356 2718.00 2773.30 52.13
1334 50.0100 1.822332 2763.00 2771.09 52.56
1335 50.0400 1.821310 2720.00 2767.31 52.15
1336 50.0700 1.820289 2692.00 2757.97 51.88
1337 50.1000 1.819269 2664.00 2733.69 51.61
1338 50.1300 1.818251 2668.00 2711.03 51.65
1339 50.1600 1.817234 2738.00 2692.76 52.33
1340 50.1900 1.816218 2720.00 2681.71 52.15
1341 50.2200 1.815203 2619.00 2674.19 51.18
1342 50.2500 1.814190 2690.00 2668.74 51.87
1343 50.2800 1.813178 2702.00 2664.50 51.98
1344 50.3100 1.812167 2715.00 2661.00 52.11
1345 50.3400 1.811157 2595.00 2658.03 50.94
1346 50.3700 1.810149 2565.00 2655.50 50.65
1347 50.4000 1.809142 2518.00 2653.34 50.18
1348 50.4300 1.808136 2637.00 2650.27 51.35
1349 50.4600 1.807131 2696.00 2648.81 51.92
1350 50.4900 1.806128 2601.00 2647.65 51.00
1351 50.5200 1.805125 2608.00 2646.78 51.07
1352 50.5500 1.804125 2727.00 2646.22 52.22
1353 50.5800 1.803125 2620.00 2645.96 51.19
1354 50.6100 1.802126 2575.00 2646.04 50.74
1355 50.6400 1.801129 2560.00 2646.47 50.60
1356 50.6700 1.800133 2545.00 2647.30 50.45
1357 50.7000 1.799138 2533.00 2648.57 50.33
1358 50.7300 1.798145 2612.00 2650.34 51.11
1359 50.7600 1.797152 2684.00 2652.62 51.81
1360 50.7900 1.796161 2599.00 2655.65 50.98
1361 50.8200 1.795171 2594.00 2659.46 50.93
1362 50.8500 1.794183 2582.00 2664.22 50.81
1363 50.8800 1.793195 2676.00 2670.12 51.73
1364 50.9100 1.792209 2630.00 2677.43 51.28
1365 50.9400 1.791224 2645.00 2685.45 51.43
1366 50.9700 1.790240 2670.00 2696.72 51.67
1367 51.0000 1.789257 2654.00 2711.04 51.52
1368 51.0300 1.788276 2656.00 2729.36 51.54
1369 51.0600 1.787295 2734.00 2752.85 52.29
1370 51.0900 1.786316 2758.00 2784.80 52.52
1371 51.1200 1.785338 2842.00 2828.80 53.31
1372 51.1500 1.784362 2818.00 2891.50 53.08
1373 51.1800 1.783386 2897.00 2983.04 53.82
1374 51.2100 1.782412 2968.00 3116.49 54.48
1375 51.2400 1.781439 3276.00 3304.27 57.24
1376 51.2700 1.780467 3362.00 3545.89 57.98
1377 51.3000 1.779496 3426.00 3803.76 58.53
1378 51.3300 1.778526 3652.00 4007.23 60.43
1379 51.3600 1.777558 3896.00 4169.38 62.42
1380 51.3900 1.776591 4269.00 4383.40 65.34
1381 51.4200 1.775625 4599.00 4718.79 67.82
1382 51.4500 1.774660 5059.00 5306.28 71.13
1383 51.4800 1.773696 6202.00 6289.09 78.75
1384 51.5100 1.772734 7562.00 7841.75 86.96
1385 51.5400 1.771772 10218.00 9984.22 101.08
1386 51.5700 1.770812 13046.00 11587.20 114.22
1387 51.6000 1.769853 11280.00 10553.70 106.21
1388 51.6300 1.768895 7574.00 7813.53 87.03
1389 51.6600 1.767938 5357.00 5655.64 73.19
1390 51.6900 1.766983 4340.00 4434.54 65.88
1391 51.7200 1.766028 3823.00 3811.43 61.83
1392 51.7500 1.765075 3516.00 3509.98 59.30
1393 51.7800 1.764123 3185.00 3312.56 56.44
1394 51.8100 1.763172 2999.00 3165.98 54.76
1395 51.8400 1.762222 2986.00 3044.04 54.64
1396 51.8700 1.761273 2834.00 2942.60 53.24
1397 51.9000 1.760326 2821.00 2866.41 53.11
1398 51.9300 1.759379 2683.00 2818.73 51.80
1399 51.9600 1.758434 2636.00 2776.34 51.34
1400 51.9900 1.757490 2656.00 2743.15 51.54
1401 52.0200 1.756547 2692.00 2717.18 51.88
1402 52.0500 1.755605 2565.00 2696.27 50.65
1403 52.0800 1.754664 2598.00 2679.29 50.97
1404 52.1100 1.753725 2602.00 2665.53 51.01
1405 52.1400 1.752786 2663.00 2654.50 51.60
1406 52.1700 1.751849 2525.00 2645.95 50.25
1407 52.2000 1.750913 2498.00 2639.82 49.98
1408 52.2300 1.749977 2524.00 2636.53 50.24
1409 52.2600 1.749043 2541.00 2636.30 50.41
1410 52.2900 1.748111 2540.00 2640.09 50.40
1411 52.3200 1.747179 2454.00 2648.38 49.54
1412 52.3500 1.746248 2595.00 2660.08 50.94
1413 52.3800 1.745319 2535.00 2669.95 50.35
1414 52.4100 1.744390 2487.00 2668.71 49.87
1415 52.4400 1.743463 2473.00 2655.76 49.73
1416 52.4700 1.742537 2544.00 2641.84 50.44
1417 52.5000 1.741611 2608.00 2633.10 51.07
1418 52.5300 1.740687 2599.00 2629.63 50.98
1419 52.5600 1.739764 2543.00 2630.10 50.43
1420 52.5900 1.738843 2572.00 2634.52 50.71
1421 52.6200 1.737922 2488.00 2640.21 49.88
1422 52.6500 1.737002 2543.00 2647.97 50.43
1423 52.6800 1.736084 2535.00 2657.81 50.35
1424 52.7100 1.735166 2604.00 2669.92 51.03
1425 52.7400 1.734250 2633.00 2684.59 51.31
1426 52.7700 1.733335 2606.00 2702.26 51.05
1427 52.8000 1.732420 2572.00 2723.48 50.71
1428 52.8300 1.731507 2486.00 2748.96 49.86
1429 52.8600 1.730595 2663.00 2779.64 51.60
1430 52.8900 1.729684 2678.00 2816.76 51.75
1431 52.9200 1.728774 2737.00 2861.98 52.32
1432 52.9500 1.727866 2739.00 2917.54 52.34
1433 52.9800 1.726958 2813.00 2986.56 53.04
1434 53.0100 1.726051 2862.00 3073.56 53.50
1435 53.0400 1.725145 3006.00 3185.28 54.83
1436 53.0700 1.724241 3192.00 3332.44 56.50
1437 53.1000 1.723338 3406.00 3532.95 58.36
1438 53.1300 1.722435 3592.00 3818.61 59.93
1439 53.1600 1.721534 4088.00 4246.42 63.94
1440 53.1900 1.720634 4694.00 4924.96 68.51
1441 53.2200 1.719734 6140.00 6124.56 78.36
1442 53.2500 1.718836 8305.00 8293.05 91.13
1443 53.2800 1.717939 12227.00 12024.10 110.58
1444 53.3100 1.717043 17823.00 17500.50 133.50
1445 53.3400 1.716148 24632.00 23219.50 156.95
1446 53.3700 1.715254 25927.00 24879.80 161.02
1447 53.4000 1.714361 19715.00 20520.20 140.41
1448 53.4300 1.713469 14400.00 14113.30 120.00
1449 53.4600 1.712579 10391.00 9547.54 101.94
1450 53.4900 1.711689 7385.00 7196.77 85.94
1451 53.5200 1.710800 5885.00 6201.49 76.71
1452 53.5500 1.709912 5581.00 5949.08 74.71
1453 53.5800 1.709026 5448.00 6048.65 73.81
1454 53.6100 1.708140 5586.00 6047.54 74.74
1455 53.6400 1.707255 5046.00 5511.89 71.04
1456 53.6700 1.706372 4253.00 4686.18 65.21
1457 53.7000 1.705489 3629.00 4016.24 60.24
1458 53.7300 1.704608 3263.00 3581.44 57.12
1459 53.7600 1.703727 3005.00 3310.96 54.82
1460 53.7900 1.702848 2957.00 3142.20 54.38
1461 53.8200 1.701970 2739.00 3033.56 52.34
1462 53.8500 1.701092 2765.00 2964.85 52.58
1463 53.8800 1.700216 2775.00 2925.21 52.68
1464 53.9100 1.699341 2881.00 2901.82 53.67
1465 53.9400 1.698466 2762.00 2868.60 52.55
1466 53.9700 1.697593 2663.00 2807.77 51.60
1467 54.0000 1.696721 2652.00 2743.79 51.50
1468 54.0300 1.695849 2594.00 2697.72 50.93
1469 54.0600 1.694979 2628.00 2671.32 51.26
1470 54.0900 1.694110 2598.00 2663.93 50.97
1471 54.1200 1.693241 2659.00 2679.85 51.57
1472 54.1500 1.692374 2714.00 2728.77 52.10
1473 54.1800 1.691508 2772.00 2818.19 52.65
1474 54.2100 1.690643 3036.00 2932.71 55.10
1475 54.2400 1.689778 3173.00 2998.36 56.33
1476 54.2700 1.688915 3095.00 2924.00 55.63
1477 54.3000 1.688053 2744.00 2777.40 52.38
1478 54.3300 1.687192 2668.00 2662.71 51.65
1479 54.3600 1.686332 2542.00 2594.26 50.42
1480 54.3900 1.685472 2563.00 2556.84 50.63
1481 54.4200 1.684614 2528.00 2537.22 50.28
1482 54.4500 1.683757 2484.00 2527.98 49.84
1483 54.4800 1.682900 2422.00 2525.79 49.21
1484 54.5100 1.682045 2452.00 2532.09 49.52
1485 54.5400 1.681191 2585.00 2544.75 50.84
1486 54.5700 1.680337 2552.00 2568.42 50.52
1487 54.6000 1.679485 2568.00 2606.03 50.68
1488 54.6300 1.678634 2672.00 2658.54 51.69
1489 54.6600 1.677783 2707.00 2721.86 52.03
1490 54.6900 1.676934 2800.00 2781.30 52.92
1491 54.7200 1.676085 2791.00 2805.74 52.83
1492 54.7500 1.675238 2722.00 2785.44 52.17
1493 54.7800 1.674391 2796.00 2758.66 52.88
1494 54.8100 1.673546 2742.00 2762.83 52.36
1495 54.8400 1.672701 2730.00 2815.98 52.25
1496 54.8700 1.671857 2928.00 2924.38 54.11
1497 54.9000 1.671015 3120.00 3121.45 55.86
1498 54.9300 1.670173 3479.00 3396.01 58.98
1499 54.9600 1.669333 3719.00 3688.99 60.98
1500 54.9900 1.668493 3863.00 3895.00 62.15
1501 55.0200 1.667654 4116.00 4055.72 64.16
1502 55.0500 1.666816 4324.00 4457.89 65.76
1503 55.0800 1.665979 4892.00 5225.58 69.94
1504 55.1100 1.665143 5770.00 6276.60 75.96
1505 55.1400 1.664308 6655.00 7113.85 81.58
1506 55.1700 1.663474 6299.00 6877.34 79.37
1507 55.2000 1.662641 5313.00 5671.95 72.89
1508 55.2300 1.661809 4300.00 4496.63 65.57
1509 55.2600 1.660978 3648.00 3727.20 60.40
1510 55.2900 1.660148 3261.00 3284.77 57.11
1511 55.3200 1.659318 3133.00 3043.04 55.97
1512 55.3500 1.658490 2940.00 2918.11 54.22
1513 55.3800 1.657662 2813.00 2868.34 53.04
1514 55.4100 1.656836 2846.00 2881.27 53.35
1515 55.4400 1.656010 2892.00 2974.26 53.78
1516 55.4700 1.655186 3033.00 3156.02 55.07
1517 55.5000 1.654362 3338.00 3403.70 57.78
1518 55.5300 1.653539 3377.00 3596.82 58.11
1519 55.5600 1.652718 3294.00 3532.33 57.39
1520 55.5900 1.651897 3169.00 3245.49 56.29
1521 55.6200 1.651077 2925.00 2978.37 54.08
1522 55.6500 1.650258 2787.00 2826.07 52.79
1523 55.6800 1.649440 2671.00 2776.49 51.68
1524 55.7100 1.648622 2693.00 2801.24 51.89
1525 55.7400 1.647806 2784.00 2863.40 52.76
1526 55.7700 1.646991 2861.00 2898.70 53.49
1527 55.8000 1.646176 2778.00 2843.76 52.71
1528 55.8300 1.645363 2678.00 2731.50 51.75
1529 55.8600 1.644550 2646.00 2634.75 51.44
1530 55.8900 1.643739 2558.00 2570.13 50.58
1531 55.9200 1.642928 2524.00 2519.66 50.24
1532 55.9500 1.642118 2447.00 2471.00 49.47
1533 55.9800 1.641309 2401.00 2431.45 49.00
1534 56.0100 1.640501 2369.00 2406.90 48.67
1535 56.0400 1.639694 2313.00 2398.23 48.09
1536 56.0700 1.638888 2336.00 2401.92 48.33
1537 56.1000 1.638083 2372.00 2401.18 48.70
1538 56.1300 1.637278 2491.00 2377.40 49.91
1539 56.1600 1.636475 2422.00 2349.91 49.21
1540 56.1900 1.635672 2334.00 2333.93 48.31
1541 56.2200 1.634870 2330.00 2327.47 48.27
1542 56.2500 1.634069 2337.00 2327.62 48.34
1543 56.2800 1.633270 2291.00 2333.77 47.86
1544 56.3100 1.632471 2344.00 2347.28 48.41
1545 56.3400 1.631672 2443.00 2371.48 49.43
1546 56.3700 1.630875 2434.00 2412.47 49.34
1547 56.4000 1.630079 2517.00 2479.91 50.17
1548 56.4300 1.629283 2756.00 2586.00 52.50
1549 56.4600 1.628489 2832.00 2740.04 53.22
1550 56.4900 1.627695 2897.00 2934.16 53.82
1551 56.5200 1.626902 3097.00 3113.19 55.65
1552 56.5500 1.626111 3124.00 3159.99 55.89
1553 56.5800 1.625319 2918.00 3027.06 54.02
1554 56.6100 1.624529 2840.00 2839.99 53.29
1555 56.6400 1.623740 2776.00 2709.62 52.69
1556 56.6700 1.622952 2830.00 2653.14 53.20
1557 56.7000 1.622164 3069.00 2649.19 55.40
1558 56.7300 1.621377 3116.00 2662.72 55.82
1559 56.7600 1.620592 2890.00 2651.87 53.76
1560 56.7900 1.619807 2697.00 2602.28 51.93
1561 56.8200 1.619023 2547.00 2528.47 50.47
1562 56.8500 1.618240 2384.00 2446.70 48.83
1563 56.8800 1.617457 2402.00 2374.94 49.01
1564 56.9100 1.616676 2325.00 2323.71 48.22
1565 56.9400 1.615896 2267.00 2289.93 47.61
1566 56.9700 1.615116 2207.00 2268.29 46.98
1567 57.0000 1.614337 2291.00 2248.37 47.86
1568 57.0300 1.613559 2225.00 2240.89 47.17
1569 57.0600 1.612782 2277.00 2237.36 47.72
1570 57.0900 1.612006 2242.00 2235.54 47.35
1571 57.1200 1.611230 2253.00 2232.32 47.47
1572 57.1500 1.610456 2248.00 2227.12 47.41
1573 57.1800 1.609682 2210.00 2222.05 47.01
1574 57.2100 1.608909 2278.00 2220.11 47.73
1575 57.2400 1.608137 2170.00 2220.31 46.58
1576 57.2700 1.607366 2218.00 2219.67 47.10
1577 57.3000 1.606596 2243.00 2216.48 47.36
1578 57.3300 1.605826 2237.00 2214.38 47.30
1579 57.3600 1.605058 2276.00 2218.09 47.71
1580 57.3900 1.604290 2241.00 2226.97 47.34
1581 57.4200 1.603523 2322.00 2239.17 48.19
1582 57.4500 1.602757 2351.00 2242.67 48.49
1583 57.4800 1.601992 2316.00 2234.60 48.12
1584 57.5100 1.601228 2293.00 2224.40 47.89
1585 57.5400 1.600464 2188.00 2215.13 46.78
1586 57.5700 1.599702 2323.00 2202.33 48.20
1587 57.6000 1.598940 2173.00 2186.81 46.62
1588 57.6300 1.598179 2132.00 2174.44 46.17
1589 57.6600 1.597418 2162.00 2168.42 46.50
1590 57.6900 1.596659 2162.00 2167.47 46.50
1591 57.7200 1.595901 2181.00 2172.09 46.70
1592 57.7500 1.595143 2259.00 2181.69 47.53
1593 57.7800 1.594386 2185.00 2194.49 46.74
1594 57.8100 1.593630 2137.00 2204.61 46.23
1595 57.8400 1.592875 2194.00 2205.56 46.84
1596 57.8700 1.592120 2220.00 2196.64 47.12
1597 57.9000 1.591367 2110.00 2184.51 45.93
1598 57.9300 1.590614 2112.00 2172.61 45.96
1599 57.9600 1.589862 2130.00 2158.88 46.15
1600 57.9900 1.589111 2186.00 2144.54 46.75
1601 58.0200 1.588361 2068.00 2133.11 45.48
1602 58.0500 1.587611 2110.00 2125.38 45.93
1603 58.0800 1.586863 2041.00 2120.73 45.18
1604 58.1100 1.586115 2072.00 2118.66 45.52
1605 58.1400 1.585368 2131.00 2118.97 46.16
1606 58.1700 1.584622 2066.00 2121.99 45.45
1607 58.2000 1.583876 2169.00 2125.48 46.57
1608 58.2300 1.583132 2120.00 2123.16 46.04
1609 58.2600 1.582388 2097.00 2115.27 45.79
1610 58.2900 1.581645 2078.00 2109.12 45.59
1611 58.3200 1.580903 2053.00 2107.20 45.31
1612 58.3500 1.580161 2109.00 2108.96 45.92
1613 58.3800 1.579421 2134.00 2114.56 46.20
1614 58.4100 1.578681 2168.00 2123.18 46.56
1615 58.4400 1.577942 2089.00 2130.55 45.71
1616 58.4700 1.577204 2099.00 2128.32 45.81
1617 58.5000 1.576467 2183.00 2118.03 46.72
1618 58.5300 1.575730 2140.00 2109.32 46.26
1619 58.5600 1.574994 2086.00 2105.99 45.67
1620 58.5900 1.574259 2006.00 2107.79 44.79
1621 58.6200 1.573525 2034.00 2114.33 45.10
1622 58.6500 1.572792 2215.00 2130.07 47.06
1623 58.6800 1.572059 2205.00 2157.84 46.96
1624 58.7100 1.571327 2259.00 2202.74 47.53
1625 58.7400 1.570596 2314.00 2262.83 48.10
1626 58.7700 1.569866 2319.00 2301.37 48.16
1627 58.8000 1.569137 2225.00 2263.45 47.17
1628 58.8300 1.568408 2089.00 2191.93 45.71
1629 58.8600 1.567680 2080.00 2142.25 45.61
1630 58.8900 1.566953 2070.00 2114.72 45.50
1631 58.9200 1.566227 1958.00 2098.92 44.25
1632 58.9500 1.565501 2100.00 2088.74 45.83
1633 58.9800 1.564776 2060.00 2081.53 45.39
1634 59.0100 1.564052 2112.00 2076.23 45.96
1635 59.0400 1.563329 2012.00 2072.36 44.86
1636 59.0700 1.562607 2019.00 2069.67 44.93
1637 59.1000 1.561885 2103.00 2067.99 45.86
1638 59.1300 1.561164 2048.00 2066.81 45.25
1639 59.1600 1.560444 2055.00 2067.07 45.33
1640 59.1900 1.559725 2070.00 2068.52 45.50
1641 59.2200 1.559006 2108.00 2071.87 45.91
1642 59.2500 1.558288 2053.00 2077.35 45.31
1643 59.2800 1.557571 2109.00 2086.56 45.92
1644 59.3100 1.556855 2259.00 2101.40 47.53
1645 59.3400 1.556140 2147.00 2124.08 46.34
1646 59.3700 1.555425 2202.00 2155.06 46.93
1647 59.4000 1.554711 2232.00 2191.20 47.24
1648 59.4300 1.553998 2178.00 2223.60 46.67
1649 59.4600 1.553285 2263.00 2231.92 47.57
1650 59.4900 1.552574 2304.00 2228.02 48.00
1651 59.5200 1.551863 2342.00 2226.02 48.39
1652 59.5500 1.551153 2286.00 2224.55 47.81
1653 59.5800 1.550443 2286.00 2217.24 47.81
1654 59.6100 1.549734 2192.00 2200.35 46.82
1655 59.6400 1.549026 2255.00 2178.59 47.49
1656 59.6700 1.548319 2278.00 2162.08 47.73
1657 59.7000 1.547613 2191.00 2156.54 46.81
1658 59.7300 1.546907 2180.00 2163.45 46.69
1659 59.7600 1.546202 2185.00 2184.32 46.74
1660 59.7900 1.545498 2254.00 2222.48 47.48
1661 59.8200 1.544795 2280.00 2283.15 47.75
1662 59.8500 1.544092 2365.00 2372.03 48.63
1663 59.8800 1.543390 2457.00 2491.12 49.57
1664 59.9100 1.542689 2624.00 2629.42 51.22
1665 59.9400 1.541989 2638.00 2755.73 51.36
1666 59.9700 1.541289 2839.00 2844.58 53.28
1667 60.0000 1.540590 2774.00 2901.25 52.67
1668 60.0300 1.539892 2851.00 2908.62 53.39
1669 60.0600 1.539194 2747.00 2832.97 52.41
1670 60.0900 1.538498 2706.00 2696.17 52.02
1671 60.1200 1.537802 2679.00 2547.26 51.76
1672 60.1500 1.537106 2515.00 2418.22 50.15
1673 60.1800 1.536412 2347.00 2313.90 48.45
1674 60.2100 1.535718 2296.00 2235.36 47.92
1675 60.2400 1.535025 2196.00 2181.51 46.86
1676 60.2700 1.534333 2165.00 2145.76 46.53
1677 60.3000 1.533641 2140.00 2121.82 46.26
1678 60.3300 1.532950 2198.00 2105.70 46.88
1679 60.3600 1.532260 2063.00 2095.37 45.42
1680 60.3900 1.531571 2103.00 2090.04 45.86
1681 60.4200 1.530882 2181.00 2089.80 46.70
1682 60.4500 1.530194 2116.00 2094.74 46.00
1683 60.4800 1.529507 2081.00 2105.98 45.62
1684 60.5100 1.528820 2204.00 2122.42 46.95
1685 60.5400 1.528134 2158.00 2143.48 46.45
1686 60.5700 1.527449 2253.00 2172.69 47.47
1687 60.6000 1.526765 2199.00 2213.34 46.89
1688 60.6300 1.526081 2244.00 2260.27 47.37
1689 60.6600 1.525398 2258.00 2299.36 47.52
1690 60.6900 1.524716 2287.00 2317.47 47.82
1691 60.7200 1.524035 2248.00 2315.12 47.41
1692 60.7500 1.523354 2343.00 2308.38 48.40
1693 60.7800 1.522674 2348.00 2307.07 48.46
1694 60.8100 1.521994 2356.00 2306.78 48.54
1695 60.8400 1.521316 2272.00 2304.64 47.67
1696 60.8700 1.520638 2318.00 2298.98 48.15
1697 60.9000 1.519960 2321.00 2292.60 48.18
1698 60.9300 1.519284 2323.00 2301.39 48.20
1699 60.9600 1.518608 2337.00 2335.17 48.34
1700 60.9900 1.517933 2396.00 2378.40 48.95
1701 61.0200 1.517258 2470.00 2392.84 49.70
1702 61.0500 1.516585 2421.00 2380.63 49.20
1703 61.0800 1.515912 2437.00 2393.07 49.37
1704 61.1100 1.515239 2513.00 2463.31 50.13
1705 61.1400 1.514568 2702.00 2617.91 51.98
1706 61.1700 1.513897 2942.00 2902.30 54.24
1707 61.2000 1.513227 3582.00 3362.80 59.85
1708 61.2300 1.512557 4377.00 3980.51 66.16
1709 61.2600 1.511888 5095.00 4543.87 71.38
1710 61.2900 1.511220 5089.00 4594.99 71.34
1711 61.3200 1.510553 4358.00 4031.49 66.02
1712 61.3500 1.509886 3573.00 3373.72 59.77
1713 61.3800 1.509220 2917.00 2918.46 54.01
1714 61.4100 1.508554 2751.00 2646.63 52.45
1715 61.4400 1.507890 2604.00 2476.03 51.03
1716 61.4700 1.507226 2313.00 2357.29 48.09
1717 61.5000 1.506563 2188.00 2275.44 46.78
1718 61.5300 1.505900 2226.00 2223.29 47.18
1719 61.5600 1.505238 2195.00 2185.92 46.85
1720 61.5900 1.504577 2112.00 2144.83 45.96
1721 61.6200 1.503916 2099.00 2101.46 45.81
1722 61.6500 1.503256 2038.00 2068.57 45.14
1723 61.6800 1.502597 2116.00 2047.49 46.00
1724 61.7100 1.501939 2062.00 2034.77 45.41
1725 61.7400 1.501281 2030.00 2026.63 45.06
1726 61.7700 1.500624 2079.00 2017.97 45.60
1727 61.8000 1.499967 2028.00 2004.77 45.03
1728 61.8300 1.499311 2000.00 1989.83 44.72
1729 61.8600 1.498656 1935.00 1977.27 43.99
1730 61.8900 1.498002 1939.00 1967.67 44.03
1731 61.9200 1.497348 1970.00 1960.27 44.38
1732 61.9500 1.496695 1931.00 1954.35 43.94
1733 61.9800 1.496042 1962.00 1949.43 44.29
1734 62.0100 1.495391 1911.00 1945.05 43.72
1735 62.0400 1.494740 1980.00 1941.35 44.50
1736 62.0700 1.494089 2038.00 1938.10 45.14
1737 62.1000 1.493440 1983.00 1935.11 44.53
1738 62.1300 1.492790 1959.00 1933.32 44.26
1739 62.1600 1.492142 1931.00 1931.75 43.94
1740 62.1900 1.491494 1994.00 1929.82 44.65
1741 62.2200 1.490847 1932.00 1928.20 43.95
1742 62.2500 1.490201 1990.00 1925.62 44.61
1743 62.2800 1.489555 1990.00 1924.66 44.61
1744 62.3100 1.488910 1908.00 1924.55 43.68
1745 62.3400 1.488265 1912.00 1925.46 43.73
1746 62.3700 1.487622 1939.00 1931.64 44.03
1747 62.4000 1.486979 1967.00 1936.62 44.35
1748 62.4300 1.486336 1950.00 1944.92 44.16
1749 62.4600 1.485694 1943.00 1956.40 44.08
1750 62.4900 1.485053 1901.00 1965.51 43.60
1751 62.5200 1.484413 1926.00 1961.43 43.89
1752 62.5500 1.483773 2029.00 1947.27 45.04
1753 62.5800 1.483134 2026.00 1935.34 45.01
1754 62.6100 1.482495 2007.00 1928.40 44.80
1755 62.6400 1.481857 1958.00 1924.75 44.25
1756 62.6700 1.481220 1916.00 1923.03 43.77
1757 62.7000 1.480583 1933.00 1922.71 43.97
1758 62.7300 1.479947 2007.00 1923.75 44.80
1759 62.7600 1.479312 1901.00 1926.32 43.60
1760 62.7900 1.478678 1980.00 1930.01 44.50
1761 62.8200 1.478043 2068.00 1933.86 45.48
1762 62.8500 1.477410 2019.00 1935.83 44.93
1763 62.8800 1.476777 1985.00 1935.57 44.55
1764 62.9100 1.476145 2035.00 1936.00 45.11
1765 62.9400 1.475514 2026.00 1938.04 45.01
1766 62.9700 1.474883 2009.00 1942.30 44.82
1767 63.0000 1.474253 2083.00 1948.72 45.64
1768 63.0300 1.473623 2021.00 1957.37 44.96
1769 63.0600 1.472995 2028.00 1969.84 45.03
1770 63.0900 1.472366 1975.00 1988.85 44.44
1771 63.1200 1.471739 2089.00 2020.06 45.71
1772 63.1500 1.471112 2137.00 2067.39 46.23
1773 63.1800 1.470485 2211.00 2150.18 47.02
1774 63.2100 1.469860 2371.00 2275.01 48.69
1775 63.2400 1.469235 2813.00 2438.27 53.04
1776 63.2700 1.468610 3133.00 2594.71 55.97
1777 63.3000 1.467986 3195.00 2665.17 56.52
1778 63.3300 1.467363 2958.00 2660.11 54.39
1779 63.3600 1.466741 2893.00 2666.92 53.79
1780 63.3900 1.466119 2798.00 2677.36 52.90
1781 63.4200 1.465498 2734.00 2607.67 52.29
1782 63.4500 1.464877 2596.00 2445.83 50.95
1783 63.4800 1.464257 2291.00 2283.05 47.86
1784 63.5100 1.463638 2266.00 2168.95 47.60
1785 63.5400 1.463019 2095.00 2098.44 45.77
1786 63.5700 1.462401 2117.00 2056.80 46.01
1787 63.6000 1.461783 2075.00 2034.18 45.55
1788 63.6300 1.461166 2009.00 2024.92 44.82
1789 63.6600 1.460550 2021.00 2026.55 44.96
1790 63.6900 1.459934 2093.00 2037.94 45.75
1791 63.7200 1.459319 2004.00 2056.99 44.77
1792 63.7500 1.458705 2029.00 2076.32 45.04
1793 63.7800 1.458091 2100.00 2083.49 45.83
1794 63.8100 1.457478 2113.00 2074.78 45.97
1795 63.8400 1.456865 2028.00 2064.32 45.03
1796 63.8700 1.456253 2087.00 2066.48 45.68
1797 63.9000 1.455642 2116.00 2087.92 46.00
1798 63.9300 1.455031 2186.00 2136.92 46.75
1799 63.9600 1.454421 2171.00 2212.83 46.59
1800 63.9900 1.453811 2341.00 2325.31 48.38
1801 64.0200 1.453202 2528.00 2473.57 50.28
1802 64.0500 1.452594 2657.00 2623.09 51.55
1803 64.0800 1.451986 2652.00 2695.78 51.50
1804 64.1100 1.451379 2682.00 2668.41 51.79
1805 64.1400 1.450773 2625.00 2623.60 51.23
1806 64.1700 1.450167 2598.00 2609.00 50.97
1807 64.2000 1.449562 2571.00 2604.43 50.71
1808 64.2300 1.448957 2652.00 2598.50 51.50
1809 64.2600 1.448353 2720.00 2630.24 52.15
1810 64.2900 1.447750 2811.00 2755.75 53.02
1811 64.3200 1.447147 2919.00 3016.25 54.03
1812 64.3500 1.446544 3396.00 3428.06 58.28
1813 64.3800 1.445943 3874.00 3947.83 62.24
1814 64.4100 1.445342 4311.00 4388.26 65.66
1815 64.4400 1.444741 4386.00 4416.64 66.23
1816 64.4700 1.444141 3883.00 3964.01 62.31
1817 64.5000 1.443542 3333.00 3395.78 57.73
1818 64.5300 1.442943 2949.00 2970.65 54.30
1819 64.5600 1.442345 2783.00 2707.27 52.75
1820 64.5900 1.441748 2636.00 2551.36 51.34
1821 64.6200 1.441151 2522.00 2449.79 50.22
1822 64.6500 1.440555 2461.00 2371.57 49.61
1823 64.6800 1.439959 2358.00 2319.36 48.56
1824 64.7100 1.439364 2264.00 2305.43 47.58
1825 64.7400 1.438769 2323.00 2326.40 48.20
1826 64.7700 1.438175 2365.00 2356.63 48.63
1827 64.8000 1.437582 2325.00 2349.75 48.22
1828 64.8300 1.436989 2290.00 2291.65 47.85
1829 64.8600 1.436397 2203.00 2232.36 46.94
1830 64.8900 1.435806 2114.00 2209.59 45.98
1831 64.9200 1.435215 2107.00 2224.53 45.90
1832 64.9500 1.434624 2115.00 2247.47 45.99
1833 64.9800 1.434034 2257.00 2223.74 47.51
1834 65.0100 1.433445 2278.00 2152.45 47.73
1835 65.0400 1.432857 2227.00 2089.17 47.19
1836 65.0700 1.432269 2267.00 2055.04 47.61
1837 65.1000 1.431681 2110.00 2045.29 45.93
1838 65.1300 1.431094 2128.00 2054.61 46.13
1839 65.1600 1.430508 2149.00 2080.84 46.36
1840 65.1900 1.429922 2096.00 2121.33 45.78
1841 65.2200 1.429337 2106.00 2170.37 45.89
1842 65.2500 1.428752 2173.00 2208.87 46.62
1843 65.2800 1.428168 2195.00 2216.14 46.85
1844 65.3100 1.427585 2211.00 2199.50 47.02
1845 65.3400 1.427002 2177.00 2189.13 46.66
1846 65.3700 1.426419 2115.00 2201.75 45.99
1847 65.4000 1.425838 2150.00 2224.27 46.37
1848 65.4300 1.425257 2289.00 2223.64 47.84
1849 65.4600 1.424676 2184.00 2180.73 46.73
1850 65.4900 1.424096 2224.00 2120.88 47.16
1851 65.5200 1.423517 2009.00 2074.41 44.82
1852 65.5500 1.422938 2017.00 2049.28 44.91
1853 65.5800 1.422359 2025.00 2043.28 45.00
1854 65.6100 1.421782 2053.00 2052.08 45.31
1855 65.6400 1.421204 2082.00 2068.04 45.63
1856 65.6700 1.420628 2029.00 2081.57 45.04
1857 65.7000 1.420052 2095.00 2086.76 45.77
1858 65.7300 1.419476 2164.00 2092.59 46.52
1859 65.7600 1.418901 2203.00 2116.32 46.94
1860 65.7900 1.418327 2222.00 2165.85 47.14
1861 65.8200 1.417753 2381.00 2243.25 48.80
1862 65.8500 1.417180 2514.00 2349.64 50.14
1863 65.8800 1.416607 2631.00 2491.41 51.29
1864 65.9100 1.416035 2886.00 2699.08 53.72
1865 65.9400 1.415464 3177.00 3006.75 56.36
1866 65.9700 1.414893 3539.00 3410.60 59.49
1867 66.0000 1.414322 4049.00 3825.89 63.63
1868 66.0300 1.413752 4329.00 4038.76 65.80
1869 66.0600 1.413183 4117.00 3876.09 64.16
1870 66.0900 1.412614 3720.00 3511.60 60.99
1871 66.1200 1.412046 3329.00 3182.31 57.70
1872 66.1500 1.411478 2987.00 2925.61 54.65
1873 66.1800 1.410911 2852.00 2718.59 53.40
1874 66.2100 1.410345 2723.00 2556.19 52.18
1875 66.2400 1.409779 2503.00 2420.81 50.03
1876 66.2700 1.409213 2403.00 2301.66 49.02
1877 66.3000 1.408648 2290.00 2207.76 47.85
1878 66.3300 1.408084 2154.00 2144.64 46.41
1879 66.3600 1.407520 2191.00 2108.79 46.81
1880 66.3900 1.406957 2164.00 2096.80 46.52
1881 66.4200 1.406394 2077.00 2107.44 45.57
1882 66.4500 1.405832 2161.00 2141.26 46.49
1883 66.4800 1.405270 2308.00 2202.44 48.04
1884 66.5100 1.404709 2290.00 2293.70 47.85
1885 66.5400 1.404149 2340.00 2393.72 48.37
1886 66.5700 1.403589 2453.00 2456.02 49.53
1887 66.6000 1.403029 2394.00 2419.03 48.93
1888 66.6300 1.402470 2282.00 2316.13 47.77
1889 66.6600 1.401912 2178.00 2226.42 46.67
1890 66.6900 1.401354 2315.00 2179.78 48.11
1891 66.7200 1.400797 2221.00 2170.67 47.13
1892 66.7500 1.400240 2302.00 2185.47 47.98
1893 66.7800 1.399684 2365.00 2205.78 48.63
1894 66.8100 1.399128 2383.00 2222.54 48.82
1895 66.8400 1.398573 2276.00 2248.44 47.71
1896 66.8700 1.398018 2295.00 2282.89 47.91
1897 66.9000 1.397464 2280.00 2294.62 47.75
1898 66.9300 1.396911 2319.00 2251.28 48.16
1899 66.9600 1.396358 2210.00 2167.28 47.01
1900 66.9900 1.395805 2120.00 2083.48 46.04
1901 67.0200 1.395254 2008.00 2021.27 44.81
1902 67.0500 1.394702 1969.00 1981.76 44.37
1903 67.0800 1.394151 1972.00 1960.53 44.41
1904 67.1100 1.393601 1955.00 1953.85 44.22
1905 67.1400 1.393051 1887.00 1959.21 43.44
1906 67.1700 1.392502 1875.00 1973.55 43.30
1907 67.2000 1.391953 1952.00 1990.76 44.18
1908 67.2300 1.391405 1948.00 1998.01 44.14
1909 67.2600 1.390857 1940.00 1984.17 44.05
1910 67.2900 1.390310 2021.00 1954.97 44.96
1911 67.3200 1.389763 1960.00 1926.64 44.27
1912 67.3500 1.389217 1921.00 1908.18 43.83
1913 67.3800 1.388672 1977.00 1900.29 44.46
1914 67.4100 1.388126 1914.00 1900.45 43.75
1915 67.4400 1.387582 1933.00 1904.20 43.97
1916 67.4700 1.387038 1863.00 1903.84 43.16
1917 67.5000 1.386494 1848.00 1892.13 42.99
1918 67.5300 1.385952 1945.00 1874.88 44.10
1919 67.5600 1.385409 1884.00 1862.23 43.41
1920 67.5900 1.384867 1900.00 1855.88 43.59
1921 67.6200 1.384326 1854.00 1853.62 43.06
1922 67.6500 1.383785 1849.00 1851.60 43.00
1923 67.6800 1.383244 1886.00 1848.82 43.43
1924 67.7100 1.382704 1859.00 1844.41 43.12
1925 67.7400 1.382165 1852.00 1840.52 43.03
1926 67.7700 1.381626 1843.00 1838.99 42.93
1927 67.8000 1.381088 1885.00 1840.62 43.42
1928 67.8300 1.380550 1837.00 1845.88 42.86
1929 67.8600 1.380013 1866.00 1855.27 43.20
1930 67.8900 1.379476 1968.00 1869.59 44.36
1931 67.9200 1.378940 1992.00 1889.22 44.63
1932 67.9500 1.378404 1937.00 1913.55 44.01
1933 67.9800 1.377869 1992.00 1940.21 44.63
1934 68.0100 1.377334 2010.00 1966.87 44.83
1935 68.0400 1.376800 2005.00 1998.92 44.78
1936 68.0700 1.376266 2063.00 2048.25 45.42
1937 68.1000 1.375733 2077.00 2120.15 45.57
1938 68.1300 1.375200 2224.00 2204.11 47.16
1939 68.1600 1.374668 2323.00 2261.80 48.20
1940 68.1900 1.374136 2274.00 2252.57 47.69
1941 68.2200 1.373605 2190.00 2177.39 46.80
1942 68.2500 1.373074 2120.00 2091.41 46.04
1943 68.2800 1.372544 2091.00 2027.24 45.73
1944 68.3100 1.372014 1958.00 1991.62 44.25
1945 68.3400 1.371485 2094.00 1983.24 45.76
1946 68.3700 1.370957 2021.00 1999.84 44.96
1947 68.4000 1.370428 2039.00 2038.16 45.16
1948 68.4300 1.369901 2092.00 2091.12 45.74
1949 68.4600 1.369374 2207.00 2136.33 46.98
1950 68.4900 1.368847 2118.00 2140.29 46.02
1951 68.5200 1.368321 2066.00 2097.19 45.45
1952 68.5500 1.367795 2049.00 2044.48 45.27
1953 68.5800 1.367270 2023.00 2010.84 44.98
1954 68.6100 1.366745 1974.00 1995.63 44.43
1955 68.6400 1.366221 1963.00 1981.44 44.31
1956 68.6700 1.365697 2009.00 1952.47 44.82
1957 68.7000 1.365174 1949.00 1913.77 44.15
1958 68.7300 1.364651 1898.00 1880.95 43.57
1959 68.7600 1.364129 1872.00 1858.48 43.27
1960 68.7900 1.363608 1834.00 1843.29 42.83
1961 68.8200 1.363086 1870.00 1833.79 43.24
1962 68.8500 1.362566 1880.00 1828.39 43.36
1963 68.8800 1.362045 1964.00 1827.03 44.32
1964 68.9100 1.361525 1825.00 1829.81 42.72
1965 68.9400 1.361006 1842.00 1838.63 42.92
1966 68.9700 1.360487 1783.00 1854.48 42.23
1967 69.0000 1.359969 1875.00 1881.01 43.30
1968 69.0300 1.359451 1880.00 1920.54 43.36
1969 69.0600 1.358934 1927.00 1972.83 43.90
1970 69.0900 1.358417 1911.00 2029.08 43.72
1971 69.1200 1.357901 1947.00 2065.91 44.12
1972 69.1500 1.357385 1966.00 2060.01 44.34
1973 69.1800 1.356870 1971.00 2021.59 44.40
1974 69.2100 1.356355 1926.00 1975.29 43.89
1975 69.2400 1.355840 1917.00 1928.42 43.78
1976 69.2700 1.355327 1873.00 1886.73 43.28
1977 69.3000 1.354813 1895.00 1856.12 43.53
1978 69.3300 1.354300 1755.00 1835.80 41.89
1979 69.3600 1.353788 1808.00 1822.59 42.52
1980 69.3900 1.353276 1756.00 1813.31 41.90
1981 69.4200 1.352764 1817.00 1807.40 42.63
1982 69.4500 1.352253 1835.00 1803.03 42.84
1983 69.4800 1.351743 1790.00 1799.93 42.31
1984 69.5100 1.351232 1785.00 1798.37 42.25
1985 69.5400 1.350723 1796.00 1798.88 42.38
1986 69.5700 1.350214 1799.00 1802.00 42.41
1987 69.6000 1.349705 1768.00 1804.70 42.05
1988 69.6300 1.349197 1815.00 1804.70 42.60
1989 69.6600 1.348689 1808.00 1802.23 42.52
1990 69.6900 1.348182 1838.00 1800.77 42.87
1991 69.7200 1.347675 1898.00 1802.50 43.57
1992 69.7500 1.347169 1855.00 1807.71 43.07
1993 69.7800 1.346663 1877.00 1815.10 43.32
1994 69.8100 1.346158 1840.00 1823.93 42.90
1995 69.8400 1.345653 1928.00 1832.79 43.91
1996 69.8700 1.345149 1885.00 1840.02 43.42
1997 69.9000 1.344645 1883.00 1843.24 43.39
1998 69.9300 1.344141 1925.00 1842.85 43.87
1999 69.9600 1.343638 1902.00 1843.68 43.61
2000 69.9900 1.343136 1848.00 1847.31 42.99
2001 70.0200 1.342634 1848.00 1848.90 42.99
2002 70.0500 1.342132 1854.00 1846.28 43.06
2003 70.0800 1.341631 1951.00 1844.17 44.17
2004 70.1100 1.341130 1831.00 1848.11 42.79
2005 70.1400 1.340630 1873.00 1861.39 43.28
2006 70.1700 1.340131 1836.00 1887.80 42.85
2007 70.2000 1.339631 1925.00 1933.58 43.87
2008 70.2300 1.339132 2114.00 2007.18 45.98
2009 70.2600 1.338634 2141.00 2115.75 46.27
2010 70.2900 1.338136 2369.00 2256.29 48.67
2011 70.3200 1.337639 2600.00 2396.49 50.99
2012 70.3500 1.337142 2625.00 2460.02 51.23
2013 70.3800 1.336646 2589.00 2391.38 50.88
2014 70.4100 1.336149 2469.00 2252.31 49.69
2015 70.4400 1.335654 2228.00 2129.23 47.20
2016 70.4700 1.335159 2084.00 2041.23 45.65
2017 70.5000 1.334664 2053.00 1978.05 45.31
2018 70.5300 1.334170 1973.00 1931.01 44.42
2019 70.5600 1.333676 1864.00 1897.06 43.17
2020 70.5900 1.333183 1912.00 1873.06 43.73
2021 70.6200 1.332690 1830.00 1856.34 42.78
2022 70.6500 1.332198 1802.00 1844.90 42.45
2023 70.6800 1.331706 1775.00 1837.65 42.13
2024 70.7100 1.331215 1817.00 1834.10 42.63
2025 70.7400 1.330724 1819.00 1834.39 42.65
2026 70.7700 1.330233 1901.00 1838.74 43.60
2027 70.8000 1.329743 1956.00 1848.35 44.23
2028 70.8300 1.329253 1913.00 1864.73 43.74
2029 70.8600 1.328764 1924.00 1889.03 43.86
2030 70.8900 1.328275 1930.00 1921.80 43.93
2031 70.9200 1.327787 2005.00 1960.21 44.78
2032 70.9500 1.327299 2062.00 2001.13 45.41
2033 70.9800 1.326812 2077.00 2044.35 45.57
2034 71.0100 1.326325 2059.00 2087.75 45.38
2035 71.0400 1.325838 2055.00 2118.52 45.33
2036 71.0700 1.325352 2211.00 2120.83 47.02
2037 71.1000 1.324867 2157.00 2105.77 46.44
2038 71.1300 1.324382 2083.00 2105.51 45.64
2039 71.1600 1.323897 2192.00 2139.28 46.82
2040 71.1900 1.323413 2232.00 2208.04 47.24
2041 71.2200 1.322929 2307.00 2297.57 48.03
2042 71.2500 1.322446 2383.00 2374.01 48.82
2043 71.2800 1.321963 2229.00 2395.34 47.21
2044 71.3100 1.321480 2266.00 2356.62 47.60
2045 71.3400 1.320998 2208.00 2287.02 46.99
2046 71.3700 1.320516 2248.00 2203.43 47.41
2047 71.4000 1.320035 2190.00 2116.17 46.80
2048 71.4300 1.319555 2020.00 2041.90 44.94
2049 71.4600 1.319074 1954.00 1987.95 44.20
2050 71.4900 1.318595 1917.00 1952.84 43.78
2051 71.5200 1.318115 1788.00 1932.72 42.28
2052 71.5500 1.317636 1880.00 1924.42 43.36
2053 71.5800 1.317158 1885.00 1925.43 43.42
2054 71.6100 1.316680 1908.00 1935.11 43.68
2055 71.6400 1.316202 1975.00 1951.88 44.44
2056 71.6700 1.315725 1927.00 1972.36 43.90
2057 71.7000 1.315248 1954.00 1991.73 44.20
2058 71.7300 1.314772 2089.00 2008.84 45.71
2059 71.7600 1.314296 2017.00 2026.26 44.91
2060 71.7900 1.313820 2209.00 2047.00 47.00
2061 71.8200 1.313345 2129.00 2080.77 46.14
2062 71.8500 1.312871 2109.00 2138.76 45.92
2063 71.8800 1.312397 2119.00 2218.57 46.03
2064 71.9100 1.311923 2148.00 2298.79 46.35
2065 71.9400 1.311449 2227.00 2337.96 47.19
2066 71.9700 1.310977 2290.00 2312.59 47.85
2067 72.0000 1.310504 2215.00 2259.50 47.06
2068 72.0300 1.310032 2079.00 2229.91 45.60
2069 72.0600 1.309561 2179.00 2236.11 46.68
2070 72.0900 1.309090 2312.00 2253.11 48.08
2071 72.1200 1.308619 2409.00 2247.50 49.08
2072 72.1500 1.308148 2402.00 2209.96 49.01
2073 72.1800 1.307679 2106.00 2144.18 45.89
2074 72.2100 1.307209 1993.00 2066.18 44.64
2075 72.2400 1.306740 2023.00 1997.23 44.98
2076 72.2700 1.306272 1863.00 1946.36 43.16
2077 72.3000 1.305803 1904.00 1911.49 43.63
2078 72.3300 1.305336 1852.00 1887.92 43.03
2079 72.3600 1.304868 1857.00 1872.85 43.09
2080 72.3900 1.304402 1884.00 1864.91 43.41
2081 72.4200 1.303935 1858.00 1864.15 43.10
2082 72.4500 1.303469 1827.00 1871.89 42.74
2083 72.4800 1.303003 1849.00 1890.59 43.00
2084 72.5100 1.302538 1888.00 1921.97 43.45
2085 72.5400 1.302073 2014.00 1968.85 44.88
2086 72.5700 1.301609 2050.00 2024.60 45.28
2087 72.6000 1.301145 2076.00 2069.61 45.56
2088 72.6300 1.300682 2125.00 2074.21 46.10
2089 72.6600 1.300218 2076.00 2035.61 45.56
2090 72.6900 1.299756 2083.00 1988.65 45.64
2091 72.7200 1.299294 2018.00 1959.83 44.92
2092 72.7500 1.298832 1971.00 1953.29 44.40
2093 72.7800 1.298370 1927.00 1963.76 43.90
2094 72.8100 1.297909 2011.00 1982.30 44.84
2095 72.8400 1.297449 2027.00 1995.66 45.02
2096 72.8700 1.296988 1998.00 1990.34 44.70
2097 72.9000 1.296529 2002.00 1966.54 44.74
2098 72.9300 1.296069 1992.00 1936.97 44.63
2099 72.9600 1.295610 1905.00 1912.78 43.65
2100 72.9900 1.295152 1837.00 1899.35 42.86
2101 73.0200 1.294694 1896.00 1898.99 43.54
2102 73.0500 1.294236 1866.00 1912.88 43.20
2103 73.0800 1.293779 1954.00 1942.81 44.20
2104 73.1100 1.293322 2028.00 1990.56 45.03
2105 73.1400 1.292866 2129.00 2055.21 46.14
2106 73.1700 1.292410 2151.00 2130.43 46.38
2107 73.2000 1.291954 2238.00 2200.03 47.31
2108 73.2300 1.291499 2181.00 2234.36 46.70
2109 73.2600 1.291044 2190.00 2210.41 46.80
2110 73.2900 1.290589 2209.00 2143.83 47.00
2111 73.3200 1.290135 2085.00 2068.21 45.66
2112 73.3500 1.289682 2067.00 2005.07 45.46
2113 73.3800 1.289229 2058.00 1961.71 45.37
2114 73.4100 1.288776 1882.00 1937.19 43.38
2115 73.4400 1.288324 1937.00 1927.48 44.01
2116 73.4700 1.287872 1864.00 1930.96 43.17
2117 73.5000 1.287420 1935.00 1948.54 43.99
2118 73.5300 1.286969 1978.00 1980.91 44.47
2119 73.5600 1.286518 2052.00 2028.08 45.30
2120 73.5900 1.286068 2068.00 2084.95 45.48
2121 73.6200 1.285618 2141.00 2136.61 46.27
2122 73.6500 1.285168 2181.00 2159.85 46.70
2123 73.6800 1.284719 2194.00 2146.83 46.84
2124 73.7100 1.284270 2156.00 2117.62 46.43
2125 73.7400 1.283822 2115.00 2095.56 45.99
2126 73.7700 1.283374 2125.00 2076.75 46.10
2127 73.8000 1.282926 2120.00 2049.42 46.04
2128 73.8300 1.282479 2107.00 2020.93 45.90
2129 73.8600 1.282033 1986.00 2000.41 44.56
2130 73.8900 1.281586 1907.00 1982.22 43.67
2131 73.9200 1.281140 1863.00 1957.78 43.16
2132 73.9500 1.280695 1869.00 1928.09 43.23
2133 73.9800 1.280250 1804.00 1900.05 42.47
2134 74.0100 1.279805 1811.00 1880.13 42.56
2135 74.0400 1.279361 1841.00 1870.80 42.91
2136 74.0700 1.278917 1822.00 1872.52 42.68
2137 74.1000 1.278473 1878.00 1885.28 43.34
2138 74.1300 1.278030 1818.00 1907.81 42.64
2139 74.1600 1.277587 1840.00 1935.54 42.90
2140 74.1900 1.277145 1816.00 1957.71 42.61
2141 74.2200 1.276703 1817.00 1960.95 42.63
2142 74.2500 1.276261 1842.00 1942.78 42.92
2143 74.2800 1.275820 1896.00 1913.96 43.54
2144 74.3100 1.275379 1811.00 1885.02 42.56
2145 74.3400 1.274939 1775.00 1861.98 42.13
2146 74.3700 1.274499 1778.00 1848.38 42.17
2147 74.4000 1.274059 1771.00 1842.27 42.08
2148 74.4300 1.273620 1800.00 1840.47 42.43
2149 74.4600 1.273181 1839.00 1839.40 42.88
2150 74.4900 1.272743 1752.00 1839.80 41.86
2151 74.5200 1.272305 1833.00 1846.02 42.81
2152 74.5500 1.271867 1793.00 1861.57 42.34
2153 74.5800 1.271430 1820.00 1887.12 42.66
2154 74.6100 1.270993 1836.00 1919.42 42.85
2155 74.6400 1.270556 1894.00 1950.20 43.52
2156 74.6700 1.270120 1869.00 1963.24 43.23
2157 74.7000 1.269684 1844.00 1949.33 42.94
2158 74.7300 1.269249 1886.00 1920.79 43.43
2159 74.7600 1.268814 1847.00 1897.12 42.98
2160 74.7900 1.268379 1847.00 1886.59 42.98
2161 74.8200 1.267945 1936.00 1887.61 44.00
2162 74.8500 1.267511 1880.00 1893.44 43.36
2163 74.8800 1.267078 1725.00 1893.34 41.53
2164 74.9100 1.266645 1724.00 1879.77 41.52
2165 74.9400 1.266212 1775.00 1854.88 42.13
2166 74.9700 1.265780 1770.00 1828.64 42.07
2167 75.0000 1.265348 1783.00 1807.32 42.23
2168 75.0300 1.264916 1776.00 1791.77 42.14
2169 75.0600 1.264485 1738.00 1780.70 41.69
2170 75.0900 1.264055 1737.00 1772.70 41.68
2171 75.1200 1.263624 1808.00 1767.38 42.52
2172 75.1500 1.263194 1762.00 1762.89 41.98
2173 75.1800 1.262764 1747.00 1759.30 41.80
2174 75.2100 1.262335 1724.00 1756.77 41.52
2175 75.2400 1.261907 1743.00 1755.06 41.75
2176 75.2700 1.261478 1769.00 1754.07 42.06
2177 75.3000 1.261050 1685.00 1753.78 41.05
2178 75.3300 1.260622 1727.00 1754.03 41.56
2179 75.3600 1.260195 1731.00 1754.63 41.61
2180 75.3900 1.259768 1706.00 1755.17 41.30
2181 75.4200 1.259341 1778.00 1755.39 42.17
2182 75.4500 1.258915 1704.00 1755.55 41.28
2183 75.4800 1.258489 1743.00 1756.41 41.75
2184 75.5100 1.258064 1747.00 1758.68 41.80
2185 75.5400 1.257638 1698.00 1762.90 41.21
2186 75.5700 1.257214 1796.00 1769.31 42.38
2187 75.6000 1.256789 1761.00 1778.31 41.96
2188 75.6300 1.256365 1750.00 1788.76 41.83
2189 75.6600 1.255942 1792.00 1798.57 42.33
2190 75.6900 1.255518 1708.00 1803.98 41.33
2191 75.7200 1.255095 1784.00 1803.00 42.24
2192 75.7500 1.254673 1763.00 1798.72 41.99
2193 75.7800 1.254251 1780.00 1795.44 42.19
2194 75.8100 1.253829 1792.00 1797.48 42.33
2195 75.8400 1.253408 1758.00 1804.82 41.93
2196 75.8700 1.252987 1794.00 1816.79 42.36
2197 75.9000 1.252566 1770.00 1832.00 42.07
2198 75.9300 1.252146 1823.00 1850.86 42.70
2199 75.9600 1.251726 1852.00 1877.18 43.03
2200 75.9900 1.251306 1869.00 1912.51 43.23
2201 76.0200 1.250887 1843.00 1952.10 42.93
2202 76.0500 1.250468 1874.00 1983.20 43.29
2203 76.0800 1.250050 1868.00 1987.20 43.22
2204 76.1100 1.249632 1833.00 1958.88 42.81
2205 76.1400 1.249214 1939.00 1914.19 44.03
2206 76.1700 1.248797 1800.00 1871.97 42.43
2207 76.2000 1.248380 1750.00 1839.83 41.83
2208 76.2300 1.247963 1678.00 1816.97 40.96
2209 76.2600 1.247547 1730.00 1800.23 41.59
2210 76.2900 1.247131 1772.00 1787.61 42.10
2211 76.3200 1.246715 1764.00 1778.16 42.00
2212 76.3500 1.246300 1737.00 1771.24 41.68
2213 76.3800 1.245885 1744.00 1766.33 41.76
2214 76.4100 1.245471 1712.00 1763.36 41.38
2215 76.4400 1.245057 1743.00 1762.40 41.75
2216 76.4700 1.244643 1732.00 1763.75 41.62
2217 76.5000 1.244230 1743.00 1767.74 41.75
2218 76.5300 1.243817 1705.00 1775.21 41.29
2219 76.5600 1.243404 1807.00 1786.29 42.51
2220 76.5900 1.242992 1706.00 1800.40 41.30
2221 76.6200 1.242580 1715.00 1814.97 41.41
2222 76.6500 1.242168 1766.00 1824.88 42.02
2223 76.6800 1.241757 1742.00 1823.71 41.74
2224 76.7100 1.241346 1713.00 1811.41 41.39
2225 76.7400 1.240936 1707.00 1795.56 41.32
2226 76.7700 1.240525 1698.00 1781.80 41.21
2227 76.8000 1.240116 1694.00 1772.24 41.16
2228 76.8300 1.239706 1825.00 1765.93 42.72
2229 76.8600 1.239297 1765.00 1761.24 42.01
2230 76.8900 1.238888 1703.00 1756.97 41.27
2231 76.9200 1.238480 1658.00 1752.81 40.72
2232 76.9500 1.238072 1713.00 1749.16 41.39
2233 76.9800 1.237664 1649.00 1746.31 40.61
2234 77.0100 1.237257 1742.00 1744.31 41.74
2235 77.0400 1.236850 1696.00 1743.05 41.18
2236 77.0700 1.236443 1725.00 1742.30 41.53
2237 77.1000 1.236037 1735.00 1742.23 41.65
2238 77.1300 1.235631 1673.00 1742.70 40.90
2239 77.1600 1.235226 1720.00 1743.70 41.47
2240 77.1900 1.234820 1660.00 1745.00 40.74
2241 77.2200 1.234416 1707.00 1747.28 41.32
2242 77.2500 1.234011 1694.00 1750.40 41.16
2243 77.2800 1.233607 1690.00 1754.59 41.11
2244 77.3100 1.233203 1747.00 1760.17 41.80
2245 77.3400 1.232800 1754.00 1767.72 41.88
2246 77.3700 1.232396 1718.00 1777.37 41.45
2247 77.4000 1.231994 1717.00 1789.94 41.44
2248 77.4300 1.231591 1769.00 1806.85 42.06
2249 77.4600 1.231189 1753.00 1831.07 41.87
2250 77.4900 1.230788 1871.00 1866.86 43.26
2251 77.5200 1.230386 1867.00 1916.85 43.21
2252 77.5500 1.229985 1976.00 1982.22 44.45
2253 77.5800 1.229584 1978.00 2056.25 44.47
2254 77.6100 1.229184 2081.00 2120.16 45.62
2255 77.6400 1.228784 1986.00 2142.72 44.56
2256 77.6700 1.228384 2018.00 2106.10 44.92
2257 77.7000 1.227985 1974.00 2032.90 44.43
2258 77.7300 1.227586 1885.00 1960.64 43.42
2259 77.7600 1.227188 1833.00 1905.81 42.81
2260 77.7900 1.226789 1809.00 1867.98 42.53
2261 77.8200 1.226391 1861.00 1842.37 43.14
2262 77.8500 1.225994 1872.00 1825.22 43.27
2263 77.8800 1.225597 1729.00 1813.99 41.58
2264 77.9100 1.225200 1806.00 1806.77 42.50
2265 77.9400 1.224803 1722.00 1802.03 41.50
2266 77.9700 1.224407 1698.00 1799.06 41.21
2267 78.0000 1.224011 1753.00 1798.60 41.87
2268 78.0300 1.223615 1747.00 1802.11 41.80
2269 78.0600 1.223220 1717.00 1810.17 41.44
2270 78.0900 1.222825 1758.00 1821.82 41.93
2271 78.1200 1.222431 1829.00 1832.36 42.77
2272 78.1500 1.222037 1749.00 1836.38 41.82
2273 78.1800 1.221643 1794.00 1831.83 42.36
2274 78.2100 1.221249 1769.00 1822.36 42.06
2275 78.2400 1.220856 1729.00 1811.90 41.58
2276 78.2700 1.220463 1746.00 1803.00 41.79
2277 78.3000 1.220071 1758.00 1798.03 41.93
2278 78.3300 1.219679 1697.00 1799.21 41.19
2279 78.3600 1.219287 1788.00 1807.70 42.28
2280 78.3900 1.218895 1762.00 1824.64 41.98
2281 78.4200 1.218504 1772.00 1850.89 42.10
2282 78.4500 1.218113 1866.00 1886.12 43.20
2283 78.4800 1.217723 1853.00 1926.62 43.05
2284 78.5100 1.217332 1903.00 1962.06 43.62
2285 78.5400 1.216943 1853.00 1975.40 43.05
2286 78.5700 1.216553 1855.00 1955.45 43.07
2287 78.6000 1.216164 1886.00 1913.37 43.43
2288 78.6300 1.215775 1871.00 1870.43 43.26
2289 78.6600 1.215387 1897.00 1837.89 43.55
2290 78.6900 1.214998 1842.00 1816.26 42.92
2291 78.7200 1.214611 1798.00 1803.23 42.40
2292 78.7500 1.214223 1759.00 1795.18 41.94
2293 78.7800 1.213836 1727.00 1788.86 41.56
2294 78.8100 1.213449 1758.00 1781.52 41.93
2295 78.8400 1.213063 1740.00 1772.82 41.71
2296 78.8700 1.212676 1698.00 1764.35 41.21
2297 78.9000 1.212291 1754.00 1757.47 41.88
2298 78.9300 1.211905 1672.00 1752.68 40.89
2299 78.9600 1.211520 1710.00 1749.64 41.35
2300 78.9900 1.211135 1748.00 1748.14 41.81
2301 79.0200 1.210750 1723.00 1748.10 41.51
2302 79.0500 1.210366 1695.00 1749.68 41.17
2303 79.0800 1.209982 1745.00 1753.24 41.77
2304 79.1100 1.209599 1790.00 1759.45 42.31
2305 79.1400 1.209216 1845.00 1769.22 42.95
2306 79.1700 1.208833 1803.00 1782.77 42.46
2307 79.2000 1.208450 1796.00 1799.75 42.38
2308 79.2300 1.208068 1842.00 1817.07 42.92
2309 79.2600 1.207686 1895.00 1830.63 43.53
2310 79.2900 1.207304 1888.00 1840.43 43.45
2311 79.3200 1.206923 1873.00 1852.92 43.28
2312 79.3500 1.206542 1849.00 1873.86 43.00
2313 79.3800 1.206161 1848.00 1905.10 42.99
2314 79.4100 1.205781 1942.00 1941.79 44.07
2315 79.4400 1.205401 1913.00 1972.07 43.74
2316 79.4700 1.205021 1860.00 1979.97 43.13
2317 79.5000 1.204642 1891.00 1959.86 43.49
2318 79.5300 1.204263 1910.00 1926.17 43.70
2319 79.5600 1.203884 2008.00 1897.54 44.81
2320 79.5900 1.203506 1875.00 1883.58 43.30
2321 79.6200 1.203128 1996.00 1885.37 44.68
2322 79.6500 1.202750 1973.00 1900.09 44.42
2323 79.6800 1.202372 1970.00 1921.48 44.38
2324 79.7100 1.201995 2042.00 1938.57 45.19
2325 79.7400 1.201619 2074.00 1941.51 45.54
2326 79.7700 1.201242 1981.00 1933.55 44.51
2327 79.8000 1.200866 2003.00 1924.71 44.75
2328 79.8300 1.200490 1902.00 1915.86 43.61
2329 79.8600 1.200115 1909.00 1899.41 43.69
2330 79.8900 1.199739 1848.00 1872.55 42.99
2331 79.9200 1.199365 1812.00 1843.83 42.57
2332 79.9500 1.198990 1848.00 1821.92 42.99
2333 79.9800 1.198616 1723.00 1808.56 41.51
2334 80.0100 1.198242 1720.00 1802.57 41.47
2335 80.0400 1.197868 1753.00 1802.82 41.87
2336 80.0700 1.197495 1743.00 1809.08 41.75
2337 80.1000 1.197122 1814.00 1821.55 42.59
2338 80.1300 1.196749 1780.00 1839.95 42.19
2339 80.1600 1.196377 1864.00 1862.60 43.17
2340 80.1900 1.196005 1954.00 1885.01 44.20
2341 80.2200 1.195633 1904.00 1899.05 43.63
2342 80.2500 1.195261 1986.00 1900.05 44.56
2343 80.2800 1.194890 2016.00 1890.76 44.90
2344 80.3100 1.194520 1857.00 1881.79 43.09
2345 80.3400 1.194149 1833.00 1881.11 42.81
2346 80.3700 1.193779 1843.00 1889.93 42.93
2347 80.4000 1.193409 1899.00 1903.45 43.58
2348 80.4300 1.193040 1921.00 1912.40 43.83
2349 80.4600 1.192670 1866.00 1908.04 43.20
2350 80.4900 1.192301 1775.00 1890.64 42.13
2351 80.5200 1.191933 1853.00 1867.79 43.05
2352 80.5500 1.191564 1821.00 1844.91 42.67
2353 80.5800 1.191196 1775.00 1823.38 42.13
2354 80.6100 1.190829 1822.00 1805.02 42.68
2355 80.6400 1.190461 1790.00 1790.98 42.31
2356 80.6700 1.190094 1709.00 1781.18 41.34
2357 80.7000 1.189727 1674.00 1775.06 40.91
2358 80.7300 1.189361 1794.00 1772.28 42.36
2359 80.7600 1.188995 1716.00 1773.73 41.42
2360 80.7900 1.188629 1708.00 1779.31 41.33
2361 80.8200 1.188263 1786.00 1790.36 42.26
2362 80.8500 1.187898 1871.00 1807.72 43.26
2363 80.8800 1.187533 1921.00 1832.42 43.83
2364 80.9100 1.187168 1946.00 1863.77 44.11
2365 80.9400 1.186804 1936.00 1899.22 44.00
2366 80.9700 1.186440 1940.00 1931.46 44.05
2367 81.0000 1.186076 1906.00 1948.30 43.66
2368 81.0300 1.185713 1934.00 1939.91 43.98
2369 81.0600 1.185350 1963.00 1910.14 44.31
2370 81.0900 1.184987 1896.00 1874.19 43.54
2371 81.1200 1.184625 1881.00 1844.19 43.37
2372 81.1500 1.184262 1820.00 1825.15 42.66
2373 81.1800 1.183900 1782.00 1815.51 42.21
2374 81.2100 1.183539 1867.00 1813.92 43.21
2375 81.2400 1.183178 1858.00 1817.87 43.10
2376 81.2700 1.182817 1797.00 1824.99 42.39
2377 81.3000 1.182456 1916.00 1831.50 43.77
2378 81.3300 1.182096 1889.00 1833.59 43.46
2379 81.3600 1.181736 1828.00 1828.30 42.76
2380 81.3900 1.181376 1844.00 1817.59 42.94
2381 81.4200 1.181016 1820.00 1806.80 42.66
2382 81.4500 1.180657 1851.00 1799.89 43.02
2383 81.4800 1.180298 1841.00 1797.33 42.91
2384 81.5100 1.179940 1791.00 1798.71 42.32
2385 81.5400 1.179581 1857.00 1805.37 43.09
2386 81.5700 1.179223 1778.00 1818.58 42.17
2387 81.6000 1.178866 1811.00 1836.59 42.56
2388 81.6300 1.178508 1823.00 1853.89 42.70
2389 81.6600 1.178151 1860.00 1862.02 43.13
2390 81.6900 1.177794 1799.00 1857.54 42.41
2391 81.7200 1.177438 1854.00 1847.08 43.06
2392 81.7500 1.177081 1858.00 1837.67 43.10
2393 81.7800 1.176726 1820.00 1829.72 42.66
2394 81.8100 1.176370 1821.00 1822.04 42.67
2395 81.8400 1.176015 1807.00 1815.82 42.51
2396 81.8700 1.175660 1806.00 1812.86 42.50
2397 81.9000 1.175305 1823.00 1813.42 42.70
2398 81.9300 1.174950 1857.00 1817.85 43.09
2399 81.9600 1.174596 1836.00 1827.97 42.85
2400 81.9900 1.174242 1880.00 1844.63 43.36
2401 82.0200 1.173889 1914.00 1867.80 43.75
2402 82.0500 1.173536 1914.00 1894.39 43.75
2403 82.0800 1.173183 1997.00 1918.05 44.69
2404 82.1100 1.172830 1958.00 1930.33 44.25
2405 82.1400 1.172478 1950.00 1926.43 44.16
2406 82.1700 1.172126 1971.00 1913.28 44.40
2407 82.2000 1.171774 1914.00 1904.43 43.75
2408 82.2300 1.171422 1942.00 1905.33 44.07
2409 82.2600 1.171071 1850.00 1912.49 43.01
2410 82.2900 1.170720 1934.00 1915.38 43.98
2411 82.3200 1.170369 1912.00 1904.40 43.73
2412 82.3500 1.170019 1908.00 1879.07 43.68
2413 82.3800 1.169669 1818.00 1848.49 42.64
2414 82.4100 1.169319 1858.00 1821.72 43.10
2415 82.4400 1.168970 1822.00 1802.03 42.68
2416 82.4700 1.168620 1780.00 1787.99 42.19
2417 82.5000 1.168272 1778.00 1776.28 42.17
2418 82.5300 1.167923 1782.00 1764.74 42.21
2419 82.5600 1.167575 1745.00 1754.07 41.77
2420 82.5900 1.167227 1737.00 1745.73 41.68
2421 82.6200 1.166879 1769.00 1740.08 42.06
2422 82.6500 1.166531 1660.00 1736.67 40.74
2423 82.6800 1.166184 1699.00 1734.89 41.22
2424 82.7100 1.165837 1702.00 1734.16 41.26
2425 82.7400 1.165491 1705.00 1733.84 41.29
2426 82.7700 1.165144 1729.00 1733.52 41.58
2427 82.8000 1.164798 1787.00 1732.25 42.27
2428 82.8300 1.164453 1733.00 1731.04 41.63
2429 82.8600 1.164107 1713.00 1730.93 41.39
2430 82.8900 1.163762 1624.00 1733.01 40.30
2431 82.9200 1.163417 1770.00 1737.18 42.07
2432 82.9500 1.163073 1780.00 1743.77 42.19
2433 82.9800 1.162728 1732.00 1753.10 41.62
2434 83.0100 1.162384 1768.00 1766.23 42.05
2435 83.0400 1.162040 1855.00 1783.07 43.07
2436 83.0700 1.161697 1845.00 1800.72 42.95
2437 83.1000 1.161354 1850.00 1812.72 43.01
2438 83.1300 1.161011 1902.00 1812.87 43.61
2439 83.1600 1.160668 1877.00 1804.14 43.32
2440 83.1900 1.160326 1807.00 1794.97 42.51
2441 83.2200 1.159984 1775.00 1793.54 42.13
2442 83.2500 1.159642 1781.00 1802.03 42.20
2443 83.2800 1.159301 1834.00 1821.65 42.83
2444 83.3100 1.158959 1801.00 1852.48 42.44
2445 83.3400 1.158618 1862.00 1893.70 43.15
2446 83.3700 1.158278 1923.00 1940.89 43.85
2447 83.4000 1.157937 1956.00 1981.81 44.23
2448 83.4300 1.157597 2023.00 2002.82 44.98
2449 83.4600 1.157257 2109.00 2003.49 45.92
2450 83.4900 1.156918 1987.00 2003.38 44.58
2451 83.5200 1.156579 2027.00 2021.92 45.02
2452 83.5500 1.156240 2193.00 2063.68 46.83
2453 83.5800 1.155901 2227.00 2114.11 47.19
2454 83.6100 1.155562 2319.00 2146.46 48.16
2455 83.6400 1.155224 2326.00 2133.77 48.23
2456 83.6700 1.154886 2122.00 2081.91 46.07
2457 83.7000 1.154549 2036.00 2024.90 45.12
2458 83.7300 1.154211 1891.00 1984.18 43.49
2459 83.7600 1.153874 1954.00 1958.41 44.20
2460 83.7900 1.153538 1919.00 1936.14 43.81
2461 83.8200 1.153201 1831.00 1908.57 42.79
2462 83.8500 1.152865 1845.00 1876.95 42.95
2463 83.8800 1.152529 1819.00 1848.51 42.65
2464 83.9100 1.152193 1845.00 1828.51 42.95
2465 83.9400 1.151858 1751.00 1817.82 41.85
2466 83.9700 1.151523 1845.00 1813.64 42.95
2467 84.0000 1.151188 1840.00 1812.63 42.90
2468 84.0300 1.150853 1840.00 1808.38 42.90
2469 84.0600 1.150519 1804.00 1796.44 42.47
2470 84.0900 1.150185 1785.00 1778.74 42.25
2471 84.1200 1.149851 1689.00 1761.15 41.10
2472 84.1500 1.149518 1728.00 1747.35 41.57
2473 84.1800 1.149184 1751.00 1737.73 41.85
2474 84.2100 1.148852 1788.00 1731.26 42.28
2475 84.2400 1.148519 1632.00 1727.44 40.40
2476 84.2700 1.148186 1726.00 1726.34 41.55
2477 84.3000 1.147854 1720.00 1728.79 41.47
2478 84.3300 1.147522 1732.00 1735.96 41.62
2479 84.3600 1.147191 1762.00 1748.72 41.98
2480 84.3900 1.146860 1807.00 1767.47 42.51
2481 84.4200 1.146528 1809.00 1790.44 42.53
2482 84.4500 1.146198 1777.00 1811.90 42.15
2483 84.4800 1.145867 1786.00 1821.11 42.26
2484 84.5100 1.145537 1795.00 1810.20 42.37
2485 84.5400 1.145207 1873.00 1785.49 43.28
2486 84.5700 1.144877 1731.00 1760.39 41.61
2487 84.6000 1.144548 1698.00 1741.81 41.21
2488 84.6300 1.144219 1699.00 1729.95 41.22
2489 84.6600 1.143890 1799.00 1723.16 42.41
2490 84.6900 1.143561 1691.00 1719.62 41.12
2491 84.7200 1.143233 1696.00 1717.69 41.18
2492 84.7500 1.142905 1684.00 1715.28 41.04
2493 84.7800 1.142577 1713.00 1711.38 41.39
2494 84.8100 1.142249 1726.00 1706.11 41.55
2495 84.8400 1.141922 1734.00 1701.20 41.64
2496 84.8700 1.141595 1737.00 1698.95 41.68
2497 84.9000 1.141268 1668.00 1697.03 40.84
2498 84.9300 1.140942 1669.00 1695.82 40.85
2499 84.9600 1.140615 1740.00 1695.72 41.71
2500 84.9900 1.140290 1728.00 1696.72 41.57
2501 85.0200 1.139964 1667.00 1698.89 40.83
2502 85.0500 1.139638 1669.00 1702.26 40.85
2503 85.0800 1.139313 1625.00 1706.81 40.31
2504 85.1100 1.138988 1705.00 1712.53 41.29
2505 85.1400 1.138664 1701.00 1718.72 41.24
2506 85.1700 1.138339 1737.00 1724.26 41.68
2507 85.2000 1.138015 1759.00 1727.75 41.94
2508 85.2300 1.137691 1726.00 1729.05 41.55
2509 85.2600 1.137368 1640.00 1727.83 40.50
2510 85.2900 1.137044 1745.00 1726.62 41.77
2511 85.3200 1.136721 1635.00 1726.81 40.44
2512 85.3500 1.136398 1776.00 1729.30 42.14
2513 85.3800 1.136076 1672.00 1733.98 40.89
2514 85.4100 1.135753 1730.00 1740.49 41.59
2515 85.4400 1.135431 1713.00 1748.01 41.39
2516 85.4700 1.135110 1758.00 1755.77 41.93
2517 85.5000 1.134788 1813.00 1764.48 42.58
2518 85.5300 1.134467 1782.00 1776.60 42.21
2519 85.5600 1.134146 1844.00 1794.86 42.94
2520 85.5900 1.133825 1843.00 1821.25 42.93
2521 85.6200 1.133505 1908.00 1858.59 43.68
2522 85.6500 1.133184 1856.00 1905.79 43.08
2523 85.6800 1.132864 1975.00 1966.98 44.44
2524 85.7100 1.132545 2095.00 2046.10 45.77
2525 85.7400 1.132225 2115.00 2145.20 45.99
2526 85.7700 1.131906 2180.00 2258.40 46.69
2527 85.8000 1.131587 2208.00 2367.53 46.99
2528 85.8300 1.131269 2305.00 2442.41 48.01
2529 85.8600 1.130950 2340.00 2457.06 48.37
2530 85.8900 1.130632 2383.00 2414.26 48.82
2531 85.9200 1.130314 2390.00 2338.55 48.89
2532 85.9500 1.129997 2318.00 2246.98 48.15
2533 85.9800 1.129679 2180.00 2153.67 46.69
2534 86.0100 1.129362 2151.00 2077.22 46.38
2535 86.0400 1.129045 2111.00 2027.64 45.95
2536 86.0700 1.128728 2034.00 2003.46 45.10
2537 86.1000 1.128412 1999.00 2002.46 44.71
2538 86.1300 1.128096 2038.00 2023.78 45.14
2539 86.1600 1.127780 2057.00 2067.55 45.35
2540 86.1900 1.127464 2205.00 2131.98 46.96
2541 86.2200 1.127149 2192.00 2206.17 46.82
2542 86.2500 1.126834 2374.00 2265.18 48.72
2543 86.2800 1.126519 2335.00 2273.82 48.32
2544 86.3100 1.126205 2271.00 2217.87 47.65
2545 86.3400 1.125890 2112.00 2126.53 45.96
2546 86.3700 1.125576 2106.00 2040.07 45.89
2547 86.4000 1.125262 2020.00 1975.87 44.94
2548 86.4300 1.124949 1893.00 1931.72 43.51
2549 86.4600 1.124635 1889.00 1899.12 43.46
2550 86.4900 1.124322 1902.00 1871.35 43.61
2551 86.5200 1.124009 1917.00 1846.70 43.78
2552 86.5500 1.123697 1789.00 1826.39 42.30
2553 86.5800 1.123384 1777.00 1811.26 42.15
2554 86.6100 1.123073 1747.00 1800.69 41.80
2555 86.6400 1.122761 1764.00 1792.98 42.00
2556 86.6700 1.122449 1775.00 1785.46 42.13
2557 86.7000 1.122138 1785.00 1775.85 42.25
2558 86.7300 1.121827 1769.00 1765.10 42.06
2559 86.7600 1.121516 1800.00 1755.36 42.43
2560 86.7900 1.121205 1750.00 1748.23 41.83
2561 86.8200 1.120895 1781.00 1743.63 42.20
2562 86.8500 1.120585 1753.00 1741.04 41.87
2563 86.8800 1.120275 1748.00 1740.44 41.81
2564 86.9100 1.119965 1821.00 1742.02 42.67
2565 86.9400 1.119656 1799.00 1746.11 42.41
2566 86.9700 1.119347 1769.00 1752.90 42.06
2567 87.0000 1.119038 1813.00 1762.45 42.58
2568 87.0300 1.118730 1861.00 1774.58 43.14
2569 87.0600 1.118421 1898.00 1788.43 43.57
2570 87.0900 1.118113 1805.00 1802.93 42.49
2571 87.1200 1.117805 1859.00 1815.50 43.12
2572 87.1500 1.117498 1930.00 1824.02 43.93
2573 87.1800 1.117190 1953.00 1828.88 44.19
2574 87.2100 1.116883 1933.00 1833.91 43.97
2575 87.2400 1.116576 1914.00 1844.46 43.75
2576 87.2700 1.116270 1955.00 1866.14 44.22
2577 87.3000 1.115963 1968.00 1903.51 44.36
2578 87.3300 1.115657 2107.00 1963.86 45.90
2579 87.3600 1.115351 2239.00 2054.86 47.32
2580 87.3900 1.115046 2394.00 2182.34 48.93
2581 87.4200 1.114740 2539.00 2344.91 50.39
2582 87.4500 1.114435 2896.00 2524.36 53.81
2583 87.4800 1.114130 2971.00 2672.94 54.51
2584 87.5100 1.113825 3140.00 2722.59 56.04
2585 87.5400 1.113521 2944.00 2650.03 54.26
2586 87.5700 1.113217 2727.00 2519.44 52.22
2587 87.6000 1.112913 2451.00 2404.63 49.51
2588 87.6300 1.112609 2263.00 2329.18 47.57
2589 87.6600 1.112306 2232.00 2273.99 47.24
2590 87.6900 1.112002 2123.00 2212.68 46.08
2591 87.7200 1.111699 2065.00 2140.16 45.44
2592 87.7500 1.111397 2075.00 2069.61 45.55
2593 87.7800 1.111094 1970.00 2013.58 44.38
2594 87.8100 1.110792 1860.00 1974.44 43.13
2595 87.8400 1.110490 1886.00 1950.67 43.43
2596 87.8700 1.110188 1963.00 1940.16 44.31
2597 87.9000 1.109887 1919.00 1940.42 43.81
2598 87.9300 1.109585 1943.00 1948.48 44.08
2599 87.9600 1.109284 1985.00 1961.17 44.55
2600 87.9900 1.108984 1876.00 1977.27 43.31
2601 88.0200 1.108683 2028.00 1999.09 45.03
2602 88.0500 1.108382 2164.00 2031.11 46.52
2603 88.0800 1.108082 2144.00 2076.10 46.30
2604 88.1100 1.107783 2188.00 2132.31 46.78
2605 88.1400 1.107483 2256.00 2190.97 47.50
2606 88.1700 1.107184 2315.00 2235.85 48.11
2607 88.2000 1.106884 2300.00 2254.98 47.96
2608 88.2300 1.106586 2454.00 2259.01 49.54
2609 88.2600 1.106287 2394.00 2276.01 48.93
2610 88.2900 1.105988 2369.00 2329.67 48.67
2611 88.3200 1.105690 2513.00 2425.58 50.13
2612 88.3500 1.105392 2771.00 2549.80 52.64
2613 88.3800 1.105095 2830.00 2665.05 53.20
2614 88.4100 1.104797 2887.00 2712.49 53.73
2615 88.4400 1.104500 2734.00 2648.78 52.29
2616 88.4700 1.104203 2649.00 2497.97 51.47
2617 88.5000 1.103906 2533.00 2328.50 50.33
2618 88.5300 1.103609 2327.00 2186.94 48.24
2619 88.5600 1.103313 2129.00 2083.75 46.14
2620 88.5900 1.103017 2142.00 2010.82 46.28
2621 88.6200 1.102721 2029.00 1960.01 45.04
2622 88.6500 1.102426 1954.00 1924.15 44.20
2623 88.6800 1.102130 1929.00 1899.68 43.92
2624 88.7100 1.101835 1881.00 1885.04 43.37
2625 88.7400 1.101540 1806.00 1879.98 42.50
2626 88.7700 1.101245 1865.00 1884.35 43.19
2627 88.8000 1.100951 1834.00 1897.56 42.83
2628 88.8300 1.100657 1858.00 1916.21 43.10
2629 88.8600 1.100363 1908.00 1932.52 43.68
2630 88.8900 1.100069 1876.00 1935.12 43.31
2631 88.9200 1.099776 1919.00 1919.57 43.81
2632 88.9500 1.099482 2028.00 1893.99 45.03
2633 88.9800 1.099189 1954.00 1869.92 44.20
2634 89.0100 1.098896 1886.00 1852.79 43.43
2635 89.0400 1.098604 1862.00 1840.51 43.15
2636 89.0700 1.098311 1894.00 1829.97 43.52
2637 89.1000 1.098019 1874.00 1816.37 43.29
2638 89.1300 1.097727 1822.00 1799.98 42.68
2639 89.1600 1.097436 1808.00 1784.20 42.52
2640 89.1900 1.097144 1731.00 1771.48 41.61
2641 89.2200 1.096853 1726.00 1762.88 41.55
2642 89.2500 1.096562 1790.00 1758.00 42.31
2643 89.2800 1.096271 1735.00 1755.84 41.65
2644 89.3100 1.095981 1727.00 1755.41 41.56
2645 89.3400 1.095691 1732.00 1756.07 41.62
2646 89.3700 1.095400 1762.00 1758.31 41.98
2647 89.4000 1.095111 1668.00 1763.60 40.84
2648 89.4300 1.094821 1739.00 1773.36 41.70
2649 89.4600 1.094532 1774.00 1787.59 42.12
2650 89.4900 1.094243 1841.00 1803.91 42.91
2651 89.5200 1.093954 1786.00 1816.59 42.26
2652 89.5500 1.093665 1841.00 1818.77 42.91
2653 89.5800 1.093376 1753.00 1808.06 41.87
2654 89.6100 1.093088 1802.00 1788.96 42.45
2655 89.6400 1.092800 1808.00 1768.69 42.52
2656 89.6700 1.092512 1767.00 1752.29 42.04
2657 89.7000 1.092225 1785.00 1741.28 42.25
2658 89.7300 1.091938 1703.00 1735.01 41.27
2659 89.7600 1.091650 1697.00 1732.61 41.19
2660 89.7900 1.091364 1708.00 1733.67 41.33
2661 89.8200 1.091077 1719.00 1738.41 41.46
2662 89.8500 1.090790 1805.00 1747.37 42.49
2663 89.8800 1.090504 1845.00 1761.22 42.95
2664 89.9100 1.090218 1949.00 1780.27 44.15
2665 89.9400 1.089933 1909.00 1803.53 43.69
2666 89.9700 1.089647 2023.00 1827.32 44.98
2667 90.0000 1.089362 2001.00 1844.39 44.73
2668 90.0300 1.089077 2004.00 1847.37 44.77
2669 90.0600 1.088792 2034.00 1836.91 45.10
2670 90.0900 1.088507 1908.00 1823.50 43.68
2671 90.1200 1.088223 1932.00 1816.87 43.95
2672 90.1500 1.087939 1864.00 1821.28 43.17
2673 90.1800 1.087655 1919.00 1836.63 43.81
2674 90.2100 1.087371 1899.00 1866.71 43.58
2675 90.2400 1.087087 1967.00 1911.36 44.35
2676 90.2700 1.086804 2097.00 1971.45 45.79
2677 90.3000 1.086521 2092.00 2045.90 45.74
2678 90.3300 1.086238 2277.00 2130.57 47.72
2679 90.3600 1.085955 2358.00 2220.29 48.56
2680 90.3900 1.085673 2468.00 2311.77 49.68
2681 90.4200 1.085391 2470.00 2397.49 49.70
2682 90.4500 1.085109 2491.00 2454.42 49.91
2683 90.4800 1.084827 2575.00 2452.85 50.74
2684 90.5100 1.084546 2501.00 2391.55 50.01
2685 90.5400 1.084264 2371.00 2310.04 48.69
2686 90.5700 1.083983 2254.00 2247.31 47.48
2687 90.6000 1.083702 2258.00 2215.62 47.52
2688 90.6300 1.083422 2235.00 2204.67 47.28
2689 90.6600 1.083141 2147.00 2193.18 46.34
2690 90.6900 1.082861 2142.00 2162.37 46.28
2691 90.7200 1.082581 2132.00 2108.78 46.17
2692 90.7500 1.082301 2027.00 2043.38 45.02
2693 90.7800 1.082022 1970.00 1980.60 44.38
2694 90.8100 1.081742 1980.00 1929.64 44.50
2695 90.8400 1.081463 1947.00 1892.83 44.12
2696 90.8700 1.081184 1920.00 1868.65 43.82
2697 90.9000 1.080906 1899.00 1854.69 43.58
2698 90.9300 1.080627 1913.00 1849.08 43.74
2699 90.9600 1.080349 1857.00 1850.30 43.09
2700 90.9900 1.080071 1866.00 1856.45 43.20
2701 91.0200 1.079793 1844.00 1865.68 42.94
2702 91.0500 1.079516 1865.00 1876.26 43.19
2703 91.0800 1.079238 1887.00 1887.64 43.44
2704 91.1100 1.078961 1816.00 1899.48 42.61
2705 91.1400 1.078684 1980.00 1908.97 44.50
2706 91.1700 1.078407 1998.00 1908.73 44.70
2707 91.2000 1.078131 1912.00 1893.01 43.73
2708 91.2300 1.077855 1859.00 1862.97 43.12
2709 91.2600 1.077578 1744.00 1827.33 41.76
2710 91.2900 1.077303 1776.00 1797.53 42.14
2711 91.3200 1.077027 1698.00 1774.86 41.21
2712 91.3500 1.076751 1723.00 1758.44 41.51
2713 91.3800 1.076476 1710.00 1746.61 41.35
2714 91.4100 1.076201 1719.00 1737.86 41.46
2715 91.4400 1.075927 1713.00 1731.08 41.39
2716 91.4700 1.075652 1719.00 1725.72 41.46
2717 91.5000 1.075378 1705.00 1721.76 41.29
2718 91.5300 1.075103 1727.00 1719.57 41.56
2719 91.5600 1.074829 1806.00 1719.82 42.50
2720 91.5900 1.074556 1619.00 1722.85 40.24
2721 91.6200 1.074282 1759.00 1729.16 41.94
2722 91.6500 1.074009 1802.00 1738.93 42.45
2723 91.6800 1.073736 1885.00 1751.85 43.42
2724 91.7100 1.073463 1701.00 1766.60 41.24
2725 91.7400 1.073190 1794.00 1781.77 42.36
2726 91.7700 1.072918 1822.00 1797.10 42.68
2727 91.8000 1.072646 1818.00 1814.31 42.64
2728 91.8300 1.072374 1812.00 1832.62 42.57
2729 91.8600 1.072102 1870.00 1849.68 43.24
2730 91.8900 1.071830 1887.00 1865.11 43.44
2731 91.9200 1.071559 1865.00 1880.57 43.19
2732 91.9500 1.071288 1902.00 1895.20 43.61
2733 91.9800 1.071017 1968.00 1902.62 44.36
2734 92.0100 1.070746 1868.00 1895.86 43.22
2735 92.0400 1.070475 1873.00 1876.19 43.28
2736 92.0700 1.070205 1911.00 1853.53 43.72
2737 92.1000 1.069935 1796.00 1836.14 42.38
2738 92.1300 1.069665 1828.00 1825.09 42.76
2739 92.1600 1.069395 1762.00 1816.76 41.98
2740 92.1900 1.069126 1778.00 1807.11 42.17
2741 92.2200 1.068856 1823.00 1795.40 42.70
2742 92.2500 1.068587 1813.00 1784.12 42.58
2743 92.2800 1.068318 1803.00 1775.58 42.46
2744 92.3100 1.068050 1775.00 1769.70 42.13
2745 92.3400 1.067781 1762.00 1765.11 41.98
2746 92.3700 1.067513 1748.00 1760.14 41.81
2747 92.4000 1.067245 1798.00 1753.88 42.40
2748 92.4300 1.066977 1769.00 1746.77 42.06
2749 92.4600 1.066710 1687.00 1739.78 41.07
2750 92.4900 1.066442 1759.00 1732.60 41.94
2751 92.5200 1.066175 1772.00 1725.13 42.10
2752 92.5500 1.065908 1781.00 1717.32 42.20
2753 92.5800 1.065641 1746.00 1709.58 41.79
2754 92.6100 1.065375 1619.00 1702.70 40.24
2755 92.6400 1.065108 1716.00 1697.00 41.42
2756 92.6700 1.064842 1770.00 1693.08 42.07
2757 92.7000 1.064576 1644.00 1690.12 40.55
2758 92.7300 1.064310 1726.00 1688.47 41.55
2759 92.7600 1.064045 1681.00 1688.20 41.00
2760 92.7900 1.063779 1726.00 1689.34 41.55
2761 92.8200 1.063514 1697.00 1691.93 41.19
2762 92.8500 1.063249 1702.00 1696.49 41.26
2763 92.8800 1.062984 1751.00 1702.83 41.85
2764 92.9100 1.062720 1701.00 1710.29 41.24
2765 92.9400 1.062456 1751.00 1717.43 41.85
2766 92.9700 1.062191 1769.00 1722.53 42.06
2767 93.0000 1.061928 1771.00 1725.61 42.08
2768 93.0300 1.061664 1736.00 1729.05 41.67
2769 93.0600 1.061400 1739.00 1735.15 41.70
2770 93.0900 1.061137 1735.00 1744.44 41.65
2771 93.1200 1.060874 1721.00 1756.00 41.48
2772 93.1500 1.060611 1756.00 1767.87 41.90
2773 93.1800 1.060348 1727.00 1776.44 41.56
2774 93.2100 1.060086 1781.00 1777.55 42.20
2775 93.2400 1.059824 1770.00 1769.33 42.07
2776 93.2700 1.059561 1779.00 1754.80 42.18
2777 93.3000 1.059299 1673.00 1739.36 40.90
2778 93.3300 1.059038 1680.00 1726.69 40.99
2779 93.3600 1.058776 1584.00 1717.59 39.80
2780 93.3900 1.058515 1624.00 1711.78 40.30
2781 93.4200 1.058254 1703.00 1707.66 41.27
2782 93.4500 1.057993 1696.00 1706.62 41.18
2783 93.4800 1.057732 1653.00 1707.99 40.66
2784 93.5100 1.057472 1720.00 1711.53 41.47
2785 93.5400 1.057212 1712.00 1717.24 41.38
2786 93.5700 1.056952 1729.00 1724.92 41.58
2787 93.6000 1.056692 1737.00 1733.90 41.68
2788 93.6300 1.056432 1722.00 1742.37 41.50
2789 93.6600 1.056172 1707.00 1748.17 41.32
2790 93.6900 1.055913 1772.00 1749.92 42.10
2791 93.7200 1.055654 1719.00 1748.15 41.46
2792 93.7500 1.055395 1691.00 1744.51 41.12
2793 93.7800 1.055137 1723.00 1740.37 41.51
2794 93.8100 1.054878 1659.00 1736.81 40.73
2795 93.8400 1.054620 1627.00 1735.36 40.34
2796 93.8700 1.054362 1757.00 1737.38 41.92
2797 93.9000 1.054104 1769.00 1743.33 42.06
2798 93.9300 1.053846 1692.00 1752.91 41.13
2799 93.9600 1.053589 1748.00 1765.29 41.81
2800 93.9900 1.053331 1729.00 1779.55 41.58
2801 94.0200 1.053074 1778.00 1794.29 42.17
2802 94.0500 1.052817 1810.00 1809.38 42.54
2803 94.0800 1.052561 1812.00 1823.79 42.57
2804 94.1100 1.052304 1781.00 1834.68 42.20
2805 94.1400 1.052048 1834.00 1837.89 42.83
2806 94.1700 1.051792 1782.00 1831.22 42.21
2807 94.2000 1.051536 1837.00 1817.35 42.86
2808 94.2300 1.051280 1882.00 1802.85 43.38
2809 94.2600 1.051024 1819.00 1792.38 42.65
2810 94.2900 1.050769 1798.00 1788.41 42.40
2811 94.3200 1.050514 1794.00 1792.14 42.36
2812 94.3500 1.050259 1858.00 1803.99 43.10
2813 94.3800 1.050004 1846.00 1824.57 42.97
2814 94.4100 1.049750 1905.00 1854.31 43.65
2815 94.4400 1.049495 1947.00 1892.35 44.12
2816 94.4700 1.049241 2010.00 1934.54 44.83
2817 94.5000 1.048987 1965.00 1971.80 44.33
2818 94.5300 1.048734 2067.00 1991.17 45.46
2819 94.5600 1.048480 2076.00 1985.72 45.56
2820 94.5900 1.048227 1993.00 1959.99 44.64
2821 94.6200 1.047973 1969.00 1926.28 44.37
2822 94.6500 1.047721 1868.00 1895.81 43.22
2823 94.6800 1.047468 1939.00 1873.26 44.03
2824 94.7100 1.047215 1944.00 1859.27 44.09
2825 94.7400 1.046963 1915.00 1852.24 43.76
2826 94.7700 1.046710 1896.00 1850.64 43.54
2827 94.8000 1.046458 1880.00 1852.72 43.36
2828 94.8300 1.046207 1822.00 1856.19 42.68
2829 94.8600 1.045955 1896.00 1859.15 43.54
2830 94.8900 1.045704 1882.00 1860.99 43.38
2831 94.9200 1.045452 1843.00 1862.79 42.93
2832 94.9500 1.045201 1816.00 1864.77 42.61
2833 94.9800 1.044950 1879.00 1867.14 43.35
2834 95.0100 1.044700 1941.00 1870.74 44.06
2835 95.0400 1.044449 1935.00 1876.73 43.99
2836 95.0700 1.044199 1915.00 1883.85 43.76
2837 95.1000 1.043949 1919.00 1888.21 43.81
2838 95.1300 1.043699 1929.00 1885.82 43.92
2839 95.1600 1.043449 1859.00 1875.98 43.12
2840 95.1900 1.043200 1899.00 1862.08 43.58
2841 95.2200 1.042950 1830.00 1848.82 42.78
2842 95.2500 1.042701 1821.00 1839.89 42.67
2843 95.2800 1.042452 1827.00 1837.46 42.74
2844 95.3100 1.042204 1824.00 1842.26 42.71
2845 95.3400 1.041955 1815.00 1854.32 42.60
2846 95.3700 1.041707 1818.00 1873.02 42.64
2847 95.4000 1.041458 1870.00 1897.24 43.24
2848 95.4300 1.041210 1895.00 1925.05 43.53
2849 95.4600 1.040963 1905.00 1954.56 43.65
2850 95.4900 1.040715 1899.00 1985.59 43.58
2851 95.5200 1.040468 1929.00 2020.57 43.92
2852 95.5500 1.040220 2127.00 2063.45 46.12
2853 95.5800 1.039973 2189.00 2116.01 46.79
2854 95.6100 1.039726 2276.00 2172.90 47.71
2855 95.6400 1.039480 2255.00 2218.54 47.49
2856 95.6700 1.039233 2247.00 2231.80 47.40
2857 95.7000 1.038987 2195.00 2200.94 46.85
2858 95.7300 1.038741 2140.00 2135.65 46.26
2859 95.7600 1.038495 1927.00 2059.60 43.90
2860 95.7900 1.038249 1999.00 1991.84 44.71
2861 95.8200 1.038004 1818.00 1939.59 42.64
2862 95.8500 1.037758 1817.00 1902.04 42.63
2863 95.8800 1.037513 1822.00 1875.62 42.68
2864 95.9100 1.037268 1773.00 1856.67 42.11
2865 95.9400 1.037023 1772.00 1842.28 42.10
2866 95.9700 1.036779 1754.00 1830.16 41.88
2867 96.0000 1.036534 1739.00 1818.52 41.70
2868 96.0300 1.036290 1617.00 1806.67 40.21
2869 96.0600 1.036046 1736.00 1795.14 41.67
2870 96.0900 1.035802 1795.00 1785.39 42.37
2871 96.1200 1.035558 1745.00 1778.69 41.77
2872 96.1500 1.035315 1717.00 1776.60 41.44
2873 96.1800 1.035071 1761.00 1776.67 41.96
2874 96.2100 1.034828 1776.00 1778.55 42.14
2875 96.2400 1.034585 1740.00 1779.82 41.71
2876 96.2700 1.034343 1744.00 1777.96 41.76
2877 96.3000 1.034100 1723.00 1772.25 41.51
2878 96.3300 1.033858 1675.00 1764.67 40.93
2879 96.3600 1.033615 1764.00 1757.93 42.00
2880 96.3900 1.033373 1699.00 1753.50 41.22
2881 96.4200 1.033132 1701.00 1751.39 41.24
2882 96.4500 1.032890 1764.00 1750.67 42.00
2883 96.4800 1.032648 1734.00 1750.65 41.64
2884 96.5100 1.032407 1691.00 1750.32 41.12
2885 96.5400 1.032166 1732.00 1749.17 41.62
2886 96.5700 1.031925 1705.00 1746.91 41.29
2887 96.6000 1.031685 1690.00 1743.55 41.11
2888 96.6300 1.031444 1643.00 1739.66 40.53
2889 96.6600 1.031204 1638.00 1736.02 40.47
2890 96.6900 1.030963 1590.00 1733.27 39.87
2891 96.7200 1.030723 1680.00 1731.74 40.99
2892 96.7500 1.030483 1713.00 1731.37 41.39
2893 96.7800 1.030244 1638.00 1731.99 40.47
2894 96.8100 1.030005 1592.00 1733.43 39.90
2895 96.8400 1.029765 1657.00 1735.95 40.71
2896 96.8700 1.029526 1634.00 1739.77 40.42
2897 96.9000 1.029287 1823.00 1745.15 42.70
2898 96.9300 1.029048 1722.00 1752.49 41.50
2899 96.9600 1.028810 1702.00 1761.68 41.26
2900 96.9900 1.028572 1722.00 1772.18 41.50
2901 97.0200 1.028333 1784.00 1782.82 42.24
2902 97.0500 1.028095 1799.00 1791.96 42.41
2903 97.0800 1.027857 1748.00 1798.15 41.81
2904 97.1100 1.027620 1803.00 1800.85 42.46
2905 97.1400 1.027382 1760.00 1800.50 41.95
2906 97.1700 1.027145 1791.00 1797.81 42.32
2907 97.2000 1.026908 1743.00 1793.87 41.75
2908 97.2300 1.026671 1782.00 1790.51 42.21
2909 97.2600 1.026434 1853.00 1789.91 43.05
2910 97.2900 1.026198 1729.00 1793.58 41.58
2911 97.3200 1.025961 1791.00 1802.02 42.32
2912 97.3500 1.025725 1843.00 1814.96 42.93
2913 97.3800 1.025489 1808.00 1830.97 42.52
2914 97.4100 1.025253 1823.00 1847.94 42.70
2915 97.4400 1.025017 1836.00 1862.26 42.85
2916 97.4700 1.024782 1758.00 1868.86 41.93
2917 97.5000 1.024547 1869.00 1866.57 43.23
2918 97.5300 1.024312 1811.00 1858.26 42.56
2919 97.5600 1.024077 1811.00 1850.79 42.56
2920 97.5900 1.023842 1837.00 1849.20 42.86
2921 97.6200 1.023607 1809.00 1855.70 42.53
2922 97.6500 1.023373 1902.00 1870.26 43.61
2923 97.6800 1.023139 1877.00 1890.73 43.32
2924 97.7100 1.022905 1893.00 1912.52 43.51
2925 97.7400 1.022671 1999.00 1929.20 44.71
2926 97.7700 1.022437 1957.00 1936.16 44.24
2927 97.8000 1.022203 1952.00 1935.35 44.18
2928 97.8300 1.021970 1921.00 1934.19 43.83
2929 97.8600 1.021737 1973.00 1938.78 44.42
2930 97.8900 1.021504 1920.00 1949.84 43.82
2931 97.9200 1.021271 1898.00 1963.79 43.57
2932 97.9500 1.021038 1914.00 1977.03 43.75
2933 97.9800 1.020806 2023.00 1987.63 44.98
2934 98.0100 1.020573 1968.00 1993.64 44.36
2935 98.0400 1.020341 1949.00 1990.43 44.15
2936 98.0700 1.020109 1982.00 1972.89 44.52
2937 98.1000 1.019878 1948.00 1941.88 44.14
2938 98.1300 1.019646 1992.00 1905.04 44.63
2939 98.1600 1.019415 1852.00 1870.72 43.03
2940 98.1900 1.019183 1775.00 1843.21 42.13
2941 98.2200 1.018952 1813.00 1823.03 42.58
2942 98.2500 1.018721 1787.00 1809.02 42.27
2943 98.2800 1.018491 1784.00 1800.11 42.24
2944 98.3100 1.018260 1778.00 1794.59 42.17
2945 98.3400 1.018030 1801.00 1791.84 42.44
2946 98.3700 1.017799 1745.00 1791.48 41.77
2947 98.4000 1.017569 1800.00 1792.47 42.43
2948 98.4300 1.017340 1729.00 1793.51 41.58
2949 98.4600 1.017110 1819.00 1793.08 42.65
2950 98.4900 1.016880 1734.00 1790.57 41.64
2951 98.5200 1.016651 1741.00 1785.94 41.73
2952 98.5500 1.016422 1777.00 1780.04 42.15
2953 98.5800 1.016193 1764.00 1773.62 42.00
2954 98.6100 1.015964 1703.00 1767.21 41.27
2955 98.6400 1.015735 1788.00 1761.54 42.28
2956 98.6700 1.015507 1756.00 1756.81 41.90
2957 98.7000 1.015279 1727.00 1753.12 41.56
2958 98.7300 1.015050 1731.00 1750.53 41.61
2959 98.7600 1.014822 1717.00 1748.55 41.44
2960 98.7900 1.014595 1727.00 1747.97 41.56
2961 98.8200 1.014367 1763.00 1748.51 41.99
2962 98.8500 1.014140 1651.00 1750.54 40.63
2963 98.8800 1.013912 1687.00 1754.70 41.07
2964 98.9100 1.013685 1818.00 1761.71 42.64
2965 98.9400 1.013458 1782.00 1773.85 42.21
2966 98.9700 1.013232 1702.00 1792.85 41.26
2967 99.0000 1.013005 1790.00 1821.33 42.31
2968 99.0300 1.012779 1849.00 1862.52 43.00
2969 99.0600 1.012552 1975.00 1919.61 44.44
2970 99.0900 1.012326 1979.00 1995.01 44.49
2971 99.1200 1.012100 2181.00 2088.46 46.70
2972 99.1500 1.011875 2345.00 2193.70 48.43
2973 99.1800 1.011649 2535.00 2294.43 50.35
2974 99.2100 1.011424 2576.00 2360.93 50.75
2975 99.2400 1.011198 2481.00 2362.70 49.81
2976 99.2700 1.010973 2458.00 2296.34 49.58
2977 99.3000 1.010748 2423.00 2194.58 49.22
2978 99.3300 1.010524 2224.00 2096.01 47.16
2979 99.3600 1.010299 2063.00 2019.26 45.42
2980 99.3900 1.010075 1996.00 1965.10 44.68
2981 99.4200 1.009851 1972.00 1927.52 44.41
2982 99.4500 1.009627 1851.00 1900.01 43.02
2983 99.4800 1.009403 1855.00 1877.82 43.07
2984 99.5100 1.009179 1854.00 1858.15 43.06
2985 99.5400 1.008955 1789.00 1840.03 42.30
2986 99.5700 1.008732 1751.00 1822.81 41.85
2987 99.6000 1.008509 1760.00 1807.00 41.95
2988 99.6300 1.008286 1750.00 1793.04 41.83
2989 99.6600 1.008063 1773.00 1781.16 42.11
2990 99.6900 1.007840 1733.00 1771.24 41.63
2991 99.7200 1.007618 1658.00 1762.94 40.72
2992 99.7500 1.007395 1688.00 1755.97 41.09
2993 99.7800 1.007173 1668.00 1750.26 40.84
2994 99.8100 1.006951 1617.00 1745.82 40.21
2995 99.8400 1.006729 1642.00 1742.65 40.52
2996 99.8700 1.006508 1673.00 1740.70 40.90
2997 99.9000 1.006286 1610.00 1740.02 40.12
2998 99.9300 1.006065 1664.00 1740.78 40.79
2999 99.9600 1.005843 1732.00 1743.98 41.62
3000 99.9900 1.005622 1751.00 1748.48 41.85
3001 100.0200 1.005401 1676.00 1755.12 40.94
3002 100.0500 1.005181 1716.00 1763.76 41.42
3003 100.0800 1.004960 1682.00 1773.74 41.01
3004 100.1100 1.004740 1775.00 1783.52 42.13
3005 100.1400 1.004520 1759.00 1790.61 41.94
3006 100.1700 1.004300 1714.00 1792.57 41.40
3007 100.2000 1.004080 1826.00 1789.14 42.73
3008 100.2300 1.003860 1770.00 1783.06 42.07
3009 100.2600 1.003641 1767.00 1778.89 42.04
3010 100.2900 1.003421 1824.00 1777.55 42.71
3011 100.3200 1.003202 1852.00 1780.68 43.03
3012 100.3500 1.002983 1842.00 1788.45 42.92
3013 100.3800 1.002764 1807.00 1800.74 42.51
3014 100.4100 1.002545 1829.00 1817.31 42.77
3015 100.4400 1.002327 1849.00 1837.74 43.00
3016 100.4700 1.002108 1864.00 1860.80 43.17
3017 100.5000 1.001890 1878.00 1884.31 43.34
3018 100.5300 1.001672 1922.00 1905.41 43.84
3019 100.5600 1.001454 1876.00 1922.34 43.31
3020 100.5900 1.001236 1903.00 1936.25 43.62
3021 100.6200 1.001019 1967.00 1949.95 44.35
3022 100.6500 1.000801 1950.00 1964.30 44.16
3023 100.6800 1.000584 1934.00 1975.36 43.98
3024 100.7100 1.000367 2030.00 1976.61 45.06
3025 100.7400 1.000150 1933.00 1964.39 43.97
3026 100.7700 0.999933 1960.00 1944.51 44.27
3027 100.8000 0.999717 1942.00 1926.87 44.07
3028 100.8300 0.999500 1953.00 1918.94 44.19
3029 100.8600 0.999284 1856.00 1922.68 43.08
3030 100.8900 0.999068 1934.00 1936.94 43.98
3031 100.9200 0.998852 1960.00 1958.08 44.27
3032 100.9500 0.998636 1929.00 1980.96 43.92
3033 100.9800 0.998421 1978.00 1999.21 44.47
3034 101.0100 0.998205 1959.00 2006.61 44.26
3035 101.0400 0.997990 2029.00 2001.41 45.04
3036 101.0700 0.997775 2020.00 1984.81 44.94
3037 101.1000 0.997560 2120.00 1961.13 46.04
3038 101.1300 0.997345 2003.00 1935.32 44.75
3039 101.1600 0.997130 1916.00 1912.49 43.77
3040 101.1900 0.996916 1914.00 1896.88 43.75
3041 101.2200 0.996701 1884.00 1890.20 43.41
3042 101.2500 0.996487 1844.00 1891.69 42.94
3043 101.2800 0.996273 1844.00 1898.97 42.94
3044 101.3100 0.996059 1873.00 1908.95 43.28
3045 101.3400 0.995846 1917.00 1917.62 43.78
3046 101.3700 0.995632 1827.00 1923.29 42.74
3047 101.4000 0.995419 1873.00 1927.53 43.28
3048 101.4300 0.995205 1948.00 1933.09 44.14
3049 101.4600 0.994992 1881.00 1942.36 43.37
3050 101.4900 0.994780 1934.00 1953.10 43.98
3051 101.5200 0.994567 1965.00 1958.05 44.33
3052 101.5500 0.994354 1983.00 1949.97 44.53
3053 101.5800 0.994142 1946.00 1926.57 44.11
3054 101.6100 0.993930 1911.00 1894.70 43.72
3055 101.6400 0.993717 1827.00 1863.78 42.74
3056 101.6700 0.993505 1838.00 1839.14 42.87
3057 101.7000 0.993294 1846.00 1821.38 42.97
3058 101.7300 0.993082 1746.00 1808.79 41.79
3059 101.7600 0.992871 1841.00 1799.19 42.91
3060 101.7900 0.992659 1774.00 1790.60 42.12
3061 101.8200 0.992448 1750.00 1781.71 41.83
3062 101.8500 0.992237 1709.00 1772.10 41.34
3063 101.8800 0.992026 1717.00 1762.57 41.44
3064 101.9100 0.991816 1754.00 1754.24 41.88
3065 101.9400 0.991605 1690.00 1748.18 41.11
3066 101.9700 0.991395 1710.00 1744.84 41.35
3067 102.0000 0.991184 1669.00 1744.44 40.85
3068 102.0300 0.990974 1670.00 1746.36 40.87
3069 102.0600 0.990765 1683.00 1750.46 41.02
3070 102.0900 0.990555 1664.00 1756.11 40.79
3071 102.1200 0.990345 1656.00 1762.08 40.69
3072 102.1500 0.990136 1706.00 1766.43 41.30
3073 102.1800 0.989927 1753.00 1766.82 41.87
3074 102.2100 0.989717 1778.00 1761.67 42.17
3075 102.2400 0.989508 1810.00 1751.91 42.54
3076 102.2700 0.989300 1870.00 1740.31 43.24
3077 102.3000 0.989091 1798.00 1729.46 42.40
3078 102.3300 0.988883 1800.00 1720.59 42.43
3079 102.3600 0.988674 1798.00 1712.80 42.40
3080 102.3900 0.988466 1689.00 1707.84 41.10
3081 102.4200 0.988258 1751.00 1704.40 41.85
3082 102.4500 0.988050 1668.00 1701.76 40.84
3083 102.4800 0.987842 1663.00 1699.78 40.78
3084 102.5100 0.987635 1762.00 1698.41 41.98
3085 102.5400 0.987427 1768.00 1697.62 42.05
3086 102.5700 0.987220 1692.00 1697.46 41.13
3087 102.6000 0.987013 1706.00 1697.98 41.30
3088 102.6300 0.986806 1703.00 1699.33 41.27
3089 102.6600 0.986599 1687.00 1701.61 41.07
3090 102.6900 0.986393 1719.00 1704.94 41.46
3091 102.7200 0.986186 1716.00 1709.69 41.42
3092 102.7500 0.985980 1732.00 1715.23 41.62
3093 102.7800 0.985774 1755.00 1721.80 41.89
3094 102.8100 0.985568 1745.00 1729.23 41.77
3095 102.8400 0.985362 1797.00 1737.18 42.39
3096 102.8700 0.985156 1792.00 1744.99 42.33
3097 102.9000 0.984951 1781.00 1751.99 42.20
3098 102.9300 0.984745 1810.00 1757.23 42.54
3099 102.9600 0.984540 1817.00 1761.77 42.63
3100 102.9900 0.984335 1784.00 1767.84 42.24
3101 103.0200 0.984130 1770.00 1777.52 42.07
3102 103.0500 0.983925 1752.00 1791.85 41.86
3103 103.0800 0.983721 1799.00 1810.73 42.41
3104 103.1100 0.983516 1823.00 1833.11 42.70
3105 103.1400 0.983312 1864.00 1856.84 43.17
3106 103.1700 0.983108 1802.00 1878.56 42.45
3107 103.2000 0.982903 1798.00 1894.67 42.40
3108 103.2300 0.982700 1874.00 1903.57 43.29
3109 103.2600 0.982496 1844.00 1907.87 42.94
3110 103.2900 0.982292 1902.00 1913.65 43.61
3111 103.3200 0.982089 1962.00 1927.40 44.29
3112 103.3500 0.981886 2043.00 1954.42 45.20
3113 103.3800 0.981683 2050.00 1998.89 45.28
3114 103.4100 0.981480 2208.00 2063.50 46.99
3115 103.4400 0.981277 2367.00 2148.36 48.65
3116 103.4700 0.981074 2517.00 2248.78 50.17
3117 103.5000 0.980871 2690.00 2352.71 51.87
3118 103.5300 0.980669 2913.00 2440.09 53.97
3119 103.5600 0.980467 2711.00 2490.13 52.07
3120 103.5900 0.980265 2616.00 2495.65 51.15
3121 103.6200 0.980063 2340.00 2465.11 48.37
3122 103.6500 0.979861 2247.00 2408.83 47.40
3123 103.6800 0.979660 2196.00 2331.70 46.86
3124 103.7100 0.979458 2119.00 2240.87 46.03
3125 103.7400 0.979257 2017.00 2148.85 44.91
3126 103.7700 0.979056 2027.00 2067.14 45.02
3127 103.8000 0.978855 1930.00 2000.90 43.93
3128 103.8300 0.978654 1903.00 1949.52 43.62
3129 103.8600 0.978453 1865.00 1909.83 43.19
3130 103.8900 0.978253 1749.00 1878.54 41.82
3131 103.9200 0.978052 1764.00 1852.71 42.00
3132 103.9500 0.977852 1782.00 1830.76 42.21
3133 103.9800 0.977652 1707.00 1811.98 41.32
3134 104.0100 0.977452 1723.00 1796.36 41.51
3135 104.0400 0.977252 1811.00 1783.38 42.56
3136 104.0700 0.977052 1697.00 1773.68 41.19
3137 104.1000 0.976853 1764.00 1766.56 42.00
3138 104.1300 0.976653 1741.00 1761.24 41.73
3139 104.1600 0.976454 1762.00 1756.53 41.98
3140 104.1900 0.976255 1739.00 1751.44 41.70
3141 104.2200 0.976056 1774.00 1745.63 42.12
3142 104.2500 0.975857 1731.00 1740.50 41.61
3143 104.2800 0.975659 1791.00 1737.74 42.32
3144 104.3100 0.975460 1704.00 1738.95 41.28
3145 104.3400 0.975262 1751.00 1743.94 41.85
3146 104.3700 0.975064 1760.00 1751.54 41.95
3147 104.4000 0.974866 1715.00 1759.61 41.41
3148 104.4300 0.974668 1669.00 1765.30 40.85
3149 104.4600 0.974470 1769.00 1765.52 42.06
3150 104.4900 0.974272 1722.00 1759.79 41.50
3151 104.5200 0.974075 1778.00 1750.47 42.17
3152 104.5500 0.973878 1772.00 1741.97 42.10
3153 104.5800 0.973681 1732.00 1738.02 41.62
3154 104.6100 0.973484 1828.00 1740.78 42.76
3155 104.6400 0.973287 1718.00 1751.24 41.45
3156 104.6700 0.973090 1796.00 1769.80 42.38
3157 104.7000 0.972893 1871.00 1796.55 43.26
3158 104.7300 0.972697 1953.00 1831.12 44.19
3159 104.7600 0.972501 1905.00 1872.20 43.65
3160 104.7900 0.972305 1980.00 1916.99 44.50
3161 104.8200 0.972109 2020.00 1960.44 44.94
3162 104.8500 0.971913 2108.00 1994.81 45.91
3163 104.8800 0.971717 2096.00 2011.22 45.78
3164 104.9100 0.971521 2135.00 2005.29 46.21
3165 104.9400 0.971326 2039.00 1981.99 45.16
3166 104.9700 0.971131 1983.00 1953.15 44.53
3167 105.0000 0.970936 1921.00 1928.24 43.83
3168 105.0300 0.970741 1898.00 1909.44 43.57
3169 105.0600 0.970546 1860.00 1893.20 43.13
3170 105.0900 0.970351 1800.00 1874.31 42.43
3171 105.1200 0.970157 1814.00 1850.28 42.59
3172 105.1500 0.969962 1770.00 1823.20 42.07
3173 105.1800 0.969768 1817.00 1797.15 42.63
3174 105.2100 0.969574 1692.00 1775.42 41.13
3175 105.2400 0.969380 1767.00 1759.25 42.04
3176 105.2700 0.969186 1790.00 1747.54 42.31
3177 105.3000 0.968992 1701.00 1739.31 41.24
3178 105.3300 0.968799 1757.00 1733.51 41.92
3179 105.3600 0.968605 1787.00 1729.74 42.27
3180 105.3900 0.968412 1731.00 1728.01 41.61
3181 105.4200 0.968219 1696.00 1728.08 41.18
3182 105.4500 0.968026 1708.00 1728.82 41.33
3183 105.4800 0.967833 1773.00 1728.21 42.11
3184 105.5100 0.967641 1777.00 1724.34 42.15
3185 105.5400 0.967448 1714.00 1716.73 41.40
3186 105.5700 0.967256 1789.00 1706.88 42.30
3187 105.6000 0.967064 1724.00 1697.51 41.52
3188 105.6300 0.966871 1722.00 1691.13 41.50
3189 105.6600 0.966679 1667.00 1689.44 40.83
3190 105.6900 0.966488 1704.00 1692.92 41.28
3191 105.7200 0.966296 1735.00 1701.18 41.65
3192 105.7500 0.966104 1723.00 1713.06 41.51
3193 105.7800 0.965913 1733.00 1726.32 41.63
3194 105.8100 0.965722 1673.00 1737.56 40.90
3195 105.8400 0.965531 1724.00 1742.81 41.52
3196 105.8700 0.965340 1773.00 1740.00 42.11
3197 105.9000 0.965149 1709.00 1730.05 41.34
3198 105.9300 0.964958 1667.00 1716.75 40.83
3199 105.9600 0.964768 1699.00 1704.16 41.22
3200 105.9900 0.964577 1699.00 1694.67 41.22
3201 106.0200 0.964387 1717.00 1689.00 41.44
3202 106.0500 0.964197 1582.00 1687.04 39.77
3203 106.0800 0.964007 1665.00 1688.66 40.80
3204 106.1100 0.963817 1680.00 1693.87 40.99
3205 106.1400 0.963627 1752.00 1702.42 41.86
3206 106.1700 0.963438 1691.00 1713.32 41.12
3207 106.2000 0.963248 1704.00 1725.03 41.28
3208 106.2300 0.963059 1688.00 1736.08 41.09
3209 106.2600 0.962870 1736.00 1745.23 41.67
3210 106.2900 0.962681 1700.00 1751.44 41.23
3211 106.3200 0.962492 1713.00 1753.89 41.39
3212 106.3500 0.962304 1737.00 1753.68 41.68
3213 106.3800 0.962115 1743.00 1753.80 41.75
3214 106.4100 0.961927 1717.00 1757.37 41.44
3215 106.4400 0.961738 1694.00 1765.57 41.16
3216 106.4700 0.961550 1664.00 1776.65 40.79
3217 106.5000 0.961362 1724.00 1786.37 41.52
3218 106.5300 0.961174 1733.00 1789.35 41.63
3219 106.5600 0.960986 1665.00 1782.89 40.80
3220 106.5900 0.960799 1677.00 1769.30 40.95
3221 106.6200 0.960611 1759.00 1754.67 41.94
3222 106.6500 0.960424 1755.00 1744.80 41.89
3223 106.6800 0.960237 1662.00 1742.21 40.77
3224 106.7100 0.960050 1691.00 1745.93 41.12
3225 106.7400 0.959863 1744.00 1752.18 41.76
3226 106.7700 0.959676 1727.00 1755.44 41.56
3227 106.8000 0.959490 1717.00 1750.28 41.44
3228 106.8300 0.959303 1707.00 1734.29 41.32
3229 106.8600 0.959117 1705.00 1709.76 41.29
3230 106.8900 0.958931 1699.00 1681.93 41.22
3231 106.9200 0.958744 1665.00 1654.37 40.80
3232 106.9500 0.958559 1654.00 1630.88 40.67
3233 106.9800 0.958373 1654.00 1610.45 40.67
3234 107.0100 0.958187 1619.00 1592.43 40.24
3235 107.0400 0.958002 1519.00 1576.41 38.97
3236 107.0700 0.957816 1557.00 1562.28 39.46
3237 107.1000 0.957631 1513.00 1550.05 38.90
3238 107.1300 0.957446 1515.00 1539.57 38.92
3239 107.1600 0.957261 1516.00 1530.36 38.94
3240 107.1900 0.957076 1498.00 1522.07 38.70
3241 107.2200 0.956891 1503.00 1514.52 38.77
3242 107.2500 0.956707 1590.00 1507.50 39.87
3243 107.2800 0.956522 1647.00 1501.03 40.58
3244 107.3100 0.956338 1609.00 1495.29 40.11
3245 107.3400 0.956154 1612.00 1490.39 40.15
3246 107.3700 0.955970 1513.00 1486.78 38.90
3247 107.4000 0.955786 1524.00 1483.29 39.04
3248 107.4300 0.955602 1493.00 1481.27 38.64
3249 107.4600 0.955419 1459.00 1480.07 38.20
3250 107.4900 0.955235 1594.00 1479.19 39.92
3251 107.5200 0.955052 1542.00 1478.75 39.27
3252 107.5500 0.954869 1486.00 1479.27 38.55
3253 107.5800 0.954686 1463.00 1481.48 38.25
3254 107.6100 0.954503 1510.00 1486.37 38.86
3255 107.6400 0.954320 1519.00 1494.66 38.97
3256 107.6700 0.954137 1603.00 1506.65 40.04
3257 107.7000 0.953955 1532.00 1522.57 39.14
3258 107.7300 0.953772 1568.00 1542.14 39.60
3259 107.7600 0.953590 1553.00 1564.45 39.41
3260 107.7900 0.953408 1572.00 1587.75 39.65
3261 107.8200 0.953226 1558.00 1609.45 39.47
3262 107.8500 0.953044 1641.00 1626.67 40.51
3263 107.8800 0.952863 1607.00 1637.17 40.09
3264 107.9100 0.952681 1645.00 1639.88 40.56
3265 107.9400 0.952499 1510.00 1634.89 38.86
3266 107.9700 0.952318 1533.00 1623.15 39.15
3267 108.0000 0.952137 1673.00 1606.41 40.90
3268 108.0300 0.951956 1564.00 1587.02 39.55
3269 108.0600 0.951775 1554.00 1567.19 39.42
3270 108.0900 0.951594 1502.00 1548.51 38.76
3271 108.1200 0.951414 1557.00 1532.25 39.46
3272 108.1500 0.951233 1522.00 1519.26 39.01
3273 108.1800 0.951053 1568.00 1509.91 39.60
3274 108.2100 0.950873 1534.00 1503.68 39.17
3275 108.2400 0.950693 1513.00 1499.31 38.90
3276 108.2700 0.950513 1478.00 1494.91 38.44
3277 108.3000 0.950333 1459.00 1489.04 38.20
3278 108.3300 0.950153 1476.00 1480.28 38.42
3279 108.3600 0.949973 1481.00 1468.73 38.48
3280 108.3900 0.949794 1484.00 1455.61 38.52
3281 108.4200 0.949615 1521.00 1442.74 39.00
3282 108.4500 0.949436 1449.00 1431.21 38.07
3283 108.4800 0.949256 1441.00 1422.11 37.96
3284 108.5100 0.949078 1480.00 1415.32 38.47
3285 108.5400 0.948899 1414.00 1410.56 37.60
3286 108.5700 0.948720 1460.00 1407.22 38.21
3287 108.6000 0.948542 1436.00 1404.94 37.89
3288 108.6300 0.948363 1441.00 1403.15 37.96
3289 108.6600 0.948185 1454.00 1401.24 38.13
3290 108.6900 0.948007 1431.00 1399.12 37.83
3291 108.7200 0.947829 1493.00 1397.17 38.64
3292 108.7500 0.947651 1398.00 1396.20 37.39
3293 108.7800 0.947473 1431.00 1396.93 37.83
3294 108.8100 0.947296 1511.00 1399.63 38.87
3295 108.8400 0.947118 1454.00 1404.14 38.13
3296 108.8700 0.946941 1412.00 1409.63 37.58
3297 108.9000 0.946764 1388.00 1415.02 37.26
3298 108.9300 0.946587 1409.00 1418.94 37.54
3299 108.9600 0.946410 1393.00 1421.17 37.32
3300 108.9900 0.946233 1380.00 1422.24 37.15
3301 109.0200 0.946056 1432.00 1423.73 37.84
3302 109.0500 0.945880 1376.00 1427.12 37.09
3303 109.0800 0.945703 1408.00 1433.07 37.52
3304 109.1100 0.945527 1449.00 1441.18 38.07
3305 109.1400 0.945351 1441.00 1450.51 37.96
3306 109.1700 0.945175 1540.00 1459.46 39.24
3307 109.2000 0.944999 1489.00 1466.49 38.59
3308 109.2300 0.944823 1490.00 1471.05 38.60
3309 109.2600 0.944648 1403.00 1473.15 37.46
3310 109.2900 0.944472 1407.00 1472.86 37.51
3311 109.3200 0.944297 1513.00 1469.57 38.90
3312 109.3500 0.944122 1423.00 1461.72 37.72
3313 109.3800 0.943947 1400.00 1448.48 37.42
3314 109.4100 0.943772 1458.00 1430.40 38.18
3315 109.4400 0.943597 1420.00 1410.08 37.68
3316 109.4700 0.943422 1311.00 1390.24 36.21
3317 109.5000 0.943247 1346.00 1372.73 36.69
3318 109.5300 0.943073 1357.00 1358.16 36.84
3319 109.5600 0.942899 1423.00 1346.27 37.72
3320 109.5900 0.942724 1380.00 1336.28 37.15
3321 109.6200 0.942550 1298.00 1327.33 36.03
3322 109.6500 0.942376 1284.00 1318.76 35.83
3323 109.6800 0.942203 1281.00 1310.27 35.79
3324 109.7100 0.942029 1339.00 1301.91 36.59
3325 109.7400 0.941855 1326.00 1293.66 36.41
3326 109.7700 0.941682 1300.00 1286.36 36.06
3327 109.8000 0.941509 1318.00 1279.46 36.30
3328 109.8300 0.941335 1329.00 1273.16 36.46
3329 109.8600 0.941162 1308.00 1267.47 36.17
3330 109.8900 0.940989 1308.00 1262.30 36.17
3331 109.9200 0.940817 1271.00 1257.66 35.65
3332 109.9500 0.940644 1313.00 1253.48 36.24
3333 109.9800 0.940472 1275.00 1249.83 35.71
3334 110.0100 0.940299 1255.00 1246.61 35.43
3335 110.0400 0.940127 1248.00 1243.95 35.33
3336 110.0700 0.939955 1279.00 1241.85 35.76
3337 110.1000 0.939783 1243.00 1240.38 35.26
3338 110.1300 0.939611 1257.00 1239.59 35.45
3339 110.1600 0.939439 1282.00 1239.43 35.81
3340 110.1900 0.939267 1239.00 1239.65 35.20
3341 110.2200 0.939096 1260.00 1239.85 35.50
3342 110.2500 0.938925 1275.00 1239.34 35.71
3343 110.2800 0.938753 1272.00 1237.87 35.67
3344 110.3100 0.938582 1277.00 1235.12 35.74
3345 110.3400 0.938411 1200.00 1231.38 34.64
3346 110.3700 0.938240 1284.00 1227.26 35.83
3347 110.4000 0.938069 1298.00 1223.41 36.03
3348 110.4300 0.937899 1236.00 1219.89 35.16
3349 110.4600 0.937728 1281.00 1217.70 35.79
3350 110.4900 0.937558 1193.00 1216.43 34.54
3351 110.5200 0.937388 1191.00 1216.36 34.51
3352 110.5500 0.937218 1207.00 1217.56 34.74
3353 110.5800 0.937048 1240.00 1220.11 35.21
3354 110.6100 0.936878 1257.00 1224.04 35.45
3355 110.6400 0.936708 1308.00 1229.33 36.17
3356 110.6700 0.936538 1309.00 1235.78 36.18
3357 110.7000 0.936369 1287.00 1242.93 35.87
3358 110.7300 0.936200 1264.00 1249.97 35.55
3359 110.7600 0.936030 1355.00 1255.63 36.81
3360 110.7900 0.935861 1323.00 1259.75 36.37
3361 110.8200 0.935692 1352.00 1261.96 36.77
3362 110.8500 0.935523 1371.00 1262.99 37.03
3363 110.8800 0.935355 1368.00 1264.69 36.99
3364 110.9100 0.935186 1400.00 1269.07 37.42
3365 110.9400 0.935017 1342.00 1277.74 36.63
3366 110.9700 0.934849 1360.00 1291.25 36.88
3367 111.0000 0.934681 1311.00 1308.95 36.21
3368 111.0300 0.934513 1362.00 1328.94 36.91
3369 111.0600 0.934345 1351.00 1348.02 36.76
3370 111.0900 0.934177 1432.00 1361.89 37.84
3371 111.1200 0.934009 1480.00 1366.86 38.47
3372 111.1500 0.933842 1326.00 1361.94 36.41
3373 111.1800 0.933674 1337.00 1351.11 36.56
3374 111.2100 0.933507 1344.00 1339.81 36.66
3375 111.2400 0.933339 1307.00 1331.55 36.15
3376 111.2700 0.933172 1276.00 1327.04 35.72
3377 111.3000 0.933005 1286.00 1325.43 35.86
3378 111.3300 0.932838 1277.00 1325.75 35.74
3379 111.3600 0.932672 1307.00 1327.47 36.15
3380 111.3900 0.932505 1256.00 1329.98 35.44
3381 111.4200 0.932339 1317.00 1332.15 36.29
3382 111.4500 0.932172 1341.00 1332.52 36.62
3383 111.4800 0.932006 1291.00 1329.79 35.93
3384 111.5100 0.931840 1246.00 1323.26 35.30
3385 111.5400 0.931674 1256.00 1313.34 35.44
3386 111.5700 0.931508 1285.00 1301.14 35.85
3387 111.6000 0.931342 1196.00 1288.37 34.58
3388 111.6300 0.931177 1266.00 1275.83 35.58
3389 111.6600 0.931011 1195.00 1263.30 34.57
3390 111.6900 0.930846 1210.00 1250.19 34.79
3391 111.7200 0.930680 1219.00 1236.36 34.91
3392 111.7500 0.930515 1175.00 1221.62 34.28
3393 111.7800 0.930350 1146.00 1206.12 33.85
3394 111.8100 0.930185 1158.00 1190.44 34.03
3395 111.8400 0.930021 1163.00 1175.61 34.10
3396 111.8700 0.929856 1209.00 1162.63 34.77
3397 111.9000 0.929691 1210.00 1152.19 34.79
3398 111.9300 0.929527 1173.00 1144.34 34.25
3399 111.9600 0.929363 1195.00 1139.17 34.57
3400 111.9900 0.929198 1215.00 1136.80 34.86
3401 112.0200 0.929034 1155.00 1136.75 33.99
3402 112.0500 0.928870 1157.00 1138.94 34.01
3403 112.0800 0.928707 1127.00 1143.11 33.57
3404 112.1100 0.928543 1174.00 1148.77 34.26
3405 112.1400 0.928379 1193.00 1155.18 34.54
3406 112.1700 0.928216 1201.00 1161.36 34.66
3407 112.2000 0.928053 1215.00 1166.37 34.86
3408 112.2300 0.927889 1158.00 1169.61 34.03
3409 112.2600 0.927726 1156.00 1171.08 34.00
3410 112.2900 0.927563 1183.00 1171.41 34.39
3411 112.3200 0.927400 1205.00 1171.61 34.71
3412 112.3500 0.927238 1184.00 1172.57 34.41
3413 112.3800 0.927075 1212.00 1174.57 34.81
3414 112.4100 0.926913 1176.00 1176.89 34.29
3415 112.4400 0.926750 1212.00 1178.24 34.81
3416 112.4700 0.926588 1227.00 1177.63 35.03
3417 112.5000 0.926426 1206.00 1175.51 34.73
3418 112.5300 0.926264 1134.00 1173.95 33.67
3419 112.5600 0.926102 1164.00 1174.57 34.12
3420 112.5900 0.925940 1138.00 1177.60 33.73
3421 112.6200 0.925779 1189.00 1181.97 34.48
3422 112.6500 0.925617 1160.00 1185.87 34.06
3423 112.6800 0.925456 1187.00 1187.79 34.45
3424 112.7100 0.925295 1151.00 1187.15 33.93
3425 112.7400 0.925133 1167.00 1184.49 34.16
3426 112.7700 0.924972 1181.00 1179.84 34.37
3427 112.8000 0.924811 1124.00 1173.53 33.53
3428 112.8300 0.924651 1139.00 1165.18 33.75
3429 112.8600 0.924490 1113.00 1154.57 33.36
3430 112.8900 0.924329 1175.00 1142.06 34.28
3431 112.9200 0.924169 1148.00 1128.68 33.88
3432 112.9500 0.924009 1162.00 1115.58 34.09
3433 112.9800 0.923848 1113.00 1103.53 33.36
3434 113.0100 0.923688 1109.00 1093.22 33.30
3435 113.0400 0.923528 1079.00 1085.19 32.85
3436 113.0700 0.923368 1081.00 1079.76 32.88
3437 113.1000 0.923209 1080.00 1077.31 32.86
3438 113.1300 0.923049 1094.00 1077.59 33.08
3439 113.1600 0.922890 1062.00 1080.10 32.59
3440 113.1900 0.922730 1042.00 1084.05 32.28
3441 113.2200 0.922571 1056.00 1088.33 32.50
3442 113.2500 0.922412 1086.00 1091.90 32.95
3443 113.2800 0.922253 1060.00 1093.81 32.56
3444 113.3100 0.922094 1096.00 1093.51 33.11
3445 113.3400 0.921935 1073.00 1091.02 32.76
3446 113.3700 0.921776 1060.00 1086.37 32.56
3447 113.4000 0.921618 1080.00 1080.87 32.86
3448 113.4300 0.921459 1126.00 1076.24 33.56
3449 113.4600 0.921301 1059.00 1074.24 32.54
3450 113.4900 0.921143 1037.00 1075.82 32.20
3451 113.5200 0.920985 1028.00 1080.49 32.06
3452 113.5500 0.920827 1058.00 1086.86 32.53
3453 113.5800 0.920669 1028.00 1092.34 32.06
3454 113.6100 0.920511 1094.00 1094.51 33.08
3455 113.6400 0.920354 984.00 1092.02 31.37
3456 113.6700 0.920196 1049.00 1084.93 32.39
3457 113.7000 0.920039 1049.00 1073.91 32.39
3458 113.7300 0.919882 994.00 1059.37 31.53
3459 113.7600 0.919724 1036.00 1042.36 32.19
3460 113.7900 0.919567 1092.00 1024.42 33.05
3461 113.8200 0.919411 1013.00 1007.72 31.83
3462 113.8500 0.919254 968.00 993.76 31.11
3463 113.8800 0.919097 937.00 982.99 30.61
3464 113.9100 0.918940 1000.00 974.82 31.62
3465 113.9400 0.918784 960.00 968.63 30.98
3466 113.9700 0.918628 943.00 963.22 30.71
3467 114.0000 0.918472 971.00 958.27 31.16
3468 114.0300 0.918315 940.00 953.26 30.66
3469 114.0600 0.918159 916.00 948.56 30.27
3470 114.0900 0.918004 893.00 944.53 29.88
3471 114.1200 0.917848 890.00 941.45 29.83
3472 114.1500 0.917692 957.00 939.34 30.94
3473 114.1800 0.917537 962.00 937.79 31.02
3474 114.2100 0.917381 895.00 935.94 29.92
3475 114.2400 0.917226 928.00 932.78 30.46
3476 114.2700 0.917071 904.00 927.65 30.07
3477 114.3000 0.916916 921.00 920.73 30.35
3478 114.3300 0.916761 910.00 912.97 30.17
3479 114.3600 0.916606 926.00 905.79 30.43
3480 114.3900 0.916451 873.00 900.19 29.55
3481 114.4200 0.916297 894.00 896.69 29.90
3482 114.4500 0.916142 902.00 895.11 30.03
3483 114.4800 0.915988 833.00 894.82 28.86
3484 114.5100 0.915834 959.00 894.78 30.97
3485 114.5400 0.915680 927.00 893.80 30.45
3486 114.5700 0.915525 893.00 891.03 29.88
3487 114.6000 0.915372 842.00 886.38 29.02
3488 114.6300 0.915218 837.00 880.50 28.93
3489 114.6600 0.915064 867.00 874.40 29.44
3490 114.6900 0.914910 882.00 868.96 29.70
3491 114.7200 0.914757 889.00 864.83 29.82
3492 114.7500 0.914604 858.00 862.36 29.29
3493 114.7800 0.914451 939.00 861.65 30.64
3494 114.8100 0.914297 856.00 862.34 29.26
3495 114.8400 0.914144 874.00 864.09 29.56
3496 114.8700 0.913992 856.00 865.36 29.26
3497 114.9000 0.913839 850.00 865.03 29.15
3498 114.9300 0.913686 849.00 862.90 29.14
3499 114.9600 0.913534 884.00 858.55 29.73
3500 114.9900 0.913381 842.00 852.11 29.02
3501 115.0200 0.913229 844.00 843.76 29.05
3502 115.0500 0.913077 830.00 833.83 28.81
3503 115.0800 0.912925 788.00 822.98 28.07
3504 115.1100 0.912773 841.00 812.51 29.00
3505 115.1400 0.912621 833.00 802.72 28.86
3506 115.1700 0.912469 804.00 794.33 28.35
3507 115.2000 0.912317 807.00 787.51 28.41
3508 115.2300 0.912166 777.00 782.33 27.87
3509 115.2600 0.912014 820.00 778.82 28.64
3510 115.2900 0.911863 824.00 777.05 28.71
3511 115.3200 0.911712 804.00 777.08 28.35
3512 115.3500 0.911561 752.00 778.96 27.42
3513 115.3800 0.911410 824.00 782.75 28.71
3514 115.4100 0.911259 788.00 788.40 28.07
3515 115.4400 0.911108 874.00 795.79 29.56
3516 115.4700 0.910958 826.00 804.54 28.74
3517 115.5000 0.910807 800.00 813.91 28.28
3518 115.5300 0.910657 841.00 822.69 29.00
3519 115.5600 0.910507 862.00 829.18 29.36
3520 115.5900 0.910356 764.00 831.35 27.64
3521 115.6200 0.910206 757.00 827.98 27.51
3522 115.6500 0.910056 806.00 818.92 28.39
3523 115.6800 0.909907 742.00 805.69 27.24
3524 115.7100 0.909757 745.00 791.22 27.29
3525 115.7400 0.909607 806.00 777.61 28.39
3526 115.7700 0.909458 757.00 766.27 27.51
3527 115.8000 0.909308 789.00 757.15 28.09
3528 115.8300 0.909159 774.00 750.07 27.82
3529 115.8600 0.909010 817.00 744.31 28.58
3530 115.8900 0.908861 824.00 739.34 28.71
3531 115.9200 0.908712 778.00 734.95 27.89
3532 115.9500 0.908563 804.00 731.35 28.35
3533 115.9800 0.908414 791.00 728.54 28.12
3534 116.0100 0.908266 795.00 726.84 28.20
3535 116.0400 0.908117 721.00 726.39 26.85
3536 116.0700 0.907969 769.00 726.93 27.73
3537 116.1000 0.907821 730.00 728.13 27.02
3538 116.1300 0.907672 735.00 729.57 27.11
3539 116.1600 0.907524 714.00 730.35 26.72
3540 116.1900 0.907376 662.00 729.57 25.73
3541 116.2200 0.907229 676.00 726.55 26.00
3542 116.2500 0.907081 721.00 721.22 26.85
3543 116.2800 0.906933 690.00 714.23 26.27
3544 116.3100 0.906786 664.00 706.70 25.77
3545 116.3400 0.906638 672.00 699.80 25.92
3546 116.3700 0.906491 715.00 694.42 26.74
3547 116.4000 0.906344 707.00 691.05 26.59
3548 116.4300 0.906197 688.00 690.04 26.23
3549 116.4600 0.906050 679.00 691.23 26.06
3550 116.4900 0.905903 654.00 694.65 25.57
3551 116.5200 0.905756 740.00 699.66 27.20
3552 116.5500 0.905610 729.00 706.02 27.00
3553 116.5800 0.905463 711.00 713.08 26.66
3554 116.6100 0.905317 718.00 719.82 26.80
3555 116.6400 0.905170 670.00 724.83 25.88
3556 116.6700 0.905024 674.00 726.54 25.96
3557 116.7000 0.904878 675.00 723.56 25.98
3558 116.7300 0.904732 661.00 715.58 25.71
3559 116.7600 0.904586 656.00 703.66 25.61
3560 116.7900 0.904441 636.00 689.75 25.22
3561 116.8200 0.904295 689.00 676.00 26.25
3562 116.8500 0.904149 656.00 664.02 25.61
3563 116.8800 0.904004 648.00 654.66 25.46
3564 116.9100 0.903859 650.00 648.21 25.50
3565 116.9400 0.903713 662.00 644.52 25.73
3566 116.9700 0.903568 681.00 643.73 26.10
3567 117.0000 0.903423 658.00 645.59 25.65
3568 117.0300 0.903278 668.00 650.04 25.85
3569 117.0600 0.903134 696.00 657.01 26.38
3570 117.0900 0.902989 673.00 666.33 25.94
3571 117.1200 0.902844 637.00 677.66 25.24
3572 117.1500 0.902700 624.00 690.29 24.98
3573 117.1800 0.902556 666.00 702.97 25.81
3574 117.2100 0.902411 645.00 713.75 25.40
3575 117.2400 0.902267 655.00 720.17 25.59
3576 117.2700 0.902123 674.00 719.71 25.96
3577 117.3000 0.901979 633.00 711.59 25.16
3578 117.3300 0.901836 653.00 696.73 25.55
3579 117.3600 0.901692 702.00 677.87 26.50
3580 117.3900 0.901548 670.00 658.50 25.88
3581 117.4200 0.901405 620.00 641.16 24.90
3582 117.4500 0.901261 622.00 627.23 24.94
3583 117.4800 0.901118 658.00 617.03 25.65
3584 117.5100 0.900975 671.00 610.37 25.90
3585 117.5400 0.900832 616.00 606.85 24.82
3586 117.5700 0.900689 634.00 606.12 25.18
3587 117.6000 0.900546 642.00 607.84 25.34
3588 117.6300 0.900403 586.00 611.76 24.21
3589 117.6600 0.900261 600.00 617.58 24.49
3590 117.6900 0.900118 601.00 624.89 24.52
3591 117.7200 0.899976 617.00 632.79 24.84
3592 117.7500 0.899834 585.00 640.74 24.19
3593 117.7800 0.899691 584.00 647.38 24.17
3594 117.8100 0.899549 615.00 651.38 24.80
3595 117.8400 0.899407 598.00 651.20 24.45
3596 117.8700 0.899265 581.00 645.92 24.10
3597 117.9000 0.899124 629.00 635.12 25.08
3598 117.9300 0.898982 685.00 620.30 26.17
3599 117.9600 0.898840 622.00 603.66 24.94
3600 117.9900 0.898699 583.00 587.58 24.15
3601 118.0200 0.898558 580.00 573.55 24.08
3602 118.0500 0.898416 587.00 562.15 24.23
3603 118.0800 0.898275 560.00 552.95 23.66
3604 118.1100 0.898134 610.00 545.39 24.70
3605 118.1400 0.897993 490.00 538.84 22.14
3606 118.1700 0.897853 522.00 532.96 22.85
3607 118.2000 0.897712 517.00 527.72 22.74
3608 118.2300 0.897571 523.00 523.42 22.87
3609 118.2600 0.897431 530.00 520.40 23.02
3610 118.2900 0.897290 528.00 518.92 22.98
3611 118.3200 0.897150 536.00 519.22 23.15
3612 118.3500 0.897010 550.00 521.34 23.45
3613 118.3800 0.896870 535.00 525.21 23.13
3614 118.4100 0.896730 547.00 530.70 23.39
3615 118.4400 0.896590 536.00 537.52 23.15
3616 118.4700 0.896450 552.00 545.27 23.49
3617 118.5000 0.896311 559.00 553.26 23.64
3618 118.5300 0.896171 582.00 560.48 24.12
3619 118.5600 0.896032 527.00 565.48 22.96
3620 118.5900 0.895892 580.00 566.80 24.08
3621 118.6200 0.895753 565.00 563.72 23.77
3622 118.6500 0.895614 511.00 556.80 22.61
3623 118.6800 0.895475 511.00 547.82 22.61
3624 118.7100 0.895336 498.00 538.97 22.32
3625 118.7400 0.895197 524.00 531.65 22.89
3626 118.7700 0.895058 542.00 525.95 23.28
3627 118.8000 0.894920 508.00 521.05 22.54
3628 118.8300 0.894781 518.00 515.94 22.76
3629 118.8600 0.894643 503.00 509.57 22.43
3630 118.8900 0.894505 492.00 501.59 22.18
3631 118.9200 0.894366 529.00 492.29 23.00
3632 118.9500 0.894228 502.00 482.43 22.41
3633 118.9800 0.894090 459.00 472.62 21.42
3634 119.0100 0.893952 491.00 463.10 22.16
3635 119.0400 0.893815 452.00 453.80 21.26
3636 119.0700 0.893677 458.00 444.67 21.40
3637 119.1000 0.893539 466.00 435.55 21.59
3638 119.1300 0.893402 443.00 426.34 21.05
3639 119.1600 0.893264 376.00 417.04 19.39
3640 119.1900 0.893127 430.00 407.75 20.74
3641 119.2200 0.892990 402.00 398.66 20.05
3642 119.2500 0.892853 402.00 390.00 20.05
3643 119.2800 0.892716 401.00 381.96 20.02
3644 119.3100 0.892579 412.00 374.80 20.30
3645 119.3400 0.892443 416.00 368.39 20.40
3646 119.3700 0.892306 400.00 362.93 20.00
3647 119.4000 0.892169 406.00 358.33 20.15
3648 119.4300 0.892033 426.00 354.80 20.64
3649 119.4600 0.891897 425.00 352.39 20.62
3650 119.4900 0.891760 387.00 351.26 19.67
3651 119.5200 0.891624 414.00 351.53 20.35
3652 119.5500 0.891488 405.00 353.39 20.12
3653 119.5800 0.891352 425.00 356.99 20.62
3654 119.6100 0.891216 436.00 362.48 20.88
3655 119.6400 0.891081 437.00 369.88 20.90
3656 119.6700 0.890945 359.00 379.14 18.95
3657 119.7000 0.890810 357.00 389.89 18.89
3658 119.7300 0.890674 407.00 401.44 20.17
3659 119.7600 0.890539 417.00 412.64 20.42
3660 119.7900 0.890404 399.00 422.00 19.98
3661 119.8200 0.890269 404.00 427.92 20.10
3662 119.8500 0.890134 392.00 429.35 19.80
3663 119.8800 0.889999 380.00 426.43 19.49
3664 119.9100 0.889864 362.00 420.63 19.03
3665 119.9400 0.889729 346.00 414.19 18.60
3666 119.9700 0.889595 357.00 409.11 18.89
3667 120.0000 0.889460 359.00 406.45 18.95
3668 120.0300 0.889326 387.00 406.08 19.67
3669 120.0600 0.889191 429.00 406.83 20.71
3670 120.0900 0.889057 405.00 406.86 20.12
3671 120.1200 0.888923 392.00 404.08 19.80
3672 120.1500 0.888789 399.00 396.95 19.98
loop_
_refln_index_h
_refln_index_k
_refln_index_l
_refln_F_squared_calc
_refln_F_squared_meas
_refln_F_squared_sigma
_refln_observed_status
_refln_d_spacing
0 0 1 28391.83 33815.09 723.96 o 6.482372
0 1 1 441.00 430.92 55.48 o 5.533261
0 2 0 537.27 386.18 23.73 o 5.310718
1 1 0 13.41 10.59 8.92 < 4.990973
-1 1 1 134.61 201.05 52.90 o 4.523887
0 2 1 2938.18 2878.34 98.47 o 4.108107
1 2 0 459.11 465.30 28.56 o 3.870940
-1 2 1 83.65 52.22 36.32 < 3.640462
1 1 1 1906.27 1795.48 109.24 o 3.557342
0 3 0 330.28 337.69 26.19 o 3.540478
0 0 2 1975.95 2763.17 668.08 o 3.241186
0 3 1 815.00 827.63 39.74 o 3.107235
0 1 2 2166.56 2134.12 82.31 o 3.100060
-1 1 2 4462.83 4257.77 134.71 o 3.083492
1 2 1 1787.33 1657.86 55.81 o 3.077078
1 3 0 17855.88 18152.94 373.09 o 3.000725
-2 0 1 30658.55 31019.95 644.89 o 2.901771
-1 3 1 76.31 77.08 1.73 o 2.889459
2 0 0 143.86 81.33 20.65 o 2.827037
-2 1 1 2668.55 2655.54 71.28 o 2.799188
0 2 2 9989.84 10566.69 304.60 o 2.766630
-1 2 2 3036.49 3158.42 94.18 o 2.754835
2 1 0 2012.26 1919.26 65.14 o 2.731924
0 4 0 135.47 151.78 27.52 o 2.655359
1 3 1 52691.37 49480.79 1028.71 o 2.582551
-2 2 1 746.58 809.24 32.14 o 2.546440
-2 0 2 50095.68 43109.06 931.40 o 2.500046
2 2 0 1466.30 1250.79 26.52 o 2.495486
1 1 2 3801.43 3667.25 188.72 o 2.458149
0 4 1 194.14 186.23 10.22 o 2.457197
-2 1 2 281.57 332.15 53.30 o 2.433543
1 4 0 1243.56 1222.11 51.84 o 2.403499
0 3 2 639.25 710.35 20.91 o 2.390684
-1 3 2 7848.07 9034.34 260.64 o 2.383060
2 0 1 4069.41 5004.45 237.41 o 2.363069
-1 4 1 5198.15 5232.76 133.44 o 2.345172
2 1 1 1880.18 1737.32 139.12 o 2.306671
1 2 2 13.89 17.98 7.79 < 2.281662
-2 2 2 2733.54 2172.83 120.16 o 2.261944
-2 3 1 293.48 429.79 53.05 o 2.244288
2 3 0 810.25 872.78 68.11 o 2.209171
-1 1 3 5261.25 5244.56 298.97 o 2.186957
1 4 1 4.53 6.10 1.11 o 2.171947
0 0 3 1745.33 1754.32 67.26 o 2.160791
2 2 1 4732.91 4757.64 187.42 o 2.158985
0 5 0 1300.59 1552.70 95.36 o 2.124287
0 1 3 4750.17 5760.68 321.72 o 2.117419
-1 2 3 677.51 562.77 23.92 o 2.059884
1 3 2 6663.30 5475.27 210.82 o 2.056694
0 4 2 401.09 333.06 12.50 o 2.054053
-1 4 2 3071.28 2574.91 101.10 o 2.049212
-2 3 2 225.93 195.77 11.28 o 2.042217
0 5 1 43.29 37.58 2.87 o 2.018660
-2 0 3 2641.18 3071.83 136.53 o 2.004728
0 2 3 9632.94 11281.48 498.83 o 2.001465
1 5 0 1726.24 1987.94 85.00 o 1.988568
-2 1 3 76.82 70.74 14.30 o 1.969946
2 3 1 262.84 271.97 26.06 o 1.965487
-2 4 1 142.65 146.86 5.58 o 1.958954
-1 5 1 3145.18 3251.16 112.71 o 1.955153
2 4 0 947.49 857.97 69.18 o 1.935470
-3 1 1 4.50 4.23 0.77 o 1.928258
-1 3 3 18446.26 20649.18 526.17 o 1.889836
2 0 2 22865.36 25608.42 651.79 o 1.887693
-2 2 3 7490.06 6443.42 265.64 o 1.875547
2 1 2 570.48 573.59 33.01 o 1.858568
3 1 0 158.80 159.57 8.32 o 1.855704
1 5 1 2694.20 2642.88 136.47 o 1.851344
0 3 3 38.06 38.92 1.95 o 1.844420
-3 1 2 244.20 237.57 19.87 o 1.840830
-3 2 1 565.74 561.81 50.23 o 1.839463
1 4 2 37.61 34.86 3.64 o 1.830459
1 1 3 4481.89 4088.41 460.49 o 1.827076
-2 4 2 216.97 162.47 31.65 o 1.820231
2 2 2 6589.40 6005.19 147.72 o 1.778671
0 5 2 638.66 638.14 14.41 o 1.776695
3 2 0 730.68 730.56 16.50 o 1.776160
-1 5 2 4327.96 4349.01 93.37 o 1.773559
0 6 0 33681.02 34424.23 752.72 o 1.770239
2 4 1 297.69 310.26 6.82 o 1.765272
-3 2 2 194.50 181.12 4.96 o 1.763105
1 2 3 0.00 0.00 0.00 o 1.751010
-2 3 3 530.75 218.32 49.52 o 1.744484
-3 3 1 39252.87 40134.31 838.60 o 1.715335
-2 5 1 591.87 604.33 12.87 o 1.714071
-1 4 3 0.11 0.11 0.01 o 1.709852
0 6 1 7521.31 7184.22 156.63 o 1.707707
2 5 0 341.90 247.77 12.89 o 1.698273
1 6 0 1176.48 1220.78 65.01 o 1.689373
0 4 3 3793.67 3717.74 161.60 o 1.675997
-1 6 1 1753.31 1616.77 39.72 o 1.668741
3 1 1 1460.69 1328.38 30.76 o 1.667993
2 3 2 48.02 43.74 0.98 o 1.665721
-1 1 4 1918.44 1752.46 40.08 o 1.665311
3 3 0 15692.64 14275.87 330.10 o 1.663658
-3 3 2 4272.98 3768.05 125.22 o 1.652915
-3 1 3 3341.82 2949.86 116.58 o 1.646549
1 3 3 1524.76 1351.02 76.68 o 1.642936
1 5 2 8065.43 8516.19 328.71 o 1.626000
0 0 4 17414.92 18010.59 709.01 o 1.620593
-2 5 2 400.47 476.92 25.64 o 1.618818
-2 0 4 814.36 809.26 145.56 o 1.611132
3 2 1 8.05 7.95 1.62 o 1.609516
-1 2 4 764.98 923.27 165.23 o 1.607105
1 6 1 286.15 324.42 65.68 o 1.602793
0 1 4 334.92 379.77 72.50 o 1.602053
-2 4 3 422.90 504.20 98.52 o 1.599954
-2 1 4 1410.91 993.95 315.84 o 1.592911
-3 2 3 222.22 148.10 55.45 < 1.590223
2 5 1 1.34 0.99 0.68 < 1.579793
-3 4 1 101.09 63.03 47.54 < 1.577377
0 6 2 794.24 952.12 105.16 o 1.553617
-1 6 2 242.09 290.08 27.13 o 1.551520
0 2 4 3007.72 3352.47 257.87 o 1.550030
-2 2 4 7501.30 7196.41 270.10 o 1.541746
-1 5 3 6398.66 6136.63 229.28 o 1.539699
2 4 2 2694.05 2583.32 98.57 o 1.538539
3 4 0 275.59 263.46 10.49 o 1.536913
-3 4 2 91.07 86.41 7.27 o 1.528431
2 0 3 5451.97 5458.26 331.96 o 1.525377
3 3 1 664.21 664.07 44.87 o 1.524383
-1 3 4 2621.29 2679.81 133.63 o 1.522334
1 4 3 2436.62 2508.03 119.94 o 1.520531
0 7 0 1252.54 1369.39 54.08 o 1.517348
0 5 3 544.18 627.47 16.45 o 1.514839
-2 6 1 9362.11 10820.64 276.33 o 1.511223
2 1 3 47.50 54.56 1.51 o 1.509886
-3 3 3 653.91 755.50 22.09 o 1.507962
2 6 0 118.68 113.87 17.01 o 1.500362
0 7 1 70.63 114.37 27.86 o 1.477414
0 3 4 111.00 172.01 8.65 o 1.473559
-4 0 1 4110.99 5406.56 195.07 o 1.468098
-2 3 4 114.97 150.01 5.33 o 1.466436
2 2 3 4371.53 5687.22 203.20 o 1.466100
1 7 0 1724.88 2260.69 83.26 o 1.465494
-2 5 3 1119.73 1145.51 69.28 o 1.457992
-4 1 1 65.56 65.90 2.58 o 1.454271
-1 7 1 2321.33 2375.19 82.68 o 1.451964
-4 0 2 116.65 116.57 3.46 o 1.450886
1 6 2 850.63 839.16 21.80 o 1.449828
3 1 2 4251.73 4178.08 106.49 o 1.449337
-2 6 2 15229.81 15028.84 380.49 o 1.444729
1 1 4 2337.49 2286.67 57.94 o 1.441538
-3 5 1 331.47 329.39 9.06 o 1.440846
-4 1 2 1388.65 1367.58 58.12 o 1.437536
-3 1 4 4484.30 4470.83 230.41 o 1.428288
3 4 1 2303.16 2145.43 115.79 o 1.425102
-1 4 4 108.77 106.21 5.71 o 1.423428
2 6 1 943.71 1061.95 27.46 o 1.416785
-4 2 1 256.61 288.05 7.20 o 1.415025
4 0 0 23797.15 26774.51 685.72 o 1.413518
-3 4 3 3125.86 3502.34 90.70 o 1.411658
2 5 2 439.98 492.23 12.94 o 1.411065
3 2 2 473.35 528.42 13.74 o 1.410478
3 5 0 779.26 872.21 23.53 o 1.409810
1 7 1 2.30 2.50 0.10 o 1.407895
1 2 4 2028.01 2134.95 84.19 o 1.403287
-3 5 2 2783.34 2919.99 121.61 o 1.403255
4 1 0 88.05 91.86 3.62 o 1.401165
2 3 3 286.95 300.64 11.57 o 1.400890
-4 2 2 667.30 707.36 29.06 o 1.399594
1 5 3 8343.20 8887.79 413.08 o 1.397133
-3 2 4 2589.94 2347.90 211.65 o 1.391055
-1 6 3 223.68 200.25 22.35 o 1.387650
0 4 4 765.22 866.80 109.69 o 1.383315
-2 4 4 1591.05 1697.67 98.76 o 1.377417
0 7 2 4276.54 4504.46 244.12 o 1.374215
-1 7 2 116.17 120.32 6.27 o 1.372762
0 6 3 47.37 49.05 2.88 o 1.369369
-4 0 3 5291.70 5475.82 332.27 o 1.368820
4 2 0 845.55 861.23 61.27 o 1.365962
-4 1 3 2205.91 1581.35 170.78 o 1.357593
-4 3 1 334.81 241.48 26.07 o 1.356131
3 3 2 26.04 21.47 5.96 o 1.352127
1 3 4 822.72 977.30 152.87 o 1.345788
-2 7 1 173.62 216.39 36.04 o 1.344615
-4 3 2 215.45 237.10 24.75 o 1.342529
2 7 0 3569.18 4409.81 202.11 o 1.336948
-1 1 5 777.59 943.95 42.15 o 1.336683
-3 3 4 1082.11 1325.32 58.46 o 1.334988
0 8 0 297.65 313.09 19.29 o 1.327679
-2 6 3 617.74 642.29 31.38 o 1.326945
-4 2 3 1985.16 1909.11 86.91 o 1.325499
-2 0 5 2732.29 2622.98 111.16 o 1.325389
2 4 3 453.99 426.95 17.94 o 1.322672
3 5 1 4278.90 3986.95 170.71 o 1.322024
-1 5 4 6841.09 6389.14 276.98 o 1.320687
-2 1 5 3573.19 3109.08 148.61 o 1.315189
-3 6 1 331.04 294.47 14.98 o 1.313980
4 3 0 58.11 52.94 2.32 o 1.312760
-3 5 3 5241.42 4845.31 206.08 o 1.311270
4 0 1 6332.16 5739.43 264.11 o 1.307879
-1 2 5 51.30 49.09 2.32 o 1.306017
1 7 2 21.97 23.25 1.58 o 1.300820
0 8 1 1949.04 2061.97 135.46 o 1.300679
4 1 1 120.82 128.53 7.95 o 1.298075
-2 7 2 837.85 888.79 58.80 o 1.297134
0 0 5 7916.79 8268.83 430.02 o 1.296474
1 8 0 113.90 116.37 6.24 o 1.292523
2 6 2 6396.12 6412.14 339.52 o 1.291275
3 6 0 409.29 418.89 21.98 o 1.290313
0 5 4 292.71 300.90 14.03 o 1.288460
0 1 5 587.19 605.43 28.67 o 1.286923
-2 2 5 1577.32 1618.46 78.25 o 1.285946
-3 6 2 1019.04 1037.75 56.23 o 1.285282
-4 4 1 828.70 835.65 46.65 o 1.284804
-2 5 4 163.93 158.33 8.64 o 1.283690
-1 8 1 920.00 904.11 50.23 o 1.283212
3 4 2 1983.74 1810.38 108.83 o 1.281398
1 6 3 635.90 534.76 35.46 o 1.280574
2 7 1 1109.20 611.77 84.14 o 1.276795
-4 3 3 16.50 9.10 1.19 o 1.276723
1 4 4 3021.35 1690.36 211.48 o 1.275998
-4 4 2 171.60 98.05 13.90 o 1.273220
4 2 1 2632.74 1587.75 202.73 o 1.269935
-3 4 4 2404.58 1464.47 206.99 o 1.266782
2 0 4 1.37 0.68 1.08 o 1.263374
0 2 5 374.09 215.59 88.80 < 1.259487
-1 3 5 98.05 60.14 22.69 < 1.259285
-1 7 3 837.00 548.51 102.57 o 1.255347
2 1 4 217.33 130.25 18.63 o 1.254531
1 8 1 199.19 124.61 17.38 o 1.252489
-4 0 4 6808.48 4087.94 552.32 o 1.250023
3 1 3 2203.92 1318.31 178.34 o 1.249720
4 4 0 50.43 28.78 4.35 o 1.247743
0 7 3 1872.97 500.63 370.15 < 1.241764
-4 1 4 7.20 1.90 1.65 < 1.241455
-2 3 5 2.06 0.55 0.40 < 1.241264
2 5 3 275.89 58.69 58.98 < 1.239031
-3 1 5 467.52 353.52 27.67 o 1.231724
2 2 4 1418.43 1064.04 81.36 o 1.229074
0 8 2 4941.76 3732.00 286.79 o 1.228598
-1 8 2 16.13 12.14 1.12 o 1.227560
4 3 1 82.46 61.22 4.76 o 1.226846
3 2 3 526.20 348.94 35.39 o 1.224550
3 6 1 815.05 411.84 89.37 o 1.221995
-1 6 4 959.75 550.92 76.65 o 1.220939
0 3 5 436.30 291.74 34.12 o 1.217418
-4 2 4 3015.08 2057.74 243.72 o 1.216771
-4 4 3 899.43 619.27 74.33 o 1.216677
-3 6 3 313.02 218.55 32.81 o 1.213487
-2 7 3 10.76 9.93 1.26 o 1.209868
-4 5 1 286.32 237.87 24.54 o 1.207740
-3 2 5 17.63 15.52 1.40 o 1.207605
-2 8 1 156.62 134.56 12.83 o 1.207309
3 5 2 5091.74 5078.90 360.96 o 1.204909
2 8 0 887.52 870.53 65.68 o 1.201749
-1 4 5 1327.54 1252.70 90.35 o 1.201557
1 5 4 1817.02 1896.34 140.71 o 1.200417
-3 7 1 552.92 568.52 49.71 o 1.200017
-4 5 2 17.58 16.99 1.51 o 1.198102
0 6 4 5572.74 4729.76 415.05 o 1.195342
-3 5 4 3185.53 2774.21 252.75 o 1.192733
-2 6 4 949.39 832.35 84.74 o 1.191530
2 3 4 209.43 187.68 15.69 o 1.189888
1 1 5 3.87 3.93 0.62 o 1.186379
-2 4 5 808.56 839.34 69.49 o 1.185873
3 3 3 7834.81 8133.04 668.99 o 1.185781
2 7 2 337.89 343.69 30.47 o 1.182648
3 7 0 353.79 367.85 37.77 o 1.181909
4 0 2 1610.46 1643.14 156.11 o 1.181535
0 9 0 271.98 269.40 26.74 o 1.180159
-4 3 4 122.20 120.74 11.32 o 1.178714
-3 7 2 959.07 934.21 93.91 o 1.178038
4 5 0 201.62 203.61 18.49 o 1.176801
1 8 2 419.84 443.23 32.17 o 1.175307
1 7 3 50.29 52.63 3.73 o 1.174410
4 1 2 287.07 302.26 20.71 o 1.174291
4 4 1 631.20 672.36 46.61 o 1.173281
-2 8 2 1554.34 1674.33 116.30 o 1.172586
-3 3 5 6681.34 7084.96 510.91 o 1.170375
-5 1 2 0.01 0.01 0.04 o 1.166205
0 4 5 662.81 705.90 97.69 o 1.165027
1 2 5 446.62 473.66 64.64 o 1.164781
-5 1 1 45.80 48.23 8.00 o 1.163041
0 9 1 915.06 900.72 78.04 o 1.161075
2 8 1 2071.79 2233.31 106.39 o 1.157496
2 6 3 1648.68 1716.65 79.58 o 1.155559
1 9 0 2701.66 2843.21 135.50 o 1.155262
4 2 2 3466.07 3642.94 184.20 o 1.153335
-4 5 3 923.72 833.79 80.07 o 1.150631
-1 9 1 44.44 43.41 5.02 o 1.148599
-5 2 2 1141.78 995.82 154.85 o 1.145672
-5 2 1 158.57 127.59 29.03 o 1.142672
-1 8 3 21.94 16.78 4.75 o 1.141445
2 4 4 7.74 5.68 1.65 o 1.140831
-1 5 5 1866.53 1780.26 246.14 o 1.137817
3 4 3 15.06 13.91 1.67 o 1.137210
-5 1 3 273.65 253.31 9.75 o 1.133102
1 3 5 11809.57 11451.04 392.76 o 1.131266
0 8 3 3072.00 2941.71 104.11 o 1.131205
-4 4 4 741.33 710.37 25.02 o 1.130972
-4 6 1 2085.62 2017.44 69.04 o 1.130050
3 7 1 137.57 134.94 4.52 o 1.128735
-1 7 4 19.54 19.77 0.68 o 1.127902
3 6 2 98.61 102.09 3.48 o 1.127730
1 9 1 5958.52 6304.07 256.31 o 1.126409
-2 5 5 1199.64 1257.19 55.29 o 1.124472
5 1 0 302.65 318.94 14.18 o 1.124460
1 6 4 13.25 13.99 0.60 o 1.124045
-3 4 5 77.27 81.07 3.98 o 1.123600
-4 0 5 568.97 586.03 36.83 o 1.122367
-4 6 2 19.94 19.79 1.97 o 1.122144
-3 7 3 44.45 45.54 3.70 o 1.122020
4 3 2 179.20 200.05 17.03 o 1.120771
-3 6 4 0.73 0.98 0.06 o 1.117729
-2 0 6 11080.37 14675.64 485.94 o 1.117422
-4 1 5 425.83 523.22 17.02 o 1.116153
-5 2 3 1.32 1.52 0.05 o 1.114241
-5 3 2 8820.29 10072.58 312.90 o 1.113735
4 5 1 20.88 23.86 0.78 o 1.113719
-1 1 6 37.29 42.38 1.30 o 1.113604
-2 1 6 8.35 9.30 0.26 o 1.111289
-5 3 1 124.98 131.99 4.21 o 1.110978
0 9 2 848.20 892.27 30.26 o 1.108936
-1 9 2 295.30 324.85 9.80 o 1.108172
0 7 4 261.61 292.21 8.90 o 1.107629
-2 8 3 6731.68 7663.56 227.00 o 1.106935
0 5 5 779.38 889.10 26.32 o 1.106652
5 2 0 1.74 2.00 0.06 o 1.106019
-2 7 4 2660.57 3022.44 91.24 o 1.104595
4 6 0 9913.72 11377.01 343.74 o 1.104586
-3 8 1 132.15 127.31 8.81 o 1.099375
-4 2 5 2687.63 2555.11 171.31 o 1.098112
-1 2 6 2334.38 2283.94 183.55 o 1.095684
-2 2 6 24.17 24.10 2.99 o 1.093479
-2 9 1 373.57 353.93 35.27 o 1.093205
2 9 0 1357.32 1725.27 84.01 o 1.089073
1 4 5 3.39 3.97 0.14 o 1.088860
2 8 2 3303.93 3645.15 118.55 o 1.085973
2 5 4 340.35 374.75 12.28 o 1.085851
3 8 0 22.84 24.97 0.94 o 1.085401
-5 3 3 8368.61 9146.10 299.38 o 1.084795
3 1 4 0.31 0.33 0.05 o 1.083310
-4 6 3 1315.25 1406.25 47.16 o 1.082858
3 5 3 2245.45 2399.22 78.84 o 1.082728
-3 8 2 743.29 777.37 27.99 o 1.082401
0 0 6 1300.46 1298.47 53.53 o 1.080395
1 8 3 1114.76 1107.93 61.52 o 1.079584
4 4 2 423.84 421.05 23.18 o 1.079492
-4 5 4 2.22 2.08 0.15 o 1.077340
5 3 0 73.30 68.03 5.31 o 1.077204
2 7 3 137.90 128.64 10.37 o 1.075755
0 1 6 188.11 180.89 12.57 o 1.074849
-5 4 2 341.57 341.49 26.43 o 1.073201
-1 6 5 210.59 209.50 14.55 o 1.072157
-5 1 4 1487.53 1475.80 106.17 o 1.072083
2 0 5 1782.01 1772.54 120.63 o 1.071584
-3 5 5 1574.63 1580.49 107.58 o 1.070962
-5 4 1 1418.95 1400.92 100.66 o 1.070734
-4 3 5 200.26 200.76 14.09 o 1.069894
1 9 2 429.66 433.24 31.34 o 1.069277
-3 1 6 37.99 37.87 3.39 o 1.068638
-1 3 6 2809.85 2795.86 236.94 o 1.067649
-2 9 2 176.01 167.46 18.66 o 1.067226
3 2 4 201.57 192.84 21.88 o 1.066791
2 1 5 2130.54 2134.22 241.69 o 1.066171
-2 3 6 196.54 214.32 26.35 o 1.065608
0 10 0 678.72 599.58 95.64 o 1.062143
-2 6 5 534.52 454.45 69.03 o 1.060969
5 1 1 2151.64 1810.25 276.33 o 1.059951
0 2 6 127.90 97.87 14.15 o 1.058709
4 0 3 10.70 7.94 2.55 o 1.056663
-5 2 4 652.93 496.96 76.39 o 1.056066
2 9 1 319.15 245.44 36.39 o 1.055812
-4 7 1 226.33 180.76 23.95 o 1.055084
3 7 2 561.00 521.70 48.01 o 1.053195
-3 2 6 920.81 917.36 68.03 o 1.052772
4 6 1 2029.55 2124.96 145.31 o 1.051924
4 1 3 1063.27 1114.19 70.04 o 1.051472
2 2 5 62.46 68.15 3.89 o 1.050414
1 7 4 256.63 280.92 16.54 o 1.050191
-4 7 2 2234.85 2538.74 148.70 o 1.048640
0 10 1 1090.55 1209.67 69.55 o 1.048167
-5 4 3 241.74 270.85 15.34 o 1.047235
0 6 5 4077.73 4362.59 234.58 o 1.045963
-3 7 4 1402.86 1436.99 88.35 o 1.045034
5 2 1 124.97 123.96 7.74 o 1.044463
1 10 0 36.08 33.99 2.21 o 1.043884
3 8 1 766.12 704.97 43.59 o 1.043784
-1 9 3 1315.41 1263.05 68.93 o 1.043588
-1 8 4 1076.06 1070.50 52.88 o 1.043126
3 3 4 6101.19 5662.40 249.15 o 1.040864
1 5 5 42.14 38.90 1.78 o 1.040752
5 4 0 440.25 404.08 18.49 o 1.040401
-1 10 1 2775.88 2511.28 119.85 o 1.038961
-3 8 3 508.45 457.90 21.59 o 1.038467
4 2 3 1576.96 1282.65 80.70 o 1.036348
0 9 3 7.72 5.12 0.51 o 1.035745
4 7 0 654.93 372.15 70.85 o 1.034268
-4 4 5 95.28 53.38 9.72 o 1.033810
0 3 6 69.20 38.37 7.38 o 1.033353
4 5 2 331.53 186.97 42.74 o 1.032563
-1 4 6 2224.43 1317.89 264.46 o 1.031784
-5 3 4 7.40 4.62 1.74 o 1.030895
-2 4 6 639.30 435.12 71.64 o 1.029942
2 6 4 11.80 8.85 1.95 o 1.028347
-3 3 6 3623.07 2761.63 305.59 o 1.027831
-5 5 2 0.35 0.27 0.21 o 1.027053
0 8 4 1881.57 1506.06 146.88 o 1.027027
3 6 3 7.82 7.00 0.50 o 1.025693
2 3 5 3.38 3.05 0.21 o 1.025635
-5 5 1 100.95 92.51 6.69 o 1.024890
-2 8 4 3933.96 3511.63 232.10 o 1.024606
1 10 1 2013.58 1865.82 109.16 o 1.022451
-4 6 4 2219.59 2106.90 121.29 o 1.021109
5 3 1 4665.62 4370.91 267.76 o 1.020094
-2 9 3 677.68 556.13 66.92 o 1.017018
-4 7 3 331.89 250.56 35.70 o 1.016367
-3 6 5 347.65 317.78 28.58 o 1.015673
4 3 3 17.79 21.02 0.84 o 1.012530
-3 9 1 7567.70 8874.57 367.00 o 1.011146
0 10 2 268.59 314.59 13.63 o 1.009330
-1 10 2 166.03 180.74 9.88 o 1.008754
3 4 4 350.56 310.06 26.48 o 1.007550
-1 7 5 115.37 93.96 9.11 o 1.007504
1 1 6 464.25 345.51 44.26 o 1.006393
-5 5 3 1078.76 966.63 88.08 o 1.004226
-4 0 6 262.58 248.50 14.01 o 1.002364
2 8 3 4403.31 4256.00 227.44 o 1.001463
0 4 6 250.07 249.21 12.60 o 1.000732
2 9 2 2.29 2.28 0.14 o 1.000689
3 9 0 2578.64 2549.79 128.56 o 1.000242
-5 4 4 16.03 15.38 0.81 o 0.998499
-2 7 5 1198.80 1143.39 54.19 o 0.998203
5 5 0 1287.59 1220.94 60.33 o 0.998195
-4 1 6 758.67 727.15 33.87 o 0.997930
-3 9 2 962.31 915.87 45.21 o 0.997892
-2 10 1 856.14 814.55 41.31 o 0.997425
-3 4 6 440.81 414.65 21.78 o 0.995714
1 9 3 1029.80 979.25 54.96 o 0.995684
-5 1 5 2375.26 2258.65 121.06 o 0.995615
2 10 0 2443.98 2139.91 143.27 o 0.994284
2 4 5 2.14 1.81 0.16 o 0.993718
1 2 6 666.49 572.16 39.61 o 0.993108
-4 5 5 1197.74 1036.06 83.32 o 0.992370
4 7 1 51.62 35.22 5.79 o 0.990658
-1 5 6 12.65 9.45 2.15 o 0.990577
1 6 5 165.48 116.07 18.03 o 0.989796
-2 5 6 56.52 44.14 7.07 o 0.988946
5 4 1 11.03 8.55 1.60 o 0.988675
0 7 5 439.77 415.28 29.69 o 0.985675
-4 2 6 750.70 789.93 42.90 o 0.984973
-4 8 1 401.24 388.32 24.99 o 0.984722
3 8 2 137.94 150.17 5.13 o 0.983186
-5 2 5 323.66 330.69 11.13 o 0.982747
4 6 2 1302.97 1331.26 46.62 o 0.982744
5 1 2 1277.12 1284.95 41.89 o 0.982059
4 4 3 430.29 427.83 13.98 o 0.981784
1 8 4 34.61 33.97 1.22 o 0.980740
-6 0 2 11807.12 11685.01 385.13 o 0.980421
-4 8 2 285.28 281.48 9.16 o 0.979477
1 10 2 48.30 47.52 1.62 o 0.979151
-5 6 2 67.23 57.27 2.26 o 0.977990
-2 10 2 27.27 21.96 0.98 o 0.977576
-3 8 4 165.50 139.11 8.70 o 0.976537
-6 1 2 63.93 52.29 3.94 o 0.976270
-5 6 1 418.71 345.24 25.45 o 0.976121
1 3 6 6173.26 6358.88 270.57 o 0.972090
-6 0 1 8038.34 8478.94 371.72 o 0.971549
2 7 4 998.86 1052.86 45.18 o 0.970891
5 2 2 0.33 0.35 0.01 o 0.969703
3 5 4 627.53 630.27 28.38 o 0.969073
2 10 1 144.43 138.71 7.19 o 0.968781
3 7 3 608.13 585.05 30.10 o 0.968657
4 8 0 514.04 499.41 28.82 o 0.967735
-6 1 1 280.72 276.18 16.74 o 0.967510
3 9 1 434.13 419.12 26.65 o 0.967390
-6 0 3 328.06 314.95 18.55 o 0.967257
-1 9 4 289.57 283.38 16.09 o 0.966866
0 11 0 50.04 47.08 3.26 o 0.965585
-4 7 4 417.75 373.09 21.05 o 0.964793
-4 3 6 2.30 1.97 0.10 o 0.964456
-6 2 2 0.12 0.10 0.06 o 0.964129
-6 1 3 72.58 61.06 3.34 o 0.963271
-3 9 3 640.87 538.26 29.50 o 0.963153
0 5 6 80.00 67.81 3.25 o 0.963003
-5 3 5 439.14 374.54 20.03 o 0.962366
-2 0 7 4897.66 4217.70 198.07 o 0.962212
-5 5 4 4262.81 3654.79 180.36 o 0.961012
-3 7 5 0.07 0.06 0.01 o 0.960204
-1 10 3 1052.73 895.42 50.93 o 0.959312
-3 5 6 785.68 695.14 40.31 o 0.958528
-2 1 7 770.48 686.40 42.24 o 0.958288
-5 6 3 192.41 179.54 11.71 o 0.958219
2 5 5 553.83 547.60 39.87 o 0.956747
-6 2 1 1.82 1.77 0.34 o 0.955688
0 11 1 207.74 187.65 14.04 o 0.955048
0 9 4 84.26 77.99 5.10 o 0.954004
0 10 3 461.37 422.40 28.85 o 0.953209
-1 1 7 256.01 237.97 16.14 o 0.953174
-4 8 3 508.33 465.53 30.10 o 0.953024
5 6 0 279.07 255.57 16.89 o 0.952975
5 5 1 2326.67 2158.20 139.56 o 0.952244
-2 9 4 136.61 127.21 8.07 o 0.952063
1 11 0 107.30 98.56 6.45 o 0.951805
-6 2 3 511.43 471.16 30.70 o 0.951602
5 3 2 2193.61 2061.25 155.47 o 0.950107
3 1 5 141.02 147.01 11.79 o 0.948506
-1 11 1 215.63 222.96 19.62 o 0.948069
-4 6 5 229.47 220.64 16.87 o 0.947903
-2 2 7 0.29 0.27 0.11 o 0.946797
-1 6 6 1.08 1.00 0.08 o 0.946340
4 5 3 30.43 28.14 2.15 o 0.946082
-1 8 5 366.39 332.13 24.24 o 0.945705
-2 6 6 5318.08 4814.04 353.26 o 0.944918
-6 3 2 61.98 54.76 4.14 o 0.944862
1 4 6 694.65 629.94 47.17 o 0.944786
4 0 4 7958.05 7160.61 547.49 o 0.943846
6 0 0 328.58 296.07 33.37 o 0.942346
-1 2 7 74.42 68.24 6.69 o 0.941864
4 1 4 202.55 226.88 31.27 o 0.940142
6 1 0 372.49 499.27 57.33 o 0.938659
-2 10 3 40.18 54.95 5.86 o 0.938551
1 7 5 243.15 322.81 28.31 o 0.938251
-2 8 5 147.75 191.67 15.30 o 0.938000
-4 4 6 109.18 135.91 10.68 o 0.937773
3 2 5 46.00 53.79 3.54 o 0.937360
-6 3 1 17.97 22.77 1.55 o 0.936914
-3 1 7 33.38 35.79 2.10 o 0.936670
-5 4 5 1449.22 1464.44 82.51 o 0.935852
1 11 1 546.95 551.00 30.21 o 0.935474
-6 0 4 443.50 427.21 23.48 o 0.934558
-3 10 1 2028.53 1874.07 94.23 o 0.933930
2 9 3 367.38 331.98 15.76 o 0.933410
-6 3 3 122.08 108.84 5.28 o 0.933063
4 7 2 1400.68 1248.84 61.56 o 0.932237
4 8 1 1951.33 1682.78 86.10 o 0.931732
-6 1 4 953.48 829.56 44.95 o 0.930961
4 2 4 45.79 43.39 2.22 o 0.929284
-2 3 7 238.78 229.87 11.27 o 0.928532
-5 7 2 159.55 163.29 8.82 o 0.928176
6 2 0 604.62 610.06 30.78 o 0.927852
0 8 5 1408.02 1409.69 67.25 o 0.927582
3 6 4 435.49 439.01 20.97 o 0.927537
2 0 6 6548.72 6620.04 309.60 o 0.927361
-5 7 1 1058.26 1052.67 51.97 o 0.926579
0 0 7 888.39 872.66 38.81 o 0.926053
-3 2 7 136.65 133.94 6.20 o 0.925931
2 10 2 526.27 509.97 24.96 o 0.925672
0 11 2 967.03 934.47 44.05 o 0.925393
3 10 0 167.78 162.59 7.94 o 0.925317
-1 11 2 434.06 415.63 19.25 o 0.924949
5 4 2 47.85 45.71 2.21 o 0.924567
-1 3 7 4768.04 4311.58 190.84 o 0.923877
2 1 6 189.84 171.66 7.65 o 0.923847
-3 10 2 27.89 25.76 1.28 o 0.923457
0 1 7 2007.27 1806.22 82.90 o 0.922553
0 6 6 780.49 701.72 32.31 o 0.922210
1 10 3 2187.61 1941.58 98.73 o 0.921706
-5 6 4 298.57 256.99 13.52 o 0.920461
-6 2 4 1795.95 1545.86 81.22 o 0.920415
-4 9 1 669.72 572.77 31.99 o 0.919811
-6 4 2 301.23 257.44 15.05 o 0.919731
3 3 5 538.47 467.95 23.67 o 0.919625
3 9 2 420.92 358.31 22.83 o 0.918558
-3 6 6 616.23 524.47 30.73 o 0.918278
2 6 5 671.75 610.36 38.59 o 0.916712
1 9 4 8.43 7.68 0.84 o 0.916563
-2 11 1 0.03 0.03 0.02 o 0.916193
-4 9 2 466.50 439.17 31.15 o 0.915532
2 8 4 1266.66 1209.91 82.16 o 0.915230
-5 1 6 223.82 217.33 15.27 o 0.914702
2 11 0 497.24 496.56 36.71 o 0.913756
2 2 6 21.37 19.51 1.73 o 0.913538
3 8 3 55.74 52.13 3.87 o 0.913357
-3 9 4 95.41 87.86 7.04 o 0.913129
1 5 6 129.76 119.45 7.83 o 0.912843
5 6 1 0.13 0.12 0.02 o 0.912749
-6 4 1 35.75 32.31 2.48 o 0.912395
0 2 7 125.90 120.52 7.70 o 0.912287
4 3 4 4.58 4.32 0.28 o 0.911995
-5 7 3 9.80 9.35 0.69 o 0.911225
6 3 0 80.16 77.80 5.71 o 0.910641
-4 8 4 2951.66 2672.82 193.86 o 0.910115
-6 4 3 77.24 66.09 5.16 o 0.908838
-3 3 7 1195.83 1075.15 69.66 o 0.908825
4 6 3 90.07 76.14 6.33 o 0.907318
5 7 0 153.27 126.70 9.23 o 0.906712
-4 5 6 8.18 7.01 0.51 o 0.906513
-3 8 5 1.14 0.97 0.09 o 0.906261
4 9 0 38.92 32.35 2.19 o 0.905921
-5 5 5 2278.94 1802.62 104.88 o 0.904777
-5 2 6 1353.54 1072.60 62.78 o 0.904693
-2 4 7 1033.55 829.52 47.61 o 0.904649
-6 3 4 2.76 2.27 0.12 o 0.903608
-4 7 5 39.25 31.99 1.72 o 0.902339
1 11 2 3160.82 2614.59 135.52 o 0.901969
5 1 3 63.49 53.35 2.55 o 0.901209
-1 7 6 59.82 50.27 2.44 o 0.900991
-2 11 2 0.01 0.01 0.01 o 0.900737
-1 4 7 2.00 1.71 0.09 o 0.900343
-2 7 6 267.22 242.59 12.02 o 0.899763
3 10 1 2071.18 1935.75 100.21 o 0.899125
-1 10 4 59.47 54.05 2.60 o 0.898704
6 0 1 847.28 768.94 37.94 o 0.897888
2 3 6 32.58 31.29 1.34 o 0.897098
-4 0 7 2252.22 2196.57 97.92 o 0.896460
3 4 5 112.09 109.32 4.92 o 0.896406
0 3 7 2.71 2.66 0.14 o 0.895913
-3 10 3 2123.34 2080.14 98.70 o 0.895720
6 1 1 187.84 187.45 8.90 o 0.894697
5 5 2 2064.75 2077.13 97.02 o 0.894567
2 11 1 235.04 239.93 11.84 o 0.893843
-4 9 3 5.99 6.02 0.29 o 0.893819
-4 1 7 1587.26 1502.17 66.32 o 0.893284
5 2 3 28.09 25.54 1.08 o 0.891632
-6 5 2 0.12 0.11 0.01 o 0.890185
4 4 4 0.11 0.09 0.01 o 0.889336
