#------------------------------------------------------------------------------
#$Date: 2015-07-28 12:32:37 +0300 (Tue, 28 Jul 2015) $
#$Revision: 152583 $
#$URL: svn://www.crystallography.net/cod/cif/3/50/00/3500026.cif $
#------------------------------------------------------------------------------
#
# This file is available in the Crystallography Open Database (COD),
# http://www.crystallography.net/
#
# All data on this site have been placed in the public domain by the
# contributors.
#
data_3500026
loop_
_publ_author_name
'Tobias St\"urzer'
'Saulius Gra\<zulis'
_publ_section_title
;
 private communication
;
_journal_name_full               'Personal communication to COD'
_journal_year                    2015
_chemical_formula_sum            'C4 H9 N O6'
_chemical_formula_weight         167.12
_space_group_crystal_system      orthorhombic
_space_group_IT_number           19
_space_group_name_Hall           'P 2ac 2ab'
_space_group_name_H-M_alt        'P 21 21 21'
_symmetry_space_group_name_Hall  'P 2ac 2ab'
_symmetry_space_group_name_H-M   'P 21 21 21'
_atom_sites_solution_hydrogens   difmap
_audit_creation_method           SHELXL-2014/7
_cell_angle_alpha                90
_cell_angle_beta                 90
_cell_angle_gamma                90
_cell_formula_units_Z            4
_cell_length_a                   7.6385(4)
_cell_length_b                   7.7730(4)
_cell_length_c                   11.0410(6)
_cell_measurement_temperature    100(2)
_cell_volume                     655.55(6)
_computing_structure_refinement  'SHELXL-2014/7 (Sheldrick, 2014)'
_diffrn_ambient_temperature      100(2)
_diffrn_measured_fraction_theta_full 0.989
_diffrn_measured_fraction_theta_max 0.991
_diffrn_measurement_device_type
'Bruker AXS Ga Metaljet source, Kappa Goniometer, Photon 100 detector'
_diffrn_radiation_type           GaK\a
_diffrn_radiation_wavelength     1.3418
_diffrn_reflns_av_R_equivalents  0.0287
_diffrn_reflns_av_unetI/netI     0.0195
_diffrn_reflns_laue_measured_fraction_full 0.989
_diffrn_reflns_laue_measured_fraction_max 0.991
_diffrn_reflns_limit_h_max       9
_diffrn_reflns_limit_h_min       -10
_diffrn_reflns_limit_k_max       10
_diffrn_reflns_limit_k_min       -9
_diffrn_reflns_limit_l_max       14
_diffrn_reflns_limit_l_min       -14
_diffrn_reflns_number            8351
_diffrn_reflns_point_group_measured_fraction_full 0.991
_diffrn_reflns_point_group_measured_fraction_max 0.992
_diffrn_reflns_theta_full        53.618
_diffrn_reflns_theta_max         63.476
_diffrn_reflns_theta_min         6.059
_exptl_absorpt_coefficient_mu    0.918
_exptl_crystal_colour            'translucent blue'
_exptl_crystal_density_diffrn    1.693
_exptl_crystal_description       plate
_exptl_crystal_F_000             352
_geom_special_details
;
 All esds (except the esd in the dihedral angle between two l.s. planes)
 are estimated using the full covariance matrix.  The cell esds are taken
 into account individually in the estimation of esds in distances, angles
 and torsion angles; correlations between esds in cell parameters are only
 used when they are defined by crystal symmetry.  An approximate (isotropic)
 treatment of cell esds is used for estimating esds involving l.s. planes.
;
_refine_diff_density_max         0.284
_refine_diff_density_min         -0.226
_refine_diff_density_rms         0.040
_refine_ls_abs_structure_details
;
 Flack x determined using 646 quotients [(I+)-(I-)]/[(I+)+(I-)]
 (Parsons, Flack and Wagner, Acta Cryst. B69 (2013) 249-259).
;
_refine_ls_abs_structure_Flack   0.01(6)
_refine_ls_extinction_coef       0.017(3)
_refine_ls_extinction_expression Fc^*^=kFc[1+0.001xFc^2^\l^3^/sin(2\q)]^-1/4^
_refine_ls_extinction_method     'SHELXL-2014/7 (Sheldrick 2014'
_refine_ls_goodness_of_fit_ref   1.061
_refine_ls_hydrogen_treatment    refxyz
_refine_ls_matrix_type           full
_refine_ls_number_parameters     128
_refine_ls_number_reflns         1618
_refine_ls_number_restraints     0
_refine_ls_restrained_S_all      1.061
_refine_ls_R_factor_all          0.0217
_refine_ls_R_factor_gt           0.0212
_refine_ls_shift/su_max          0.000
_refine_ls_shift/su_mean         0.000
_refine_ls_structure_factor_coef Fsqd
_refine_ls_weighting_details
'w=1/[\s^2^(Fo^2^)+(0.0296P)^2^+0.1821P] where P=(Fo^2^+2Fc^2^)/3'
_refine_ls_weighting_scheme      calc
_refine_ls_wR_factor_gt          0.0571
_refine_ls_wR_factor_ref         0.0575
_reflns_Friedel_coverage         0.689
_reflns_friedel_fraction_full    0.994
_reflns_friedel_fraction_max     0.994
_reflns_number_gt                1590
_reflns_number_total             1618
_reflns_special_details
;
 Reflections were merged by SHELXL according to the crystal
 class for the calculation of statistics and refinement.
 
 _reflns_Friedel_fraction is defined as the number of unique
 Friedel pairs measured divided by the number that would be
 possible theoretically, ignoring centric projections and
 systematic absences.
;
_reflns_threshold_expression     'I > 2\s(I)'
_cod_data_source_file            Tartrate.cif
_cod_data_source_block           Tatrate_0m
_cod_database_code               3500026
_shelx_shelxl_version_number     2014/7
_shelx_space_group_comment
;
The symmetry employed for this shelxl refinement is uniquely defined
by the following loop, which should always be used as a source of
symmetry information in preference to the above space-group names.
They are only intended as comments.
;
_shelx_res_file
;

    Tatrate_0m.res created by SHELXL-2014/7


TITL Tatrate_0m_a.res in P2(1)2(1)2(1)
CELL 1.34180 7.6385 7.7730 11.0410 90.000 90.000 90.000
ZERR 4.00 0.0004 0.0004 0.0006 0.000 0.000 0.000
LATT -1
SYMM x+1/2, -y+1/2, -z
SYMM -x, y+1/2, -z+1/2
SYMM -x+1/2, -y, z+1/2
SFAC C H N O
UNIT 16 36 4 24
LIST 4 ! automatically inserted. Change 6 to 4 for CHECKCIF!!
TEMP -173.200
L.S. 6
FMAP 2
HTAB
ACTA
PLAN -6 0 0.00
BOND $H
WGHT    0.029600    0.182100
EXTI    0.017176
FVAR       1.77975
O01   4    0.354515    0.267552    0.146685    11.00000    0.00464    0.00689 =
         0.01352    0.00145    0.00063   -0.00073
O02   4    0.682900    0.138611    0.158212    11.00000    0.00888    0.00436 =
         0.01158   -0.00073    0.00114    0.00126
H02A  2    0.642823    0.118969    0.228414    11.00000   -1.20000
O03   4    1.016111    0.299809    0.324170    11.00000    0.00792    0.01591 =
         0.00973    0.00313   -0.00095    0.00305
O04   4    0.447777    0.536225    0.117197    11.00000    0.00654    0.00592 =
         0.01199    0.00154   -0.00048    0.00009
O05   4    0.686154    0.420005    0.338853    11.00000    0.00694    0.00704 =
         0.00692   -0.00038    0.00165    0.00192
H05A  2    0.650767    0.519581    0.355447    11.00000   -1.20000

O06   4    1.042922    0.381311    0.129841    11.00000    0.00406    0.01384 =
         0.00955    0.00296    0.00171    0.00161
H06A  2    1.156953    0.336713    0.140283    11.00000   -1.20000
N01   3    0.831861    0.190057    0.534537    11.00000    0.00739    0.00848 =
         0.01060   -0.00122    0.00035   -0.00058
H01A  2    0.735821    0.172664    0.576795    11.00000   -1.20000
H01B  2    0.908585    0.261197    0.567316    11.00000   -1.20000
H01C  2    0.877338    0.089479    0.517575    11.00000   -1.20000
H01D  2    0.801384    0.235892    0.464518    11.00000   -1.20000
C01   1    0.474217    0.378436    0.131269    11.00000    0.00525    0.00676 =
         0.00426   -0.00019   -0.00041    0.00059
C02   1    0.955850    0.362149    0.231753    11.00000    0.00509    0.00420 =
         0.00837   -0.00033   -0.00101   -0.00110
H02B  2    0.713691    0.335446    0.050974    11.00000   -1.20000
C03   1    0.665388    0.316049    0.132435    11.00000    0.00432    0.00493 =
         0.00720    0.00009   -0.00012    0.00017
C04   1    0.768118    0.426829    0.223190    11.00000    0.00375    0.00538 =
         0.00686    0.00060   -0.00009   -0.00029
H04A  2    0.767851    0.543049    0.195052    11.00000   -1.20000
HKLF 4

REM  Tatrate_0m_a.res in P2(1)2(1)2(1)
REM R1 =  0.0212 for    1590 Fo > 4sig(Fo)  and  0.0217 for all    1618 data
REM    128 parameters refined using      0 restraints

END

WGHT      0.0296      0.1821

REM Instructions for potential hydrogen bonds
EQIV $1 -x+1, y-1/2, -z+1/2
HTAB O02 O04_$1
EQIV $2 -x+1, y+1/2, -z+1/2
HTAB O05 O01_$2
EQIV $3 x+1, y, z
HTAB O06 O01_$3
EQIV $4 x-1/2, -y+1/2, -z+1
HTAB N01 O03_$4
EQIV $5 -x+3/2, -y+1, z+1/2
HTAB N01 O04_$5
EQIV $6 -x+3/2, -y, z+1/2
HTAB N01 O02_$6
EQIV $7 -x+2, y-1/2, -z+1/2
HTAB N01 O06_$7
HTAB N01 O03
HTAB N01 O05
EQIV $8 x+1/2, -y+1/2, -z
HTAB C03 O01_$8
HTAB C04 O01_$2
EQIV $9 -x+2, y+1/2, -z+1/2
HTAB C04 O03_$9

REM Highest difference peak  0.284,  deepest hole -0.226,  1-sigma level  0.040
Q1    1   0.8591  0.3883  0.2254  11.00000  0.05    0.28
Q2    1   0.5732  0.3419  0.1363  11.00000  0.05    0.28
Q3    1   0.7177  0.3678  0.1781  11.00000  0.05    0.25
Q4    1   0.9790  0.3234  0.0648  11.00000  0.05    0.15
Q5    1   0.6802  0.2247  0.1424  11.00000  0.05    0.14
Q6    1   0.9649  0.4106  0.0034  11.00000  0.05    0.14
;
_shelx_res_checksum              22459
_shelx_hkl_file
;
   1   0   0 0.61124 0.76630   2
   1   0   0 0.76532 1.01072   5
   1   0   0 1.87561 1.05363   5
  -1   0   0 0.96241 0.65263   2
  -1   0   0 -0.3667 0.92259   5
   1   0   0 0.63478 0.43335   1
  -2   0   0 379.986 14.9061   2
  -2   0   0 344.929 14.9656   5
   2   0   0 361.796 14.0996   1
  -2   0   0 353.143 14.0720   1
   2   0   0 368.906 15.1609   5
   2   0   0 358.968 15.1873   5
   2   0   0 361.451 14.9065   2
  -3   0   0 0.10625 0.84165   1
  -3   0   0 1.98243 2.41358   2
   3   0   0 0.17853 2.20677   2
   3   0   0 0.30318 0.73471   1
   3   0   0 -0.0236 2.56396   5
  -3   0   0 -0.2984 2.79516   5
  -4   0   0 1481.52 55.9268   2
   4   0   0 1418.82 53.8122   1
   4   0   0 1387.53 56.6210   5
   4   0   0 1461.60 56.2966   5
   4   0   0 1446.05 55.5689   2
  -4   0   0 1430.08 53.9131   1
  -4   0   0 1386.68 55.7365   5
  -5   0   0 1.12980 6.74417   2
  -5   0   0 4.10484 10.3140   5
   5   0   0 -1.4901 5.91852   5
  -5   0   0 0.80770 1.83542   1
  -5   0   0 0.83365 2.68933   6
   6   0   0 5627.95 206.943   7
   6   0   0 5457.37 206.688   4
  -6   0   0 5985.36 207.109   6
   6   0   0 5872.19 215.135   5
  -7   0   0 3.84060 2.49699   6
   7   0   0 -0.1314 2.55603   7
  -8   0   0 1372.14 50.7845   6
   8   0   0 1356.30 51.0694   7
  -9   0   0 0.80370 2.08226   6
 -10   0   0 1301.69 47.3966   6
   0  -1   0 0.82298 0.49537   5
   0   1   0 0.53250 0.29125   1
   0   1   0 0.74692 0.61949   5
   0   1   0 0.48216 0.36521   5
   0  -1   0 1.03234 0.34130   5
   0   1   0 0.52857 0.49455   2
  -1  -1   0 183.365 6.82703   1
   1   1   0 191.284 6.94053   1
  -1   1   0 181.697 7.94119   2
  -1   1   0 170.254 8.12854   5
   1   1   0 191.312 7.19898   2
   1  -1   0 182.315 7.84413   2
  -1   1   0 178.259 7.37421   1
   1   1   0 180.329 7.17967   5
  -1   1   0 188.297 8.11958   5
   1  -1   0 175.069 8.08741   5
  -1  -1   0 187.912 7.01904   2
   1  -1   0 186.523 8.03076   5
   1  -1   0 182.811 7.34928   1
  -2   1   0 4.26999 2.10507   2
   2   1   0 -0.9856 1.55997   5
  -2   1   0 1.89986 2.19829   5
  -2   1   0 0.20862 2.44667   5
   2  -1   0 1.16654 0.75820   1
  -2  -1   0 1.90330 0.81776   1
   2  -1   0 1.21884 2.23297   5
   2  -1   0 2.09150 2.26695   5
   2   1   0 4.37886 1.56798   2
   2  -1   0 1.16048 1.48191   2
  -2  -1   0 2.32676 1.17794   2
  -3  -1   0 6277.18 228.157   5
   3  -1   0 6314.97 230.118   5
   3   1   0 6239.96 229.374   5
   3  -1   0 6904.48 230.738   5
   3   1   0 6243.44 228.905   2
   3  -1   0 6256.10 229.548   2
  -3  -1   0 6236.19 228.596   2
  -3   1   0 6234.48 230.375   5
  -3   1   0 6262.59 229.750   2
   3   1   0 6271.34 229.296   5
  -4   1   0 2.47573 1.49020   1
  -4  -1   0 5.74183 3.06777   2
   4   1   0 6.80571 3.86807   2
  -4  -1   0 6.09745 3.73370   5
   4   1   0 3.72664 1.39657   1
   4   1   0 -0.1127 5.10285   5
   4   1   0 2.65802 3.91604   5
  -4   1   0 3.06960 7.41842   2
   4  -1   0 7.37428 6.46689   5
  -4   1   0 6.08853 6.54033   5
  -4  -1   0 4.55459 1.80301   1
   4  -1   0 3.08730 4.31576   5
  -5   1   0 768.122 31.3462   1
  -5   1   0 748.919 28.9109   6
  -5  -1   0 752.575 28.5824   6
  -5   1   0 726.073 28.3047   4
   5  -1   0 787.893 34.7598   5
  -5   1   0 735.753 35.1563   2
   5   1   0 781.920 34.1872   5
   5  -1   0 754.845 28.7509   7
   5  -1   0 739.705 28.6279   4
   6   1   0 1390.98 51.6309   4
  -6  -1   0 1399.78 51.4094   6
   6   1   0 1391.95 51.8798   7
   6  -1   0 1413.49 51.5972   4
   6  -1   0 1375.69 52.4828   6
  -6   1   0 1433.24 51.1514   4
   6  -1   0 1311.97 60.0727   5
   6   1   0 1332.23 59.7370   5
  -6   1   0 1451.25 52.0310   6
   6  -1   0 1409.45 51.6744   7
  -7  -1   0 1098.45 40.3743   6
   7  -1   0 1100.78 40.7188   7
   7   1   0 1047.82 40.7320   7
  -7   1   0 1062.56 39.8948   4
  -7   1   0 1086.48 41.0238   6
  -8   1   0 0.60066 2.47112   6
   8   1   0 2.79256 2.85188   7
   8  -1   0 0.79564 2.76703   7
  -8  -1   0 0.02701 2.19063   6
  -9   1   0 192.255 9.13854   6
  -9  -1   0 200.946 8.50443   6
 -10  -1   0 197.863 7.77133   6
   0   2   0 3515.12 126.188   2
   0   2   0 3484.94 126.228   2
  -1   2   0 4130.59 151.303   2
   1  -2   0 4156.31 151.197   5
   1  -2   0 4065.68 150.587   5
  -1   2   0 4239.25 151.783   5
  -1   2   0 4285.78 151.340   2
  -1   2   0 4165.20 151.386   5
  -2   2   0 23.1560 3.77129   2
   2   2   0 18.2046 2.20113   2
  -2   2   0 23.4780 2.37194   1
   2  -2   0 22.6621 3.75801   5
  -2   2   0 15.9777 3.59647   5
   2   2   0 18.6662 1.40881   1
  -2   2   0 22.4644 2.28522   1
  -2   2   0 15.2576 3.94329   5
  -2   2   0 17.7969 3.61739   2
  -3   2   0 5622.37 210.543   5
  -3   2   0 5922.54 209.943   5
   3   2   0 5926.06 207.541   2
  -3  -2   0 5458.07 206.682   2
   3   2   0 5755.70 208.174   5
   3  -2   0 5505.00 209.558   5
  -3   2   0 5701.94 209.690   2
   3  -2   0 5871.96 209.891   5
  -3   2   0 5877.30 209.699   2
  -4  -2   0 1092.46 41.8435   1
   4   2   0 1146.99 44.9500   5
  -4   2   0 1117.38 44.1099   1
  -4  -2   0 1112.14 42.8528   2
   4   2   0 1049.03 45.1396   5
  -4   2   0 1172.79 44.1179   1
   4  -2   0 1245.97 47.0227   5
  -4   2   0 1086.69 46.6217   2
  -4   2   0 1133.73 46.6069   2
  -5   2   0 22.5204 5.27115   1
   5   2   0 45.5247 10.2239   5
   5  -2   0 26.2156 8.67492   5
  -5   2   0 31.6262 4.08542   6
  -5   2   0 14.9583 11.4913   2
   5  -2   0 24.5733 4.12051   7
   5  -2   0 26.1445 4.42961   6
  -5   2   0 29.8386 3.95621   7
   5  -2   0 27.1369 4.18626   4
  -5  -2   0 19.9500 2.70516   6
  -5   2   0 23.0916 3.05811   4
   6   2   0 2635.16 106.333   5
  -6   2   0 2686.04 97.0298   7
  -6   2   0 2647.90 97.5442   4
  -6  -2   0 2724.64 97.3103   6
   6  -2   0 2764.91 97.9053   4
   6   2   0 2560.15 98.1123   7
   6  -2   0 2743.68 98.4971   6
  -6   2   0 2756.69 98.4565   6
   6  -2   0 2650.71 97.6946   7
  -7   2   0 644.065 24.9351   4
   7   2   0 628.603 25.7266   7
   7  -2   0 663.327 25.4864   7
   7  -2   0 671.959 26.5125   6
  -7   2   0 642.262 26.0369   6
  -7  -2   0 661.687 24.7659   6
  -8   2   0 285.571 11.8502   4
  -8  -2   0 294.471 11.6276   6
   8   2   0 287.159 13.0048   7
   8  -2   0 270.067 13.5104   6
  -8   2   0 287.444 12.9489   6
   9  -2   0 3.77892 3.97064   6
  -9   2   0 -1.4123 2.44651   6
  -9  -2   0 3.77389 1.73785   6
   0   3   0 0.70578 2.03445   5
   0   3   0 1.70783 1.64643   2
   0   3   0 1.66461 1.27841   2
   0   3   0 1.35161 0.66831   1
   0   3   0 1.86900 1.34945   5
  -1   3   0 3039.58 108.718   2
  -1   3   0 3044.92 109.631   5
   1   3   0 2916.50 107.339   5
  -1   3   0 3044.81 108.782   2
   1  -3   0 2977.31 107.391   5
   1   3   0 2929.49 106.867   5
  -1   3   0 2996.09 109.027   5
   1   3   0 2595.56 106.762   2
   1  -3   0 3151.90 108.191   5
   2  -3   0 7090.73 245.436   5
   2   3   0 6500.74 243.084   5
   2  -3   0 6567.35 244.275   5
  -2   3   0 6681.03 245.896   5
  -2   3   0 6804.22 245.727   2
  -2   3   0 6877.91 245.805   2
  -2   3   0 6796.39 246.776   5
  -3  -3   0 299.796 10.7565   1
  -3   3   0 289.937 13.2526   1
  -3  -3   0 291.363 11.1168   2
   3  -3   0 305.042 15.4295   5
   3   3   0 297.871 13.0531   5
  -3   3   0 240.939 17.5581   5
   3  -3   0 274.031 14.9726   5
  -3   3   0 301.271 11.3123   3
  -3   3   0 268.181 15.6559   2
  -3   3   0 276.576 15.5988   5
   4   3   0 1049.71 44.9730   5
  -4   3   0 1136.76 47.0275   5
   4  -3   0 1135.19 46.4461   5
  -4   3   0 1126.32 41.0924   7
   4   3   0 1152.12 44.2300   5
  -4  -3   0 1122.97 42.2188   2
  -4   3   0 1106.17 44.1965   1
  -4  -3   0 1096.22 41.1079   1
   4  -3   0 1113.37 41.6586   6
   4  -3   0 1090.87 41.2066   4
  -4   3   0 1114.60 41.3085   4
  -4   3   0 1082.37 47.5675   2
  -5   3   0 335.075 13.2388   7
   5  -3   0 325.317 13.4111   7
   5  -3   0 332.468 13.5052   4
   5  -3   0 341.490 22.3520   5
   5  -3   0 323.294 14.1444   6
  -5   3   0 312.528 14.4565   6
  -5   3   0 324.058 13.4490   4
  -5  -3   0 322.457 12.5828   6
   5   3   0 286.992 19.4336   5
  -6   3   0 19.4490 4.17368   6
  -6   3   0 17.4656 2.80246   4
   6  -3   0 13.9890 3.17632   7
  -6  -3   0 18.0844 2.28789   6
   6  -3   0 18.3859 3.36796   4
   6  -3   0 15.4220 3.87554   6
  -6   3   0 14.2887 2.68336   7
  -7  -3   0 343.326 13.2577   6
  -7   3   0 330.280 14.1043   4
  -7   3   0 351.221 15.3803   6
   7  -3   0 333.177 15.2388   6
   7   3   0 334.709 15.0924   7
   8   3   0 296.177 13.6400   7
  -8   3   0 302.079 13.4182   6
   8  -3   0 280.942 13.4146   6
  -8   3   0 309.724 12.3994   4
  -9   3   0 48.8151 4.27927   6
   9  -3   0 51.9013 5.11652   6
   0   4   0 3693.87 139.248   5
   0   4   0 3862.09 138.211   2
   0   4   0 3776.46 139.922   5
   0   4   0 3939.01 138.939   2
  -1   4   0 75.7346 6.74920   2
   1   4   0 83.7502 5.82304   5
  -1   4   0 102.506 6.95928   2
   1   4   0 80.5917 4.07072   2
  -1   4   0 85.7419 9.26851   5
   1   4   0 79.7278 3.45567   1
  -1   4   0 75.6514 6.93796   5
   1   4   0 79.2405 4.64591   5
   1  -4   0 95.6867 4.40776   5
  -1   4   0 84.4118 4.94569   1
   1  -4   0 78.7635 5.19118   5
   2  -4   0 48.3752 6.18529   5
   2   4   0 53.5318 3.59689   5
  -2   4   0 48.4626 4.11628   1
  -2   4   0 45.8002 7.40066   5
   2  -4   0 54.2548 5.60315   5
  -2   4   0 42.8426 3.16755   3
  -2   4   0 46.5260 7.30896   2
  -2   4   0 55.0032 11.6931   5
  -2   4   0 46.2677 4.04878   1
  -2   4   0 46.2080 7.59116   2
  -3   4   0 1229.16 49.8530   5
   3  -4   0 1210.15 47.8581   5
  -3   4   0 1149.56 49.2875   2
  -3   4   0 1210.47 46.5522   1
   3   4   0 1183.82 45.2764   5
   3  -4   0 1183.19 44.2250   6
   3  -4   0 1091.10 46.7518   5
  -3   4   0 1247.52 43.6755   3
   4  -4   0 1131.15 42.9557   4
  -4   4   0 1211.48 43.1429   7
  -4   4   0 1160.87 43.2675   4
   4   4   0 1108.34 49.8648   5
  -4   4   0 1155.42 44.8399   6
   4  -4   0 1167.60 43.5467   6
   4  -4   0 1164.99 48.9905   5
  -4   4   0 1182.62 50.6666   5
  -5   4   0 280.581 13.7816   4
   5  -4   0 371.363 14.5993   6
  -5   4   0 339.036 15.3191   6
   5  -4   0 360.829 13.9848   4
  -5   4   0 303.178 13.6128   7
  -6   4   0 104.735 6.07383   7
  -6   4   0 104.732 6.32378   4
   6  -4   0 96.9710 6.87705   6
  -6   4   0 100.309 8.01924   6
   7  -4   0 11.1677 3.47169   6
  -7   4   0 6.16617 3.92261   6
  -7   4   0 5.04109 2.50008   4
   7   4   0 5.25938 7.11167   7
  -8   4   0 632.171 24.4961   4
   8  -4   0 629.434 25.3026   6
  -8   4   0 665.741 25.5823   6
  -9   4   0 385.704 14.8867   4
  -9   4   0 376.349 15.5106   6
   9  -4   0 398.634 15.6238   6
   0   5   0 -2.0569 3.88148   2
   0   5   0 -0.1472 7.11219   5
   0   5   0 2.16671 2.37415   2
   0   5   0 -0.0268 1.07587   1
   0   5   0 3.60147 4.56106   5
   1   5   0 1220.61 48.4138   5
   1   5   0 1279.34 47.8863   5
  -1   5   0 1248.94 50.2870   5
  -2   5   0 384.454 14.9137   3
  -2   5   0 371.809 21.2867   5
   2  -5   0 372.026 15.4836   6
   2   5   0 399.027 16.2053   5
   3  -5   0 127.931 7.01568   6
  -3   5   0 130.455 6.19640   3
  -3   5   0 126.144 7.10994   7
  -3   5   0 122.198 16.3082   5
  -3   5   0 117.057 7.03457   4
   4  -5   0 1806.38 68.5130   6
  -4   5   0 1906.56 68.2910   7
  -4   5   0 1862.09 68.4508   4
  -5   5   0 29.5623 4.29086   7
   5  -5   0 37.4415 4.72872   6
  -5   5   0 31.0626 3.83226   4
  -5   5   0 26.3566 5.96522   6
  -6   5   0 485.111 19.0516   7
  -6   5   0 487.731 19.5558   4
   6  -5   0 481.389 19.8292   6
  -6   5   0 463.119 20.7707   6
  -7   5   0 6.47349 4.00201   6
  -7   5   0 4.15224 2.45086   4
   7  -5   0 2.12257 2.95263   6
  -7   5   0 6.95958 2.26933   7
  -8   5   0 25.6880 3.51968   4
  -8   5   0 26.4120 3.78864   6
   8  -5   0 25.4853 4.30244   6
   0  -6   0 29.9713 4.98056   6
  -1   6   0 35.4650 3.46382   3
   1  -6   0 29.9983 4.35700   6
  -1   6   0 43.1277 11.9208   5
  -2   6   0 380.144 14.8201   3
  -2   6   0 373.119 15.6176   7
  -2   6   0 354.272 26.9626   5
   2  -6   0 380.145 15.2197   6
  -2   6   0 362.342 15.5975   4
  -3   6   0 3001.23 122.691   7
  -3   6   0 3325.21 122.975   4
   3  -6   0 3653.67 123.012   6
  -3   6   0 3553.71 122.690   3
   4  -6   0 5.56785 2.81370   6
  -4   6   0 3.69608 2.71072   4
  -5   6   0 36.5593 4.90175   4
   5  -6   0 30.2858 4.75485   6
  -5   6   0 37.1209 4.57719   7
  -6   6   0 148.670 10.4959   6
  -6   6   0 127.545 7.08509   7
  -6   6   0 142.129 7.62954   4
   6  -6   0 131.848 7.73686   6
  -7   6   0 25.0848 4.88396   6
   7  -6   0 15.2395 3.08672   6
  -7   6   0 11.9958 2.56587   4
   8  -6   0 169.961 7.97050   6
  -8   6   0 172.280 7.58317   4
  -8   6   0 173.277 8.48577   6
  -1   7   0 704.481 26.2650   3
   1  -7   0 676.397 26.0891   6
  -2   7   0 232.257 10.3091   3
   2  -7   0 241.077 10.5637   6
  -2   7   0 239.612 11.6073   4
  -2   7   0 240.137 11.1829   7
  -3   7   0 749.749 28.9579   4
   3  -7   0 747.219 28.5565   6
  -3   7   0 717.875 28.6760   7
  -3   7   0 755.636 28.4601   3
  -4   7   0 276.467 12.2512   4
   4  -7   0 272.511 12.1040   6
  -4   7   0 252.120 11.8988   7
  -5   7   0 12.4493 2.70574   7
   5  -7   0 13.0961 3.14274   6
  -5   7   0 18.8375 3.29383   4
  -6   7   0 18.8291 3.06402   4
   6  -7   0 16.1798 3.01295   6
  -6   7   0 17.2479 2.77600   7
   7  -7   0 33.6417 3.54109   6
  -7   7   0 36.3703 3.14799   7
  -7   7   0 35.2121 3.50814   4
   0   8   0 2.93638 2.52250   3
  -1   8   0 571.328 21.5167   3
   1   8   0 541.799 21.2847   3
  -1   8   0 539.187 22.0687   7
  -2   8   0 947.070 36.5258   4
   2  -8   0 958.618 35.5501   6
  -2   8   0 957.583 36.5486   7
  -2   8   0 972.345 36.1389   3
   3  -8   0 408.165 16.6896   6
  -3   8   0 433.484 17.5843   7
  -3   8   0 433.962 17.5602   4
   4  -8   0 4.05705 2.44569   6
  -4   8   0 -1.1678 2.50705   4
  -4   8   0 -0.2032 2.31458   7
  -5   8   0 58.4526 4.88442   4
   5  -8   0 51.9129 4.29161   6
  -5   8   0 49.3949 4.53985   7
  -6   8   0 20.2157 2.91401   7
   6  -8   0 20.1806 2.71312   6
  -6   8   0 23.9686 3.24114   4
   0   9   0 2.27421 2.42179   3
   1   9   0 428.908 16.8882   3
  -1   9   0 423.260 16.9464   3
  -1   9   0 423.059 17.6166   7
  -2   9   0 3.85964 2.70118   7
  -2   9   0 6.31350 3.56494   4
  -3   9   0 10.3991 2.72137   7
  -3   9   0 4.68038 2.75192   4
  -4   9   0 19.9171 2.90129   4
  -4   9   0 19.6102 2.74928   7
   5  -9   0 0.19670 1.33159   6
  -5   9   0 0.68272 1.73455   7
  -5   9   0 1.64304 1.63464   4
  -1  10   0 416.948 16.8288   7
   1  10   0 420.236 16.5162   3
  -2  10   0 4.27785 2.20824   7
   0   0   1 0.96763 0.42995   5
   0   0  -1 1.60040 0.43241   5
   0   0  -1 1.54625 0.24244   1
   0   0  -1 1.85641 0.38773   2
   1   0   1 513.615 20.2391   1
  -1   0  -1 537.148 20.5364   5
   1   0   1 535.500 20.7023   5
  -1   0   1 575.519 20.7579   2
  -1   0   1 579.064 21.1378   5
   1   0  -1 522.789 20.3443   1
   1   0   1 589.419 20.8307   5
   1   0   1 540.248 20.6838   2
   1   0  -1 530.491 20.8110   2
   1   0  -1 565.581 20.9164   5
  -2   0  -1 303.311 12.5412   5
  -2   0   1 276.245 12.9704   5
  -2   0  -1 296.722 12.4915   2
  -2   0  -1 299.823 11.7173   1
  -2   0   1 297.825 12.5330   2
  -2   0   1 291.812 11.6903   1
   2   0  -1 292.094 11.8471   1
   2   0  -1 310.289 12.9949   5
   2   0  -1 283.127 12.6614   2
   2   0   1 309.223 12.6889   5
  -2   0  -1 277.719 12.2668   5
   2   0   1 293.368 12.8151   5
   4   0   1 1594.80 65.1800   5
  -4   0   1 1597.30 65.2125   5
   4   0  -1 1793.84 65.3707   2
   4   0   1 1832.33 65.8291   5
   4   0  -1 1598.38 65.7644   5
  -4   0  -1 1553.33 62.4877   1
  -4   0   1 1707.15 62.7083   1
  -4   0  -1 1726.08 64.7607   2
  -4   0  -1 1656.49 64.4009   2
  -4   0   1 1752.44 64.4950   2
  -4   0  -1 1621.47 63.9457   5
   4   0  -1 1756.43 65.3008   5
  -4   0  -1 1658.67 62.8180   1
   4   0  -1 1663.27 62.9880   1
   5   0  -1 118.600 6.70597   7
  -5   0  -1 135.788 14.4645   5
   5   0  -1 123.069 11.4817   5
  -5   0   1 120.428 7.60397   1
   5   0   1 120.478 11.9171   5
  -5   0  -1 116.778 6.88323   6
  -5   0   1 113.448 17.5903   5
   5   0  -1 117.665 7.02340   4
   5   0  -1 114.180 7.62492   1
  -5   0   1 123.966 12.1847   2
  -5   0   1 127.032 6.76030   6
   5   0  -1 100.894 13.1818   2
   6   0   1 39.0139 5.32448   7
  -6   0   1 57.1310 4.72070   4
   6   0   1 36.1128 12.9139   5
   6   0  -1 48.7919 12.8128   5
  -6   0  -1 35.3005 4.91605   6
  -6   0   1 46.0752 4.31179   6
   6   0  -1 46.3677 4.69047   7
   6   0   1 39.7023 5.31489   4
   7   0  -1 195.328 9.43780   7
  -7   0  -1 186.692 9.61940   6
   7   0   1 177.725 9.37205   7
   7   0   1 194.464 9.70749   4
  -7   0   1 181.787 8.96610   6
  -8   0   1 2.75271 2.35496   6
  -8   0  -1 3.06505 2.47894   6
   8   0   1 5.59422 2.79630   7
  -9   0  -1 984.568 36.9803   6
   9   0   1 965.553 37.6045   7
  -9   0   1 1017.33 36.9489   6
 -10   0  -1 570.297 20.6857   6
 -10   0   1 534.079 20.6049   6
   0   1   1 897.984 33.2892   5
   0  -1   1 890.614 33.4006   5
   0  -1  -1 913.969 33.3371   2
   0   1   1 888.210 33.2062   5
   0   1  -1 927.786 33.7187   5
   0  -1   1 942.738 33.5753   2
   0   1  -1 969.961 33.4391   5
   0   1  -1 914.044 33.4553   2
   0   1   1 888.658 33.1978   2
   1  -1   1 1478.70 54.6492   5
  -1   1   1 1454.01 54.3072   2
  -1   1   1 1492.69 54.6817   5
  -1  -1  -1 1506.57 53.3187   2
   1  -1   1 1487.12 54.4347   2
  -1  -1  -1 1454.03 53.1910   2
   1   1  -1 1544.81 53.8393   2
   1  -1   1 1428.58 54.0250   5
   1   1  -1 1555.03 53.9754   5
  -1   1   1 1520.76 54.4815   5
  -1  -1   1 1434.49 53.4977   2
  -1  -1   1 1520.82 53.6331   5
  -1   1  -1 1501.54 54.3200   2
  -1   1  -1 1433.91 54.4539   5
  -1  -1   1 1395.15 53.8823   5
   1  -1  -1 1465.32 54.2710   5
   1  -1  -1 1492.03 54.4052   5
  -1   1  -1 1415.83 54.5099   5
   2  -1   1 262.763 12.1695   5
  -2  -1  -1 270.416 10.4612   1
   2  -1   1 275.231 12.5306   5
   2   1  -1 276.692 11.5775   2
   2   1  -1 274.019 11.7136   5
   2   1  -1 268.373 10.7593   1
  -2  -1  -1 263.230 10.9420   2
  -2  -1  -1 259.024 10.3888   1
  -2   1   1 255.958 12.6408   5
  -2   1   1 276.667 11.1276   1
  -2   1   1 272.971 12.1003   2
  -2  -1  -1 275.809 11.0947   2
   2  -1  -1 267.676 12.3553   5
   2   1   1 264.788 11.2025   5
  -2   1  -1 272.614 12.3243   5
  -2   1  -1 267.005 12.4196   5
   2   1   1 267.233 11.3255   5
  -2   1  -1 282.831 12.2735   2
   2  -1  -1 267.230 12.2173   5
  -2  -1   1 272.727 10.5014   1
  -2  -1   1 257.755 11.4864   5
  -2   1  -1 254.037 11.9866   2
  -2  -1   1 266.615 11.0576   2
  -2   1  -1 276.722 11.1421   1
  -3  -1  -1 4482.68 160.202   2
  -3   1   1 4372.26 162.285   5
   3  -1   1 4337.02 161.741   5
  -3  -1  -1 4197.78 158.713   5
   3  -1   1 4302.79 161.497   5
   3   1  -1 3852.66 160.305   2
   3   1  -1 4450.03 160.979   5
  -3   1   1 4545.65 161.518   2
  -3  -1  -1 4340.44 160.007   2
   3   1   1 4385.95 160.555   5
   3  -1  -1 4684.44 161.792   2
   3   1   1 4507.11 160.775   5
  -3   1  -1 4255.19 161.435   5
   3  -1  -1 4677.39 161.788   5
   3  -1  -1 4713.25 162.200   5
  -3   1  -1 4432.17 161.440   5
  -3  -1   1 4238.44 160.385   5
  -3  -1   1 4411.66 160.019   2
  -3   1  -1 4548.50 161.485   2
  -4  -1  -1 434.503 17.7098   1
   4  -1   1 441.210 21.3541   5
  -4   1   1 468.491 18.7542   1
  -4  -1  -1 457.516 19.7021   2
  -4   1   1 392.182 22.3281   5
  -4  -1  -1 434.359 19.3860   2
   4   1  -1 406.028 21.4172   5
   4   1  -1 434.288 20.2410   2
   4   1  -1 456.225 18.2487   1
   4  -1   1 370.553 21.2161   5
  -4  -1  -1 421.442 17.4511   5
   4   1  -1 476.445 20.8074   5
  -4   1   1 434.290 20.7605   2
  -4  -1  -1 470.653 17.9671   1
  -4  -1   1 451.528 17.6919   1
  -4   1  -1 447.392 21.2100   2
   4  -1  -1 381.878 21.9521   5
   4  -1  -1 468.020 21.3282   5
  -4  -1   1 447.805 19.2444   2
  -4   1  -1 449.441 18.6317   1
   4   1   1 482.356 20.9357   5
  -4   1  -1 434.407 18.4823   1
   4   1   1 403.839 20.7021   5
   4  -1  -1 414.413 20.9876   2
   4  -1  -1 426.498 18.4665   1
  -4   1  -1 441.921 20.9788   2
  -4  -1   1 445.474 20.0807   5
  -4   1  -1 387.839 21.0591   5
   5   1  -1 295.363 17.5178   5
  -5   1   1 253.077 17.9153   2
  -5   1   1 273.804 11.1984   4
   5  -1   1 289.162 17.9879   5
  -5   1   1 276.601 11.9943   6
  -5  -1  -1 274.104 11.6501   6
   5  -1   1 280.105 12.0182   7
   5  -1   1 286.105 11.8368   4
  -5   1   1 259.296 13.3913   1
   5  -1  -1 285.856 17.8452   5
   5  -1  -1 281.910 11.7281   7
  -5  -1   1 274.925 11.3736   6
   5  -1  -1 265.306 11.6016   4
  -5   1  -1 269.503 13.8681   1
  -5   1  -1 266.199 11.9951   6
  -5   1  -1 266.652 11.5688   4
   5   1   1 267.946 16.9106   5
  -5   1  -1 228.724 18.5503   2
   6  -1   1 229.478 10.3042   7
  -6   1   1 221.962 10.3895   6
   6   1  -1 206.417 10.2151   7
  -6   1   1 209.482 9.46498   4
   6   1  -1 235.420 20.0501   5
   6  -1   1 207.625 20.9439   5
  -6  -1  -1 222.820 10.0125   6
   6  -1   1 218.658 10.3282   4
   6  -1  -1 223.186 9.96468   7
   6   1   1 229.465 21.7838   5
   6   1   1 206.182 10.7785   7
  -6   1  -1 214.330 9.75189   4
   6   1   1 226.264 10.5217   4
  -6  -1   1 219.001 9.62396   6
   6  -1  -1 195.638 19.7045   5
  -6   1  -1 222.952 10.5605   6
   6  -1  -1 204.031 11.5199   6
  -7   1   1 40.5307 4.05211   4
   7   1  -1 30.4311 4.61899   7
   7  -1   1 24.5726 4.45755   7
  -7   1   1 35.1829 4.30778   6
  -7  -1  -1 26.2285 4.03689   6
   7  -1   1 31.2383 4.04086   4
   7  -1  -1 30.2576 4.73589   7
   7   1   1 37.2561 5.26457   7
  -7  -1   1 31.2227 3.68013   6
   7   1   1 27.3956 4.06347   4
   7  -1  -1 23.0954 5.34750   6
  -7   1  -1 34.6836 4.47107   6
  -8  -1  -1 0.66740 2.37240   6
   8  -1   1 1.95202 2.55508   7
  -8   1   1 1.92085 2.50649   6
  -8   1  -1 2.03981 2.91330   6
  -8  -1   1 1.38622 1.95798   6
   8   1   1 5.05672 3.05366   7
  -9  -1  -1 782.059 29.0785   6
  -9   1   1 778.579 29.5035   6
   9   1   1 759.812 30.0977   7
  -9   1  -1 807.446 29.8777   6
  -9  -1   1 766.350 29.0547   6
 -10  -1  -1 280.420 10.8887   6
 -10   1   1 299.628 11.5858   6
 -10  -1   1 275.871 11.1211   6
 -10   1  -1 313.768 11.7179   6
  -1   2   1 1211.94 45.2463   5
  -1   2   1 1220.35 44.8410   5
   1  -2   1 1235.46 45.0985   5
  -1   2   1 1202.20 44.6575   2
   1   2  -1 1136.11 43.7695   2
  -1   2   1 1216.39 43.9148   1
   1   2  -1 1147.14 44.1360   5
   1  -2   1 1195.29 44.0925   5
   1   2  -1 1130.46 43.7767   5
  -1   2  -1 1239.61 44.8156   2
   1  -2  -1 1170.23 44.2531   5
  -1  -2   1 1216.62 43.6572   2
  -1  -2   1 1189.35 43.1972   5
  -1   2  -1 1190.82 45.2405   5
  -1   2  -1 1216.48 45.0077   5
   1  -2  -1 1168.15 44.1640   5
   2   2  -1 3180.35 121.083   5
  -2   2   1 3317.54 123.168   5
   2   2  -1 3447.57 121.220   2
  -2   2   1 3536.01 122.836   5
   2  -2   1 3370.54 122.754   5
   2  -2   1 3285.86 121.738   5
  -2   2  -1 3335.99 122.409   2
  -2  -2   1 2990.47 120.121   2
   2  -2  -1 3481.28 122.519   5
   2   2   1 3225.76 120.404   5
  -2   2  -1 3273.34 122.941   5
  -2   2  -1 3450.38 122.841   5
   2  -2  -1 3461.11 122.303   5
  -3   2   1 4519.72 173.770   5
  -3   2   1 5049.47 172.835   2
   3  -2   1 4804.44 173.284   5
  -3  -2  -1 4494.95 169.811   2
   3   2  -1 4673.73 171.266   5
  -3  -2  -1 4935.82 169.812   2
   3  -2   1 4535.61 172.268   5
   3   2  -1 4576.98 170.913   2
  -3  -2   1 4644.09 169.893   2
   3  -2  -1 4818.98 172.608   5
  -3   2  -1 4479.80 173.216   5
   3  -2  -1 4654.72 172.374   2
  -3   2  -1 4648.35 172.654   2
   3   2   1 4787.64 170.902   5
  -3   2  -1 4895.42 172.882   2
   3   2   1 4606.61 170.970   5
   3  -2  -1 4743.30 172.989   5
  -3   2  -1 4800.74 173.054   5
  -4  -2  -1 1983.94 71.2431   1
   4   2  -1 1939.01 73.6919   2
  -4   2   1 1954.45 73.4277   1
   4   2  -1 1851.17 71.9824   1
  -4  -2  -1 1950.59 72.4905   2
  -4  -2  -1 1830.33 71.2981   1
   4  -2   1 1883.40 75.9526   5
  -4   2   1 1930.00 75.8637   2
   4   2  -1 2086.15 74.4723   5
  -4  -2  -1 2052.30 72.3588   2
  -4   2  -1 2001.85 76.0878   2
  -4  -2   1 1925.47 72.1603   2
  -4  -2   1 1913.07 71.2319   1
  -4   2  -1 1909.14 75.7146   2
   4   2   1 1980.93 74.4299   5
   4  -2  -1 1967.02 75.6135   2
   4  -2  -1 1966.39 73.2635   1
   4   2   1 2117.69 74.6088   5
  -4   2  -1 1895.89 75.6165   5
  -4   2  -1 1825.65 73.1136   1
  -4   2  -1 1938.08 73.3788   1
  -5   2   1 412.865 34.9788   2
   5   2  -1 338.417 19.2371   5
  -5  -2  -1 332.505 13.2290   6
  -5   2   1 342.226 14.3074   6
  -5   2   1 322.196 13.3906   4
  -5   2   1 304.709 16.6590   1
  -5   2   1 338.586 13.2440   7
   5  -2   1 321.160 13.7342   4
   5  -2   1 346.921 21.5518   5
   5  -2   1 317.553 14.7911   6
   5  -2   1 324.569 13.7017   7
   5   2   1 328.578 19.6570   5
  -5   2  -1 304.770 23.3995   2
   5  -2  -1 341.506 20.6840   5
  -5   2  -1 354.866 13.3911   7
  -5   2  -1 314.940 16.6109   1
  -5   2  -1 325.380 14.2258   6
   5  -2  -1 332.690 13.5168   7
  -5   2  -1 323.682 13.6364   4
   5  -2  -1 311.210 14.2045   6
  -5  -2   1 327.398 13.0384   6
   5  -2  -1 324.084 13.5769   4
   6   2  -1 684.059 36.8914   5
  -6   2   1 729.317 26.6692   4
   6   2  -1 681.159 27.2359   7
   6  -2   1 634.602 26.7976   7
   6  -2   1 657.693 27.0248   4
  -6   2   1 703.175 26.2088   7
   6  -2   1 701.192 27.9006   6
  -6   2   1 702.012 27.4861   6
  -6  -2  -1 721.596 26.4681   6
  -6  -2   1 689.114 26.2223   6
  -6   2  -1 716.353 26.7591   4
   6   2   1 679.617 27.3569   4
   6  -2  -1 734.168 26.9863   7
   6  -2  -1 730.005 27.5982   6
  -6   2  -1 710.589 27.5903   6
   6   2   1 705.973 38.4457   5
   7  -2   1 301.273 12.9936   7
  -7  -2  -1 285.010 12.1132   6
   7   2  -1 283.840 13.2629   7
  -7   2   1 295.507 13.3155   6
  -7   2   1 284.894 12.2673   4
   7  -2   1 310.144 13.2640   4
   7  -2   1 307.386 14.6295   6
   7  -2  -1 307.049 13.8158   6
  -7   2  -1 307.233 13.9445   6
  -7  -2   1 296.182 12.1132   6
   7   2   1 299.211 13.8046   7
  -7   2  -1 296.238 12.6077   4
   8  -2   1 15.6191 4.77033   6
  -8   2   1 20.5126 3.51716   6
  -8   2   1 14.1703 2.69938   4
  -8  -2  -1 20.7347 3.16512   6
   8  -2   1 17.5913 3.20279   7
   8  -2  -1 15.9049 3.94758   6
  -8  -2   1 22.2559 3.06746   6
   8   2   1 16.0411 3.32628   7
  -8   2  -1 15.2755 3.54758   6
  -9   2   1 4.06249 2.22218   6
  -9  -2  -1 -1.8026 1.68877   6
  -9   2  -1 -0.7658 2.55998   6
  -9  -2   1 2.73430 1.72608   6
   9  -2  -1 2.41550 3.52585   6
   9   2   1 4.49638 2.81386   7
   0   3   1 87.1836 4.57055   2
   0   3   1 79.8195 5.20844   5
   0  -3   1 85.2898 4.16958   5
   0   3  -1 83.7899 4.80444   5
   0   3   1 87.0224 3.89147   1
   0   3  -1 90.2596 4.04331   1
   0   3  -1 85.9240 4.67983   2
   0   3   1 88.9819 3.87553   1
   0  -3   1 88.9739 4.28207   1
   0   3   1 85.1922 4.86144   5
   0  -3   1 83.6423 5.13589   2
   0   3   1 83.2331 4.52335   2
   0  -3   1 83.1650 4.49253   5
   0   3  -1 82.3599 5.64749   5
  -1   3   1 7818.99 288.566   5
  -1   3   1 8031.00 287.781   2
  -1   3   1 7772.63 287.810   2
  -1   3  -1 8216.08 287.978   2
  -1   3  -1 7775.37 288.671   5
  -1   3  -1 8209.89 288.110   2
  -1   3  -1 7985.33 288.394   5
  -2   3   1 744.401 29.0918   1
   2   3  -1 861.966 28.1923   1
   2  -3   1 732.717 29.4348   5
  -2   3   1 737.280 30.5706   2
   2   3  -1 798.859 28.8956   2
   2  -3   1 766.034 30.9265   5
  -2   3   1 748.086 30.9097   5
   2   3  -1 734.621 29.1510   5
  -2   3   1 689.472 31.6578   5
  -2   3  -1 740.763 30.8093   2
  -2   3  -1 681.727 31.4407   5
   2  -3  -1 777.626 29.7142   5
  -2   3  -1 723.520 29.1568   1
  -2  -3   1 734.000 27.6429   1
  -2   3  -1 712.400 27.5931   3
  -2  -3   1 750.693 28.1477   2
  -2   3  -1 766.839 29.3316   1
  -2   3  -1 757.539 31.1960   5
   2  -3  -1 760.368 29.8252   5
  -2   3  -1 783.678 31.0865   2
   2   3   1 735.278 27.7022   5
   3   3  -1 309.894 13.9490   2
   3   3  -1 322.383 14.3732   5
  -3   3   1 276.760 16.0688   2
  -3   3   1 319.326 16.6807   5
   3  -3   1 328.964 17.0823   5
  -3   3   1 315.787 14.2207   1
   3   3  -1 309.008 12.7006   1
   3  -3   1 306.089 15.9971   5
  -3  -3   1 319.029 12.1065   1
  -3   3  -1 299.410 17.0352   2
   3   3   1 326.046 13.9399   5
  -3   3  -1 320.498 16.9379   5
  -3  -3   1 323.806 12.7916   2
  -3   3  -1 326.795 14.5807   1
   3  -3  -1 336.866 16.2219   5
   3  -3  -1 291.869 16.9449   5
  -3   3  -1 316.641 12.3223   3
   4  -3   1 1607.76 59.0937   4
  -4  -3  -1 1521.37 58.1765   2
   4   3  -1 1644.39 62.0345   5
  -4   3   1 1643.53 62.4218   1
   4  -3   1 1697.52 58.9631   7
   4  -3   1 1590.34 59.5510   6
  -4  -3  -1 1591.15 58.5166   2
  -4   3   1 1643.52 63.2925   1
  -4   3   1 1650.55 58.9356   7
  -4   3   1 1608.04 59.0478   4
  -4   3   1 1558.02 66.8950   2
  -4  -3  -1 1521.68 58.1429   1
   4  -3   1 1714.43 65.1956   5
  -4   3   1 1607.45 65.8965   2
  -4   3  -1 1659.04 62.3146   1
  -4   3  -1 1526.52 64.8427   2
   4   3   1 1583.46 62.3237   5
   4   3   1 1660.23 62.0281   5
  -4   3  -1 1592.77 65.6629   2
   4  -3  -1 1644.81 63.8652   5
  -4   3  -1 1574.85 59.1425   4
   4  -3  -1 1538.99 58.8494   4
   4  -3  -1 1585.86 59.3437   6
  -4   3  -1 1622.65 62.0466   1
  -4   3  -1 1630.10 58.9551   7
  -4   3  -1 1645.16 65.1593   5
   5  -3   1 172.968 18.5314   5
   5  -3   1 168.276 8.23039   7
  -5   3   1 163.512 9.30546   6
  -5  -3  -1 157.317 7.25550   6
  -5   3   1 161.057 7.82906   4
   5  -3   1 156.396 8.14593   4
   5  -3   1 160.079 9.06071   6
   5   3  -1 179.743 15.0896   5
  -5   3   1 169.542 7.74965   7
  -5   3  -1 168.315 7.86995   7
   5  -3  -1 163.507 8.63389   6
  -5   3  -1 166.971 9.35632   6
  -5  -3   1 156.119 7.04252   6
   5  -3  -1 159.377 16.5816   5
   5   3   1 170.879 15.9354   5
  -5   3  -1 159.234 8.18069   4
   6  -3   1 42.5825 5.91965   6
  -6   3   1 35.4041 4.02402   7
  -6  -3  -1 31.7172 3.53197   6
   6  -3   1 38.5912 4.67994   4
  -6   3   1 33.7485 5.62473   6
   6  -3   1 42.8641 4.60389   7
  -6   3   1 36.4981 4.09729   4
   6   3  -1 36.6100 7.02822   7
  -6   3  -1 41.3589 4.43719   7
  -6  -3   1 37.6660 3.33362   6
  -6   3  -1 43.4558 5.72917   6
   6  -3  -1 49.4030 5.22998   6
  -6   3  -1 40.2267 4.67320   4
   7  -3   1 324.267 14.0507   4
   7   3  -1 315.189 14.4496   7
  -7   3   1 323.706 13.4073   4
  -7  -3  -1 308.257 12.4656   6
  -7   3   1 316.133 14.2607   6
   7  -3   1 313.984 13.6513   7
   7  -3   1 321.981 14.8622   6
  -7   3  -1 329.993 14.9461   6
   7  -3  -1 326.659 14.3803   6
  -7   3  -1 329.611 13.5143   4
   7   3   1 319.518 14.7492   7
  -7  -3   1 315.771 12.6424   6
   8  -3   1 9.03575 3.94964   6
  -8   3   1 9.28290 2.27890   4
  -8   3   1 14.1945 3.32665   6
  -8  -3   1 11.9738 2.08786   6
  -8   3  -1 7.55758 3.51758   6
  -8   3  -1 12.1650 2.49250   4
   8  -3  -1 9.35182 3.43186   6
   8   3   1 9.44902 3.48339   7
   9  -3   1 317.752 13.9157   6
  -9   3   1 315.097 13.3278   6
   9  -3  -1 333.302 13.7108   6
  -9   3  -1 334.901 13.7981   6
   0   4  -1 931.301 34.3382   2
   0   4  -1 855.011 33.9811   1
   0   4   1 911.206 33.3075   1
   0   4   1 884.185 33.4135   1
   0   4   1 895.508 35.8323   5
   0   4   1 957.678 33.9302   2
   0   4   1 894.656 35.0361   5
   0   4  -1 904.339 36.0685   5
   0   4  -1 906.736 33.5901   1
   0   4   1 882.382 34.0597   2
   0   4  -1 940.557 35.2273   5
   0   4  -1 908.550 35.1985   2
   1   4  -1 1791.46 62.1024   5
   1  -4   1 1723.89 62.5479   5
  -1   4   1 1642.47 63.1763   2
  -1   4   1 1686.76 65.1935   5
  -1   4   1 1737.13 64.0735   5
  -1   4   1 1624.73 63.1220   2
  -1   4   1 1564.17 61.9238   1
  -1   4   1 1620.35 61.9319   1
   1   4  -1 1686.91 62.7134   5
  -1   4  -1 1591.59 64.8595   5
  -1   4  -1 1723.73 63.4886   2
  -1   4  -1 1753.10 64.2871   2
  -1   4  -1 1787.15 64.7056   5
  -1   4  -1 1705.54 62.5185   1
  -1   4  -1 1701.22 62.1820   1
   1   4   1 1464.01 61.2273   5
   1   4   1 1737.94 61.9907   5
  -2   4   1 4612.58 165.662   5
  -2   4   1 4666.11 165.131   2
   2  -4   1 4805.59 164.695   5
  -2   4   1 4140.66 160.941   3
   2   4  -1 4207.92 161.775   2
  -2   4   1 4195.91 166.905   5
  -2   4   1 4741.48 165.081   2
   2  -4   1 4490.24 162.893   5
   2   4  -1 4381.72 162.040   5
  -2   4  -1 4448.61 164.861   2
   2  -4  -1 4367.70 162.249   5
   2  -4  -1 4723.88 162.891   5
  -2  -4   1 4439.74 161.628   2
  -2   4  -1 4638.41 165.974   5
  -2   4  -1 4411.47 161.067   3
  -2   4  -1 4721.79 165.720   2
  -2   4  -1 4136.39 162.930   1
   3   4  -1 689.266 27.9832   5
  -3   4   1 712.597 31.4169   5
   3  -4   1 648.067 28.9876   5
   3  -4   1 674.615 25.8987   6
  -3   4   1 704.205 25.2193   3
  -3   4   1 684.775 31.7813   2
   3  -4   1 643.868 29.9860   5
   3   4  -1 626.821 24.8189   1
   3   4  -1 652.134 25.5771   2
  -3   4   1 672.323 28.0230   1
   3   4   1 700.941 25.9200   5
  -3   4  -1 669.379 31.5869   2
  -3   4  -1 664.501 25.7366   4
  -3   4  -1 702.270 25.2432   3
  -3   4  -1 700.942 31.4931   5
  -3  -4   1 673.340 24.8034   1
  -3   4  -1 625.834 25.9952   7
   3  -4  -1 693.846 28.8128   5
  -3  -4   1 624.818 25.3304   2
   3  -4  -1 684.113 25.8084   6
   3  -4  -1 668.615 29.1050   5
  -3   4  -1 667.314 27.7716   1
   4  -4   1 27.6399 4.42492   4
   4   4  -1 26.0781 8.15503   5
  -4   4   1 28.0975 3.85037   4
   4  -4   1 40.5908 10.5841   5
   4  -4   1 30.6731 4.54504   6
  -4   4   1 29.4876 3.81442   7
  -4   4  -1 28.9380 3.98236   7
  -4   4  -1 30.0810 10.8735   5
   4  -4  -1 36.0571 8.95550   5
   4  -4  -1 34.2902 4.21264   6
  -4   4  -1 29.6925 4.00700   4
  -5   4   1 1131.67 40.5911   7
  -5   4   1 1059.03 40.7111   4
   5  -4   1 1100.42 41.3616   6
  -5   4   1 1073.52 41.6380   6
   5  -4   1 1045.03 40.5609   4
  -5   4  -1 1120.18 40.9991   4
  -5  -4   1 1071.53 39.7333   6
  -5   4  -1 1112.33 40.6334   7
  -5   4  -1 1067.91 41.6120   6
   6  -4   1 367.163 15.9780   6
  -6   4   1 366.502 15.0871   4
  -6   4   1 363.669 14.7456   7
  -6   4   1 371.506 16.4290   6
   6  -4   1 361.240 15.1494   4
   6  -4  -1 353.129 15.6214   6
  -6   4  -1 380.836 15.5095   4
  -6   4  -1 340.428 16.1992   6
  -6   4  -1 358.870 14.7450   7
  -7   4   1 447.880 18.6904   6
  -7   4   1 456.743 17.7872   4
   7  -4   1 439.128 18.7623   6
  -7   4   1 410.593 17.0263   7
   7  -4  -1 434.412 18.3198   6
  -7   4  -1 452.067 19.2172   6
  -7   4  -1 438.159 17.8421   4
   8  -4   1 132.270 7.98498   6
  -8   4   1 140.979 7.83162   6
  -8   4   1 138.924 6.90342   4
   8  -4  -1 132.169 7.64889   6
  -8   4  -1 141.473 7.07864   4
  -8   4  -1 145.630 8.61120   6
   8   4   1 134.967 8.83030   7
  -9   4   1 192.644 8.52825   6
   9  -4   1 180.989 8.73101   6
  -9   4   1 183.158 8.07972   4
  -9   4  -1 195.313 8.79257   6
   9  -4  -1 198.233 8.77651   6
   0   5  -1 2176.98 79.6445   5
   0   5   1 2056.87 79.9310   5
   0   5  -1 2040.50 76.9580   1
   0   5  -1 2034.29 80.2849   5
   0   5   1 2214.11 79.1030   5
   0   5   1 1974.09 75.6004   1
   0   5  -1 2179.48 78.6092   2
   0   5   1 2043.86 76.1951   2
   1   5  -1 1087.62 42.1017   1
   1   5  -1 1213.65 44.3340   5
  -1   5   1 1167.53 46.4177   5
   1   5  -1 1128.94 43.1196   2
   1   5  -1 1041.92 45.0462   5
  -1   5   1 1108.09 41.7373   3
  -1   5   1 1159.31 43.9721   1
  -1   5   1 1138.68 46.1481   2
   1   5   1 1187.71 43.8583   5
   1   5   1 1154.64 44.3775   5
  -1   5  -1 1164.77 47.0733   5
  -2   5   1 356.147 20.2815   5
   2  -5   1 320.676 14.1913   6
   2  -5   1 346.787 16.7758   5
  -2   5   1 332.796 13.5155   3
  -2   5  -1 361.900 13.6910   3
  -2   5  -1 348.724 20.2143   5
   2  -5  -1 350.142 14.0585   6
   3  -5   1 19.4958 3.40742   6
  -3   5   1 17.2707 3.13780   7
  -3   5   1 15.4879 2.46562   3
  -3   5   1 22.2788 3.44365   4
   3  -5   1 16.8044 9.31466   5
  -3   5   1 17.9588 9.83557   5
  -3   5  -1 12.0004 3.02464   4
  -3   5  -1 20.3367 11.0866   5
  -3   5  -1 18.3057 2.85347   3
   3  -5  -1 19.6378 3.08577   6
  -3   5  -1 22.5988 3.99738   7
   4  -5   1 297.674 24.4824   5
   4  -5   1 275.963 13.1945   6
   4  -5   1 298.821 13.1095   4
  -4   5   1 307.069 13.0691   4
  -4   5   1 311.280 12.9072   7
  -4   5  -1 337.924 13.3994   4
   4  -5  -1 257.890 12.8487   6
  -4   5  -1 315.104 12.8785   7
  -5   5   1 1021.31 46.9721   6
  -5   5   1 1281.78 45.3756   7
  -5   5   1 1239.23 45.4958   4
   5  -5   1 1215.70 45.8762   6
  -5   5  -1 1265.80 45.3616   7
  -5   5  -1 1221.36 45.6581   4
   5  -5  -1 1248.46 45.7317   6
  -5   5  -1 1203.28 46.4764   6
  -6   5   1 51.8007 4.72638   4
  -6   5   1 46.2047 7.18524   6
   6  -5   1 51.0454 5.76057   6
  -6   5   1 50.0785 4.74322   7
  -6   5  -1 48.3594 7.20337   6
   6  -5  -1 54.4753 5.39833   6
  -6   5  -1 62.9768 5.42596   4
  -6   5  -1 58.2608 4.80158   7
  -7   5   1 62.9908 6.26848   6
   7  -5   1 47.3797 5.70329   6
  -7   5   1 54.8289 4.82288   4
  -7   5  -1 41.0928 5.67505   6
  -7   5  -1 53.1994 5.05114   4
  -7   5  -1 55.6884 4.36065   7
   7  -5  -1 50.1177 5.11419   6
   8  -5   1 466.995 18.6600   6
  -8   5   1 484.708 18.7827   6
  -8   5   1 468.412 17.9818   4
  -8   5  -1 437.292 18.7049   6
  -8   5  -1 464.294 18.0400   4
   8  -5  -1 446.174 18.4272   6
   0  -6   1 50.1605 5.00219   6
   0   6  -1 40.8732 11.2784   5
  -1   6   1 811.027 39.2254   5
  -1   6   1 818.677 31.2418   3
   1  -6   1 847.769 31.7026   6
  -1   6  -1 871.195 40.2085   5
   1  -6  -1 827.287 31.3359   6
  -1   6  -1 867.137 31.4130   3
  -2   6   1 2965.14 102.414   4
  -2   6   1 2688.61 110.250   5
   2  -6   1 2880.71 102.230   6
  -2   6   1 2727.36 102.156   7
  -2   6   1 2755.87 101.757   3
  -2   6  -1 2716.81 102.124   7
  -2   6  -1 2765.85 111.386   5
   2  -6  -1 2870.33 101.923   6
  -2   6  -1 2901.11 101.933   3
  -3   6   1 257.085 12.8472   7
  -3   6   1 305.053 13.3314   4
   3  -6   1 324.806 13.4082   6
  -3   6  -1 304.621 13.0828   7
   3  -6  -1 313.115 12.9745   6
  -3   6  -1 318.160 13.4053   4
  -3   6  -1 304.489 12.6635   3
   4  -6   1 1520.66 56.7143   6
  -4   6   1 1499.49 56.3393   7
  -4   6   1 1554.50 56.5569   4
   4  -6  -1 1524.65 56.4630   6
  -4   6  -1 1483.07 56.6164   4
  -4   6  -1 1540.38 56.4460   7
  -5   6   1 286.072 12.4245   7
  -5   6   1 276.637 12.4116   4
   5  -6   1 278.970 12.8503   6
  -5   6  -1 268.945 12.6878   4
   5  -6  -1 293.674 12.7179   6
  -5   6  -1 284.554 12.4435   7
  -6   6   1 639.779 25.3005   4
  -6   6   1 676.237 25.1944   7
   6  -6   1 660.986 25.8794   6
   6  -6  -1 674.016 25.7147   6
  -6   6  -1 650.084 25.6443   4
  -6   6  -1 591.252 26.5670   6
  -6   6  -1 655.812 25.0785   7
  -7   6   1 1290.10 49.0695   7
  -7   6   1 1367.70 49.6371   4
   7  -6   1 1327.61 50.0345   6
  -7   6   1 1355.20 50.0116   6
  -7   6  -1 1334.04 50.2590   6
   7  -6  -1 1419.88 50.0141   6
  -7   6  -1 1359.71 49.7281   4
  -7   6  -1 1270.15 48.9072   7
  -8   6   1 257.730 10.4302   4
   8  -6   1 251.581 10.9223   6
  -8   6   1 246.169 11.0275   6
  -8   6  -1 247.794 10.3809   4
  -8   6  -1 259.360 11.2016   6
   8  -6  -1 264.647 10.7492   6
   0   7   1 1388.12 46.0187   3
   0  -7   1 1106.21 45.7722   6
  -1   7   1 149.779 7.09169   3
   1  -7   1 152.063 7.72341   6
  -1   7  -1 140.669 8.72313   7
   1  -7  -1 143.376 7.24926   6
  -1   7  -1 145.727 7.17966   3
  -2   7   1 741.867 29.1128   7
   2  -7   1 797.988 28.9282   6
  -2   7   1 744.522 28.4864   3
  -2   7   1 741.586 29.1469   4
  -2   7  -1 747.038 28.5872   3
   2  -7  -1 763.992 28.3967   6
  -2   7  -1 741.318 29.2003   4
  -2   7  -1 727.999 28.9528   7
  -3   7   1 431.780 17.7760   4
   3  -7   1 425.089 17.5545   6
  -3   7   1 419.407 17.5403   7
  -3   7  -1 413.559 17.6043   7
  -3   7  -1 433.580 17.9721   4
   3  -7  -1 441.758 17.3074   6
  -3   7  -1 434.632 17.3191   3
  -4   7   1 84.6554 6.20282   4
  -4   7   1 89.7742 6.05513   7
   4  -7   1 83.9594 6.22514   6
   4  -7  -1 82.4432 5.81808   6
  -4   7  -1 84.7630 6.04929   7
  -4   7  -1 85.6032 6.37762   4
  -5   7   1 34.1708 4.22181   4
  -5   7   1 37.1326 4.26967   7
   5  -7   1 32.1710 4.79059   6
  -5   7  -1 31.0896 4.87067   4
   5  -7  -1 35.0217 4.32709   6
  -5   7  -1 33.1597 4.48612   7
  -6   7   1 557.942 21.7871   4
   6  -7   1 573.143 22.0603   6
  -6   7  -1 570.051 22.0092   4
   6  -7  -1 543.531 21.6876   6
  -6   7  -1 532.806 21.4023   7
  -7   7   1 158.241 6.87035   7
  -7   7   1 157.463 7.23573   4
   7  -7   1 157.104 7.59932   6
   7  -7  -1 170.033 7.48057   6
  -7   7  -1 160.500 7.42084   4
  -7   7  -1 149.209 6.70004   7
   0   8   1 1810.93 66.0264   3
   0   8  -1 1802.19 66.1409   3
  -1   8   1 79.1876 5.18611   3
  -1   8  -1 88.2125 5.33855   3
  -1   8  -1 75.1856 6.42373   7
  -2   8   1 117.339 7.42153   7
   2  -8   1 118.900 6.63859   6
  -2   8   1 108.651 7.80438   4
  -2   8  -1 112.811 7.12831   7
  -2   8  -1 119.469 6.52743   3
  -2   8  -1 120.852 7.89793   4
  -3   8   1 167.871 8.77223   7
   3  -8   1 172.387 8.37701   6
  -3   8   1 158.897 8.57569   4
  -3   8  -1 171.922 8.80584   7
  -3   8  -1 165.231 8.90593   4
   3  -8  -1 179.654 7.88856   6
   4  -8   1 157.049 7.98401   6
  -4   8   1 173.422 8.35928   7
  -4   8   1 168.360 8.33427   4
  -4   8  -1 161.924 8.29765   7
   4  -8  -1 149.885 7.55865   6
  -4   8  -1 143.562 8.43391   4
   5  -8   1 81.7012 5.23697   6
  -5   8   1 72.7040 5.13012   4
  -5   8   1 72.6785 5.04536   7
  -5   8  -1 78.1357 5.21629   7
   5  -8  -1 80.2891 4.71946   6
  -5   8  -1 72.6397 5.43885   4
  -6   8   1 335.232 12.6243   7
  -6   8   1 340.603 12.8486   4
   6  -8   1 296.950 12.6270   6
  -6   8  -1 304.804 12.4903   7
   6  -8  -1 289.451 12.3427   6
  -6   8  -1 324.811 12.9009   4
   0   9   1 579.707 21.9974   3
   0   9  -1 581.139 22.0373   3
   0   9  -1 547.983 22.4953   7
   1   9  -1 101.060 6.29684   3
  -1   9   1 116.299 7.65181   7
  -1   9  -1 106.750 6.12155   3
  -1   9  -1 116.689 7.17981   7
  -2   9   1 104.525 6.68675   7
   2   9  -1 100.876 6.36316   3
  -2   9  -1 98.0424 5.81217   3
  -2   9  -1 93.9601 6.36882   7
  -2   9  -1 109.000 7.30154   4
  -3   9   1 302.549 13.0602   7
  -3   9   1 326.325 13.0438   4
  -3   9  -1 314.272 13.3185   7
  -3   9  -1 299.294 13.1649   4
  -4   9   1 160.418 7.52248   7
   4  -9   1 149.453 6.59029   6
  -4   9   1 162.933 7.34424   4
  -4   9  -1 144.208 7.41009   4
  -4   9  -1 154.598 7.53200   7
  -5   9   1 192.451 8.23945   7
  -5   9  -1 195.063 8.28216   7
   0  10  -1 114.933 7.30881   7
   0  10  -1 121.347 6.21999   3
  -1  10   1 277.677 11.8820   7
   1  10  -1 275.480 11.5051   3
  -1  10  -1 267.491 11.6141   7
  -2  10   1 1121.42 41.2506   7
  -2  10  -1 1112.72 41.3117   7
  -1   0   2 51.9000 2.43151   1
   1   0   2 47.9843 3.13438   5
  -1   0  -2 49.4753 2.82029   5
  -1   0  -2 46.1204 3.31043   5
   1   0   2 48.5100 2.89639   5
   1   0  -2 51.8235 3.52871   5
   1   0  -2 46.0565 3.15728   2
   1   0   2 43.5562 3.06243   2
   1   0   2 45.6995 2.50003   1
  -1   0   2 46.6037 2.77617   2
  -1   0   2 44.9889 3.61544   5
   2   0  -2 175.188 8.93817   2
   2   0  -2 178.598 7.86188   1
  -2   0   2 184.084 7.52487   1
  -2   0  -2 175.986 8.49759   5
  -2   0   2 183.687 8.37217   2
  -2   0   2 159.007 9.21403   5
   2   0   2 164.655 8.35045   5
   2   0  -2 169.369 8.64496   5
   2   0   2 171.411 8.77096   5
  -2   0  -2 185.277 8.06519   5
  -3   0  -2 5512.86 210.412   5
  -3   0   2 5654.12 212.380   5
  -3   0  -2 6046.28 211.423   2
   3   0   2 5971.90 212.108   5
  -3   0  -2 5964.95 211.072   5
  -3   0   2 6176.41 211.305   2
   3   0  -2 5727.74 211.513   5
   3   0   2 5490.22 211.297   5
   3   0  -2 5747.01 211.800   2
   3   0  -2 5866.68 212.442   5
   4   0  -2 1555.03 60.7597   2
   4   0  -2 1600.63 60.4612   5
  -4   0   2 1638.99 58.1260   1
  -4   0   2 1617.15 59.9041   2
  -4   0  -2 1554.87 58.2116   1
  -4   0   2 1432.98 61.5273   5
  -4   0  -2 1514.70 60.0287   2
  -4   0  -2 1615.28 59.1127   5
   4   0   2 1669.59 61.3484   5
   4   0  -2 1446.71 61.8753   5
   4   0   2 1422.70 60.4033   5
   4   0  -2 1516.16 58.5704   1
  -5   0  -2 1279.84 47.9655   6
   5   0   2 1317.99 48.3838   4
   5   0  -2 1156.19 50.2176   1
  -5   0   2 1265.66 52.4041   2
   5   0   2 1310.91 54.2426   5
  -5   0   2 1363.64 47.8722   6
  -5   0   2 1423.46 47.6176   4
   5   0  -2 1353.59 53.3743   5
  -5   0   2 1314.10 49.9161   1
   5   0  -2 1288.58 47.8213   7
   5   0  -2 1150.31 53.8869   2
  -6   0  -2 28.0770 3.75730   6
   6   0  -2 19.9338 11.5215   5
   6   0   2 23.8707 3.84792   7
  -6   0   2 25.6774 3.00256   4
  -6   0   2 22.3688 3.61302   6
   6   0   2 23.1961 3.74905   4
   6   0  -2 24.2767 3.47485   7
   6   0   2 32.2733 14.1643   5
   7   0   2 349.218 15.6132   7
  -7   0  -2 364.239 15.6770   6
   7   0   2 377.504 15.7289   4
  -7   0   2 373.383 15.2086   6
  -8   0  -2 13.3330 3.09536   6
   8   0   2 18.3128 4.05220   4
   8   0   2 17.0404 3.46067   7
  -8   0   2 13.2112 2.67665   6
   9   0   2 385.947 16.6404   7
  -9   0  -2 407.548 16.0971   6
  -9   0   2 414.397 15.9962   6
 -10   0  -2 19.6539 2.24986   6
 -10   0   2 21.0120 2.31101   6
   0  -1   2 2927.92 106.377   5
   0   1  -2 2885.26 106.218   5
   0   1  -2 2914.93 106.018   5
   0  -1   2 2938.05 106.109   5
   0  -1  -2 2937.77 105.854   2
   0  -1   2 3140.93 106.252   2
   0   1   2 2982.88 105.576   2
   0   1  -2 2968.43 105.887   2
   0   1   2 2691.75 105.908   5
   1  -1   2 4822.45 176.153   2
  -1   1   2 4711.10 176.386   5
   1   1  -2 4673.49 175.689   2
  -1   1   2 4832.71 175.817   2
   1  -1  -2 5295.70 176.456   2
  -1   1  -2 4892.89 176.197   5
   1  -1  -2 4879.67 176.286   5
  -2   1   2 9368.74 345.299   5
  -2   1   2 9139.45 344.114   2
   2  -1   2 9601.91 344.000   5
  -2   1  -2 9654.05 344.269   2
   2  -1  -2 9999.99 344.813   2
   3  -1   2 1361.93 55.4224   5
  -3   1   2 1392.84 53.9859   1
   3  -1   2 1543.00 56.7064   5
  -3  -1  -2 1460.23 54.1154   2
  -3   1   2 1430.01 55.4077   2
  -3  -1  -2 1444.59 53.4840   1
   3   1  -2 1498.29 55.3223   5
  -3  -1  -2 1542.77 54.6608   2
  -3   1   2 1355.59 56.8341   5
   3   1  -2 1406.74 55.3801   2
   3   1  -2 1418.39 54.0385   1
  -3   1  -2 1438.98 55.5755   5
  -3  -1   2 1471.26 55.6309   5
  -3   1  -2 1386.53 54.1694   1
   3   1   2 1544.56 55.4096   5
   3  -1  -2 1371.65 55.9070   2
   3  -1  -2 1420.45 56.4988   5
  -3   1  -2 1464.31 55.4631   2
  -3   1  -2 1425.32 54.1155   1
   3   1   2 1459.05 54.8564   5
  -3   1  -2 1535.46 56.1166   5
  -3  -1   2 1469.54 53.3940   1
  -3  -1   2 1532.91 54.4051   2
   3  -1  -2 1390.82 54.3843   1
  -3   1  -2 1404.63 55.7580   2
   3  -1  -2 1508.61 55.6379   5
  -4   1   2 1818.07 66.4068   1
   4   1  -2 1788.41 66.4871   1
  -4   1   2 1605.85 70.5163   5
  -4  -1  -2 1847.04 64.5124   5
  -4  -1  -2 1747.86 65.6792   1
   4   1  -2 1748.47 68.4371   2
  -4  -1  -2 1811.55 67.4007   2
   4  -1   2 1805.82 69.5062   5
   4   1  -2 1639.20 69.3892   5
  -4  -1  -2 1701.14 65.3910   1
  -4  -1  -2 1777.51 66.8126   2
  -4   1   2 1828.09 68.4478   2
   4   1  -2 1925.68 68.4797   5
   4   1   2 1829.70 68.4486   5
   4  -1  -2 1744.03 69.2086   2
  -4   1  -2 1866.09 69.1763   2
  -4   1  -2 1812.57 66.8055   1
  -4   1  -2 1723.48 66.3476   1
  -4  -1   2 1788.73 65.4428   1
   4   1   2 1678.11 68.0280   5
  -4   1  -2 1631.90 68.0784   5
  -4   1  -2 1950.62 69.0528   5
   4  -1  -2 1724.18 66.7395   1
  -4  -1   2 1626.73 68.1664   5
   4  -1  -2 1895.13 68.7948   5
  -4  -1   2 1750.24 66.7172   2
  -4   1  -2 1694.62 68.0465   2
  -5   1   2 755.600 27.5606   7
   5  -1   2 691.291 28.1694   4
   5  -1   2 745.361 28.5039   7
   5   1  -2 766.920 33.3015   5
   5  -1   2 772.329 35.7047   5
  -5   1   2 752.408 30.5900   1
  -5  -1  -2 726.371 28.0675   6
   5   1  -2 691.344 28.1618   7
  -5   1   2 727.047 34.4583   2
  -5   1   2 738.197 28.2775   6
  -5   1   2 751.629 27.6871   4
   5   1   2 760.860 34.6881   5
   5  -1  -2 751.500 28.1013   7
  -5   1  -2 693.937 27.9344   4
  -5   1  -2 754.587 28.4783   6
  -5  -1   2 741.087 27.7822   6
   5  -1  -2 753.960 33.5477   5
   6   1  -2 713.203 27.5996   7
   6   1  -2 689.220 36.1922   5
   6  -1   2 716.036 27.8340   7
   6  -1   2 713.409 27.7697   4
  -6   1   2 726.747 26.9177   4
  -6   1   2 710.130 27.5864   6
  -6  -1  -2 720.389 27.5314   6
   6   1   2 756.323 39.9702   5
  -6  -1   2 750.984 27.2204   6
   6   1   2 689.737 28.0316   7
  -6   1  -2 709.343 27.2026   4
  -6   1  -2 717.364 27.9860   6
   6   1   2 705.134 27.9793   4
   6  -1  -2 721.835 28.0918   6
   6  -1  -2 695.027 27.5923   7
  -7   1   2 1443.43 52.5614   4
   7  -1   2 1371.11 53.3773   7
   7  -1   2 1433.73 53.5298   4
  -7   1   2 1447.90 53.3125   6
  -7  -1  -2 1466.95 53.1895   6
   7   1   2 1429.45 53.4245   4
   7   1   2 1385.06 53.5591   7
  -7  -1   2 1435.27 52.7639   6
  -7   1  -2 1497.44 53.8376   6
   7  -1  -2 1401.72 53.5262   6
   8  -1   2 85.1891 6.25672   7
  -8   1   2 91.2156 5.72675   6
  -8  -1  -2 83.7567 5.56426   6
   8  -1   2 85.4869 6.61227   4
   8  -1  -2 77.6399 7.31105   6
   8   1   2 80.5208 6.55913   7
  -8  -1   2 84.2091 5.07294   6
  -8   1  -2 78.1248 6.69941   6
  -9   1   2 27.4488 3.60212   6
   9  -1   2 29.0132 4.38953   7
  -9  -1  -2 32.6941 3.14380   6
   9   1   2 27.7931 4.70355   7
  -9  -1   2 24.9856 3.08546   6
  -9   1  -2 24.6954 3.92013   6
 -10   1   2 1117.89 41.4667   6
 -10   1  -2 1145.61 41.4571   6
 -10  -1   2 1135.84 41.1834   6
   0  -2   2 240.338 11.0674   2
   0   2   2 279.319 10.2233   2
   0   2  -2 260.262 11.3422   5
   0  -2   2 273.581 10.5262   1
   0  -2  -2 258.653 10.5941   2
   0  -2   2 256.678 11.1262   5
   0  -2   2 260.749 11.4939   5
   0   2   2 276.615 9.87093   1
   0   2  -2 258.872 10.8669   5
   0   2  -2 261.374 10.1820   1
   0   2   2 246.100 10.4812   5
   0  -2  -2 252.174 10.0617   1
   0   2  -2 262.272 10.7400   2
   1  -2   2 3916.83 137.734   5
  -1   2   2 3723.04 138.741   5
   1   2  -2 3835.93 137.715   5
  -1   2   2 3856.95 138.010   2
   1  -2   2 3784.34 138.880   5
   1   2  -2 3824.08 137.557   2
   1   2  -2 3619.04 137.782   5
  -1   2  -2 3708.70 138.643   5
   1  -2  -2 3788.08 138.243   2
  -1  -2   2 3885.53 137.472   2
   1  -2  -2 3897.85 137.562   5
  -1  -2   2 3699.20 137.666   5
  -1   2  -2 3848.20 138.190   2
   1  -2  -2 3802.01 137.874   5
  -1   2  -2 3931.02 138.463   5
  -1  -2   2 3702.75 137.616   5
   2   2  -2 3089.20 117.807   5
   2  -2   2 3144.09 117.800   5
  -2   2   2 3141.96 119.732   5
   2   2  -2 3345.59 118.253   2
  -2   2   2 3381.86 118.577   2
  -2  -2  -2 3199.66 115.981   2
   2  -2   2 3384.30 119.490   5
   2  -2  -2 3307.06 118.781   5
   2   2   2 3166.27 116.521   5
  -2  -2   2 3122.64 116.760   2
  -2   2  -2 3375.92 118.871   2
  -2   2  -2 3294.88 118.622   2
   2  -2  -2 3291.95 118.738   2
  -2  -2   2 3313.70 116.999   5
   2   2   2 3090.72 116.492   5
  -2   2  -2 3308.75 119.259   5
  -2   2  -2 3094.88 118.971   5
   2  -2  -2 3259.78 118.061   5
  -2  -2   2 2963.38 117.334   5
  -3   2   2 423.701 19.4818   2
  -3   2   2 378.830 21.2604   5
   3   2  -2 439.600 17.4103   1
   3  -2   2 406.469 18.9768   5
  -3  -2  -2 408.541 15.9136   1
   3   2  -2 425.443 18.4582   5
   3   2  -2 422.470 19.0046   2
  -3  -2  -2 399.760 16.3625   2
  -3  -2  -2 437.417 16.1945   1
   3  -2   2 430.936 20.3414   5
  -3   2   2 422.820 17.6307   1
  -3  -2  -2 425.421 16.9239   2
   3  -2  -2 435.031 18.0270   1
   3  -2  -2 418.730 19.0043   5
  -3   2  -2 416.815 16.0672   3
  -3   2  -2 426.443 17.7507   1
  -3  -2   2 369.479 16.0633   1
  -3   2  -2 440.093 18.0739   1
   3   2   2 459.991 18.0159   5
   3  -2  -2 390.345 20.1845   5
  -3   2  -2 438.665 20.1713   5
  -3  -2   2 418.648 17.0948   2
   3   2   2 438.933 18.2396   5
  -3  -2   2 450.060 17.0493   5
  -3   2  -2 395.219 20.3752   5
  -3  -2   2 480.018 18.2717   5
  -3   2  -2 436.468 20.2996   2
   3  -2  -2 424.878 20.1784   2
  -3   2  -2 423.222 19.6926   2
  -4  -2  -2 2230.02 83.9467   1
   4   2  -2 2408.59 87.1463   5
   4  -2   2 2426.62 89.6593   5
  -4  -2  -2 2324.30 85.0450   2
  -4   2   2 2223.49 85.6807   1
   4   2  -2 2380.38 87.6352   2
  -4   2   2 2351.32 88.3560   2
  -4  -2  -2 2176.44 83.7303   1
   4   2  -2 2288.45 85.4609   1
  -4  -2  -2 2299.15 84.6825   2
  -4  -2   2 2344.86 85.0847   2
   4  -2  -2 2154.89 85.9197   1
  -4   2  -2 2535.89 89.4145   5
  -4   2  -2 2247.76 88.4885   2
  -4  -2   2 2297.66 85.2405   5
   4   2   2 2151.07 86.6785   5
   4  -2  -2 2425.83 88.0040   5
   4  -2  -2 2210.28 88.8588   2
  -4  -2   2 2229.39 83.9956   1
  -4   2  -2 2222.15 86.0322   1
   4   2   2 2420.51 87.3341   5
   5  -2   2 1217.54 44.7986   7
   5   2  -2 1213.82 49.7370   5
   5  -2   2 1202.52 44.7908   4
   5  -2   2 1206.13 52.4751   5
  -5   2   2 1221.58 44.3997   4
   5   2  -2 1094.00 45.1798   7
   5  -2   2 1154.05 45.5007   6
  -5   2   2 1226.38 45.0909   6
  -5   2   2 1184.87 44.1416   7
  -5  -2  -2 1240.78 44.3676   6
   5   2   2 1209.50 51.0263   5
  -5   2  -2 1233.54 44.1723   7
   5  -2  -2 1212.24 44.9675   6
   5  -2  -2 1238.45 50.8317   5
  -5  -2   2 1188.27 44.0291   6
  -5   2  -2 1226.53 49.4509   1
  -5   2  -2 1241.64 44.7110   4
  -5   2  -2 1196.96 45.1824   6
  -5   2  -2 1119.89 54.4337   2
   6  -2   2 123.696 8.88938   6
   6   2  -2 123.559 25.0125   5
   6  -2   2 119.784 6.96878   7
   6   2  -2 115.687 7.59563   7
  -6   2   2 96.2684 6.77714   6
  -6   2   2 123.222 6.21500   7
  -6   2   2 125.147 6.29023   4
   6  -2   2 123.340 7.35200   4
  -6   2  -2 122.870 7.49440   6
  -6   2  -2 125.150 6.92809   4
   6   2   2 117.315 9.19317   4
   6  -2  -2 124.110 7.42587   6
  -6  -2   2 99.1634 5.64220   6
  -7  -2  -2 1434.35 52.8193   6
   7  -2   2 1450.01 53.5793   7
   7  -2   2 1444.51 54.5431   6
   7  -2   2 1471.70 53.8028   4
  -7   2   2 1483.89 52.9948   4
  -7   2   2 1406.62 53.6932   6
  -7  -2   2 1420.38 52.7430   6
   7   2   2 1446.76 53.7201   4
   7  -2  -2 1438.46 53.9005   6
  -7   2  -2 1472.96 54.3677   6
   7   2   2 1374.59 53.9170   7
  -7   2  -2 1424.75 53.0606   4
  -8  -2  -2 55.4948 4.02292   6
  -8   2   2 55.7599 4.69829   4
   8  -2   2 60.2396 5.26922   7
   8  -2   2 55.8235 8.47379   6
  -8   2   2 54.6305 4.94556   6
   8  -2   2 59.7531 5.79822   4
  -8   2  -2 52.4299 5.97829   6
  -8  -2   2 63.8693 4.15715   6
   8   2   2 56.8206 5.81670   7
   8  -2  -2 61.5193 5.90399   6
  -9   2   2 118.813 6.23467   6
   9  -2  -2 109.552 7.18522   6
   9   2   2 114.868 6.91779   7
  -9   2  -2 116.879 6.72441   6
  -9  -2   2 115.058 5.46818   6
   0   3   2 174.282 8.75826   5
   0   3   2 185.497 7.59180   2
   0  -3   2 180.286 8.88720   5
   0   3  -2 191.676 7.63670   1
   0   3  -2 177.942 8.35181   2
   0  -3   2 186.815 8.05112   1
   0   3  -2 185.799 9.50644   5
   0  -3   2 187.270 9.15002   5
   0   3   2 179.645 8.42722   5
   0   3  -2 182.824 8.62523   5
   0   3   2 181.673 7.11416   1
   0  -3   2 167.261 8.86734   2
   1   3  -2 5622.28 205.913   2
   1   3  -2 5719.23 206.398   5
  -1   3   2 5907.63 206.583   2
   1  -3   2 6017.70 207.726   5
   1  -3   2 5700.96 207.463   2
  -1   3   2 5845.66 207.192   5
  -1   3   2 5758.65 207.933   5
  -1  -3   2 5774.56 206.271   2
  -1   3  -2 4937.07 206.624   2
  -1   3  -2 5618.59 207.754   5
  -1   3  -2 5702.08 207.533   5
   1  -3  -2 5861.36 206.701   2
   2   3  -2 18.2172 3.85531   2
   2  -3   2 20.9222 4.04970   5
   2  -3   2 23.0035 5.18486   5
  -2   3   2 19.9230 2.51572   1
  -2   3   2 14.7543 3.20235   2
  -2   3   2 19.8257 2.29019   3
   2   3  -2 22.4943 4.21162   5
  -2   3  -2 30.3128 5.53266   5
  -2   3  -2 24.7681 2.77397   1
  -2  -3   2 18.8951 2.81576   2
  -2   3  -2 23.6256 2.64120   1
  -2   3  -2 17.2141 3.74436   2
   2   3   2 23.8108 1.71047   5
   2  -3  -2 15.4000 4.39839   5
  -2   3  -2 24.8629 5.94707   5
  -2  -3   2 20.6362 1.71197   1
   2   3   2 19.8791 1.77668   5
  -2   3  -2 14.4189 3.74643   2
  -2   3  -2 21.5342 2.21089   3
  -3   3   2 248.371 11.5293   1
   3   3  -2 236.649 12.8700   2
   3  -3   2 246.441 14.5938   5
   3   3  -2 242.551 10.6472   1
  -3   3   2 230.877 13.8703   2
   3   3  -2 225.232 12.5074   5
   3  -3   2 214.000 12.9571   5
  -3   3  -2 231.688 9.48548   3
  -3  -3   2 231.014 10.5087   2
   3  -3  -2 232.398 14.1521   2
   3  -3  -2 239.590 11.3427   1
   3  -3  -2 199.611 14.8719   5
   3   3   2 245.442 11.1996   5
  -3  -3   2 235.351 9.52282   1
   3   3   2 231.081 10.8974   5
   3  -3  -2 244.439 12.8769   5
  -3   3  -2 230.148 14.3941   5
   4  -3   2 483.591 25.2498   5
  -4   3   2 471.382 18.6143   4
   4  -3   2 489.962 18.8333   7
   4  -3   2 482.492 19.4302   6
   4   3  -2 491.256 22.5277   5
   4  -3   2 455.636 18.8153   4
  -4   3   2 473.194 18.4723   7
  -4   3  -2 465.522 21.0977   1
   4  -3  -2 472.865 18.9272   6
   4  -3  -2 481.392 22.9490   5
   4   3   2 451.637 23.3899   5
   4   3   2 491.712 22.3019   5
  -4   3  -2 473.372 25.2103   5
  -4   3  -2 474.431 18.8303   4
  -4   3  -2 458.502 25.9992   2
  -4   3  -2 469.558 18.5380   7
  -4  -3   2 468.328 17.9337   6
  -4   3  -2 529.493 20.0621   6
   5  -3   2 221.372 9.86207   7
   5  -3   2 241.045 10.8971   6
  -5   3   2 210.033 9.34233   4
  -5   3   2 216.373 10.6854   6
   5  -3   2 197.789 9.83372   4
   5   3  -2 198.040 17.1809   5
   5  -3   2 186.547 20.8939   5
  -5   3   2 216.074 9.33195   7
   5  -3  -2 204.971 9.91242   6
  -5  -3   2 210.296 8.69811   6
   5  -3  -2 200.255 18.2571   5
  -5   3  -2 189.289 19.4329   5
  -5   3  -2 204.879 10.7318   6
  -5   3  -2 221.202 9.52529   7
  -5   3  -2 216.881 9.96556   4
   6  -3   2 195.696 9.78622   4
  -6   3   2 211.783 8.89250   7
  -6   3   2 199.671 9.03059   4
  -6   3   2 191.737 9.87860   6
   6  -3   2 200.935 10.4187   6
  -6  -3  -2 186.136 8.89051   6
   6   3  -2 170.391 10.6177   7
   6  -3   2 201.072 9.42565   7
  -6   3  -2 196.131 10.5052   6
  -6   3  -2 197.210 9.45292   4
  -6  -3   2 190.478 8.32471   6
   6  -3  -2 201.879 9.80748   6
  -6   3  -2 201.901 9.05771   7
  -7   3   2 69.9875 5.96074   6
   7  -3   2 68.1423 7.28807   6
   7  -3   2 65.1543 5.23089   7
  -7   3   2 74.4151 4.81364   4
   7  -3   2 64.2787 5.75645   4
  -7   3   2 64.2566 4.84977   7
   7   3   2 71.2138 7.84745   7
   7  -3  -2 73.6454 5.96366   6
  -7   3  -2 72.2212 7.11667   6
  -7   3  -2 62.6935 5.31343   4
  -7  -3   2 65.2323 4.27710   6
  -8   3   2 60.6158 4.33579   4
   8  -3   2 59.0124 6.75220   6
  -8   3   2 55.6544 5.16744   6
  -8  -3   2 66.1935 3.99172   6
  -8   3  -2 46.5980 4.40728   4
  -8   3  -2 56.8150 6.21114   6
   8   3   2 42.5817 6.01135   7
   8  -3  -2 54.6920 5.27668   6
   9  -3   2 241.873 11.6227   6
  -9   3   2 262.156 10.9176   6
   9   3   2 240.749 11.3618   7
  -9   3  -2 250.258 11.2506   6
   9  -3  -2 265.357 11.0935   6
   0   4  -2 1341.23 49.5262   2
   0   4  -2 1246.68 51.1088   5
   0  -4   2 1396.18 49.0100   5
   0   4  -2 1300.39 48.6624   1
   0  -4   2 1256.64 49.2922   1
   0   4   2 1385.34 48.6845   2
   0   4  -2 1338.62 50.4079   5
   0   4   2 1284.13 50.6287   5
   0  -4   2 1288.15 50.6741   2
   0   4   2 1379.93 48.3908   2
   0  -4   2 1270.30 48.4981   5
   0   4   2 1365.83 50.0683   5
   1   4  -2 2422.26 87.1001   5
   1   4  -2 2346.40 87.8260   5
  -1   4   2 2429.84 88.6380   5
   1  -4   2 2466.47 88.2830   5
   1  -4   2 2481.02 87.3263   5
  -1   4   2 2471.64 87.5764   2
  -1   4   2 2221.89 86.4472   1
  -1   4   2 2392.30 87.8635   2
  -1   4   2 2214.42 89.5184   5
   1   4   2 2397.42 86.0025   5
  -1   4  -2 2267.45 87.1698   1
  -1  -4   2 2264.79 87.2743   2
  -1   4  -2 2373.11 86.8085   1
  -1   4  -2 2304.51 88.8015   2
  -1   4  -2 2429.10 88.2574   2
  -1   4  -2 2237.10 89.4467   5
  -1   4  -2 2469.82 89.5377   5
   1   4   2 2363.48 86.3085   5
  -2   4   2 7.83612 2.54542   1
  -2   4   2 6.14034 4.96542   2
  -2   4   2 7.33811 1.89678   3
  -2   4   2 5.75381 4.63050   5
   2  -4   2 6.07076 4.51542   5
   2  -4   2 7.63483 5.32530   5
   2   4  -2 0.39635 4.47315   2
  -2   4   2 12.5058 4.77570   2
  -2   4  -2 3.86546 5.33061   5
  -2   4  -2 9.95871 4.73393   2
   2  -4  -2 5.17258 3.32443   5
  -2   4  -2 6.90476 5.05418   2
  -2   4  -2 7.83741 1.83628   3
   2  -4  -2 3.75210 3.13882   5
  -2  -4   2 9.04082 1.60501   1
  -2  -4   2 12.0028 3.22272   2
  -2   4  -2 6.34461 2.26871   1
   3   4  -2 56.1458 7.79121   5
   3  -4   2 68.8011 5.77060   4
   3  -4   2 65.1761 5.26033   6
   3  -4   2 87.4150 11.4740   5
  -3   4   2 59.7522 5.42907   4
   3  -4  -2 62.5482 8.07072   5
   3   4   2 65.9914 5.12417   5
  -3   4  -2 62.6213 12.5845   2
  -3   4  -2 65.1807 11.1133   5
  -3   4  -2 65.5239 5.79650   1
   3  -4  -2 74.4748 12.0628   5
  -3   4  -2 73.3751 4.84510   7
   3  -4  -2 64.9377 5.00738   6
  -4   4   2 2527.10 92.1879   7
   4  -4   2 2459.03 91.7928   7
   4  -4   2 2497.14 99.3105   5
   4   4  -2 2461.18 97.1884   5
   4  -4   2 2491.80 92.2974   4
   4  -4   2 2546.49 92.8475   6
  -4   4   2 2618.88 92.3970   4
  -4   4  -2 2523.41 93.2260   6
  -4   4  -2 2516.85 100.682   5
  -4   4  -2 2531.09 92.5538   4
   4  -4  -2 2667.41 92.5709   6
  -4  -4   2 2496.81 91.6368   6
  -4   4  -2 2613.80 92.3227   7
   4  -4  -2 2554.67 96.4271   5
   5  -4   2 1710.58 61.2417   6
  -5   4   2 1500.95 60.8899   6
   5  -4   2 1636.44 60.4154   4
   5  -4   2 1643.92 59.9136   7
  -5   4   2 1658.73 60.1739   7
  -5   4   2 1610.46 60.3128   4
   5  -4  -2 1667.63 60.6947   6
  -5  -4   2 1622.36 59.5760   6
  -5   4  -2 1661.87 60.7221   4
  -5   4  -2 1698.83 60.2848   7
  -5   4  -2 1604.22 61.2741   6
  -6   4   2 62.8128 4.73329   4
   6  -4   2 65.0935 5.75108   4
  -6   4   2 63.7201 6.22671   6
  -6   4   2 58.5280 4.63575   7
   6  -4   2 63.5334 6.23310   6
   6  -4  -2 57.0030 5.49874   6
  -6   4  -2 60.2662 5.31548   4
  -6   4  -2 56.3483 4.87462   7
  -6  -4   2 63.9027 4.34837   6
  -6   4  -2 49.9266 7.00194   6
   7  -4   2 170.077 9.69908   6
  -7   4   2 164.977 7.75307   7
   7  -4   2 162.260 8.85907   4
  -7   4   2 163.905 9.15437   6
  -7   4   2 171.151 8.08285   4
  -7   4  -2 175.433 10.2605   6
  -7   4  -2 157.403 8.52016   4
   7  -4  -2 171.424 8.93684   6
   8  -4   2 271.398 12.8221   6
  -8   4   2 273.579 11.6541   4
  -8   4   2 288.003 12.4411   6
   8  -4  -2 277.237 12.3044   6
   8   4   2 292.227 13.1531   7
  -8   4  -2 279.357 11.8109   4
  -8   4  -2 277.282 13.3235   6
  -9   4   2 319.684 12.7648   4
  -9   4   2 328.472 13.1288   6
   9  -4   2 318.623 13.5128   6
   9  -4  -2 322.247 13.1876   6
  -9   4  -2 341.023 13.7163   6
   0   5  -2 0.06602 4.54896   5
   0  -5   2 6.42954 2.97016   6
   0   5   2 11.8135 8.50849   5
   0   5   2 3.97477 4.83466   5
   1  -5   2 378.133 16.3009   6
  -1   5   2 392.768 15.5522   3
  -1   5   2 421.910 20.6815   5
   1   5  -2 416.629 18.6507   5
   1   5   2 413.057 17.5242   5
  -1   5  -2 411.477 21.9416   5
  -2   5   2 2753.20 104.157   3
   2   5  -2 2999.60 106.725   5
  -2   5  -2 2938.21 111.356   5
   2  -5  -2 2882.00 104.405   6
  -2   5  -2 2831.00 104.600   7
  -2   5  -2 2896.79 104.380   3
   3  -5   2 90.4518 15.5799   5
   3  -5   2 67.4244 6.86565   4
  -3   5   2 69.3149 5.42067   7
   3  -5   2 70.7441 5.56415   6
  -3   5   2 60.0784 5.30432   4
  -3   5  -2 69.6978 5.12493   7
  -3   5  -2 69.3687 4.40404   3
   3  -5  -2 70.8476 5.08208   6
   4  -5   2 2004.87 73.1353   4
  -4   5   2 1784.79 73.1421   7
   4  -5   2 2102.16 74.0173   6
  -4   5   2 1910.81 73.3574   4
   4  -5  -2 2094.68 73.5421   6
  -4   5  -2 2028.98 73.4171   7
  -4   5  -2 2006.12 74.6252   6
  -4   5  -2 2079.00 73.7872   4
   5  -5   2 1001.85 37.8933   6
   5  -5   2 959.549 36.9249   4
  -5   5   2 982.471 36.9391   7
  -5   5   2 948.879 37.0250   4
  -5   5  -2 979.943 37.0322   7
  -5   5  -2 1007.29 38.5227   6
   5  -5  -2 997.946 37.3375   6
  -5   5  -2 976.199 37.4882   4
   6  -5   2 99.5092 7.58535   6
  -6   5   2 109.179 6.46428   4
  -6   5   2 101.213 8.18023   6
  -6   5   2 111.213 6.26381   7
  -6   5  -2 106.656 6.89188   4
   6  -5  -2 121.084 7.05735   6
  -6   5  -2 112.522 9.18804   6
  -6   5  -2 114.166 6.47971   7
   7  -5   2 380.859 16.5061   6
  -7   5   2 369.053 16.0403   6
  -7   5   2 398.974 15.5802   4
  -7   5   2 370.954 15.0027   7
  -7   5  -2 394.035 17.2094   6
   7  -5  -2 380.769 15.9518   6
  -7   5  -2 363.921 15.7085   4
  -8   5   2 347.446 13.4864   4
  -8   5   2 327.923 13.6834   6
   8  -5   2 332.870 14.2009   6
   8  -5  -2 328.468 13.6711   6
  -8   5  -2 319.277 14.4540   6
  -8   5  -2 338.193 13.4965   4
   0   6  -2 372.437 24.4458   5
   1  -6   2 2080.22 74.3070   6
  -1   6   2 1909.45 73.6844   3
   1  -6  -2 2105.90 73.6843   6
  -1   6  -2 2025.77 82.7873   5
   2  -6   2 937.069 34.9025   6
  -2   6   2 904.652 34.9428   4
  -2   6   2 922.597 34.2717   3
  -2   6  -2 906.071 34.7427   7
  -2   6  -2 975.709 34.5512   3
   2  -6  -2 936.884 34.3178   6
  -2   6  -2 840.915 45.4627   5
  -3   6   2 5.04971 2.94565   7
   3  -6   2 8.02288 2.99526   6
  -3   6   2 5.61879 2.86598   4
  -3   6  -2 4.65904 3.05864   4
  -3   6  -2 4.03678 2.31899   3
  -3   6  -2 2.27266 2.64619   7
  -4   6   2 74.1469 5.44449   7
   4  -6   2 74.1600 6.24083   6
  -4   6   2 78.9668 5.64183   4
   4  -6  -2 78.5487 5.49306   6
  -4   6  -2 65.2903 5.78291   4
  -4   6  -2 65.2404 5.38273   7
   5  -6   2 761.505 30.1474   6
  -5   6   2 764.773 29.5928   4
  -5   6   2 766.290 29.4876   7
   5  -6  -2 763.873 29.6585   6
  -5   6  -2 784.303 30.1403   4
  -5   6  -2 774.740 29.6108   7
   6  -6   2 193.735 10.1321   6
  -6   6   2 189.638 9.11237   4
  -6   6   2 187.411 8.97816   7
   6  -6  -2 195.810 9.42055   6
  -6   6  -2 178.561 12.1124   6
  -6   6  -2 200.512 9.61901   4
  -6   6  -2 195.848 9.00266   7
  -7   6   2 1101.40 40.7955   6
  -7   6   2 1058.13 39.1293   7
   7  -6   2 1090.22 40.2530   6
  -7   6   2 1077.38 39.5633   4
  -7   6  -2 1070.52 39.7915   4
   7  -6  -2 1045.47 39.6857   6
  -7   6  -2 992.103 38.8152   7
  -7   6  -2 1059.56 40.4829   6
  -8   6   2 61.6367 3.77693   4
  -8   6   2 65.5293 4.99010   6
   8  -6   2 54.1179 4.30682   6
  -8   6  -2 51.1074 5.28978   6
   8  -6  -2 53.4367 3.70934   6
  -8   6  -2 57.9633 3.88727   4
   0  -7   2 102.644 6.41352   6
   1  -7   2 558.739 22.2043   6
  -1   7   2 577.636 21.8412   3
  -1   7  -2 569.086 22.0056   3
  -2   7   2 938.204 35.5230   4
   2  -7   2 931.244 35.3634   6
  -2   7   2 898.930 35.4163   7
  -2   7  -2 979.231 35.2016   3
   2  -7  -2 947.355 34.5860   6
  -2   7  -2 892.601 35.3012   7
   3  -7   2 627.929 24.4687   6
  -3   7   2 614.670 24.2277   4
  -3   7   2 603.989 24.1860   7
   3  -7  -2 610.219 23.6525   6
  -3   7  -2 608.729 24.0028   3
  -3   7  -2 617.433 24.3301   7
  -3   7  -2 632.675 24.6639   4
  -4   7   2 549.809 21.3443   7
   4  -7   2 531.865 21.5548   6
  -4   7   2 538.727 21.2544   4
   4  -7  -2 541.070 21.0617   6
  -4   7  -2 533.318 21.7663   4
  -4   7  -2 517.076 21.3683   7
   5  -7   2 155.332 8.24855   6
  -5   7   2 152.845 7.73521   4
  -5   7   2 148.738 7.69238   7
  -5   7  -2 149.179 8.49385   4
   5  -7  -2 148.167 7.54700   6
  -5   7  -2 145.180 7.77544   7
  -6   7   2 7.51363 2.18316   4
  -6   7   2 7.27854 2.07536   7
   6  -7   2 9.50171 2.94896   6
  -6   7  -2 11.9604 2.39676   7
  -6   7  -2 12.8857 2.74650   4
   6  -7  -2 11.6449 2.36998   6
  -7   7   2 22.7930 2.81738   7
   7  -7   2 23.7784 3.19413   6
  -7   7   2 27.8503 3.09413   4
  -7   7  -2 26.9894 3.32148   4
   7  -7  -2 30.3457 3.07612   6
   0   8   2 73.3923 5.17304   3
   0   8  -2 66.2253 5.00065   3
  -1   8   2 111.068 6.05983   3
   1  -8   2 102.802 6.16643   6
  -1   8  -2 103.318 7.95848   4
  -1   8  -2 105.356 6.94951   7
  -1   8  -2 105.186 6.10831   3
   2  -8   2 407.168 16.6050   6
  -2   8   2 401.965 17.1257   7
  -2   8  -2 430.258 16.8072   3
  -2   8  -2 410.539 17.0407   7
  -2   8  -2 408.624 17.4518   4
   3  -8   2 322.338 13.1882   6
  -3   8   2 302.869 13.2112   4
  -3   8   2 306.832 13.3234   7
   3  -8  -2 304.596 12.2017   6
  -3   8  -2 309.772 13.6533   4
  -3   8  -2 313.631 13.4019   7
  -3   8  -2 294.645 13.0235   3
  -4   8   2 191.553 8.92724   7
   4  -8   2 195.943 9.12965   6
  -4   8   2 177.469 8.57943   4
  -4   8  -2 187.906 9.53254   4
   4  -8  -2 177.759 7.94244   6
  -4   8  -2 149.508 8.77884   7
  -5   8   2 28.1968 3.77037   4
  -5   8   2 26.7662 3.81473   7
   5  -8   2 25.0530 3.18019   6
  -5   8  -2 27.6535 4.48128   4
   5  -8  -2 22.7252 3.08833   6
  -5   8  -2 22.2274 3.84540   7
   6  -8   2 141.083 7.00144   6
  -6   8   2 154.209 6.85136   4
  -6   8   2 158.299 6.85788   7
  -6   8  -2 151.874 7.15807   4
  -6   8  -2 153.050 6.78359   7
   6  -8  -2 144.422 6.44256   6
   0   9  -2 174.014 8.41362   3
   0   9  -2 187.124 9.23898   7
   1   9  -2 162.792 7.88882   3
  -1   9  -2 168.985 7.98868   3
  -1   9  -2 158.529 8.32686   7
  -1   9  -2 174.488 11.8850   4
  -2   9   2 269.205 11.6495   7
   2   9  -2 266.693 11.3419   3
  -2   9  -2 263.421 12.1356   4
  -2   9  -2 263.134 11.6552   7
  -2   9  -2 253.384 11.2841   3
  -3   9   2 1143.48 42.5421   4
  -3   9   2 1147.25 42.8317   7
   3  -9   2 1124.29 41.9960   6
  -3   9  -2 1180.43 43.0298   4
  -3   9  -2 1165.45 43.0258   7
  -4   9   2 34.5289 3.66514   7
  -4   9   2 34.4052 3.78466   4
   4  -9   2 36.5128 3.31959   6
  -4   9  -2 36.3139 4.14138   4
  -4   9  -2 37.0797 3.82661   7
   0  10  -2 112.421 6.89518   7
   0  10  -2 112.370 5.86247   3
  -1  10   2 15.8818 3.25795   7
   1  10  -2 18.1021 2.86774   3
   1  10  -2 15.9089 3.55455   7
  -1  10  -2 13.9532 2.78865   7
  -2  10   2 124.260 6.18932   7
   2  10  -2 109.527 6.55570   3
  -2  10  -2 129.785 6.37372   7
   1   0   3 8453.44 304.285   2
   2   0  -3 4448.48 160.464   5
  -2   0   3 4448.07 159.752   2
   2   0   3 4259.48 159.667   5
  -2   0   3 4243.41 161.333   5
   2   0   3 4429.65 160.706   5
  -2   0  -3 4491.84 160.299   5
  -2   0  -3 4313.48 159.451   5
   2   0   3 4553.15 160.536   2
   2   0  -3 4485.27 160.997   2
   3   0   3 702.121 28.6467   5
   3   0  -3 697.890 28.8657   2
   3   0   3 618.164 27.0371   5
  -3   0  -3 668.404 26.6141   5
  -3   0  -3 667.694 27.7909   2
   3   0  -3 689.974 27.7409   5
  -3   0   3 662.812 27.1056   2
  -3   0   3 634.336 29.5697   5
   3   0  -3 683.325 26.8643   1
  -3   0   3 675.238 25.9562   1
  -3   0  -3 744.628 27.8158   5
  -3   0  -3 645.560 26.1234   1
  -4   0  -3 17.9393 4.92375   5
   4   0  -3 15.1798 3.26293   1
   4   0   3 14.1104 6.05446   5
   4   0  -3 13.8805 6.66371   2
  -4   0   3 13.9103 2.43693   1
  -4   0  -3 18.6453 2.98250   1
   4   0  -3 19.8850 5.16544   5
  -4   0   3 15.9884 5.19769   2
  -4   0   3 15.3350 9.90922   5
  -4   0  -3 24.1522 6.27611   2
   5   0   3 788.414 36.4518   5
   5   0   3 748.965 29.1240   4
   5   0   3 720.619 29.4855   7
  -5   0   3 765.232 28.6402   6
  -5   0  -3 748.879 29.0592   6
   5   0  -3 790.580 34.2269   5
  -5   0   3 756.982 28.3273   4
  -6   0   3 157.476 7.54816   4
   6   0  -3 149.114 9.65067   6
   6   0   3 161.507 8.81057   4
   6   0   3 156.295 9.07403   7
   6   0   3 133.110 28.5201   5
  -6   0  -3 169.623 8.37664   6
  -6   0   3 159.873 7.75480   6
  -7   0  -3 0.49219 3.06149   6
   7   0   3 2.00991 3.08694   7
  -7   0   3 0.72984 2.93175   4
   7   0   3 1.05092 3.27997   4
  -8   0  -3 365.947 16.0578   6
   8   0   3 373.319 16.2373   7
  -8   0   3 398.394 15.4750   6
   8   0   3 378.661 16.3399   4
   9   0   3 265.705 11.5793   7
  -9   0   3 251.495 10.6924   6
  -9   0  -3 257.799 10.9914   6
   1  -1   3 1093.05 42.8305   2
  -1   1   3 1083.26 42.8453   5
  -1  -1  -3 1069.00 41.2947   2
  -1   1   3 1129.92 41.9586   2
   1   1  -3 1149.18 42.4325   2
  -1  -1  -3 1161.36 41.5104   5
   1  -1   3 1174.56 43.2424   5
   1  -1   3 1071.25 41.8277   1
   1   1  -3 1129.39 42.8028   5
  -1   1  -3 1124.19 42.2958   2
   1   1   3 1126.23 41.5816   5
  -1   1  -3 1139.10 42.6366   5
  -1  -1   3 1136.89 42.7040   5
   1   1   3 1163.06 41.9699   2
   1   1   3 1108.05 41.7987   5
   1  -1  -3 1145.95 42.8358   5
  -1  -1   3 1151.00 41.8809   2
  -1   1  -3 1175.36 42.7340   5
  -1  -1   3 1142.62 42.3874   5
  -2   1   3 2386.20 84.8842   2
   2   1  -3 2335.27 85.4528   5
   2  -1   3 2401.23 85.7563   2
   2  -1   3 2334.73 86.0976   5
  -2  -1  -3 2242.01 83.5759   2
  -2   1   3 2174.75 86.2854   5
   2  -1   3 2303.52 84.6613   5
   2  -1  -3 2345.71 85.0043   5
  -2  -1   3 2290.67 84.0765   2
   2  -1  -3 2314.31 86.0314   5
  -2   1  -3 2212.95 84.7537   2
  -2  -1   3 2285.57 85.7946   5
  -2   1  -3 2305.04 85.7316   5
  -2  -1   3 2305.78 84.4212   5
   2   1   3 2241.57 83.9393   5
   2   1   3 2404.10 84.6166   2
   2   1   3 2242.49 84.4543   5
  -2   1  -3 2261.69 85.0109   5
   3   1  -3 3150.92 113.324   5
  -3  -1  -3 3026.63 111.693   2
   3  -1   3 3175.34 114.846   5
  -3   1   3 2853.73 115.456   5
  -3  -1  -3 3160.67 112.607   2
   3  -1   3 3015.13 112.988   5
   3   1  -3 3316.27 114.589   2
  -3   1   3 3203.92 113.323   2
   3   1   3 3000.84 112.389   5
   3  -1  -3 3022.17 114.329   2
   3   1   3 3110.67 113.360   5
  -3  -1   3 2824.84 114.055   5
   3  -1  -3 2824.90 112.325   1
  -3   1  -3 2971.81 113.144   5
  -3  -1   3 3143.58 112.134   2
   3  -1  -3 3097.59 113.300   5
  -3   1  -3 3123.56 113.315   2
  -3   1  -3 3194.05 114.166   5
   3  -1  -3 2958.81 114.799   5
  -4  -1  -3 2308.21 84.0299   2
  -4   1   3 2231.04 82.6434   1
   4   1  -3 2252.28 83.3988   1
  -4  -1  -3 2242.18 82.9143   2
  -4  -1  -3 2127.15 81.5499   1
  -4  -1  -3 2119.53 82.0587   1
   4   1  -3 2182.93 85.7737   2
  -4   1   3 2291.74 84.6528   2
   4   1  -3 2407.45 84.8304   5
  -4  -1   3 1983.60 85.6958   5
  -4  -1   3 2253.37 81.8248   1
   4  -1  -3 2216.81 86.2257   2
  -4  -1   3 2345.13 83.3190   2
   4   1   3 2007.36 84.0805   5
  -4   1  -3 2383.70 85.6084   5
  -4   1  -3 2248.73 85.7549   2
   4  -1  -3 2234.49 83.5985   1
  -4   1  -3 2221.99 83.2679   1
  -4   1  -3 2020.60 84.2628   5
   4  -1  -3 2277.36 84.7436   5
   4   1   3 2364.48 85.5609   5
  -5   1   3 664.805 33.7559   2
  -5   1   3 734.716 26.8969   4
  -5  -1  -3 735.282 27.4178   6
  -5   1   3 716.284 27.3738   6
   5  -1   3 724.127 27.8252   7
   5  -1   3 718.073 27.6297   4
  -5   1   3 706.078 29.6561   1
   5   1  -3 773.142 33.1608   5
  -5   1   3 718.000 26.7532   7
   5  -1   3 722.006 35.1804   5
  -5   1  -3 724.600 27.4247   4
  -5   1  -3 713.538 27.8070   6
   5  -1  -3 760.248 33.4231   5
   5  -1  -3 693.918 30.9205   1
   5  -1  -3 631.319 36.9687   2
   5  -1  -3 718.372 27.7100   6
   5   1   3 703.753 34.3322   5
  -5  -1   3 744.288 26.9865   6
   6  -1   3 675.457 25.3172   4
  -6  -1  -3 649.254 24.9384   6
   6  -1   3 553.523 25.0670   7
  -6   1   3 541.624 24.6475   6
  -6   1   3 661.137 24.3075   4
   6   1   3 682.707 41.3068   5
   6  -1  -3 645.740 25.1367   6
   6   1   3 661.907 25.4672   4
   6   1   3 640.836 25.7649   7
  -6   1  -3 668.234 25.5434   6
  -6  -1   3 681.974 24.4811   6
  -7  -1  -3 447.567 18.1156   6
  -7   1   3 444.289 17.9443   6
   7  -1   3 459.457 18.5358   7
  -7   1   3 438.791 17.4039   4
   7  -1   3 437.680 18.4896   4
   7   1   3 424.440 18.5203   7
  -7   1  -3 436.736 18.6410   6
  -7  -1   3 448.103 17.4879   6
   7   1   3 432.503 18.5809   4
   7  -1  -3 441.339 18.4077   6
   8  -1   3 243.826 11.4749   7
   8  -1   3 261.544 11.8010   4
  -8   1   3 254.309 11.0285   6
  -8  -1  -3 240.278 10.8664   6
   8   1   3 242.841 11.6845   7
  -8   1  -3 251.243 11.9422   6
   8   1   3 257.558 12.0309   4
  -8  -1   3 241.772 10.4430   6
   8  -1  -3 230.393 11.6468   6
   9  -1   3 304.096 12.9244   7
  -9   1   3 292.998 12.3089   6
  -9  -1  -3 283.534 11.8645   6
  -9  -1   3 298.149 12.0720   6
  -9   1  -3 316.606 13.0181   6
   9   1   3 316.582 13.1922   7
   0   2   3 349.945 13.4050   2
   0  -2   3 351.191 13.8334   1
   0   2  -3 356.067 14.1181   2
   0  -2  -3 347.578 13.4523   1
   0   2  -3 335.325 13.3578   1
   0  -2   3 338.624 14.7252   2
   0   2   3 346.210 13.9944   5
   0   2   3 339.277 12.9553   1
   0   2  -3 342.114 14.3726   5
   0  -2   3 352.032 15.1768   5
   0   2  -3 343.157 14.7654   5
   0  -2   3 328.530 14.8099   5
   0  -2  -3 346.051 14.2466   2
  -1   2   3 5551.68 195.798   2
   1  -2   3 5466.27 196.924   2
   1  -2   3 5267.77 195.826   5
  -1  -2  -3 5410.38 194.902   2
   1  -2   3 5457.78 197.402   5
   1   2  -3 5144.77 195.997   5
   1   2  -3 5496.54 195.954   2
  -1   2   3 5121.97 196.874   5
   1   2   3 5459.01 194.920   2
  -1   2  -3 5507.42 196.671   5
   1  -2  -3 5464.54 196.232   5
  -1  -2   3 5439.99 196.292   5
  -1  -2   3 5320.53 196.210   5
  -1   2  -3 5663.48 196.392   2
  -1  -2   3 5396.04 195.858   2
  -1   2  -3 5398.37 196.889   5
   1  -2  -3 5557.87 196.712   2
   2  -2   3 77.9166 5.74912   5
   2  -2   3 77.5304 6.90894   2
  -2  -2  -3 80.2942 3.17932   1
  -2   2   3 89.9414 4.60363   1
  -2   2   3 76.4148 8.61158   5
  -2  -2  -3 77.8220 4.34155   2
  -2  -2  -3 82.4906 3.59707   2
   2   2  -3 68.7804 4.49164   1
   2   2  -3 75.6140 6.48050   5
   2   2  -3 65.7559 6.31364   2
   2  -2   3 78.7159 4.95036   1
   2  -2   3 75.3525 7.18907   5
  -2   2   3 80.2883 5.77901   2
  -2  -2  -3 77.2579 3.51061   1
   2   2   3 74.5298 4.27061   5
   2  -2  -3 88.5498 4.96403   1
  -2   2  -3 77.8344 5.97630   2
  -2  -2   3 75.3655 5.15656   5
  -2  -2   3 77.6583 3.85478   1
  -2  -2   3 74.8209 4.69455   2
  -2   2  -3 67.0579 6.70125   5
  -2   2  -3 70.1504 7.01007   5
   2  -2  -3 93.3780 7.15260   2
   2  -2  -3 84.0560 5.81546   5
   2  -2  -3 71.2553 6.85688   5
  -2   2  -3 70.7160 3.92377   3
  -2   2  -3 80.2172 4.58938   1
   2   2   3 78.9135 4.62453   5
  -2  -2   3 67.7575 6.55547   5
   3   2  -3 843.094 32.8076   5
  -3  -2  -3 790.726 29.4445   1
  -3  -2  -3 814.045 29.4149   2
  -3  -2  -3 797.287 30.2870   2
  -3   2   3 815.856 30.9176   1
   3   2  -3 812.548 33.7861   2
  -3   2   3 670.130 35.1875   5
   3  -2   3 819.867 34.2471   5
   3  -2   3 771.513 32.2906   5
  -3  -2  -3 775.854 28.9406   1
  -3   2   3 795.948 32.6626   2
   3   2  -3 806.046 31.4226   1
  -3  -2   3 774.527 29.6517   1
  -3  -2   3 768.615 30.4512   2
   3  -2  -3 861.767 32.3773   5
  -3   2  -3 746.682 33.3464   2
  -3   2  -3 810.162 29.2095   3
  -3   2  -3 790.810 32.9204   2
  -3   2  -3 785.966 30.9765   1
   3  -2  -3 806.251 31.5320   1
  -3   2  -3 760.125 31.1557   1
  -3   2  -3 731.114 33.4158   5
   3  -2  -3 776.559 33.6898   2
   3   2   3 743.330 30.8371   5
   3   2   3 833.340 31.7501   5
   3  -2  -3 721.261 33.7917   5
  -3  -2   3 843.639 31.0189   5
  -3   2  -3 840.051 34.1546   5
   4  -2   3 155.611 7.92891   4
  -4   2   3 159.119 7.26754   4
   4   2  -3 168.756 11.2661   5
   4  -2   3 176.364 14.1034   5
   4  -2   3 154.269 8.35639   7
  -4   2   3 177.125 9.32775   1
  -4  -2  -3 172.151 7.02902   1
  -4   2   3 146.665 7.17687   7
   4   2  -3 161.686 9.41786   1
   4   2  -3 156.194 14.0760   2
  -4   2   3 168.066 13.3649   2
  -4  -2  -3 161.130 8.26434   2
  -4  -2   3 160.985 13.9138   5
   4   2   3 173.984 12.1146   5
   4  -2  -3 152.964 8.02453   6
   4  -2  -3 152.592 15.7881   2
  -4   2  -3 167.725 9.76283   1
  -4   2  -3 158.267 9.05616   1
  -4   2  -3 165.290 8.58904   6
   4  -2  -3 169.136 11.4396   5
  -4   2  -3 157.318 14.5901   2
  -4  -2   3 154.008 6.83764   6
  -4   2  -3 162.040 13.6512   5
  -4   2  -3 140.751 13.2921   2
  -4   2  -3 152.999 7.78536   4
   4  -2  -3 166.015 9.84688   1
   4   2   3 138.206 12.4056   5
   5  -2   3 428.523 17.3991   4
  -5   2   3 414.525 17.2746   6
  -5   2   3 443.352 16.5976   7
   5   2  -3 437.103 23.6130   5
   5  -2   3 415.928 18.5950   6
   5  -2   3 399.338 26.0211   5
   5  -2   3 432.295 17.4241   7
  -5   2   3 439.328 16.6964   4
  -5  -2  -3 410.427 16.8556   6
   5   2   3 463.157 26.1975   5
  -5   2  -3 434.657 17.7430   6
   5  -2  -3 418.980 17.2940   6
  -5   2  -3 419.341 17.2047   4
  -5  -2   3 429.115 16.3927   6
  -5   2  -3 409.882 16.7284   7
   5  -2  -3 415.642 22.9190   5
  -5   2  -3 417.005 25.0740   5
  -6   2   3 993.012 36.9487   6
   6  -2   3 1018.82 37.0896   7
  -6   2   3 995.085 36.0702   7
   6  -2   3 981.515 38.0306   6
  -6  -2  -3 906.212 36.3343   6
   6  -2   3 963.000 37.0231   4
  -6   2   3 956.586 36.2266   4
   6  -2  -3 948.874 36.9141   6
  -6   2  -3 1022.02 36.7974   4
  -6  -2   3 952.601 36.0360   6
  -6   2  -3 969.365 37.4733   6
   7  -2   3 1860.97 67.1353   7
   7  -2   3 1778.88 67.1665   4
   7  -2   3 1785.26 67.9667   6
  -7   2   3 1791.47 66.3128   4
  -7  -2  -3 1911.96 66.2901   6
  -7   2   3 1915.88 67.1452   6
   7  -2  -3 1821.29 67.0646   6
  -7   2  -3 1710.25 66.3176   4
  -7  -2   3 1814.60 66.2072   6
   7   2   3 1773.36 67.0406   4
  -7   2  -3 1881.60 67.8340   6
   7   2   3 1721.91 67.3571   7
   8  -2   3 281.091 12.4216   4
  -8  -2  -3 257.382 10.7063   6
  -8   2   3 262.955 11.3364   4
   8  -2   3 272.099 11.9805   7
  -8   2   3 272.154 11.8505   6
   8  -2  -3 263.136 12.1287   6
  -8  -2   3 269.622 11.0596   6
  -8   2  -3 266.521 12.7748   6
   8   2   3 267.224 12.5415   7
  -9   2   3 175.208 7.80180   6
   9  -2  -3 159.684 8.19201   6
  -9   2  -3 179.063 8.70035   6
  -9  -2   3 163.089 7.31938   6
   9   2   3 170.890 8.47845   7
   0  -3   3 87.9442 6.83374   5
   0  -3  -3 83.3721 5.25754   2
   0   3   3 84.2198 3.79167   1
   0  -3   3 94.0641 6.49351   2
   0  -3  -3 93.0673 4.29184   1
   0   3   3 89.8040 4.49967   2
   0   3  -3 91.9031 5.53752   2
   0  -3   3 94.6675 4.99039   1
   0   3  -3 86.7379 6.63032   5
   0   3  -3 92.6331 4.48149   1
   0   3  -3 89.7288 5.96364   5
   0   3   3 82.4552 5.99106   5
   1   3  -3 242.193 11.1017   5
   1  -3   3 241.732 12.7228   2
   1   3  -3 238.494 11.6215   5
   1  -3   3 245.796 12.9004   5
   1   3  -3 247.888 11.0610   2
  -1   3   3 207.907 12.7967   5
   1   3  -3 250.881 10.0322   1
  -1   3   3 234.036 10.7701   2
   1  -3   3 240.388 10.8456   1
   1  -3   3 235.775 11.3359   5
  -1   3   3 247.491 9.92739   1
  -1   3  -3 244.499 10.3697   1
  -1   3  -3 256.308 12.4257   5
   1  -3  -3 233.995 10.3163   1
   1  -3  -3 245.648 9.65681   5
  -1   3  -3 209.456 12.4171   5
  -1   3  -3 239.169 11.6389   2
  -1  -3   3 232.282 11.2187   2
   1   3   3 239.786 10.0080   5
  -1  -3   3 246.773 10.2020   1
  -1  -3   3 255.443 11.7227   5
  -1  -3   3 224.525 11.3565   5
   1  -3  -3 222.708 11.5969   2
   1  -3  -3 248.184 9.45080   5
  -2   3   3 2866.49 117.624   1
  -2   3   3 2972.91 119.002   2
   2   3  -3 3493.88 120.315   2
   2   3  -3 3312.01 118.972   5
   2  -3   3 3235.56 118.728   5
   2  -3   3 3434.31 121.156   5
  -2   3   3 2943.00 121.455   5
   2   3   3 3150.29 116.438   5
  -2   3  -3 3078.54 116.416   3
   2  -3  -3 3306.83 119.368   5
  -2  -3   3 3384.26 117.945   5
   2   3   3 3189.41 116.809   5
   2  -3  -3 3525.92 118.876   5
  -2   3  -3 3432.12 121.396   5
  -2   3  -3 2988.25 120.455   5
  -2  -3   3 3193.78 118.098   5
  -2  -3   3 3244.78 118.165   2
  -2   3  -3 3411.63 119.860   2
   3  -3   3 85.0272 9.81436   5
  -3   3   3 85.7209 5.76542   1
  -3   3   3 85.4021 9.38215   2
   3   3  -3 82.4608 9.27580   5
  -3  -3   3 92.0554 5.51876   5
   3  -3  -3 76.4919 10.7562   2
  -3   3  -3 79.8207 5.74713   1
  -3   3  -3 76.0985 9.54109   5
   3  -3  -3 87.1470 7.76260   5
   3   3   3 76.3922 5.68359   5
   3   3   3 92.6416 7.12704   5
   3  -3  -3 86.2264 6.09328   1
   3  -3  -3 75.7429 13.2352   5
  -3  -3   3 78.1996 6.14824   2
  -3   3  -3 75.0925 9.66505   2
  -3  -3   3 79.3320 4.39317   1
  -3  -3   3 85.3934 7.85275   5
  -3   3  -3 83.0532 6.30304   1
  -3   3  -3 80.3098 4.33612   3
  -3   3  -3 82.4986 11.9265   2
   4  -3   3 3434.31 128.672   4
   4   3  -3 3535.39 133.864   5
  -4   3   3 3568.16 128.460   4
   4  -3   3 3574.17 128.609   7
   4  -3   3 3468.25 129.162   6
  -4   3   3 3478.04 128.315   7
   4  -3   3 3620.60 135.860   5
  -4   3  -3 3523.83 135.577   5
  -4   3  -3 3549.77 128.453   7
  -4   3  -3 3636.32 129.360   6
   4  -3  -3 3554.47 128.714   6
   4   3   3 3752.12 132.347   5
  -4   3  -3 3560.47 128.768   4
  -4  -3   3 3417.70 127.934   6
   4  -3  -3 3626.37 132.572   5
   5  -3   3 978.840 36.5818   6
   5   3  -3 888.180 44.3173   5
  -5   3   3 958.916 35.9903   6
  -5   3   3 971.736 35.4639   4
   5  -3   3 915.186 35.7576   4
  -5   3   3 984.721 35.3039   7
   5  -3   3 962.588 35.6957   7
  -5   3  -3 982.362 35.3574   7
   5  -3  -3 886.627 41.9694   5
  -5   3  -3 822.100 44.6964   5
  -5   3  -3 983.963 35.9763   4
  -5   3  -3 957.610 36.4891   6
   5  -3  -3 964.891 35.8516   6
  -5  -3   3 959.259 34.8948   6
   6  -3   3 542.756 22.0354   4
  -6   3   3 565.275 22.1165   6
   6  -3   3 566.529 22.8804   6
  -6   3   3 556.299 21.3944   4
   6  -3   3 535.769 21.6653   7
  -6   3   3 568.390 21.1905   7
  -6   3  -3 501.816 21.3813   7
  -6  -3   3 555.266 20.9180   6
  -6   3  -3 557.415 22.8562   6
  -6   3  -3 569.105 22.0132   4
   6  -3  -3 530.975 21.8822   6
   7  -3   3 955.531 36.7077   4
   7  -3   3 963.451 36.2717   7
   7  -3   3 947.371 37.2826   6
  -7   3   3 963.285 36.5985   6
  -7   3   3 897.563 35.4150   7
  -7   3   3 967.481 35.9911   4
   7  -3  -3 968.563 36.6196   6
  -7  -3   3 1028.12 35.6907   6
  -7   3  -3 968.727 37.5192   6
  -7   3  -3 942.094 36.2231   4
   8  -3   3 261.415 11.5029   7
   8  -3   3 255.226 12.8100   6
  -8   3   3 275.758 11.7708   6
  -8   3   3 265.180 11.1565   4
   8  -3   3 263.959 11.9853   4
   8   3   3 261.510 12.6605   7
  -8  -3   3 254.388 10.7703   6
  -8   3  -3 271.471 12.8677   6
   8  -3  -3 261.217 11.6739   6
  -9   3   3 230.665 9.80093   6
   9  -3   3 229.115 11.1810   6
  -9   3   3 244.146 9.69704   4
   9   3   3 223.364 10.4147   7
   9  -3  -3 218.066 9.84332   6
  -9   3  -3 237.993 10.5291   6
   0   4  -3 1967.32 80.5011   5
   0   4   3 2050.10 79.9772   5
   0  -4   3 2100.78 78.7541   1
   0  -4   3 2196.65 80.5714   2
   0   4  -3 2281.57 80.1395   5
   0  -4   3 2253.96 79.7285   5
   0   4  -3 2020.18 77.7987   1
   0   4   3 2154.02 77.7452   2
   0   4  -3 2150.20 78.9170   2
  -1   4   3 126.592 13.2345   5
  -1   4   3 155.143 8.25185   2
   1  -4   3 137.757 10.7689   5
   1   4  -3 153.453 7.18821   1
   1  -4   3 159.978 11.1236   5
   1   4  -3 143.880 10.7733   5
   1   4  -3 161.971 8.80200   5
   1  -4   3 146.579 8.15390   1
   1  -4   3 148.963 10.8992   2
  -1   4   3 160.307 6.94230   1
   1   4  -3 151.589 8.86617   2
  -1  -4   3 144.337 9.54035   2
  -1  -4   3 166.888 7.53020   5
   1   4   3 149.891 8.39214   5
  -1   4  -3 158.385 10.8558   5
  -1  -4   3 160.923 7.73166   1
  -1   4  -3 164.702 7.69039   1
  -1   4  -3 155.738 9.66365   2
  -2   4   3 2166.00 98.5914   2
   2  -4   3 2403.93 93.2364   5
   2  -4   3 2619.47 95.7009   5
   2   4  -3 2544.35 92.8455   5
   2  -4   3 2435.69 91.1566   6
   2   4   3 2418.85 90.3415   5
   2   4   3 2492.12 90.2919   5
  -2   4  -3 2583.73 90.6992   3
   2  -4  -3 2554.95 91.3115   5
  -2   4  -3 2385.53 94.4321   2
  -2   4  -3 2657.03 99.9081   2
  -2   4  -3 2485.69 95.2033   1
  -2   4  -3 2510.44 92.7470   1
  -2   4  -3 2582.95 96.6336   5
   2  -4  -3 2701.93 91.4040   5
   3   4  -3 6.16498 5.12942   5
   3  -4   3 3.56444 2.92544   4
   3  -4   3 -1.2983 8.21093   5
  -3   4   3 3.02637 2.59429   7
  -3   4   3 0.10100 2.35187   4
   3  -4  -3 0.30641 6.08824   5
   3  -4  -3 9.48888 2.41863   6
  -3   4  -3 3.33316 2.26768   1
  -3   4  -3 7.02483 2.40688   7
  -3   4  -3 11.6215 8.29702   5
  -3  -4   3 7.13869 2.31180   6
  -3   4  -3 4.52331 8.53413   2
  -3   4  -3 3.76707 2.11534   3
  -4   4   3 84.3544 5.18011   7
   4  -4   3 107.268 18.0354   5
   4  -4   3 76.8737 6.07657   7
   4  -4   3 87.6598 6.36345   6
  -4   4   3 87.9030 5.39032   4
   4   4  -3 69.5263 14.1966   5
   4  -4   3 82.7381 5.72647   4
  -4   4  -3 93.8916 5.50558   7
  -4   4  -3 72.0094 7.50378   6
  -4   4  -3 79.5670 4.98177   3
  -4   4  -3 65.2432 14.6939   5
  -4   4  -3 81.8566 5.92580   4
  -4  -4   3 83.4265 4.95797   6
   4  -4  -3 80.3736 5.29949   6
   4  -4  -3 99.6710 13.1384   5
   5  -4   3 129.852 8.09073   6
   5  -4   3 126.819 7.16292   7
  -5   4   3 125.463 6.64991   7
   5  -4   3 131.457 7.55689   4
  -5   4   3 127.952 6.78930   4
  -5   4   3 127.679 8.65806   6
  -5  -4   3 125.352 6.28279   6
   5  -4  -3 133.933 7.18034   6
  -5   4  -3 124.895 6.93782   7
  -5   4  -3 123.939 7.42975   4
  -5   4  -3 126.383 8.65236   6
   6  -4   3 4.44283 2.69701   7
  -6   4   3 3.32118 2.20913   7
  -6   4   3 6.46990 2.29312   4
   6  -4   3 5.57508 3.00560   4
   6  -4   3 9.11927 3.60436   6
  -6   4   3 5.71978 3.64086   6
  -6   4  -3 3.09965 3.87598   6
  -6   4  -3 3.16597 2.69964   7
  -6   4  -3 1.57394 2.90289   4
  -6  -4   3 5.67822 2.27587   6
   6  -4  -3 6.82367 2.77678   6
   7  -4   3 226.521 10.7265   4
   7  -4   3 225.829 11.4413   6
  -7   4   3 220.168 10.5806   6
  -7   4   3 216.963 9.79949   4
  -7   4   3 215.990 9.44656   7
  -7  -4   3 221.075 9.55237   6
   7  -4  -3 218.842 10.4600   6
  -7   4  -3 219.121 10.2940   4
  -7   4  -3 220.735 11.8696   6
  -8   4   3 197.732 9.44954   6
   8  -4   3 227.510 10.5059   6
  -8   4   3 208.342 9.14561   4
   8  -4  -3 207.818 9.62744   6
   8   4   3 208.148 10.7129   7
  -8   4  -3 227.505 10.9628   6
  -8   4  -3 193.472 9.15978   4
  -9   4   3 39.2395 3.28181   6
  -9   4   3 43.3683 3.50838   4
   9  -4   3 42.3281 4.50840   6
   9  -4  -3 42.2670 3.36581   6
  -9   4  -3 34.8899 3.89756   6
   0   5  -3 3383.62 123.257   5
   0  -5   3 3197.30 119.087   6
  -1   5   3 3464.96 128.986   3
   1   5  -3 3441.87 132.440   5
   1  -5   3 3890.79 132.391   5
   1  -5   3 3477.67 129.645   6
  -1  -5   3 3462.50 129.358   6
   1  -5  -3 3489.19 128.972   6
  -1   5  -3 3847.61 136.122   5
   2   5  -3 436.437 20.2229   5
  -2   5   3 401.029 17.1863   4
   2  -5   3 430.974 23.7133   5
  -2   5  -3 444.811 16.5948   3
   2  -5  -3 424.467 16.5115   6
  -2  -5   3 389.097 16.6607   6
  -2   5  -3 430.520 24.9368   5
   3  -5   3 1767.56 66.5698   4
  -3   5   3 1798.82 66.5664   7
   3  -5   3 1752.00 74.1422   5
  -3   5   3 1819.42 66.5921   4
   3  -5   3 1872.54 67.2035   6
  -3   5  -3 1808.68 66.7118   7
   3  -5  -3 1933.40 66.6047   6
  -3   5  -3 1849.88 66.5356   3
  -3  -5   3 1779.31 66.2409   6
  -3   5  -3 1776.74 76.6506   5
  -4   5   3 323.400 13.5042   7
   4  -5   3 328.987 14.4080   6
   4  -5   3 315.090 13.8019   4
  -4   5   3 326.805 13.6681   4
   4  -5  -3 321.529 13.5485   6
  -4   5  -3 331.757 13.4532   3
  -4   5  -3 330.138 13.7660   7
  -4   5  -3 316.216 15.8919   6
  -4   5  -3 334.978 14.2061   4
  -4  -5   3 299.265 13.2089   6
  -5   5   3 2073.28 76.8849   4
   5  -5   3 2031.38 76.9110   4
  -5   5   3 2136.32 76.8835   7
   5  -5   3 2119.57 77.8788   6
  -5  -5   3 2068.30 76.2627   6
  -5   5  -3 2056.95 78.0750   6
   5  -5  -3 2196.32 77.2428   6
  -5   5  -3 2091.24 76.9594   7
  -5   5  -3 2117.48 77.5329   4
  -6   5   3 521.762 21.8879   6
  -6   5   3 549.699 21.1465   7
   6  -5   3 539.970 22.3350   6
   6  -5   3 541.658 21.4834   4
  -6   5   3 540.307 21.3110   4
  -6   5  -3 536.665 21.0750   7
  -6   5  -3 546.096 22.9756   6
  -6   5  -3 549.008 21.9578   4
   6  -5  -3 542.125 21.6267   6
  -7   5   3 712.164 26.3551   7
   7  -5   3 737.097 27.8575   6
  -7   5   3 703.840 27.1180   6
  -7   5   3 681.089 26.5767   4
  -7   5  -3 686.520 26.9893   4
  -7   5  -3 673.247 28.1977   6
   7  -5  -3 694.111 26.9571   6
  -8   5   3 1094.60 40.2281   4
   8  -5   3 1063.12 40.8848   6
  -8   5   3 1066.31 40.3555   6
   8  -5  -3 1140.31 40.5662   6
  -8   5  -3 1080.19 40.2297   4
   0   6  -3 143.501 19.5285   5
   0  -6   3 137.925 7.52875   6
  -1   6   3 254.450 10.4558   3
   1  -6  -3 254.374 10.2382   6
  -1   6  -3 215.673 24.6798   5
  -1  -6   3 260.678 11.1619   6
   2  -6   3 1534.96 56.3098   6
  -2   6   3 1511.53 56.0144   4
  -2   6  -3 1561.13 55.8832   3
  -2   6  -3 1430.10 55.9569   7
   2  -6  -3 1544.44 55.4270   6
  -2  -6   3 1507.51 55.5717   6
   3  -6   3 252.982 11.6071   6
  -3   6   3 240.784 11.1202   4
  -3   6   3 244.790 11.1899   7
  -3   6  -3 248.599 10.8199   3
  -3   6  -3 249.793 11.2698   7
   3  -6  -3 254.689 10.7375   6
  -4   6   3 1850.33 69.6037   7
   4  -6   3 1873.86 70.3275   6
  -4   6   3 1974.13 69.7477   4
  -4   6  -3 1850.88 69.7921   7
   4  -6  -3 1904.61 69.5341   6
  -4   6  -3 1915.37 70.2311   4
  -5   6   3 892.852 33.8187   4
  -5   6   3 888.797 33.8190   7
   5  -6   3 892.883 34.6667   6
  -5   6  -3 899.449 34.4526   4
   5  -6  -3 906.989 33.9081   6
  -5   6  -3 871.713 35.7377   6
  -5   6  -3 884.936 33.9122   7
  -6   6   3 157.812 7.75496   7
   6  -6   3 161.805 8.86103   6
  -6   6   3 161.627 7.85317   4
  -6   6  -3 157.373 8.59040   4
  -6   6  -3 151.800 7.81463   7
   6  -6  -3 154.796 7.97339   6
  -6   6  -3 160.406 11.0573   6
  -7   6   3 713.685 27.4351   4
  -7   6   3 749.049 27.2371   7
   7  -6   3 746.678 28.2540   6
  -7   6  -3 727.167 28.8637   6
   7  -6  -3 711.747 27.5591   6
  -7   6  -3 715.815 27.8026   4
   8  -6   3 5.51013 2.04943   6
  -8   6   3 7.03543 1.66311   4
   8  -6  -3 9.35749 1.77278   6
  -8   6  -3 6.88711 2.84125   6
  -8   6  -3 9.25450 1.82193   4
   0  -7   3 712.228 27.2891   6
   1  -7   3 766.836 30.1482   6
  -1   7   3 772.524 29.5611   3
  -1   7  -3 819.185 30.0073   3
  -2   7   3 1316.41 50.3399   7
   2  -7   3 1341.81 50.4215   6
  -2   7  -3 1340.24 50.3491   7
   2  -7  -3 1376.87 49.2869   6
  -2   7  -3 1376.27 50.1938   3
   3  -7   3 463.996 19.7100   6
  -3   7   3 464.406 19.3365   7
  -3   7   3 500.184 19.4137   4
  -3   7  -3 487.786 19.3508   3
  -3   7  -3 477.312 19.5573   7
  -3   7  -3 490.290 19.9776   4
   3  -7  -3 491.957 18.7099   6
   4  -7   3 521.749 21.6949   6
  -4   7   3 534.238 21.0652   4
  -4   7   3 545.235 21.2335   7
  -4   7  -3 542.086 21.4211   7
   4  -7  -3 547.113 20.7679   6
  -4   7  -3 513.453 21.7558   4
  -5   7   3 407.450 16.2486   7
  -5   7   3 394.675 16.1515   4
   5  -7   3 391.678 16.8030   6
  -5   7  -3 399.094 16.3744   7
   5  -7  -3 405.101 15.9371   6
  -5   7  -3 391.378 16.7605   4
  -6   7   3 49.9365 4.04568   7
   6  -7   3 48.1174 4.80244   6
  -6   7   3 50.0189 3.94282   4
   6  -7  -3 50.6071 3.94528   6
  -6   7  -3 43.4059 4.12207   7
  -6   7  -3 49.9440 4.82908   4
  -7   7   3 536.853 19.7688   7
  -7   7   3 543.110 20.0935   4
  -7   7  -3 513.746 20.2249   4
   7  -7  -3 522.942 19.9204   6
  -7   7  -3 523.448 22.6521   6
   1  -8   3 162.098 8.32986   6
  -1   8  -3 163.292 8.03309   3
  -1   8  -3 166.105 8.63271   7
   2  -8   3 416.084 16.4731   6
  -2   8   3 395.910 16.6327   7
  -2   8  -3 392.954 16.2342   3
  -2   8  -3 384.872 16.5487   7
  -2   8  -3 408.642 17.0551   4
  -3   8   3 423.748 16.6626   7
  -3   8   3 376.764 16.2291   4
   3  -8   3 405.176 16.5587   6
  -3   8  -3 397.452 16.4300   3
  -3   8  -3 400.034 16.6681   7
  -3   8  -3 409.679 16.9979   4
   4  -8   3 114.192 6.82665   6
  -4   8   3 119.656 6.57143   7
  -4   8   3 109.296 6.24742   4
  -4   8  -3 111.988 6.73322   7
  -4   8  -3 118.027 7.08594   4
   4  -8  -3 114.797 5.47028   6
   5  -8   3 53.9939 4.74711   6
  -5   8   3 56.8501 4.18354   7
  -5   8   3 53.3323 4.20018   4
  -5   8  -3 47.7789 4.36369   7
  -5   8  -3 50.7448 4.85468   4
   5  -8  -3 44.4063 3.31432   6
  -6   8   3 457.983 17.3376   4
  -6   8   3 454.451 17.2371   7
   6  -8   3 449.226 17.5618   6
   6  -8  -3 447.837 16.9332   6
  -6   8  -3 459.105 17.1413   7
  -6   8  -3 449.940 17.6466   4
   0   9  -3 630.689 24.7603   7
   0   9  -3 645.607 24.5522   3
   1   9  -3 39.2402 5.14462   7
   1   9  -3 32.6456 3.90918   3
  -1   9  -3 39.4961 4.61442   4
  -1   9  -3 33.8278 4.41170   7
  -1   9  -3 38.0870 3.92108   3
   2   9  -3 35.1584 4.18090   3
  -2   9   3 34.7063 4.80409   7
  -2   9  -3 46.4461 5.49578   4
  -2   9  -3 35.9148 4.02825   3
  -3   9   3 173.412 9.03453   4
   3  -9   3 135.594 6.72664   6
  -3   9   3 153.525 7.36510   7
  -3   9  -3 144.766 7.57323   7
  -3   9  -3 135.848 7.66280   4
  -4   9   3 187.197 8.19077   4
  -4   9   3 195.032 8.53051   7
   4  -9   3 192.676 8.20416   6
  -4   9  -3 202.611 9.04855   4
  -4   9  -3 192.663 8.66132   7
   0  10  -3 8.79136 2.32520   3
   0  10  -3 0.17790 2.24133   7
   1  10  -3 184.174 8.27566   3
   1  10  -3 192.436 8.94358   7
  -1  10  -3 191.721 8.55387   7
  -1  10  -3 187.709 8.27608   3
   1   0  -4 275.728 11.5338   1
   1   0  -4 307.630 12.7564   5
  -1   0   4 251.245 12.5988   5
  -1   0   4 275.873 11.6584   2
   1   0   4 270.740 11.7993   5
   1   0   4 296.620 11.6225   1
  -1   0  -4 273.683 11.5167   2
  -1   0  -4 278.764 12.2285   5
   1   0   4 272.641 12.5811   2
  -1   0   4 281.533 11.0142   1
   1   0   4 281.954 12.5721   5
  -1   0  -4 267.043 10.8424   1
   1   0  -4 273.185 12.5536   2
   2   0   4 2730.34 98.1115   2
   2   0  -4 2623.29 98.6474   2
   2   0   4 2656.93 98.3768   5
  -2   0  -4 2754.88 98.0378   5
  -2   0  -4 2580.01 96.8615   2
   2   0  -4 2679.89 98.7870   5
  -2   0   4 2608.56 96.9252   2
   2   0   4 2636.58 97.0507   5
  -2   0   4 2554.31 99.0533   5
   3   0  -4 15.3087 8.41337   2
   3   0   4 20.5376 4.58574   5
   3   0  -4 15.8389 4.38070   5
   3   0   4 13.3116 4.57384   5
   3   0  -4 15.8527 3.98584   1
  -3   0  -4 10.5135 3.56251   5
  -3   0   4 6.84089 7.14981   5
  -3   0  -4 21.4927 4.80441   5
  -4   0   4 14.3738 2.66506   6
   4   0   4 11.1899 6.38495   5
  -4   0   4 7.40472 5.00720   2
  -4   0  -4 7.92754 6.61071   2
  -4   0  -4 6.14181 5.01880   5
   4   0  -4 13.5669 8.16560   2
   4   0  -4 6.65827 2.67977   1
  -4   0  -4 13.3648 3.00496   6
   4   0  -4 6.72476 4.81059   5
  -4   0   4 9.84657 2.36604   1
   5   0   4 1674.79 71.1198   5
   5   0  -4 1788.28 69.0133   5
  -5   0   4 1698.26 62.7915   6
   5   0   4 1711.83 63.4629   4
   5   0   4 1716.13 63.7093   7
  -5   0  -4 1729.15 63.3852   6
  -5   0   4 1732.62 62.6637   4
   5   0  -4 1696.40 63.2254   6
   6   0   4 1835.01 66.0710   7
   6   0   4 1547.37 65.5091   4
  -6   0  -4 1902.11 65.9515   6
  -6   0   4 1832.28 64.9765   4
   6   0  -4 1731.48 65.4367   6
  -6   0   4 1816.72 65.1559   6
   7   0   4 0.63369 3.17543   4
  -7   0  -4 -0.2329 3.06363   6
  -7   0   4 1.89887 2.05576   6
  -7   0   4 0.39571 3.08991   4
   7   0  -4 -1.3860 3.47829   6
   7   0   4 0.49077 2.99814   7
  -8   0   4 568.022 22.0292   6
   8   0   4 579.785 23.0425   4
  -8   0  -4 584.867 22.9641   6
   8   0   4 550.502 22.9638   7
   9   0   4 89.4887 5.86797   7
  -9   0  -4 81.1388 5.03248   6
  -9   0   4 84.3497 4.81488   6
   0   1  -4 541.891 21.9352   5
   0  -1   4 537.718 22.3823   5
   0   1   4 519.763 22.2380   5
   0  -1   4 528.540 22.5350   5
   0   1  -4 633.405 21.2349   1
   0  -1   4 547.457 22.1190   2
   0  -1  -4 551.703 21.2500   5
   0   1   4 546.435 20.7001   1
   0   1   4 555.704 21.3603   2
   0  -1   4 521.232 21.0902   1
   1  -1   4 3844.95 143.127   5
   1  -1   4 4150.07 144.252   2
  -1   1   4 3821.51 142.660   2
   1   1  -4 3827.31 143.523   5
  -1   1   4 3727.78 143.826   5
   1  -1   4 3917.27 144.343   5
  -1  -1  -4 3713.36 142.289   2
  -1  -1  -4 4147.18 142.850   5
   1  -1  -4 4032.39 144.138   2
   1   1   4 3831.03 142.583   5
  -1  -1   4 3909.66 143.879   5
  -1   1  -4 3920.67 143.696   5
   1  -1  -4 4091.24 143.327   5
   1   1   4 3858.22 143.061   5
  -1  -1   4 4019.61 143.676   5
   1   1   4 4146.37 143.331   2
  -1   1  -4 4014.87 143.595   5
  -1  -1   4 3952.32 142.941   2
  -2   1   4 2489.50 90.4264   2
   2  -1   4 2511.84 92.3972   5
   2   1  -4 2229.16 90.1135   1
  -2   1   4 2254.55 92.3778   5
  -2  -1  -4 2524.45 89.2645   5
   2  -1   4 2421.53 90.5027   5
   2   1  -4 2589.96 92.2470   5
  -2  -1  -4 2396.67 89.3087   2
   2   1  -4 2343.23 91.7731   2
  -2  -1   4 2497.51 92.2543   5
   2  -1  -4 2594.61 92.5663   2
  -2   1  -4 2524.61 90.7101   2
   2   1   4 2412.25 89.8001   5
  -2   1  -4 2547.77 92.0936   5
  -2  -1   4 2569.21 90.7903   5
   2  -1  -4 2586.55 91.8895   5
   2   1   4 2379.89 90.7234   5
   2   1   4 2432.62 90.5749   2
  -2   1  -4 2370.48 90.8047   5
   2  -1  -4 2418.03 90.5503   1
  -3   1   4 2054.37 75.4220   1
   3   1  -4 2248.17 78.5046   5
   3  -1   4 1924.55 76.6879   5
   3  -1   4 2170.89 79.2516   5
  -3  -1  -4 2062.84 75.3684   2
  -3   1   4 1749.95 79.6964   5
   3   1  -4 2059.15 76.7054   1
  -3  -1  -4 1964.96 74.4924   1
  -3   1   4 2170.64 77.0141   2
  -3  -1  -4 2104.77 76.6674   2
   3   1  -4 2119.39 79.2542   2
  -3  -1  -4 2000.34 75.1432   1
  -3   1  -4 1914.57 75.3966   1
   3  -1  -4 2033.20 78.8393   2
  -3   1  -4 2260.15 78.6773   5
   3  -1  -4 2209.47 77.6493   5
  -3   1  -4 1892.49 76.7684   5
  -3  -1   4 2140.45 76.5133   5
   3   1   4 2018.07 76.0785   5
   3  -1  -4 1945.30 79.2671   5
  -3  -1   4 1912.15 78.8895   5
   3   1   4 2056.63 77.5322   5
   3  -1  -4 2017.00 76.5966   1
  -3   1  -4 2012.24 77.0046   2
   4  -1   4 98.3320 6.20309   4
   4   1  -4 101.993 10.2836   5
  -4   1   4 102.924 5.22263   4
  -4   1   4 108.629 5.44017   7
   4   1  -4 99.4783 14.2352   2
  -4   1   4 111.288 6.64851   1
   4  -1   4 99.3528 11.5867   5
  -4   1   4 109.307 10.5796   2
   4   1  -4 107.477 8.07249   1
   4   1   4 102.527 11.0696   5
  -4   1  -4 109.599 7.42465   1
   4  -1  -4 105.387 9.54678   5
  -4   1  -4 94.0242 12.6091   5
   4  -1  -4 81.3525 14.1161   2
  -4   1  -4 116.368 6.68438   6
   4  -1  -4 103.249 7.81552   1
  -4  -1   4 107.754 5.22514   6
  -4  -1   4 108.723 5.88409   1
  -4  -1   4 86.8187 17.7060   5
  -4  -1   4 104.062 8.56660   2
  -4   1  -4 95.7179 12.7203   2
  -4   1  -4 83.3532 10.7180   5
   5   1  -4 4796.40 177.195   5
   5  -1   4 4710.68 179.845   5
   5  -1   4 4842.05 171.624   4
   5  -1   4 4887.47 171.760   7
  -5   1   4 4587.23 170.771   4
  -5  -1  -4 4709.41 171.293   6
  -5   1   4 4613.49 170.649   7
  -5   1   4 4728.99 171.160   6
  -5   1  -4 4751.76 171.188   4
   5   1   4 4710.68 178.822   5
   5  -1  -4 4656.41 171.321   6
  -5  -1   4 4475.31 170.782   6
   5  -1  -4 4710.73 176.786   5
  -5  -1   4 4886.67 174.744   5
   5   1   4 4657.46 171.590   4
   5   1   4 5205.35 174.066   7
  -5  -1   4 4763.70 170.883   4
  -5   1  -4 4696.56 171.730   6
  -6  -1  -4 2137.41 76.6130   6
  -6   1   4 2107.15 76.0035   4
  -6   1   4 2098.89 76.3438   6
   6  -1   4 2147.39 76.9292   4
   6  -1   4 2176.20 77.0653   7
  -6   1   4 2023.18 75.5717   7
   6  -1  -4 1846.32 76.3430   6
  -6  -1   4 1980.66 76.0317   4
   6   1   4 2099.26 77.1058   7
  -6   1  -4 2157.46 77.1534   6
   6   1   4 2132.52 76.9134   4
  -6  -1   4 2132.25 76.0642   6
   7  -1   4 1244.57 47.2149   4
  -7   1   4 1279.89 46.6457   6
   7  -1   4 1272.81 47.3547   7
  -7  -1  -4 1264.61 46.8512   6
   7  -1  -4 1206.10 46.7137   6
   7   1   4 1226.13 47.1562   4
  -7   1  -4 1249.95 47.4955   6
   7   1   4 1233.26 47.3529   7
  -7  -1   4 1275.44 46.2760   6
   8  -1   4 380.109 16.1357   7
   8  -1   4 393.397 16.3602   4
  -8   1   4 384.208 15.3934   6
  -8  -1  -4 368.754 15.3945   6
  -8  -1   4 385.903 15.0904   6
   8   1   4 365.819 16.0891   4
   8   1   4 371.498 16.2642   7
   8  -1  -4 367.254 15.7718   6
  -8   1  -4 383.852 16.4648   6
  -9   1   4 665.539 24.6183   6
   9  -1   4 677.903 25.1365   7
  -9  -1  -4 603.114 23.9080   6
  -9  -1   4 672.666 24.4646   6
   9  -1  -4 667.102 25.0922   6
  -9   1  -4 628.410 24.9548   6
   9   1   4 625.943 25.1772   7
   0   2  -4 11.9987 3.34365   5
   0   2   4 11.5349 1.19546   1
   0  -2  -4 7.69253 1.73634   5
   0  -2   4 17.6885 3.55104   2
   0  -2   4 9.32275 1.74046   1
   0   2   4 15.1049 2.30931   2
   0   2  -4 13.1471 3.02907   5
   0   2  -4 10.7161 2.51433   2
   0  -2  -4 11.7522 2.56807   2
   0   2   4 8.13362 2.59942   5
   0  -2   4 9.53228 3.19287   5
   0  -2   4 6.82214 3.92789   5
   0   2  -4 8.50900 1.36284   1
   0  -2  -4 11.7379 1.81575   5
   1  -2   4 461.355 18.4839   1
   1  -2   4 439.129 20.2027   5
  -1  -2  -4 436.669 17.1439   1
   1   2  -4 451.581 18.9776   5
   1  -2   4 446.561 18.8497   5
   1  -2   4 483.972 20.3174   2
  -1   2   4 416.666 19.7270   5
  -1   2   4 444.697 18.0629   2
   1   2  -4 446.805 18.9004   2
  -1   2   4 450.342 17.3335   1
  -1  -2  -4 450.678 17.8619   2
   1   2  -4 451.007 17.8060   1
   1  -2  -4 451.651 18.2296   1
  -1   2  -4 470.767 18.8546   2
  -1   2  -4 413.784 19.4448   5
  -1  -2   4 431.666 18.7864   2
   1  -2  -4 481.501 18.1826   5
  -1   2  -4 489.919 17.8733   1
   1  -2  -4 455.523 19.3533   5
   1   2   4 492.765 18.2080   2
  -1  -2   4 438.111 19.3242   5
  -1  -2   4 465.897 19.3848   5
   1   2   4 475.158 17.3589   1
  -1   2  -4 454.240 19.5035   5
   1  -2  -4 425.487 19.5244   2
  -1  -2   4 417.135 17.6818   1
  -2  -2  -4 4002.76 150.917   2
   2  -2   4 4179.91 152.955   5
  -2   2   4 3898.80 155.239   5
   2  -2   4 4236.47 155.154   5
   2   2  -4 4215.58 154.210   2
   2   2  -4 4281.84 153.776   5
  -2   2   4 4515.43 153.100   2
   2  -2   4 4254.27 154.718   2
  -2   2  -4 4109.33 153.238   2
  -2   2  -4 4209.27 154.859   5
  -2   2  -4 4018.59 153.810   5
  -2  -2   4 4174.72 152.943   5
  -2   2  -4 4081.82 150.580   3
   2  -2  -4 4299.98 154.513   5
  -2  -2   4 4250.34 154.263   5
   2   2   4 4154.21 151.499   5
   2  -2  -4 4229.59 154.493   2
   2   2   4 4178.03 152.349   5
   2  -2  -4 4259.31 153.616   5
  -2  -2   4 4186.45 152.301   2
  -3   2   4 127.507 6.77949   1
  -3  -2  -4 128.944 5.18249   1
   3   2  -4 100.973 11.9298   2
  -3  -2  -4 122.694 5.83167   1
  -3  -2  -4 122.076 5.95100   2
   3   2  -4 131.099 10.4578   5
  -3   2   4 114.133 8.94032   2
  -3  -2  -4 110.155 7.63038   2
   3   2  -4 102.276 7.49046   1
   3  -2   4 132.527 11.0845   5
  -3   2  -4 113.352 11.4116   2
   3  -2  -4 121.533 7.67016   1
  -3  -2   4 101.660 12.2999   5
  -3  -2   4 127.908 5.97825   1
  -3   2  -4 118.122 5.72370   3
   3   2   4 123.607 7.81473   5
  -3  -2   4 131.210 7.66672   2
  -3   2  -4 124.499 7.57544   1
   3  -2  -4 102.961 13.4956   5
   3  -2  -4 112.585 11.8927   2
  -3   2  -4 129.151 10.5862   5
   3  -2  -4 129.316 9.16713   5
   3   2   4 122.017 8.71817   5
  -3  -2   4 131.005 8.35673   5
  -4   2   4 1309.49 49.2073   4
   4  -2   4 1358.77 49.8951   7
   4  -2   4 1372.85 49.8936   4
   4   2  -4 1334.88 55.3121   5
   4  -2   4 1311.39 56.4693   5
  -4   2   4 1322.00 49.1582   7
  -4   2  -4 1334.52 49.6999   4
  -4  -2   4 1313.11 48.9883   6
  -4   2  -4 1336.82 50.0987   6
  -4  -2   4 1335.19 52.1332   5
  -4   2  -4 1311.68 57.1156   2
   4   2   4 1418.22 54.8670   5
  -4   2  -4 1363.05 55.8752   5
  -4   2  -4 1314.65 49.2820   7
   4  -2  -4 1343.16 49.5874   6
   4  -2  -4 1378.30 53.7010   5
  -4   2  -4 1368.25 53.0486   1
  -5   2   4 142.950 6.63104   4
   5  -2   4 133.759 7.82842   7
  -5  -2  -4 135.107 7.45479   6
  -5   2   4 141.045 6.76900   7
   5  -2   4 148.220 7.71547   4
  -5   2   4 135.642 7.34698   6
   5   2  -4 117.573 18.2727   5
   5  -2   4 143.859 9.72916   6
   5  -2   4 159.234 20.6056   5
  -5  -2   4 138.475 6.48250   6
   5   2   4 181.756 20.3375   5
  -5   2  -4 138.437 7.58399   4
  -5   2  -4 140.607 8.15176   6
  -5   2  -4 138.048 19.6459   5
   5  -2  -4 150.964 16.1853   5
   5  -2  -4 140.557 7.46178   6
  -6   2   4 940.553 34.3695   7
  -6   2   4 922.651 34.5695   4
  -6  -2  -4 879.755 34.6431   6
   6  -2   4 930.614 35.4327   7
   6  -2   4 918.195 35.4103   4
  -6   2   4 930.995 35.0517   6
  -6   2  -4 921.163 35.8979   6
  -6  -2   4 936.294 34.4347   6
   6  -2  -4 905.971 35.0749   6
  -6   2  -4 964.163 35.1885   4
  -7   2   4 186.825 8.98014   6
   7  -2   4 191.149 10.0136   4
  -7  -2  -4 190.747 8.66859   6
  -7   2   4 185.848 8.69436   4
   7  -2   4 193.496 9.75826   7
   7  -2   4 164.297 12.0558   6
   7  -2  -4 188.554 9.34532   6
   7   2   4 181.578 10.5166   7
  -7  -2   4 202.942 8.52794   6
  -7   2  -4 192.378 10.2890   6
   7   2   4 185.784 10.6134   4
   8  -2   4 830.914 29.9914   7
   8  -2   4 757.735 29.9117   4
  -8   2   4 771.070 29.1563   4
  -8   2   4 778.564 29.4586   6
  -8   2  -4 788.130 30.5094   6
   8  -2  -4 760.518 29.5630   6
  -8  -2   4 769.006 29.0065   6
   8   2   4 779.024 30.2421   7
   8   2   4 724.029 29.7365   4
  -9   2   4 125.176 6.06808   6
   9  -2   4 128.353 6.50141   7
  -9   2  -4 122.511 6.93028   6
  -9  -2   4 112.415 5.74830   6
   9   2   4 127.954 7.02078   7
   9  -2  -4 120.517 6.67976   6
   0  -3   4 27.2970 5.34476   5
   0   3  -4 19.3867 4.85728   5
   0  -3  -4 21.9864 2.03595   1
   0  -3   4 19.2620 5.67866   5
   0   3  -4 20.8891 2.11472   1
   0  -3   4 14.3366 3.50282   2
   0   3   4 20.2666 4.15801   5
   0  -3   4 22.6077 2.60659   1
   0   3  -4 19.7826 4.00595   5
   0   3  -4 23.7490 4.12075   2
   0  -3  -4 21.5759 4.04874   2
   1  -3   4 1423.39 55.2527   1
  -1   3   4 1345.80 57.1202   5
  -1   3   4 1467.32 53.8612   1
   1   3  -4 1509.74 55.8775   5
  -1   3   4 1525.29 54.7450   2
   1  -3   4 1413.44 55.9176   5
   1   3  -4 1477.91 55.6178   2
   1  -3   4 1540.21 57.8970   5
  -1  -3  -4 1495.05 53.7949   2
   1   3  -4 1408.98 54.3117   1
   1  -3   4 1516.50 57.4607   2
   1  -3  -4 1501.49 56.4345   2
  -1   3  -4 1448.06 55.7228   2
  -1  -3   4 1442.76 56.0320   5
  -1  -3   4 1462.70 54.7213   1
  -1   3  -4 1306.45 56.6840   5
  -1   3  -4 1549.59 56.9912   5
  -1   3  -4 1433.22 54.4693   1
  -1  -3   4 1529.20 56.5328   5
   1  -3  -4 1603.07 53.4162   5
   1   3   4 1495.68 54.7331   5
   1  -3  -4 1454.77 53.8434   5
  -1  -3   4 1452.28 55.9870   2
   1   3   4 1438.43 53.5828   2
   1  -3  -4 1441.55 54.8290   1
   2  -3   4 2988.32 113.604   5
   2  -3   4 3255.97 116.439   5
   2  -3   4 3042.10 113.458   1
   2   3  -4 3158.73 113.089   1
  -2   3   4 3177.12 113.472   2
   2  -3   4 3094.70 115.791   2
   2   3  -4 3036.74 113.579   5
   2   3  -4 3301.08 115.405   2
   2  -3  -4 2862.52 112.909   1
  -2  -3   4 2903.29 113.864   5
  -2  -3   4 2963.92 113.134   2
   2   3   4 3144.84 112.236   5
  -2   3  -4 2975.27 112.448   1
   2   3   4 3025.29 111.357   5
  -2   3  -4 2962.40 110.812   3
   2  -3  -4 3126.02 114.226   5
   2  -3  -4 3011.80 114.957   2
  -2  -3   4 2909.04 111.876   1
   2  -3  -4 3243.90 113.015   5
  -2   3  -4 3151.72 114.233   2
  -2  -3   4 3161.14 113.513   5
   3  -3   4 318.056 18.7896   5
   3   3  -4 295.482 16.3442   5
   3  -3   4 260.093 13.0879   6
  -3   3   4 280.666 12.0267   4
  -3   3   4 298.001 14.2393   7
   3  -3   4 294.378 12.7193   4
   3  -3   4 306.509 12.8968   7
  -3   3  -4 298.040 11.9345   3
  -3   3  -4 313.457 14.9869   1
  -3   3  -4 309.307 20.0809   2
   3  -3  -4 291.959 12.2230   6
  -3  -3   4 292.145 11.9070   6
  -3  -3   4 311.606 14.8759   5
  -3   3  -4 292.544 12.4112   7
  -3   3  -4 302.373 14.0612   1
   3   3   4 292.717 13.4071   5
  -3   3  -4 301.939 18.5210   5
   3   3   4 308.462 15.1180   5
   3  -3  -4 327.465 17.0184   5
   3  -3  -4 272.892 21.4102   5
   4  -3   4 415.457 16.7297   4
   4  -3   4 406.186 16.6443   7
  -4   3   4 375.135 16.9189   6
   4  -3   4 420.900 25.2077   5
  -4   3   4 417.888 16.1030   7
  -4   3   4 412.446 16.0365   4
   4   3  -4 394.782 24.2739   5
  -4   3  -4 417.169 16.3056   7
   4  -3  -4 392.437 21.5515   5
  -4   3  -4 409.020 25.3789   5
  -4  -3   4 384.628 15.6577   6
   4  -3  -4 425.395 16.4122   6
  -4   3  -4 418.264 17.3886   6
   5  -3   4 765.830 29.0580   4
  -5   3   4 755.101 28.9484   6
  -5   3   4 750.062 28.3603   4
  -5   3   4 770.491 28.3018   7
   5  -3   4 729.407 29.6305   6
   5  -3   4 777.865 28.8969   7
   5  -3  -4 738.791 28.7297   6
  -5  -3   4 696.702 27.9317   6
  -5   3  -4 747.377 29.6103   6
  -5   3  -4 759.827 28.3604   7
  -6   3   4 552.692 21.2493   4
  -6   3   4 569.442 21.1848   7
   6  -3   4 538.306 21.8197   7
   6  -3   4 535.723 22.8789   6
  -6   3   4 575.648 21.8540   6
   6  -3   4 543.481 22.0501   4
   6  -3  -4 528.285 21.6255   6
  -6   3  -4 530.874 21.8152   4
  -6  -3   4 544.702 20.9292   6
  -6   3  -4 551.180 22.8857   6
  -7   3   4 190.394 9.28989   6
  -7   3   4 189.260 8.58258   7
   7  -3   4 189.489 9.91661   4
  -7   3   4 189.523 8.76830   4
   7  -3   4 188.871 11.0907   6
   7  -3   4 200.319 9.49924   7
   7  -3  -4 187.202 9.33441   6
  -7   3  -4 198.030 10.6162   6
  -7  -3   4 189.503 8.55798   6
  -7   3  -4 198.145 9.47588   4
   7   3   4 194.218 11.5053   7
  -8   3   4 84.5819 5.61528   6
   8  -3   4 93.0274 5.83988   7
   8  -3   4 79.0389 6.42146   4
   8  -3   4 97.2365 8.11921   6
  -8   3   4 88.9313 5.39109   4
  -8  -3   4 93.6451 5.11377   6
  -8   3  -4 84.8453 7.08650   6
   8   3   4 87.1110 7.00735   7
   8  -3  -4 92.2887 5.75406   6
  -9   3   4 132.558 6.66398   4
  -9   3   4 144.505 6.55118   6
   9   3   4 143.425 7.25797   7
  -9  -3   4 135.880 6.20811   6
   9  -3  -4 144.034 6.87883   6
  -9   3  -4 152.372 7.65139   6
   0  -4   4 101.949 9.93334   5
   0  -4   4 102.731 9.86195   2
   0  -4   4 117.888 6.89558   6
   0   4  -4 107.182 8.06592   2
   0  -4   4 116.706 10.4218   5
   0   4   4 103.543 10.9196   5
   0  -4   4 99.9364 6.43336   1
   0   4  -4 112.565 8.88780   5
   0   4  -4 110.852 5.87523   1
   1  -4   4 630.532 25.2502   6
   1   4  -4 626.366 27.8617   2
   1  -4   4 639.568 29.8906   2
   1  -4   4 606.789 29.8473   5
  -1   4   4 591.345 31.3280   5
  -1   4   4 668.180 25.9392   2
   1   4  -4 695.018 27.8408   5
   1   4  -4 621.112 25.8876   1
   1  -4   4 691.503 30.0655   5
  -1   4   4 684.104 24.9316   1
   1  -4   4 662.199 27.0211   1
  -1   4  -4 686.538 25.9887   1
  -1  -4   4 657.903 27.7865   5
  -1  -4   4 642.548 25.0365   6
   1   4   4 662.874 26.6649   5
   1  -4  -4 665.980 27.9561   2
   1  -4  -4 680.408 25.8176   1
  -1   4  -4 661.373 27.8479   2
  -1   4  -4 687.221 29.6549   5
   2  -4   4 70.4941 5.95955   4
   2  -4   4 99.4329 12.2826   5
   2  -4   4 77.2318 5.62468   6
   2   4  -4 80.1238 7.41749   5
   2   4   4 78.5023 6.54353   5
   2  -4  -4 77.1412 4.75312   6
  -2   4  -4 86.9240 11.3076   5
  -2  -4   4 69.8060 5.19979   6
  -2   4  -4 72.3638 10.0629   2
  -2   4  -4 81.1238 4.57041   3
  -2   4  -4 76.4092 5.57913   1
  -3   4   4 273.563 12.1625   7
   3   4  -4 281.353 16.3232   5
  -3   4   4 294.220 12.0215   4
   3  -4   4 287.999 12.9893   6
   3  -4   4 301.319 12.7077   4
   3  -4   4 291.504 20.4681   5
   3  -4   4 295.880 12.6789   7
  -3   4  -4 302.790 12.3796   7
  -3   4  -4 284.533 14.0686   6
   3  -4  -4 272.868 17.0875   5
  -3   4  -4 309.754 12.0357   3
   3  -4  -4 299.060 12.0493   6
  -3   4  -4 278.615 20.4843   5
  -3  -4   4 284.964 12.0191   6
  -4   4   4 450.826 18.1839   7
   4  -4   4 465.558 18.7911   4
   4  -4   4 481.865 18.4357   7
   4   4  -4 418.133 26.0730   5
  -4   4   4 461.432 18.2197   4
   4  -4   4 467.831 19.2487   6
  -4   4  -4 474.289 19.8394   6
  -4  -4   4 437.708 17.9800   6
   4  -4  -4 470.783 18.4092   6
  -4   4  -4 471.295 18.2593   3
  -4   4  -4 478.082 18.4818   7
   5  -4   4 666.342 25.9122   6
   5  -4   4 632.839 25.0214   4
  -5   4   4 550.221 25.0946   6
   5  -4   4 671.021 24.6161   7
  -5   4   4 650.456 24.5374   7
  -5   4   4 636.045 24.5794   4
  -5   4  -4 638.481 26.0202   6
  -5  -4   4 617.026 24.2997   6
  -5   4  -4 635.565 25.2334   4
  -5   4  -4 679.452 24.7637   7
   5  -4  -4 643.334 24.8820   6
  -6   4   4 186.894 9.75777   6
   6  -4   4 186.797 10.5577   6
   6  -4   4 190.090 9.67786   4
  -6   4   4 192.712 8.77817   7
  -6   4   4 195.305 8.85051   4
   6  -4   4 186.452 8.98139   7
  -6   4  -4 187.063 10.8084   6
   6  -4  -4 189.637 9.17804   6
  -6   4  -4 211.065 9.91294   4
  -6   4  -4 188.917 9.09406   7
  -6  -4   4 191.489 8.74843   6
   7  -4   4 23.8038 3.64858   4
  -7   4   4 21.9284 3.54222   7
  -7   4   4 22.0562 3.31495   4
  -7   4   4 28.3583 4.71780   6
   7  -4   4 23.6228 4.29018   6
   7  -4  -4 25.1847 3.44128   6
  -7   4  -4 25.0812 4.95990   6
  -7  -4   4 27.6945 3.93185   6
  -7   4  -4 31.1073 4.56631   4
  -8   4   4 446.509 17.1333   4
  -8   4   4 424.675 17.2406   6
   8  -4   4 432.517 18.2632   6
   8   4   4 425.519 18.0469   7
  -8   4  -4 425.339 17.0139   4
   8  -4  -4 444.242 17.3748   6
  -8   4  -4 457.620 18.4851   6
   0  -5   4 28.0181 3.52149   6
   0   5  -4 26.1172 8.28264   5
   1  -5   4 277.164 12.1956   6
   1   5  -4 286.119 16.7541   5
  -1  -5   4 277.178 12.0024   6
  -1   5  -4 283.266 19.9276   5
   1  -5  -4 279.351 11.1643   6
  -2   5   4 2092.52 77.6098   4
   2   5  -4 2122.68 81.7630   5
   2  -5   4 2103.30 78.1899   6
   2  -5   4 2092.72 77.7834   4
  -2   5  -4 2182.05 77.6885   3
  -2   5  -4 2071.03 86.2974   5
  -2  -5   4 2163.96 77.7419   6
   2  -5  -4 2204.08 77.3488   6
  -3   5   4 560.721 21.8611   7
  -3   5   4 561.598 21.7045   4
   3  -5   4 561.387 22.0691   4
   3   5  -4 455.138 31.2608   5
   3  -5   4 534.252 34.7928   5
  -3   5  -4 602.504 21.8392   3
  -3  -5   4 560.710 21.7134   6
  -3   5  -4 571.581 23.8229   6
   3  -5  -4 598.588 21.6282   6
  -4   5   4 1203.83 45.7440   7
   4  -5   4 1219.82 46.7403   6
   4  -5   4 1231.69 46.0327   4
  -4   5   4 1258.91 45.8303   4
   4  -5  -4 1241.79 45.7891   6
  -4   5  -4 1199.53 47.2631   6
  -4  -5   4 1234.75 45.6416   6
  -4   5  -4 1227.90 46.0314   7
  -4   5  -4 1232.71 46.4427   4
  -4   5  -4 1265.95 45.8886   3
   5  -5   4 544.751 21.9312   4
  -5   5   4 537.149 21.5028   7
  -5   5   4 550.197 21.6002   4
   5  -5   4 559.554 22.7882   6
  -5   5  -4 572.759 21.8763   7
  -5   5  -4 549.065 23.3153   6
  -5   5  -4 558.179 22.4225   4
   5  -5  -4 548.723 21.6726   6
  -5  -5   4 530.320 21.3906   6
   6  -5   4 323.513 14.3894   4
  -6   5   4 337.708 14.0232   4
  -6   5   4 341.763 16.1532   6
   6  -5   4 346.889 15.5932   6
  -6   5   4 342.202 13.9691   7
  -6   5  -4 337.119 13.9113   7
  -6   5  -4 348.053 14.8966   4
  -6   5  -4 333.520 15.8132   6
   6  -5  -4 334.126 14.1892   6
  -7   5   4 433.222 17.0674   4
  -7   5   4 464.052 17.6748   6
  -7   5   4 415.270 16.6665   7
   7  -5   4 416.193 17.3480   4
   7  -5   4 431.855 18.2922   6
   7  -5  -4 427.939 17.2834   6
  -7   5  -4 418.751 18.7306   6
  -7   5  -4 444.952 17.6743   4
  -8   5   4 770.309 27.6869   4
   8  -5   4 735.490 28.3962   6
  -8   5  -4 707.317 27.5539   4
   8  -5  -4 739.434 27.7341   6
   0  -6   4 38.3651 4.94740   6
   0   6  -4 28.8160 19.5386   5
   1  -6   4 451.574 17.9268   6
   1  -6  -4 420.534 16.3687   6
  -1  -6   4 427.489 17.4487   6
  -2   6   4 116.672 7.06888   4
  -2   6   4 96.1635 7.46454   7
  -2  -6   4 108.379 6.64889   6
   2  -6  -4 108.086 5.55742   6
  -2   6  -4 109.179 6.66953   7
  -2   6  -4 108.788 6.11398   3
  -3   6   4 1393.42 51.0492   4
   3  -6   4 1397.76 51.8608   6
  -3   6   4 1357.39 51.1530   7
  -3   6  -4 1359.13 51.3468   7
   3  -6  -4 1393.33 50.6872   6
  -3  -6   4 1326.98 50.7626   6
  -3   6  -4 1421.69 51.2175   3
  -4   6   4 117.120 6.42615   4
   4  -6   4 105.576 7.53253   6
  -4   6   4 115.828 6.58936   7
  -4   6  -4 110.916 6.53374   3
   4  -6  -4 120.555 6.25486   6
  -4   6  -4 109.027 7.20557   4
  -4   6  -4 110.147 6.89499   7
   5  -6   4 55.4234 6.23085   4
  -5   6   4 73.8082 5.16026   7
  -5   6   4 73.8581 5.21981   4
   5  -6   4 80.2676 6.86650   6
  -5   6  -4 74.6832 6.33904   4
  -5   6  -4 68.6937 9.41087   6
   5  -6  -4 76.7364 4.98642   6
  -5   6  -4 77.2065 5.51349   7
  -6   6   4 102.301 5.71280   4
   6  -6   4 107.600 7.33541   6
  -6   6   4 98.6484 5.68813   7
  -6   6  -4 98.2237 6.00966   7
  -6   6  -4 93.7063 8.82808   6
   6  -6  -4 102.118 5.78544   6
  -6   6  -4 94.3515 6.56124   4
  -7   6   4 362.305 14.4115   4
   7  -6   4 363.987 15.3120   6
  -7   6   4 375.850 14.1903   7
   7  -6  -4 345.708 14.3537   6
  -7   6  -4 362.270 15.8414   6
  -7   6  -4 365.748 14.9014   4
   1  -7   4 310.772 14.2702   6
  -1   7  -4 356.335 14.1472   3
  -2   7   4 1173.50 45.1596   7
   2  -7   4 1200.31 45.5080   6
  -2   7  -4 1212.66 45.3718   7
  -2   7  -4 1243.72 45.2354   3
   3  -7   4 147.756 8.14638   6
  -3   7   4 136.146 7.54644   4
  -3   7   4 137.711 7.67546   7
  -3   7  -4 145.080 7.56142   3
   3  -7  -4 135.346 6.58806   6
  -3   7  -4 142.326 7.98983   7
  -3   7  -4 146.775 8.41026   4
  -4   7   4 179.507 8.90973   7
   4  -7   4 180.301 9.62879   6
  -4   7   4 174.027 8.49855   4
  -4   7  -4 200.129 9.88584   4
  -4   7  -4 184.106 9.22039   7
   4  -7  -4 184.260 8.19711   6
  -5   7   4 122.883 6.96782   7
  -5   7   4 158.018 7.06619   4
   5  -7   4 127.330 8.01469   6
  -5   7  -4 123.453 7.79772   4
  -5   7  -4 128.308 7.39054   7
   5  -7  -4 155.963 6.73564   6
  -6   7   4 13.0292 2.06812   4
   6  -7   4 14.6204 3.24201   6
  -6   7   4 13.5445 2.17284   7
  -6   7  -4 9.07772 2.52071   4
  -6   7  -4 10.1898 2.28537   7
   6  -7  -4 16.8579 2.59811   6
   0   8  -4 374.080 15.4624   3
   0  -8   4 380.488 15.3496   6
   1  -8   4 254.953 11.4828   6
  -1   8  -4 254.282 11.3028   3
  -1   8  -4 261.265 11.6196   7
  -2   8   4 41.1322 5.29044   7
   2  -8   4 35.7633 4.90843   6
  -2   8  -4 36.4514 4.74435   7
  -2   8  -4 38.6432 4.17730   3
  -2   8  -4 39.6081 5.38707   4
   3  -8   4 260.969 11.9290   6
  -3   8   4 264.854 11.2788   4
  -3   8   4 275.226 11.6950   7
  -3   8  -4 259.107 11.8580   7
  -3   8  -4 260.043 11.6106   3
  -4   8   4 146.126 6.94671   4
  -4   8   4 142.819 7.32219   7
   4  -8   4 147.722 7.69265   6
  -4   8  -4 151.458 7.72923   7
  -4   8  -4 157.320 8.17890   4
   4  -8  -4 141.729 6.22434   6
  -5   8   4 233.484 9.48290   7
   5  -8   4 211.908 9.79484   6
  -5   8   4 211.138 9.19738   4
  -5   8  -4 208.173 9.50790   7
  -5   8  -4 227.356 10.1110   4
   5  -8  -4 220.670 8.67214   6
   0   9  -4 3.60769 2.46783   7
   0   9  -4 3.83865 3.62591   4
   0   9  -4 3.02370 2.33615   3
   1   9  -4 128.218 7.07228   7
   1   9  -4 129.165 6.63847   3
  -1   9  -4 134.519 7.12878   7
  -1   9  -4 121.230 6.61195   3
  -1   9  -4 130.491 8.04663   4
  -2   9   4 60.4739 5.27878   7
   2  -9   4 47.5664 4.18450   6
   2   9  -4 57.7438 4.42508   3
  -2   9  -4 47.5923 4.70118   7
  -2   9  -4 49.9057 4.31551   3
  -2   9  -4 42.7263 5.29643   4
   3  -9   4 567.786 21.1609   6
  -3   9   4 559.847 21.4562   7
  -3   9  -4 557.855 21.9541   4
  -3   9  -4 553.599 21.7106   7
   4  -9   4 848.122 33.6736   6
  -4   9   4 916.506 33.9725   7
  -4   9   4 912.779 33.7994   4
  -4   9  -4 950.525 34.1606   7
  -4   9  -4 962.870 34.4144   4
   0   0  -5 -0.9313 2.03520   2
   0   0   5 -0.0986 2.12299   2
   0   0  -5 1.69771 2.22592   5
   0   0   5 1.40037 3.72705   5
   1   0   5 2044.19 76.2762   2
  -1   0  -5 2115.00 75.6235   5
  -1   0   5 2157.93 75.7691   5
   1   0   5 1955.86 74.7687   1
   1   0   5 2098.30 76.1911   5
   1   0  -5 1961.43 75.9588   2
   1   0   5 1979.45 75.1962   5
   1   0  -5 1907.27 74.6257   1
   1   0  -5 2162.58 75.5902   5
  -1   0  -5 2013.30 74.5993   2
  -1   0   5 2020.68 74.8206   2
  -1   0   5 1918.51 76.0267   5
  -2   0  -5 5.37476 2.15564   2
   2   0  -5 4.78466 3.79811   5
  -2   0   5 4.04433 1.26265   1
  -2   0   5 10.0364 5.82217   5
   2   0  -5 5.20007 2.29097   1
   2   0   5 5.76600 3.73237   2
  -2   0  -5 6.75238 3.92273   5
  -2   0  -5 5.21632 1.24953   1
   2   0   5 7.71615 3.95800   5
  -2   0   5 4.89077 2.41516   2
   2   0  -5 6.22589 4.44385   2
   3   0  -5 5268.40 204.300   1
  -3   0  -5 5885.44 204.804   5
   3   0   5 5659.47 206.286   5
   3   0  -5 5799.48 206.206   5
   3   0  -5 5385.29 206.937   2
  -3   0   5 5568.79 203.491   2
  -4   0   5 0.80054 1.90086   6
   4   0   5 1.59965 7.29902   5
   4   0  -5 4.45958 2.66418   6
  -4   0   5 5.18311 2.47848   7
   4   0  -5 -0.8217 9.84579   2
   4   0  -5 4.69593 3.19968   1
  -4   0   5 5.20546 1.91478   4
   4   0  -5 7.55594 7.40388   5
  -4   0  -5 3.83080 2.77152   6
  -4   0   5 3.33416 2.02756   1
   4   0   5 4.62161 3.01602   4
  -4   0   5 4.51222 8.08690   2
  -5   0   5 739.305 27.0277   4
  -5   0  -5 735.964 27.7946   6
  -5   0   5 719.690 26.7628   7
  -5   0   5 736.786 27.0075   6
   5   0   5 676.432 38.2589   5
   5   0  -5 747.386 27.4400   6
   5   0  -5 659.069 35.8012   5
   5   0   5 687.107 28.0418   7
   5   0   5 712.419 27.8164   4
  -6   0   5 157.347 7.71880   4
  -6   0   5 158.956 7.42316   6
  -6   0  -5 154.255 8.57641   6
   6   0  -5 153.845 8.15015   6
   6   0   5 154.544 8.68501   4
   6   0   5 157.149 9.12503   7
   7   0   5 35.4854 5.41207   7
  -7   0  -5 22.7129 3.93823   6
   7   0   5 25.0498 4.00999   4
  -7   0   5 24.2126 3.66057   4
   7   0  -5 27.5060 3.92690   6
  -8   0   5 2.57290 1.99098   6
   8   0   5 6.34041 3.29750   4
   8   0   5 -0.8007 2.82484   7
  -8   0  -5 0.82302 2.83187   6
  -9   0  -5 327.577 13.3499   6
  -9   0   5 323.688 13.3129   6
   9   0   5 359.182 14.3288   7
   0   1  -5 2235.34 85.7117   2
   0  -1  -5 2326.61 85.5132   5
   0   1   5 2381.88 86.0045   5
   0   1  -5 2334.30 86.4081   5
   0  -1   5 2400.85 86.6839   2
   0  -1   5 2407.94 87.0496   5
   0   1   5 2351.73 86.8091   5
   0  -1   5 2255.83 87.3153   5
   0   1   5 2260.04 85.7115   2
   1  -1   5 1802.94 66.9629   2
   1   1  -5 1844.08 66.1095   5
  -1   1   5 1810.63 64.9910   2
   1  -1   5 1676.98 65.1879   1
  -1  -1  -5 1694.70 64.7501   2
   1   1  -5 1745.56 66.2274   2
   1   1  -5 1636.12 64.7579   1
   1  -1   5 1727.57 65.7858   5
  -1   1   5 1653.16 66.3987   5
   1  -1   5 1813.39 67.1796   5
  -1  -1   5 1678.07 66.4446   5
   1   1   5 1780.07 65.8044   5
   1  -1  -5 1816.82 65.4165   5
  -1  -1   5 1749.95 66.2329   5
   1   1   5 1921.61 66.4221   2
   1   1   5 1728.24 65.4013   5
   1   1   5 1879.38 65.0368   1
  -1  -1   5 1780.69 65.4919   2
  -1   1  -5 1746.48 66.2627   5
   1  -1  -5 1645.24 65.0452   1
   1  -1  -5 1714.93 66.6347   2
  -2   1   5 1244.04 45.4416   2
  -2  -1  -5 1250.47 44.7016   5
   2  -1   5 1093.80 45.5651   5
  -2  -1  -5 1165.06 44.4183   2
   2   1  -5 1228.06 47.8831   2
  -2   1   5 1044.14 48.0967   5
  -2   1   5 1154.80 44.1562   1
   2   1  -5 1356.46 47.3022   5
  -2  -1  -5 1142.04 43.7271   1
   2  -1   5 1208.32 47.9526   5
   2   1  -5 1196.85 45.5912   1
   2   1   5 1197.27 46.2500   2
  -2   1  -5 1193.34 45.5704   2
  -2   1  -5 1135.70 46.0940   5
   2  -1  -5 1181.05 47.9075   2
   2  -1  -5 1166.99 45.7114   1
  -2  -1   5 1081.01 43.9819   1
   2   1   5 1144.83 45.0480   5
  -2  -1   5 1200.09 45.2632   2
   2   1   5 1191.26 44.7507   1
  -2  -1   5 1089.17 47.5066   5
  -2   1  -5 1164.12 44.3838   1
   2  -1  -5 1300.16 46.8490   5
   2   1   5 1274.65 46.8146   5
  -2   1  -5 1210.25 47.5531   5
  -2  -1   5 1292.30 46.3719   5
   3   1  -5 1740.68 68.2351   1
  -3   1   5 1891.68 66.5121   1
   3  -1   5 1803.99 70.8036   5
  -3  -1  -5 1741.70 65.4091   1
   3  -1   5 1844.49 70.4983   2
   3  -1   5 1800.67 67.7527   1
   3   1  -5 1922.66 70.3552   5
   3   1  -5 1750.49 71.2542   2
  -3  -1  -5 1793.71 66.3425   2
   3   1   5 1643.80 67.2037   5
   3   1   5 1819.67 69.4800   5
  -3   1  -5 1781.30 68.0992   2
   3  -1  -5 1761.35 68.1239   1
  -3  -1   5 1768.96 66.0055   1
   3  -1  -5 1848.28 69.8374   5
  -3  -1   5 1769.90 67.2214   2
  -3   1  -5 1734.71 66.4136   1
  -3   1  -5 1642.38 68.0760   5
  -3   1  -5 1916.38 70.2147   5
   3  -1  -5 1771.92 71.1905   2
   4   1  -5 203.066 16.0357   5
   4   1  -5 135.592 25.5818   2
   4  -1   5 196.313 9.86231   7
  -4  -1  -5 209.060 9.35067   6
  -4   1   5 205.121 8.61391   4
   4  -1   5 189.762 16.4810   5
  -4   1   5 204.976 8.62389   7
   4  -1   5 199.814 9.51681   4
  -4   1   5 199.606 8.89095   6
  -4   1  -5 189.938 9.62797   6
   4   1   5 208.973 16.1349   5
   4  -1  -5 215.476 15.3431   5
  -4  -1   5 192.436 8.43926   6
  -4  -1   5 213.011 13.0600   5
   4  -1  -5 203.804 9.09383   6
  -4  -1   5 210.021 9.12260   4
  -4   1  -5 190.827 9.75021   4
  -4   1  -5 207.441 16.3728   5
  -5   1   5 1792.22 65.5987   6
   5  -1   5 1822.98 66.3241   4
   5   1  -5 1648.92 74.2560   5
  -5  -1  -5 1856.91 66.0293   6
   5  -1   5 1651.81 75.9464   5
  -5   1   5 1865.50 65.2993   7
  -5   1   5 1817.16 65.4823   4
   5  -1   5 1854.99 66.5149   7
   5   1   5 1798.33 76.0280   5
  -5  -1   5 1892.05 65.6516   4
   5   1   5 1672.89 66.5960   7
   5  -1  -5 1868.41 65.8996   6
  -5  -1   5 1668.60 70.1030   5
  -5   1  -5 1812.94 65.9087   4
   5   1   5 1772.78 66.2647   4
  -5   1  -5 1830.10 66.4922   6
  -5  -1   5 1835.94 65.4309   6
  -6   1   5 1024.82 37.6084   6
   6  -1   5 1016.21 38.5010   7
  -6  -1  -5 1029.09 38.0624   6
  -6   1   5 966.852 36.9884   7
   6  -1   5 1028.66 38.4287   4
  -6   1   5 1009.02 37.4125   4
   6   1   5 977.365 38.5927   7
   6   1   5 1022.36 38.4164   4
  -6  -1   5 1011.37 37.3672   6
  -6   1  -5 1021.60 38.6200   6
  -6  -1   5 960.561 37.4996   4
   6  -1  -5 971.205 37.7126   6
  -7   1   5 202.965 9.17119   6
  -7  -1  -5 202.503 9.90008   6
   7  -1   5 202.988 10.2606   7
  -7   1   5 198.011 9.13992   4
   7  -1   5 199.581 10.1753   4
   7   1   5 195.998 10.5079   4
  -7   1  -5 188.683 10.2910   6
  -7  -1   5 206.182 8.99209   6
   7   1   5 197.642 10.5952   7
   7  -1  -5 195.605 9.40988   6
   8  -1   5 15.4556 3.58023   4
   8  -1   5 11.0361 3.04887   7
  -8   1   5 14.5058 2.44621   6
  -8   1   5 9.45899 3.24277   4
  -8  -1  -5 20.2181 3.20686   6
   8  -1  -5 9.96339 3.19592   6
   8   1   5 12.5358 3.38310   7
  -8   1  -5 10.5254 3.45921   6
   8   1   5 18.3462 3.60695   4
  -8  -1   5 16.1744 2.58316   6
   9  -1   5 1745.04 63.0144   7
   9  -1   5 1716.66 63.0321   4
  -9   1   5 1679.13 62.5056   6
   9   1   5 1746.18 63.2431   7
   9  -1  -5 1767.07 62.7721   6
  -9   1  -5 1637.87 62.7810   6
   0  -2  -5 383.047 15.2903   1
   0  -2   5 358.139 17.2295   2
   0   2  -5 390.188 17.0342   5
   0   2   5 374.945 16.8030   5
   0   2   5 359.128 14.7190   1
   0  -2   5 394.453 17.8302   5
   0  -2  -5 355.453 16.5535   2
   0   2  -5 371.282 14.9051   1
   0  -2   5 363.937 15.5803   1
   0   2   5 353.895 15.9037   2
   0  -2   5 353.804 18.2364   5
   0  -2  -5 414.619 14.9380   5
   0  -2  -5 368.562 15.4945   5
   0   2  -5 360.802 16.0008   2
   1  -2   5 311.620 16.0073   5
   1  -2   5 302.326 15.7527   2
   1  -2   5 311.508 13.6015   1
   1   2  -5 309.310 12.8983   1
  -1  -2  -5 298.475 13.3326   2
   1   2  -5 301.184 14.3252   5
  -1   2   5 297.370 12.0412   1
  -1   2   5 280.893 12.7419   2
   1  -2   5 284.687 14.8328   5
  -1  -2  -5 310.346 12.2824   1
   1   2  -5 299.928 14.4187   2
  -1   2   5 261.681 15.2537   5
   1  -2  -5 315.552 13.4584   1
  -1   2  -5 261.143 14.9718   5
   1  -2  -5 309.006 15.5184   2
  -1   2  -5 302.902 13.9679   2
  -1   2  -5 310.674 12.6350   1
   1   2   5 297.304 14.3925   5
   1  -2  -5 322.098 15.5410   5
  -1  -2   5 288.350 14.2370   2
  -1   2  -5 309.555 15.0557   5
   1   2   5 318.947 13.6119   5
   1  -2  -5 328.318 13.2873   5
  -1  -2   5 312.236 15.0544   5
  -1  -2   5 316.807 12.9556   1
  -1  -2   5 287.344 15.1790   5
   2   2  -5 1654.14 65.2123   1
  -2   2   5 1832.00 65.5088   2
  -2   2   5 1747.58 64.1129   1
  -2  -2  -5 1642.82 63.8575   2
   2   2  -5 1651.51 67.2243   2
   2  -2   5 1853.88 68.8242   5
   2  -2   5 1794.16 68.2847   2
   2  -2   5 1716.55 65.5896   1
   2   2  -5 1789.16 66.4598   5
  -2  -2   5 1674.87 64.1306   1
   2  -2  -5 1675.78 67.7513   5
   2   2   5 1860.74 66.1371   5
   2   2   5 1740.40 65.0954   2
  -2   2  -5 1814.70 68.2814   5
   2   2   5 1684.73 63.8501   1
   2  -2  -5 1680.75 65.5074   1
  -2  -2   5 1791.96 66.3264   5
  -2   2  -5 1814.99 63.1343   3
  -2  -2   5 1591.08 67.4733   5
  -2   2  -5 1643.22 64.3359   1
   2  -2  -5 1732.47 68.0152   2
   2   2   5 1701.21 64.5226   5
  -2  -2   5 1736.99 65.4621   2
   2  -2  -5 1886.34 65.8715   5
  -2   2  -5 1698.30 65.8277   2
  -3  -2  -5 734.622 29.6878   1
   3  -2   5 790.894 30.4470   4
  -3   2   5 783.346 29.9170   7
   3   2  -5 761.162 37.5586   2
   3   2  -5 786.298 33.2995   1
   3   2  -5 855.247 34.8926   5
  -3  -2  -5 815.042 30.6714   2
   3  -2   5 829.170 36.7272   5
  -3   2   5 778.368 29.7917   4
   3  -2   5 770.720 30.5109   7
  -3  -2   5 747.296 37.6140   5
  -3  -2   5 913.754 33.8141   5
  -3   2  -5 811.228 30.7160   6
  -3  -2   5 815.996 30.9458   1
   3   2   5 758.230 32.2020   5
   3   2   5 794.935 33.9299   5
   3  -2  -5 804.164 34.6255   5
  -3  -2   5 816.190 29.8191   6
  -3   2  -5 862.975 36.3356   5
  -3   2  -5 805.365 34.0361   2
  -3  -2   5 811.868 32.6984   2
  -3   2  -5 837.666 29.8621   3
  -3   2  -5 808.789 31.7095   1
   3  -2  -5 783.938 29.9964   6
   4  -2   5 1116.05 52.4269   5
   4  -2   5 1213.10 44.9424   7
  -4   2   5 1187.08 44.0850   4
  -4   2   5 1177.91 44.4052   6
   4  -2   5 1220.13 44.8962   4
  -4   2   5 1228.76 44.1300   7
   4   2  -5 1225.98 51.7723   5
  -4  -2  -5 1179.37 44.3126   6
   4   2   5 1215.35 50.8291   5
  -4  -2   5 1233.00 44.0446   6
   4  -2  -5 1154.33 50.5157   5
  -4   2  -5 1220.84 45.1661   6
  -4   2  -5 1171.10 44.1260   7
  -4   2  -5 1185.12 51.7545   5
  -4  -2   5 1182.48 48.1316   5
  -4  -2   5 1197.52 44.4887   4
   4  -2  -5 1266.23 44.4824   6
  -5   2   5 1271.17 44.2451   6
   5  -2   5 1217.23 45.6415   6
   5  -2   5 1033.61 44.4905   4
  -5  -2  -5 1297.95 44.1816   6
  -5   2   5 1102.26 43.6960   7
   5  -2   5 1169.39 44.7193   7
  -5   2   5 1274.91 43.9487   4
  -5   2  -5 1286.32 44.5829   4
  -5  -2   5 1150.47 43.7147   6
  -5   2  -5 1077.28 54.9437   5
   5  -2  -5 1310.28 44.4122   6
  -5   2  -5 1049.23 44.8513   6
   6  -2   5 400.772 16.7087   4
  -6   2   5 392.523 15.4621   7
   6  -2   5 401.602 16.7600   7
  -6   2   5 385.826 15.6647   4
   6  -2   5 354.596 18.1094   6
  -6  -2  -5 397.971 16.0454   6
  -6   2   5 380.491 15.9152   6
  -6   2  -5 411.965 17.3948   6
  -6  -2   5 398.806 15.5548   6
   6  -2  -5 388.964 16.0385   6
   6   2   5 362.350 17.7492   7
   6   2   5 411.764 17.5787   4
  -6   2  -5 396.218 16.4466   4
   7  -2   5 299.352 13.6284   4
  -7   2   5 299.721 12.7650   6
  -7   2   5 297.912 12.5622   4
  -7  -2  -5 296.629 12.3759   6
   7  -2   5 321.715 13.7650   7
  -7  -2   5 310.741 12.4221   6
   7   2   5 295.379 14.2356   7
   7  -2  -5 296.995 12.8693   6
  -7   2  -5 301.340 14.2808   6
   7   2   5 288.118 13.9868   4
  -8   2   5 226.994 9.42973   6
   8  -2   5 191.286 9.80924   7
  -8   2   5 216.692 9.35406   4
   8  -2   5 189.809 10.1273   4
  -8  -2   5 193.505 8.97975   6
   8   2   5 215.235 10.4747   7
  -8   2  -5 203.312 10.6277   6
   8   2   5 208.480 10.0638   4
   8  -2  -5 207.738 9.43505   6
   9  -2   5 558.930 21.2986   7
  -9   2   5 567.617 21.1396   6
   9  -2  -5 527.479 21.1380   6
  -9  -2   5 551.632 20.9419   6
   9   2   5 569.372 21.7634   7
   0  -3   5 696.643 27.7475   1
   0  -3   5 679.799 30.4651   5
   0   3  -5 668.675 26.6154   1
   0  -3  -5 724.090 26.9728   1
   0  -3  -5 705.330 28.5733   2
   0   3  -5 634.259 27.7133   2
   0   3  -5 758.551 29.6375   5
   0   3   5 657.805 28.9033   5
   0  -3   5 736.686 30.6009   5
   0  -3   5 660.408 29.8372   2
  -1  -3  -5 1122.87 40.6867   2
   1   3  -5 1025.13 40.3634   1
   1  -3   5 1047.78 43.9707   2
   1  -3   5 1127.24 41.7272   1
  -1   3   5 971.086 44.0796   5
  -1   3   5 1007.16 39.3184   1
  -1   3   5 1015.35 40.2082   2
  -1  -3  -5 1089.87 39.4905   1
   1   3  -5 1029.01 42.0986   2
   1   3  -5 1095.84 42.3877   5
   1   3   5 1059.94 41.2801   5
  -1  -3   5 1126.45 43.2630   5
   1  -3  -5 1035.61 40.7379   1
   1  -3  -5 1019.72 42.7490   2
  -1   3  -5 1074.69 40.2716   1
  -1  -3   5 988.492 42.7856   5
   1  -3  -5 1134.36 39.0163   5
  -1   3  -5 1104.16 43.4772   5
  -1  -3   5 1074.20 42.6570   2
  -1  -3   5 1085.85 40.8255   1
  -2  -3  -5 338.046 13.1365   2
  -2  -3  -5 312.460 13.0110   2
  -2  -3  -5 359.932 12.4556   1
   2   3  -5 299.502 18.6035   2
   2  -3   5 314.444 14.2250   6
   2  -3   5 345.991 19.8633   5
  -2  -3  -5 321.830 12.3799   1
   2  -3   5 331.372 13.7132   4
   2  -3   5 341.923 14.3648   7
   2   3  -5 338.398 15.2738   1
  -2  -3  -5 337.385 13.1165   2
   2   3  -5 345.561 16.7716   5
   2  -3  -5 328.659 19.2191   5
  -2   3  -5 315.261 16.6999   2
   2  -3  -5 342.069 14.9919   5
  -2  -3   5 310.754 16.6056   2
  -2  -3   5 297.406 13.2844   6
   2   3   5 318.903 15.7003   5
   2  -3  -5 321.412 13.0277   6
  -2  -3   5 317.206 20.0012   5
   2   3   5 352.321 16.3925   5
  -2  -3   5 331.360 14.5018   1
  -2   3  -5 330.770 14.4791   1
  -2   3  -5 341.765 13.1982   3
  -2  -3   5 360.646 17.5226   5
  -2   3  -5 344.523 19.6940   5
   3  -3   5 1312.05 49.2463   7
   3   3  -5 1383.76 53.6390   5
   3  -3   5 1336.46 49.3328   4
  -3   3   5 1315.67 48.8603   7
  -3   3   5 1283.85 48.7291   4
   3  -3   5 1287.61 56.3837   5
   3  -3   5 1286.75 49.8013   6
  -3   3  -5 1327.63 49.0435   7
  -3  -3   5 1418.46 52.9934   5
  -3   3  -5 1302.87 49.7709   6
   3  -3  -5 1307.31 48.8228   6
  -3   3  -5 1373.53 48.8551   3
  -3   3  -5 1336.11 56.6308   5
  -3  -3   5 1328.35 48.8179   6
   3   3   5 1340.58 52.6694   5
  -4   3   5 784.139 31.5325   6
   4  -3   5 857.690 31.8921   4
   4  -3   5 874.555 31.8087   7
  -4   3   5 832.556 31.0765   7
   4  -3   5 778.844 41.3013   5
   4   3  -5 783.817 37.8396   5
  -4   3   5 806.666 30.9626   4
  -4  -3   5 891.861 31.0886   6
  -4   3  -5 754.312 40.8227   5
  -4   3  -5 836.259 32.2746   6
  -4   3  -5 879.125 31.3494   7
   4  -3  -5 848.811 31.3047   6
   5  -3   5 1575.34 56.9032   7
  -5   3   5 1542.53 56.5695   6
  -5   3   5 1549.42 56.2810   4
   5  -3   5 1528.97 57.6908   6
  -5   3   5 1494.11 56.1683   7
   5  -3   5 1526.80 57.0499   4
   5  -3  -5 1518.26 56.5396   6
  -5  -3   5 1566.60 56.1851   6
  -5   3  -5 1463.98 56.0132   7
  -5   3  -5 1559.71 57.6918   6
  -5   3  -5 1518.67 56.9012   4
   6  -3   5 216.729 10.3280   7
   6  -3   5 206.335 10.5962   4
  -6   3   5 214.760 9.36760   7
  -6   3   5 218.221 9.45780   4
   6  -3   5 207.731 11.9013   6
  -6   3   5 212.087 9.96582   6
  -6   3  -5 201.369 10.3200   4
  -6   3  -5 213.218 11.4786   6
   6  -3  -5 216.039 9.97053   6
  -6  -3   5 221.663 9.48336   6
  -7   3   5 94.4282 5.61367   4
   7  -3   5 95.9124 8.49073   6
   7  -3   5 110.501 6.98120   4
  -7   3   5 89.6696 5.88982   6
  -7   3   5 87.5225 5.62188   7
   7  -3   5 97.3682 6.45020   7
  -7   3  -5 110.777 6.81179   4
   7  -3  -5 108.521 6.14487   6
   7   3   5 90.0196 8.41167   7
  -7  -3   5 103.192 5.66982   6
  -7   3  -5 97.3147 7.54456   6
  -8   3   5 493.853 19.1738   6
   8  -3   5 494.241 21.2136   6
   8  -3   5 491.908 19.1803   7
  -8   3   5 478.025 19.0270   4
   8  -3   5 524.846 20.0131   4
   8  -3  -5 492.087 19.2541   6
  -8   3  -5 498.263 20.4287   6
   8   3   5 475.654 19.9616   7
  -8  -3   5 475.573 18.9515   6
  -9   3   5 256.499 10.2965   6
  -9   3   5 249.399 10.3283   4
   9  -3  -5 256.734 10.3700   6
  -9  -3   5 258.921 9.91956   6
   9   3   5 246.424 10.7118   7
   0   4  -5 36.0427 7.55210   5
   0  -4   5 50.8234 4.80074   6
   0  -4   5 7.20066 16.2460   5
   0  -4  -5 47.4492 7.70124   2
   0  -4   5 33.7260 8.54110   5
   0   4   5 35.2710 10.2385   5
   0  -4  -5 39.5813 3.13933   1
   1  -4   5 32.3492 4.59349   6
   1  -4   5 24.5285 9.31359   5
   1  -4   5 23.8609 3.83807   4
   1   4  -5 28.6869 6.45641   5
  -1  -4   5 31.6334 8.30484   5
   1  -4  -5 30.3953 3.07928   6
  -1   4  -5 20.1722 7.55231   5
  -1  -4   5 26.0792 3.39116   6
   2  -4   5 768.218 36.7856   5
  -2   4   5 724.461 28.5250   4
  -2   4   5 756.220 29.0618   7
   2   4  -5 789.143 32.9528   5
   2  -4   5 758.258 29.4630   6
   2  -4   5 793.337 29.1731   4
  -2  -4   5 659.881 32.4036   5
  -2   4  -5 743.185 29.9740   6
  -2   4  -5 826.243 28.7798   3
  -2   4  -5 781.904 36.8942   5
   2  -4  -5 777.748 28.3624   6
  -2  -4   5 745.090 28.8684   6
   3  -4   5 481.621 19.0192   7
  -3   4   5 473.887 18.5261   4
  -3   4   5 478.923 18.7331   7
   3  -4   5 496.448 19.2024   4
   3   4  -5 439.793 23.6104   5
   3  -4   5 474.369 19.7363   6
   3  -4   5 462.846 29.9713   5
  -3  -4   5 474.289 18.8195   6
  -3   4  -5 435.969 28.8076   5
  -3   4  -5 474.955 18.7135   3
  -3   4  -5 489.008 20.1547   6
  -3   4  -5 517.672 19.0740   7
   3  -4  -5 476.667 18.4651   6
  -4   4   5 362.170 14.6915   4
   4  -4   5 359.235 15.4578   4
   4  -4   5 359.403 15.0281   7
  -4   4   5 378.195 14.7796   7
  -4  -4   5 363.019 14.7995   6
   4  -4  -5 374.518 14.7912   6
  -4   4  -5 365.277 15.0797   7
  -4   4  -5 336.279 16.0066   6
  -5   4   5 911.253 34.4322   6
   5  -4   5 892.725 35.1423   6
   5  -4   5 872.982 34.3618   4
   5  -4   5 912.573 33.8363   7
  -5   4   5 861.888 33.6518   4
  -5   4   5 924.230 33.7910   7
  -5   4  -5 901.853 35.3494   6
   5  -4  -5 917.835 33.9915   6
  -5   4  -5 871.184 34.4592   4
  -5  -4   5 898.125 33.8233   6
  -5   4  -5 907.041 33.8473   7
   6  -4   5 281.229 11.9805   7
  -6   4   5 288.669 11.8719   4
  -6   4   5 271.608 12.2502   6
   6  -4   5 285.068 13.6223   6
   6  -4   5 273.842 12.7958   4
  -6   4   5 282.797 11.7543   7
  -6   4  -5 272.792 12.6688   4
  -6  -4   5 280.191 11.9907   6
  -6   4  -5 272.804 13.8933   6
   6  -4  -5 274.022 12.1148   6
  -7   4   5 406.354 17.8320   6
  -7   4   5 437.581 17.2881   7
   7  -4   5 462.843 18.6349   4
   7  -4   5 445.216 19.1733   6
  -7   4   5 441.840 17.6754   4
  -7   4  -5 467.252 18.2055   4
   7  -4  -5 454.108 17.9284   6
  -7  -4   5 466.435 17.7010   6
  -7   4  -5 450.581 19.3709   6
   8  -4   5 561.911 22.6464   6
  -8   4   5 554.803 21.2250   4
   8  -4   5 562.439 21.6137   4
  -8   4   5 560.016 21.3250   6
  -8  -4   5 510.305 20.7854   6
   8  -4  -5 564.061 21.3460   6
   8   4   5 561.288 22.0939   7
  -8   4  -5 570.740 22.4177   6
   0  -5   5 376.210 15.5810   6
   0   5  -5 368.376 22.8791   5
   1   5  -5 588.303 29.0541   5
   1  -5   5 608.242 31.7738   5
   1  -5   5 592.862 22.9786   6
  -1  -5   5 565.603 22.6049   6
  -1   5  -5 533.212 31.3143   5
   1  -5  -5 572.654 21.5376   6
  -2   5   5 217.403 10.8003   7
   2  -5   5 245.110 11.3428   4
   2   5  -5 222.255 18.3032   5
   2  -5   5 213.636 26.0516   5
   2  -5   5 222.979 11.1043   6
  -2   5   5 242.093 10.3760   4
  -2  -5   5 230.982 10.6336   6
  -2   5  -5 260.471 10.5603   3
   2  -5  -5 244.551 9.75651   6
   3  -5   5 760.748 29.2367   4
  -3   5   5 740.101 28.8065   7
  -3   5   5 768.201 28.7012   4
   3  -5  -5 745.249 28.4816   6
  -3   5  -5 763.528 30.6635   6
  -3   5  -5 797.876 29.2840   7
  -3   5  -5 767.430 28.9565   3
  -3  -5   5 722.059 28.9103   6
   4  -5   5 184.806 10.1992   6
  -4   5   5 199.158 9.02603   7
   4  -5   5 190.308 9.61589   4
  -4   5   5 189.897 8.83702   4
  -4   5  -5 179.619 11.2690   6
  -4   5  -5 193.562 9.46147   7
  -4  -5   5 193.255 9.22944   6
  -4   5  -5 188.927 9.14073   3
   4  -5  -5 188.225 8.64594   6
   5  -5   5 1902.03 72.5195   6
   5  -5   5 2020.91 71.8537   4
  -5   5   5 1964.53 71.3811   7
  -5   5   5 1898.71 71.2484   4
  -5  -5   5 1959.08 71.3471   6
   5  -5  -5 1909.71 71.3647   6
  -5   5  -5 1946.93 72.8639   6
  -5   5  -5 1991.98 71.4787   7
  -5   5  -5 1933.06 72.1390   4
   6  -5   5 92.6271 7.74754   6
  -6   5   5 97.1788 5.66779   4
   6  -5   5 95.0565 6.87905   4
  -6   5   5 102.466 5.70323   7
   6  -5  -5 97.0966 5.68503   6
  -6  -5   5 97.3162 6.10685   6
  -6   5  -5 99.3723 6.93459   4
  -6   5  -5 88.7346 8.10143   6
   7  -5   5 189.853 9.18359   4
  -7   5   5 183.650 8.41327   4
  -7   5   5 182.348 9.03980   6
   7  -5   5 182.789 9.87820   6
  -7   5   5 188.361 8.12325   7
   7  -5  -5 188.316 8.49944   6
  -7   5  -5 192.256 10.2983   6
  -7   5  -5 182.452 9.02548   4
  -8   5   5 155.189 7.47671   6
  -8   5   5 156.708 7.01635   4
   8  -5   5 154.506 8.22134   6
  -8   5  -5 149.170 8.20883   6
   8  -5  -5 163.536 6.99207   6
  -8   5  -5 155.391 7.06373   4
   0  -6   5 59.2938 5.50702   6
   1  -6   5 51.4071 5.62177   6
  -1   6  -5 50.2485 4.40385   3
  -1  -6   5 49.5032 5.16595   6
  -2   6   5 307.863 13.0083   4
  -2   6   5 294.263 13.3480   7
  -2  -6   5 300.168 13.2484   6
  -2   6  -5 317.383 13.2701   3
  -2   6  -5 319.166 13.4443   7
   2  -6  -5 309.954 12.2112   6
  -3   6   5 940.474 35.6620   4
   3  -6   5 952.224 36.7870   6
  -3   6   5 947.970 35.8825   7
   3  -6  -5 956.175 35.2898   6
  -3   6  -5 960.963 36.0568   3
  -3   6  -5 962.829 36.2900   7
  -3  -6   5 939.859 35.8235   6
  -4   6   5 248.234 10.8094   7
   4  -6   5 238.694 11.9160   6
  -4   6   5 229.479 10.3743   4
   4  -6  -5 234.817 10.2016   6
  -4   6  -5 252.822 11.2229   7
  -4  -6   5 231.467 10.7424   6
  -4   6  -5 240.756 11.6209   4
  -4   6  -5 234.996 14.3192   6
   5  -6   5 596.325 24.0086   4
  -5   6   5 632.639 23.9063   4
   5  -6   5 633.293 25.2980   6
  -5   6   5 619.431 23.9823   7
  -5   6  -5 612.474 25.9376   6
  -5   6  -5 630.732 24.2437   7
  -5   6  -5 639.403 24.9300   4
   5  -6  -5 601.529 23.7139   6
  -6   6   5 382.677 14.5964   7
   6  -6   5 370.912 15.8480   6
  -6   6   5 359.511 14.4950   4
  -6   6  -5 368.385 16.4171   6
   6  -6  -5 335.932 14.2850   6
  -6   6  -5 375.165 15.4861   4
  -6   6  -5 325.238 14.1708   7
   7  -6   5 296.693 12.7385   6
  -7   6   5 273.578 11.2997   7
  -7   6   5 295.829 11.7050   4
  -7   6  -5 257.254 12.9430   6
   7  -6  -5 293.601 11.5435   6
  -7   6  -5 298.310 12.1548   4
  -1   7  -5 564.832 22.0064   3
  -1  -7   5 550.128 22.0436   6
  -2   7   5 464.090 19.1922   7
   2  -7   5 463.977 19.6325   6
  -2   7  -5 506.596 19.5591   7
  -2  -7   5 472.007 19.0385   6
   3  -7   5 732.726 29.3192   6
  -3   7   5 761.678 28.6495   7
  -3   7   5 716.640 28.1368   4
  -3   7  -5 753.609 29.0239   7
  -3   7  -5 775.495 28.9067   3
   3  -7  -5 735.331 27.6335   6
   4  -7   5 1181.78 45.2402   6
  -4   7   5 1162.38 44.1473   4
  -4   7   5 1255.71 44.5926   7
   4  -7  -5 1168.41 43.7575   6
  -4   7  -5 1171.97 45.1967   4
  -4   7  -5 1224.76 44.8283   7
   5  -7   5 3.54132 3.00735   6
  -5   7   5 1.50355 2.05566   7
  -5   7  -5 -0.2079 2.82192   4
   5  -7  -5 2.14344 1.71158   6
  -5   7  -5 0.07977 2.23392   7
   6  -7   5 373.914 15.5662   6
  -6   7   5 368.216 14.7047   7
  -6   7   5 379.819 14.7806   4
  -6   7  -5 372.579 17.0621   6
   6  -7  -5 366.711 14.4032   6
  -6   7  -5 390.836 15.4968   4
   0  -8   5 1597.04 59.1699   6
   0   8  -5 1622.46 59.5188   3
   1  -8   5 309.944 13.7204   6
  -1   8  -5 332.436 13.7924   3
  -1   8  -5 326.814 13.9345   7
   2  -8   5 55.5202 5.51363   6
  -2   8   5 55.4619 5.54931   7
  -2   8  -5 64.0625 5.40061   7
  -2   8  -5 59.3222 4.90718   3
  -3   8   5 33.7591 4.42730   7
  -3   8   5 32.9030 4.23339   4
   3  -8   5 41.0722 4.87403   6
  -3   8  -5 35.5280 4.39905   3
  -3   8  -5 48.1349 4.86631   7
  -3   8  -5 38.7165 5.04809   4
  -4   8   5 195.186 8.82314   4
   4  -8   5 206.306 9.70527   6
  -4   8   5 207.384 9.09901   7
  -4   8  -5 205.940 9.93335   4
  -4   8  -5 216.974 9.57974   7
  -5   8   5 176.460 7.48911   4
  -5   8   5 169.987 7.47010   7
   5  -8   5 165.711 8.04227   6
  -5   8  -5 169.091 7.61265   7
   5  -8  -5 164.759 6.58022   6
  -5   8  -5 174.307 8.22651   4
   0   9  -5 493.161 19.3101   7
   0   9  -5 480.266 19.0491   3
   1   9  -5 221.088 10.0783   7
   1   9  -5 229.407 9.96940   3
  -1   9  -5 237.729 10.7575   4
  -1   9  -5 223.413 10.1454   7
  -1   9  -5 219.903 9.85748   3
  -2   9   5 231.178 9.92196   7
   2  -9   5 230.500 9.49547   6
   2   9  -5 224.683 9.82710   3
  -2   9  -5 206.227 9.86189   3
  -2   9  -5 233.847 10.2495   7
  -2   9  -5 234.062 10.4836   4
  -3   9   5 107.753 5.42629   7
   3  -9   5 100.143 5.36257   6
  -3   9  -5 96.2162 5.88681   4
  -3   9  -5 101.719 5.65306   7
   0   0   6 9319.69 320.663   5
   0   0   6 8821.57 320.077   2
   0   0   6 8482.61 321.064   5
   0   0  -6 9123.91 319.974   5
   0   0  -6 8464.50 319.489   2
   1   0   6 3937.88 152.840   5
  -1   0  -6 4308.14 152.852   5
   1   0   6 4403.46 153.698   5
   1   0  -6 4321.20 152.450   5
  -1   0  -6 4048.98 151.601   2
  -1   0   6 4370.98 152.940   5
   1   0   6 3867.48 151.787   1
   1   0   6 3937.57 153.643   2
   1   0  -6 4194.65 153.454   2
  -1   0   6 4214.64 151.991   2
   2   0  -6 471.082 20.7839   1
  -2   0  -6 469.879 20.3460   2
   2   0  -6 495.619 21.5052   5
   2   0   6 490.416 23.6413   2
  -2   0   6 463.694 20.6019   2
  -2   0   6 472.091 19.0983   1
  -2   0   6 492.617 21.4640   5
   2   0  -6 445.164 23.8064   2
  -2   0  -6 480.282 19.0076   1
  -2   0  -6 503.111 22.6049   5
   2   0   6 458.645 22.6764   5
   2   0   6 522.495 21.0629   1
  -3   0   6 2098.82 75.2299   7
  -3   0  -6 2021.80 75.6524   6
   3   0  -6 2017.93 79.2170   1
  -3   0   6 2079.07 75.3456   4
   3   0  -6 2120.12 80.0444   5
   3   0  -6 2093.62 75.4161   6
  -3   0   6 2065.09 75.2767   6
   3   0   6 2106.05 81.7268   5
  -3   0  -6 2189.96 79.7122   5
  -3   0   6 2002.61 76.5428   1
   3   0  -6 2004.65 83.2223   2
   4   0   6 137.386 16.4139   5
  -4   0   6 133.568 6.49639   4
   4   0  -6 103.794 15.6053   5
   4   0   6 121.658 7.61208   7
   4   0  -6 139.232 6.81434   6
  -4   0   6 134.188 6.34262   6
   4   0   6 125.737 7.83515   4
  -4   0   6 135.062 6.59418   7
  -4   0  -6 127.799 7.17460   6
  -5   0   6 2522.19 94.3743   6
   5   0   6 2493.80 95.4108   7
  -5   0   6 2681.55 94.5491   4
   5   0  -6 2598.64 94.7052   6
  -5   0  -6 2722.93 95.3155   6
   5   0   6 2585.62 95.2629   4
  -6   0   6 3220.68 119.393   6
   6   0   6 3353.23 120.348   4
  -6   0  -6 3374.04 120.324   6
  -6   0   6 3178.66 119.377   4
   6   0  -6 3304.01 119.711   6
   6   0   6 3344.27 120.597   7
   7   0   6 1209.22 46.8061   4
  -7   0  -6 1247.05 46.8074   6
   7   0  -6 1224.65 46.1483   6
   7   0   6 1237.51 47.1177   7
  -7   0   6 1275.47 46.0042   6
  -8   0   6 95.2961 5.40909   6
   8   0   6 84.5291 6.76214   7
   8   0   6 101.963 7.20254   4
  -8   0  -6 93.8659 6.45939   6
   8   0  -6 93.0023 6.56892   6
   9   0   6 1138.63 44.2744   7
   9   0   6 1259.36 44.2925   4
  -9   0  -6 1176.41 43.4167   6
   0   1   6 2201.98 81.7502   5
   0  -1  -6 2117.81 80.4771   1
   0   1   6 2259.83 81.9161   2
   0  -1   6 2223.04 82.9416   5
   0  -1   6 2173.75 80.9044   1
   0   1  -6 2071.67 80.2251   1
   0   1   6 2193.17 80.4710   1
   0  -1  -6 2175.44 81.9024   2
   0  -1  -6 2322.40 81.3653   5
   0   1  -6 2240.94 82.3277   5
   0  -1   6 2240.83 82.6708   2
   0   1  -6 2151.68 81.4891   2
   0   1   6 2049.95 82.4331   5
   1   1  -6 310.030 14.2856   1
  -1  -1  -6 331.068 13.6217   1
  -1   1   6 324.796 14.8632   2
   1   1  -6 338.744 15.8582   5
  -1  -1  -6 341.641 15.7069   5
   1  -1   6 334.886 17.1600   5
  -1  -1  -6 322.170 14.9562   2
  -1   1   6 332.462 13.5797   1
   1   1  -6 296.320 16.2561   2
   1   1   6 357.673 17.5020   2
   1  -1  -6 349.271 15.3271   5
   1  -1  -6 324.420 17.0188   2
  -1   1  -6 337.362 13.7771   1
  -1   1  -6 308.150 14.8989   2
   1   1   6 338.326 15.8175   5
  -1  -1   6 342.959 15.9435   2
  -1   1  -6 337.500 16.4761   5
  -1   1  -6 302.298 12.9713   3
  -1  -1   6 345.474 14.1188   1
   1   1   6 370.510 14.9850   1
   1   1   6 303.631 17.2076   5
   1  -1  -6 336.992 14.7927   1
  -1  -1   6 346.359 16.4907   5
   2  -1   6 3653.60 138.872   1
   2   1  -6 3585.23 138.599   1
   2   1  -6 3872.01 139.467   5
  -2  -1  -6 3897.86 137.656   5
   2   1  -6 3721.50 141.252   2
   2  -1   6 3838.09 141.651   5
   2  -1   6 3875.33 141.738   2
  -2   1   6 3708.38 138.057   2
  -2  -1  -6 3658.13 137.505   2
  -2   1  -6 3906.78 141.190   5
   2  -1  -6 3665.62 138.940   1
   2   1   6 3806.09 140.051   2
  -2   1  -6 3518.13 137.020   1
   2  -1  -6 3934.32 138.940   5
  -2  -1   6 3925.70 139.723   5
   2   1   6 3716.85 138.097   1
  -2  -1   6 3794.96 138.562   2
  -2  -1   6 3639.96 137.184   1
   2   1   6 3919.62 140.451   5
  -2   1  -6 3761.92 138.433   2
   2  -1  -6 3812.74 141.718   2
   3   1  -6 2722.34 108.357   1
  -3  -1  -6 2937.59 104.663   6
   3   1  -6 2725.45 112.040   2
   3   1  -6 3068.29 109.350   5
  -3   1   6 2820.84 104.337   4
   3  -1   6 2854.55 111.438   5
   3  -1   6 2802.69 104.750   7
  -3   1   6 2976.71 104.365   7
   3  -1   6 2907.82 105.024   4
  -3  -1   6 2898.62 104.549   4
  -3  -1   6 2941.02 104.403   6
  -3  -1   6 2953.65 108.389   5
   3  -1  -6 3060.57 109.161   5
  -3   1  -6 2966.89 110.310   5
  -3  -1   6 2686.79 105.575   1
  -3  -1   6 2774.94 107.256   2
  -3   1  -6 2919.23 105.005   6
   3  -1  -6 2879.99 104.449   6
  -3  -1   6 2947.60 104.312   7
  -4   1   6 10.7352 2.28705   7
  -4   1   6 9.87607 1.98525   4
   4  -1   6 6.35306 11.0134   5
   4   1  -6 4.75359 9.61285   5
   4  -1   6 9.91095 3.26609   7
  -4   1   6 9.40791 2.38580   6
   4  -1   6 8.94173 3.00178   4
   4   1  -6 7.52272 2.88986   6
  -4  -1  -6 14.3620 3.04558   6
   4   1   6 14.2608 4.14744   4
   4   1   6 9.30983 4.34731   7
   4  -1  -6 10.8514 2.39203   6
  -4   1  -6 8.67472 3.69055   4
  -4  -1   6 10.5682 2.06227   6
  -4  -1   6 9.60660 7.74244   5
  -4   1  -6 10.8821 3.15280   6
  -4   1  -6 7.82287 11.6493   5
   4  -1  -6 -1.5824 10.1924   5
   4   1   6 -0.2872 10.7509   5
  -5   1   6 280.991 11.7385   4
   5   1  -6 285.917 12.4054   6
  -5   1   6 292.199 11.8092   6
  -5   1   6 284.186 11.6458   7
  -5  -1  -6 286.343 12.5682   6
   5  -1   6 289.785 13.2012   7
   5  -1   6 283.370 12.7955   4
   5   1   6 273.205 13.1948   4
   5  -1  -6 282.460 12.0248   6
  -5  -1   6 280.790 12.1860   4
   5   1   6 258.766 36.8091   5
   5   1   6 276.643 14.0131   7
  -5   1  -6 276.646 12.8219   6
  -5  -1   6 277.475 11.6236   6
   6   1  -6 1257.01 47.6075   6
  -6  -1  -6 1370.04 48.1234   6
  -6   1   6 1308.53 47.4627   6
   6  -1   6 1289.92 48.4062   4
  -6   1   6 1238.49 46.8738   7
  -6   1   6 1278.38 47.4590   4
   6  -1   6 1293.48 48.5425   7
  -6  -1   6 1212.83 47.3985   4
   6  -1  -6 1260.29 47.5730   6
   6   1   6 1202.42 48.5416   7
  -6  -1   6 1324.53 47.3778   6
   6   1   6 1256.42 48.2151   4
  -6   1  -6 1353.22 48.6946   6
   7  -1   6 366.016 15.9446   7
   7  -1   6 350.832 15.8208   4
  -7   1   6 363.604 14.8347   4
  -7  -1  -6 365.458 15.3553   6
  -7   1   6 361.307 14.7134   6
   7   1   6 344.145 15.6830   4
  -7   1  -6 363.734 16.0140   6
   7  -1  -6 350.867 14.8987   6
  -7  -1   6 378.120 14.7108   6
   7   1   6 361.026 16.1466   7
  -8   1   6 162.415 8.66887   4
  -8  -1  -6 202.590 8.56106   6
   8  -1   6 194.368 9.71303   7
   8  -1   6 188.643 9.85019   4
  -8   1   6 186.730 8.50095   6
  -8  -1   6 190.442 8.55212   6
   8  -1  -6 194.675 8.86065   6
   8   1   6 197.439 10.0943   7
  -8   1  -6 171.544 9.52396   6
   8   1   6 191.264 9.62466   4
  -9   1   6 366.978 13.9823   6
   9  -1   6 375.147 14.4371   7
   9  -1   6 369.705 14.6959   4
  -9   1  -6 312.572 13.8880   6
  -9  -1   6 338.008 13.9242   6
   9   1   6 386.774 14.9104   7
   9  -1  -6 349.211 14.2740   6
   0  -2  -6 1682.49 65.4527   2
   0  -2  -6 1639.36 63.6940   1
   0  -2  -6 1782.68 64.0742   5
   0   2   6 1613.65 63.3168   1
   0   2   6 1644.65 65.6510   5
   0   2  -6 1719.74 64.8980   2
   0   2  -6 1663.95 63.3860   1
   0   2   6 1698.69 64.9135   2
   0  -2  -6 1766.66 63.1947   5
   0  -2   6 1812.24 66.9890   5
   0  -2   6 1676.72 66.2398   2
   0   2  -6 1789.17 66.0667   5
   0  -2   6 1739.01 64.3215   1
   1   2  -6 70.8452 5.00285   1
   1  -2   6 72.3021 10.0542   2
   1  -2   6 63.5507 9.24696   5
  -1  -2  -6 67.3500 4.31159   1
   1   2  -6 62.0946 8.32693   2
  -1  -2  -6 63.5275 6.64645   2
  -1   2   6 72.4712 4.07738   1
  -1   2   6 71.8538 6.23537   2
   1   2  -6 74.2170 7.63403   5
   1  -2   6 68.3432 5.54162   1
  -1   2  -6 73.4424 4.58108   1
   1  -2  -6 60.9148 10.8819   5
  -1   2  -6 73.7121 7.19840   2
   1  -2  -6 81.2064 6.45807   5
  -1   2  -6 67.1321 7.98014   5
  -1  -2   6 70.6827 8.22398   2
  -1  -2   6 71.9321 5.03564   1
   1   2   6 80.1737 6.84689   5
  -1  -2   6 68.3648 7.76208   5
   2  -2   6 366.323 15.1693   4
   2  -2   6 350.198 17.3751   1
  -2  -2  -6 388.749 15.1781   1
   2   2  -6 349.508 16.8722   1
   2  -2   6 376.425 21.3250   5
   2   2  -6 385.466 18.4321   5
   2  -2   6 350.825 21.9779   2
  -2   2   6 383.316 16.3139   4
   2   2  -6 328.718 20.5680   2
   2  -2   6 361.731 15.0094   7
  -2  -2  -6 363.869 16.6168   2
   2  -2  -6 366.420 14.4842   6
  -2   2  -6 361.352 15.2737   6
  -2  -2   6 388.566 19.0463   5
   2  -2  -6 317.681 23.2494   5
  -2  -2   6 364.838 14.7899   6
  -2   2  -6 385.236 15.0099   7
  -2  -2   6 369.889 18.4659   2
   2   2   6 373.213 19.1088   5
  -2  -2   6 394.799 15.2776   4
  -2   2  -6 395.077 21.0457   5
   2  -2  -6 402.699 17.4562   5
  -2   2  -6 371.983 18.1952   2
  -2   2  -6 383.630 15.8123   1
  -2   2  -6 384.869 14.5653   3
  -2  -2   6 381.615 16.0284   1
   3  -2   6 167.735 10.6738   6
   3  -2   6 179.875 8.78213   7
  -3  -2  -6 163.184 8.05614   6
   3   2  -6 178.910 13.3176   5
   3  -2   6 164.017 8.34584   4
   3  -2   6 159.488 16.8230   5
  -3   2   6 169.748 7.64362   7
  -3   2   6 168.549 7.54874   4
  -3   2  -6 164.179 8.57442   7
   3   2   6 188.336 15.3792   5
  -3   2  -6 184.649 8.84760   6
   3  -2  -6 170.414 12.6748   5
  -3  -2   6 164.097 8.40262   4
   3  -2  -6 173.039 7.62136   6
  -3   2  -6 159.885 16.6162   5
  -3  -2   6 176.673 12.8517   5
  -3  -2   6 163.903 7.60795   6
  -4   2   6 1228.32 43.3943   7
   4   2  -6 1067.40 49.7057   5
   4  -2   6 1153.02 44.1248   4
   4  -2   6 1220.64 44.3593   7
   4  -2   6 1082.74 54.3527   5
  -4  -2  -6 1205.54 43.6243   6
  -4   2   6 1191.55 43.3862   4
  -4   2   6 1203.38 43.6177   6
  -4   2  -6 1254.89 44.5980   6
   4  -2  -6 1108.18 50.6400   5
   4  -2  -6 1224.56 43.5706   6
  -4  -2   6 1225.22 43.7960   4
  -4  -2   6 1200.76 43.3923   6
   4   2   6 1136.64 52.5317   5
  -4   2  -6 1143.44 53.6215   5
  -4  -2   6 1128.59 49.0499   5
   5  -2   6 828.414 31.9667   4
  -5   2   6 816.888 31.0025   4
  -5  -2  -6 829.956 31.2744   6
  -5   2   6 824.662 31.1226   6
   5  -2   6 787.624 33.0040   6
  -5   2   6 834.568 30.8902   7
   5  -2   6 839.846 32.0143   7
  -5  -2   6 834.523 30.9315   6
  -5   2  -6 824.015 32.2589   6
  -5   2  -6 818.530 31.6327   4
  -5  -2   6 799.639 31.4184   4
   5  -2  -6 841.105 31.2258   6
  -6  -2  -6 594.484 22.3291   6
   6  -2   6 580.800 25.0849   6
  -6   2   6 582.501 22.1769   4
  -6   2   6 579.198 21.9047   7
   6  -2   6 576.804 23.1819   4
  -6   2   6 568.562 22.2065   6
   6  -2   6 576.700 23.1286   7
  -6   2  -6 580.810 23.6875   6
  -6   2  -6 536.964 22.6352   4
   6  -2  -6 568.950 22.3453   6
   6   2   6 551.452 23.8812   7
  -6  -2   6 590.094 22.1231   6
   6   2   6 534.798 23.2956   4
   7  -2   6 62.5173 5.92759   7
   7  -2   6 67.7675 5.88746   4
  -7   2   6 63.2833 4.63461   4
  -7   2   6 55.5104 4.50393   6
   7  -2  -6 54.2729 4.68308   6
  -7   2  -6 53.1677 6.32819   6
  -7  -2   6 55.7413 4.43962   6
   7   2   6 52.7360 6.77204   4
   7   2   6 60.5008 6.89647   7
  -8   2   6 188.000 8.54510   4
   8  -2   6 186.250 9.06983   7
  -8   2   6 182.756 8.29975   6
   8  -2   6 193.065 9.52950   4
  -8  -2   6 181.252 8.22680   6
  -8   2  -6 170.963 9.60746   6
   8  -2  -6 181.397 8.34071   6
   8   2   6 180.359 9.61133   7
  -9   2   6 74.1764 4.29751   6
   9  -2   6 73.7090 4.99817   4
  -9  -2   6 69.6979 4.24517   6
   9   2   6 92.3330 5.34263   7
   9  -2  -6 76.1616 4.31574   6
   0  -3   6 1357.63 57.2430   2
   0   3  -6 1460.70 56.5518   5
   0  -3   6 1531.67 57.9765   5
   0  -3   6 1440.20 52.3237   4
   0  -3   6 1439.07 52.6275   6
   0   3  -6 1329.66 53.0866   1
   0   3  -6 1365.64 55.2270   2
   0  -3   6 1418.45 54.4979   1
   1  -3   6 1502.35 60.7261   5
   1  -3   6 1486.40 54.6442   4
  -1  -3  -6 1419.98 55.3875   1
   1  -3   6 1434.20 54.9575   6
   1   3  -6 1482.28 58.3967   5
   1   3  -6 1378.31 55.8923   1
  -1  -3  -6 1365.31 57.2235   2
   1  -3   6 1534.75 57.5910   1
   1  -3   6 1548.13 54.6468   7
  -1  -3   6 1504.32 54.7133   6
   1  -3  -6 1521.12 53.8879   6
  -1   3  -6 1482.50 59.5112   5
  -1  -3   6 1337.59 58.5339   2
   1   3   6 1704.70 57.3797   5
  -1   3  -6 1468.84 55.7148   1
  -1  -3   6 1570.37 59.6738   5
  -1  -3   6 1510.27 54.5515   4
  -1   3  -6 1468.16 57.6975   2
  -1  -3   6 1412.42 56.3166   1
   2  -3   6 1652.22 58.3456   7
   2   3  -6 1583.05 62.2218   5
   2  -3   6 1537.69 58.7640   6
   2  -3   6 1600.61 65.6388   5
  -2  -3  -6 1468.32 57.9976   1
   2  -3   6 1653.90 58.3794   4
  -2   3   6 1516.97 57.5750   4
  -2  -3  -6 1400.51 59.1643   2
  -2   3   6 1526.48 57.7183   7
  -2  -3   6 1523.76 58.0389   6
  -2   3  -6 1630.57 58.0834   7
   2  -3  -6 1639.37 57.6336   6
  -2   3  -6 1679.13 57.9507   3
   2  -3  -6 1657.41 59.5729   5
  -2   3  -6 1579.11 58.6047   6
   2   3   6 1530.18 62.4311   5
  -2  -3   6 1619.85 58.2641   4
  -2  -3   6 1597.46 62.9407   5
  -2   3  -6 1620.28 65.7705   5
   3  -3   6 552.542 21.8941   4
  -3   3   6 551.614 21.2330   7
   3  -3   6 532.655 22.5224   6
  -3   3   6 536.354 20.9874   4
   3   3  -6 548.592 26.9634   5
   3  -3   6 534.034 32.1388   5
   3  -3   6 573.008 21.9515   7
  -3   3  -6 557.662 21.3189   3
  -3  -3   6 568.400 21.4625   6
   3  -3  -6 559.828 21.1263   6
  -3   3  -6 515.572 30.7892   5
  -3   3  -6 565.083 22.3263   6
  -3  -3   6 560.803 22.1317   4
  -3  -3   6 576.040 28.1209   5
   3  -3  -6 542.542 25.3137   5
  -3   3  -6 557.785 21.5368   7
   4  -3   6 1479.19 52.3295   7
   4  -3   6 1462.51 52.5226   4
  -4   3   6 1412.21 51.5758   7
  -4   3   6 1385.74 51.4711   4
  -4   3  -6 1190.47 52.4961   6
   4  -3  -6 1434.64 51.6997   6
  -4   3  -6 1447.68 51.7108   7
  -4  -3   6 1397.50 51.6810   6
   5  -3   6 143.938 9.69147   6
   5  -3   6 141.915 8.00720   7
   5  -3   6 143.780 8.24212   4
  -5   3   6 134.956 6.81191   7
  -5   3   6 133.167 7.52428   6
  -5   3   6 135.942 6.77718   4
  -5  -3   6 133.084 6.88459   6
  -5   3  -6 126.128 8.77348   6
  -5   3  -6 134.707 8.07867   4
   5  -3  -6 142.560 7.04983   6
  -6   3   6 897.334 33.8997   4
   6  -3   6 919.206 34.4657   7
  -6   3   6 878.439 33.9473   6
   6  -3   6 905.980 35.8171   6
   6  -3   6 899.246 34.7708   4
  -6   3   6 915.437 33.6965   7
  -6   3  -6 903.300 35.4215   6
  -6   3  -6 896.341 34.4021   4
   6  -3  -6 903.560 34.0569   6
  -6  -3   6 882.847 33.8704   6
   7  -3   6 885.775 32.8443   4
  -7   3   6 870.760 31.9774   6
  -7   3   6 854.443 31.9141   4
   7  -3   6 769.907 33.5470   6
   7  -3   6 886.993 32.2905   7
   7  -3  -6 875.663 32.0982   6
  -7   3  -6 849.678 33.2563   6
   7   3   6 751.950 39.2982   7
  -7  -3   6 849.398 31.9114   6
  -8   3   6 45.9603 3.99648   6
   8  -3   6 54.6386 4.41152   7
   8  -3   6 47.7183 4.87993   4
  -8   3   6 48.1431 4.05205   4
   8  -3  -6 46.7735 3.92323   6
  -8   3  -6 45.8805 5.93654   6
   8   3   6 48.1148 5.69861   7
  -8  -3   6 52.6646 4.08809   6
   0   4  -6 58.3950 11.8056   5
   0  -4   6 51.1105 6.12291   4
   0  -4   6 50.3725 5.15767   6
   0  -4  -6 43.5812 3.43789   6
   1   4  -6 457.664 24.1300   5
   1  -4   6 456.214 18.9343   6
   1  -4   6 466.520 27.8643   5
   1  -4   6 459.593 18.6079   4
  -1  -4   6 502.751 26.5921   5
  -1   4  -6 434.251 19.5554   6
  -1  -4   6 460.116 19.0333   4
  -1  -4   6 456.509 18.7231   6
  -1   4  -6 486.368 26.2228   5
   1  -4  -6 468.579 17.5722   6
   2  -4   6 468.363 18.7033   4
   2   4  -6 445.669 24.2361   5
   2  -4   6 443.327 18.8160   7
  -2   4   6 437.071 18.3073   7
   2  -4   6 448.538 19.2112   6
   2  -4   6 464.170 30.0476   5
  -2   4   6 465.695 18.0904   4
  -2   4  -6 498.002 19.7739   6
   2  -4  -6 476.355 17.8597   6
  -2  -4   6 466.229 18.7353   6
  -2   4  -6 439.201 28.6941   5
  -2   4  -6 483.322 18.6437   7
  -2   4  -6 505.344 18.5344   3
   3  -4   6 54.3033 5.95612   4
   3  -4   6 62.6530 6.29117   7
   3  -4   6 50.4832 6.29518   6
  -3   4   6 72.7555 4.39712   4
  -3   4   6 69.9205 4.68039   7
  -3   4  -6 76.9367 5.14074   3
  -3   4  -6 83.6408 7.14030   6
  -3  -4   6 68.2764 5.18141   6
   3  -4  -6 71.0614 4.32228   6
  -3   4  -6 69.1974 5.42944   7
   4  -4   6 10.6734 3.15860   7
  -4   4   6 6.47392 2.13230   7
  -4   4   6 7.46065 2.10304   4
   4  -4   6 4.91927 3.02311   4
  -4  -4   6 14.7138 2.81023   6
  -4   4  -6 8.86296 2.89608   7
  -4   4  -6 4.29868 3.88068   6
   5  -4   6 1752.11 64.2733   7
   5  -4   6 1743.60 64.9993   4
  -5   4   6 1675.06 64.1517   4
  -5   4   6 1789.96 64.2788   7
   5  -4   6 1745.51 65.7869   6
  -5   4  -6 1758.48 65.1020   4
  -5  -4   6 1745.99 64.4738   6
   5  -4  -6 1790.03 64.4093   6
  -5   4  -6 1730.19 64.0580   7
  -5   4  -6 1783.40 65.8821   6
   6  -4   6 101.942 7.23122   4
   6  -4   6 92.6369 6.31297   7
  -6   4   6 107.521 5.88676   4
   6  -4   6 104.012 8.65889   6
  -6   4   6 106.483 5.79405   7
  -6   4   6 105.754 6.72224   6
  -6   4  -6 112.492 7.16529   4
  -6  -4   6 112.817 6.44764   6
  -6   4  -6 104.397 8.44578   6
   6  -4  -6 117.757 6.07507   6
  -7   4   6 218.972 9.75750   4
  -7   4   6 231.294 10.1016   6
  -7   4   6 224.427 9.43858   7
   7  -4   6 238.935 11.9444   6
   7  -4   6 228.266 10.8321   4
  -7   4  -6 198.624 10.2186   4
   7  -4  -6 219.876 9.89874   6
  -7   4  -6 229.785 11.8414   6
  -7  -4   6 227.299 9.94987   6
  -8   4   6 347.871 13.9044   6
   8  -4   6 344.134 14.2429   4
   8  -4   6 340.001 15.4609   6
  -8   4   6 341.416 13.8560   4
  -8   4  -6 360.677 15.1449   6
  -8  -4   6 346.941 13.5050   6
   8  -4  -6 369.041 13.9502   6
   0  -5   6 1040.80 39.4560   6
   1  -5   6 492.490 20.0965   4
   1  -5   6 481.519 20.1257   6
  -1  -5   6 488.380 19.8866   6
   1  -5  -6 507.966 18.5678   6
   2  -5   6 1317.74 46.9424   4
   2  -5   6 1211.64 47.3570   6
  -2   5   6 1197.75 46.1905   4
  -2   5   6 1238.52 46.5029   7
   2  -5  -6 1233.30 45.9012   6
  -2   5  -6 1314.27 46.8482   3
  -2   5  -6 1276.51 46.9241   7
  -2  -5   6 1209.74 46.8616   6
  -2   5  -6 1286.17 48.2789   6
   3  -5   6 103.340 6.98971   4
  -3   5   6 93.1461 5.91049   7
  -3   5   6 101.196 5.60878   4
  -3  -5   6 93.5824 6.33410   6
  -3   5  -6 94.9648 8.65653   6
  -3   5  -6 107.183 6.65672   7
  -3   5  -6 97.4671 6.12525   3
   3  -5  -6 91.6256 5.14617   6
  -4   5   6 196.759 9.23662   7
   4  -5   6 198.783 9.94532   4
   4  -5   6 194.641 10.7175   6
  -4   5   6 188.400 8.97155   4
  -4   5  -6 203.755 11.5225   6
  -4  -5   6 204.109 9.71928   6
  -4   5  -6 220.346 9.95677   7
   4  -5  -6 200.007 8.87467   6
  -5   5   6 271.606 11.7518   7
   5  -5   6 277.941 13.4278   6
   5  -5   6 277.926 12.7404   4
  -5   5   6 274.573 11.7223   4
   5  -5  -6 281.771 11.6846   6
  -5  -5   6 273.989 12.2082   6
  -5   5  -6 293.456 13.0853   4
  -5   5  -6 280.725 13.8884   6
  -5   5  -6 264.313 12.0799   7
  -6   5   6 244.599 10.6715   7
   6  -5   6 261.530 11.6805   4
   6  -5   6 256.501 12.5867   6
  -6   5   6 246.478 10.7956   4
  -6   5  -6 254.836 11.8319   4
  -6   5  -6 259.815 12.9093   6
   6  -5  -6 260.991 10.8190   6
  -6  -5   6 235.539 11.0155   6
   7  -5   6 71.0769 6.19982   6
  -7   5   6 71.8269 4.45042   4
   7  -5   6 79.2716 5.55894   4
  -7   5   6 64.9901 4.25844   7
   7  -5  -6 81.8411 4.50325   6
  -7   5  -6 65.9031 5.46389   4
  -7   5  -6 73.5845 6.88559   6
   0  -6   6 77.7272 6.10007   6
   1  -6   6 377.399 16.5234   6
  -1  -6   6 382.617 16.1994   6
  -1   6  -6 388.425 15.9167   3
   2  -6   6 3.44153 3.68505   6
  -2   6   6 2.29133 2.50790   4
  -2   6   6 6.84667 3.17829   7
  -2   6  -6 6.60933 2.82483   7
  -2   6  -6 3.33113 2.89327   3
   2  -6  -6 3.67358 1.76894   6
  -2  -6   6 3.50802 3.08640   6
  -3   6   6 1457.45 54.1109   4
  -3   6   6 1497.10 54.4389   7
  -3   6  -6 1475.90 54.8379   7
  -3   6  -6 1504.97 54.6816   3
  -3  -6   6 1438.92 54.5271   6
   3  -6  -6 1451.22 53.7286   6
   4  -6   6 100.890 7.63365   6
  -4   6   6 92.7538 5.45930   4
  -4   6   6 92.1887 5.87655   7
  -4   6  -6 97.7436 10.0803   6
  -4   6  -6 96.0920 6.88890   4
  -4  -6   6 89.3193 6.45348   6
  -4   6  -6 98.4082 6.57134   7
   4  -6  -6 104.262 5.26655   6
  -5   6   6 34.1273 3.81265   7
   5  -6   6 26.6359 4.11798   4
   5  -6   6 39.3568 5.87542   6
  -5   6   6 40.0990 3.86465   4
  -5  -6   6 30.7854 3.90018   6
  -5   6  -6 29.4853 4.57319   7
  -5   6  -6 32.6383 6.03134   6
   5  -6  -6 32.7271 3.39517   6
  -5   6  -6 34.4124 4.96065   4
   6  -6   6 109.652 7.38262   6
  -6   6   6 117.373 5.93165   7
  -6   6   6 125.076 6.15624   4
   6  -6  -6 116.603 5.71167   6
  -6   6  -6 123.671 7.27836   4
  -6   6  -6 111.710 8.46589   6
  -7   6   6 23.8039 2.78587   4
   7  -6   6 26.5818 4.08502   6
  -7   6   6 29.0175 2.75388   7
   7  -6  -6 24.5236 2.43639   6
  -7   6  -6 31.2128 3.71404   4
  -7   6  -6 19.6596 3.76219   6
   0   7  -6 18.3251 3.39311   3
   0  -7   6 28.3321 4.24059   6
  -1   7  -6 230.207 10.8789   7
  -1   7  -6 229.258 10.7621   3
  -1  -7   6 231.242 10.9809   6
   2  -7   6 5.93050 3.36548   6
  -2   7   6 6.31310 2.93156   7
  -2   7  -6 4.51576 2.85228   3
  -2   7  -6 1.22889 2.71862   7
  -2  -7   6 6.37914 3.41642   6
   3  -7   6 491.203 20.4665   6
  -3   7   6 489.972 19.2167   4
  -3   7   6 498.943 19.5173   7
  -3   7  -6 480.896 19.8004   3
   3  -7  -6 476.701 18.4596   6
  -3   7  -6 517.350 20.1781   7
  -3  -7   6 499.686 19.3993   6
   4  -7   6 302.094 13.5015   6
  -4   7   6 291.048 12.4121   7
  -4   7   6 300.154 12.1742   4
   4  -7  -6 275.123 11.4737   6
  -4   7  -6 298.958 12.8206   7
  -4   7  -6 295.637 13.4448   4
  -5   7   6 36.9416 3.62430   7
   5  -7   6 31.9692 4.69115   6
  -5   7   6 35.0269 3.41556   4
   5  -7  -6 33.1056 2.84604   6
  -5   7  -6 32.8304 4.69961   4
  -5   7  -6 31.1450 4.02985   7
  -6   7   6 302.956 11.8021   4
  -6   7   6 323.502 11.7900   7
   6  -7   6 294.445 12.4501   6
   6  -7  -6 269.763 11.2326   6
  -6   7  -6 290.844 12.2221   4
  -6   7  -6 275.540 13.8369   6
   0  -8   6 3.75894 3.17758   6
   0   8  -6 8.63928 2.82986   3
   1  -8   6 19.7715 3.38652   6
   1   8  -6 16.8536 3.23697   3
  -1   8  -6 16.5404 3.34070   7
  -1  -8   6 14.7217 2.99368   6
  -1   8  -6 9.83403 2.93033   3
  -2   8   6 344.717 13.9405   7
   2  -8   6 316.614 14.2402   6
  -2   8  -6 337.170 14.1661   3
  -2   8  -6 347.785 14.4329   7
  -3   8   6 1484.34 54.5647   7
  -3   8   6 1498.23 54.3747   4
   3  -8   6 1516.44 55.1405   6
  -3   8  -6 1416.19 54.8953   7
  -3   8  -6 1515.10 55.3253   4
  -4   8   6 83.7674 4.85301   4
   4  -8   6 75.9497 5.41844   6
  -4   8   6 81.9754 4.85929   7
  -4   8  -6 85.8223 5.31014   7
  -4   8  -6 83.2771 5.59742   4
   0   9  -6 204.549 9.31051   7
   0   9  -6 203.260 9.10771   3
   1   9  -6 57.7662 4.62305   7
   1   9  -6 55.3020 4.40308   3
  -1   9  -6 56.2399 4.45936   3
  -1   9  -6 51.5980 4.80807   4
  -1   9  -6 59.9937 4.56889   7
  -2   9   6 81.2776 5.05964   7
   2   9  -6 76.6997 4.94808   3
   2  -9   6 77.7845 4.65145   6
  -2   9  -6 77.1616 5.47795   4
  -2   9  -6 85.9984 5.11625   7
  -2   9  -6 80.2229 5.05323   3
   0   0  -7 -1.6281 1.80588   6
   0   0  -7 -2.1431 5.08429   2
   0   0   7 -2.3421 4.26356   5
   0   0   7 3.05242 5.04838   2
   0   0  -7 0.37181 1.28427   1
   0   0  -7 1.81698 4.75661   5
  -1   0   7 56.0211 4.14757   7
   1   0  -7 52.9035 10.0683   2
   1   0  -7 52.5509 3.80701   6
   1   0  -7 54.4244 5.01760   1
   1   0   7 65.6386 8.70640   5
  -1   0  -7 62.1782 9.22886   5
  -1   0   7 54.2112 4.25513   1
  -1   0   7 60.7690 8.38233   2
  -1   0  -7 46.8639 4.03937   6
  -1   0   7 59.6135 4.24547   4
   2   0  -7 1.08093 1.84361   6
   2   0   7 1.31607 2.92842   4
  -2   0  -7 13.6392 7.72662   5
  -2   0   7 1.68434 4.69764   5
  -2   0   7 2.57990 2.78610   6
  -2   0   7 1.48773 1.90204   4
   2   0   7 4.50256 6.96780   5
  -2   0   7 0.79033 1.97457   7
   2   0   7 3.23154 2.84768   7
   2   0  -7 5.59093 4.86064   5
  -2   0  -7 -0.9486 2.13928   6
   3   0  -7 4234.83 154.578   5
  -3   0   7 4014.84 149.981   4
   3   0   7 4259.99 150.699   4
  -3   0  -7 4112.47 154.574   5
   3   0  -7 4264.61 149.992   6
   3   0   7 4098.31 150.287   7
  -3   0   7 4147.34 149.935   6
  -3   0   7 4111.85 149.822   7
  -3   0  -7 4130.65 150.389   6
   3   0   7 4160.96 158.140   5
  -3   0   7 4178.61 154.743   5
  -4   0   7 1.04494 1.97288   6
   4   0   7 3.65890 2.88675   7
   4   0   7 2.80313 2.99882   4
   4   0  -7 2.68798 2.13294   6
  -4   0  -7 3.36890 2.80270   6
  -4   0   7 0.97518 2.25367   7
  -4   0   7 0.30581 2.08181   4
   4   0   7 -12.538 14.6728   5
  -5   0  -7 132.194 7.73115   6
  -5   0   7 134.998 6.56062   6
   5   0  -7 125.176 6.70215   6
   5   0   7 132.116 7.89556   4
  -5   0   7 121.692 6.73073   4
   5   0   7 122.999 8.13877   7
  -5   0   7 119.021 6.74080   7
  -6   0   7 439.254 17.9717   4
   6   0   7 443.193 18.9935   4
  -6   0   7 446.192 17.7726   6
  -6   0  -7 449.915 18.8229   6
   6   0   7 454.144 19.3012   7
   6   0  -7 455.140 18.0612   6
   7   0  -7 113.269 6.87112   6
   7   0   7 121.458 8.17265   7
  -7   0   7 120.269 6.98433   4
  -7   0  -7 121.636 7.76794   6
   7   0   7 136.033 8.23102   4
  -7   0   7 128.153 6.52084   6
   8   0  -7 17.0607 3.04774   6
  -8   0  -7 14.2636 3.07093   6
   8   0   7 19.1795 3.78662   7
   8   0   7 21.4208 3.64777   4
  -8   0   7 21.0342 3.21415   6
   0   1  -7 2530.96 91.3417   5
   0  -1   7 2474.06 92.0012   5
   0   1   7 2411.94 90.5830   5
   0   1  -7 2162.28 87.0815   6
   0  -1  -7 2585.28 90.0483   5
   0  -1  -7 2363.60 86.9178   6
   0   1  -7 2340.55 90.5304   2
   0   1  -7 2340.40 88.7265   1
   0  -1   7 2413.87 89.4107   1
   0  -1   7 2401.09 91.6706   2
   0  -1   7 2394.25 87.1170   7
   0  -1   7 2391.02 87.3895   4
  -1   1   7 128.304 9.54411   5
  -1  -1  -7 139.765 11.0485   5
   1   1  -7 122.550 9.90831   5
   1  -1   7 132.399 7.02675   4
  -1   1   7 126.855 6.33481   4
   1  -1   7 119.404 6.77458   7
  -1  -1  -7 125.345 6.30696   6
   1   1  -7 130.875 6.42884   6
  -1   1   7 114.588 6.35678   7
   1  -1   7 121.427 11.3013   5
   1   1   7 130.052 9.99919   5
  -1  -1   7 128.111 11.1597   2
  -1  -1   7 131.736 10.6471   5
   1  -1  -7 115.146 9.39511   5
  -1  -1   7 130.638 6.52094   7
  -1  -1   7 134.536 7.48784   1
  -1  -1   7 128.169 6.62800   4
   1  -1  -7 144.565 6.08217   6
  -1   1  -7 139.034 11.2622   5
  -1   1  -7 131.578 6.74461   6
  -2   1   7 152.038 6.98598   7
  -2   1   7 139.023 6.80075   4
   2  -1   7 139.167 7.41857   7
   2   1  -7 152.884 11.0600   5
   2   1  -7 154.892 7.09737   6
  -2  -1  -7 138.344 7.07135   6
   2  -1   7 135.210 13.6199   5
   2  -1   7 141.168 7.57564   4
  -2  -1   7 144.420 7.19540   4
   2  -1  -7 143.717 6.71063   6
   2  -1  -7 166.315 11.1587   5
  -2  -1   7 139.894 7.21821   6
  -2   1  -7 144.268 7.49628   6
  -2  -1   7 158.535 12.8542   2
  -2  -1   7 141.509 6.99488   7
   2   1   7 165.828 13.8882   5
  -2  -1   7 141.731 11.3375   5
  -2   1  -7 155.356 15.0301   5
   3  -1   7 601.261 24.3782   4
  -3   1   7 633.246 23.6511   7
   3   1  -7 625.783 23.8026   6
  -3  -1  -7 619.181 24.0241   6
   3  -1   7 609.493 33.5158   5
   3   1  -7 618.146 28.7291   5
   3  -1   7 608.550 24.1628   7
  -3   1   7 627.166 23.7469   4
  -3   1   7 610.349 23.7681   6
  -3  -1   7 642.838 23.8341   6
  -3   1  -7 650.776 24.5178   6
   3   1   7 626.989 24.9616   4
   3  -1  -7 626.585 23.6794   6
   3   1   7 581.219 24.3967   7
   3  -1  -7 613.726 28.4620   5
  -3  -1   7 639.970 24.0225   4
  -3   1  -7 662.619 32.7479   5
   3   1   7 627.290 33.1778   5
  -3  -1   7 618.336 29.3912   5
  -3  -1   7 625.039 23.6477   7
  -4  -1  -7 766.199 29.1329   6
   4  -1   7 774.777 29.7306   7
  -4   1   7 648.084 28.4654   4
   4   1  -7 758.316 28.7485   6
  -4   1   7 792.244 28.6829   6
   4  -1   7 750.028 29.5006   4
  -4   1   7 822.386 28.6220   7
  -4   1  -7 748.546 29.3147   4
  -4  -1   7 787.138 28.9117   4
   4   1   7 744.389 29.7037   4
   4   1   7 723.448 29.2846   7
   4  -1  -7 794.862 28.7705   6
   4   1   7 722.589 42.3876   5
  -4  -1   7 762.433 28.5903   6
  -5   1   7 32.0432 3.44725   6
  -5   1   7 31.4939 3.75903   4
  -5  -1  -7 33.1835 4.94430   6
  -5   1   7 24.1454 3.79643   7
   5  -1   7 24.3196 3.86790   4
   5  -1   7 34.4854 5.32977   7
   5  -1  -7 30.9562 3.64200   6
  -5  -1   7 32.7422 4.54511   4
  -5   1  -7 19.0350 3.78300   6
   5   1   7 40.6623 6.71213   7
  -5  -1   7 25.3974 3.21730   6
   5   1   7 27.3751 4.55825   4
  -6   1   7 1196.35 43.2494   4
   6  -1   7 1174.79 44.2181   4
  -6  -1  -7 1175.82 43.6488   6
   6   1  -7 1113.47 43.1106   6
  -6   1   7 1129.52 42.9930   6
   6  -1   7 1124.22 44.1781   7
  -6   1  -7 1186.80 44.2742   6
   6   1   7 1125.98 43.9483   4
   6   1   7 1129.63 44.4387   7
   6  -1  -7 1196.13 43.2420   6
  -6  -1   7 1145.33 43.1197   4
  -6  -1   7 1187.04 43.0677   6
  -7  -1  -7 64.1401 5.71882   6
  -7   1   7 53.3779 4.77408   4
   7  -1   7 59.2444 6.27599   7
   7   1  -7 44.4068 5.78158   6
   7  -1   7 63.3793 6.00002   4
  -7   1   7 63.4067 4.55802   6
   7  -1  -7 52.3939 4.41025   6
  -7  -1   7 63.8005 4.44833   6
   7   1   7 63.0567 6.57806   7
   7   1   7 65.3778 6.46163   4
  -7   1  -7 63.1535 6.20088   6
   8  -1   7 6.12212 2.66354   7
   8  -1   7 10.8997 3.24701   4
  -8   1   7 5.19392 2.87236   4
  -8  -1  -7 2.03744 2.15337   6
  -8   1  -7 7.32436 3.06497   6
  -8  -1   7 9.41747 2.21286   6
   8  -1  -7 15.1658 2.79966   6
   8   1   7 4.02091 2.88691   4
   8   1   7 11.4817 3.37115   7
   0   2  -7 12.3035 7.06401   2
   0  -2  -7 3.61934 1.82113   6
   0  -2   7 3.46605 7.43125   2
   0  -2   7 12.2059 7.13745   5
   0  -2   7 3.13982 3.08531   6
   0   2  -7 3.79827 1.98535   1
   0   2   7 1.18403 4.40331   5
   0   2  -7 5.99164 2.73406   6
   0  -2   7 1.40468 2.29553   7
   0  -2  -7 11.1323 4.98162   5
   0   2  -7 5.30963 5.65135   5
   1  -2   7 2052.76 79.1660   5
   1   2  -7 1798.87 76.9123   2
   1   2  -7 1890.51 74.4597   1
  -1   2   7 1888.21 71.9662   7
  -1  -2  -7 1953.05 71.9157   6
   1  -2   7 1978.68 72.5767   4
   1   2  -7 2017.05 76.7512   5
   1  -2   7 1977.77 72.2604   7
  -1   2   7 1926.73 72.0485   4
   1   2  -7 1948.20 72.3076   6
   1  -2   7 1953.17 73.2154   6
   1  -2  -7 1980.35 71.8123   6
  -1   2  -7 1982.89 72.5655   6
  -1  -2   7 2164.51 78.0093   5
   1   2   7 2108.79 76.2656   5
  -1  -2   7 1922.17 77.2369   2
  -1  -2   7 1996.98 74.7093   1
  -1   2  -7 2089.63 72.0886   3
  -1   2  -7 1923.07 77.5666   5
  -1  -2   7 2023.93 72.4233   4
  -1  -2   7 1940.36 72.5654   6
  -1  -2   7 2041.38 72.1121   7
   2   2  -7 15.5451 17.4023   2
  -2   2   7 42.0226 3.74572   7
   2  -2   7 54.4872 6.18085   6
   2  -2   7 55.9316 12.6301   5
   2  -2   7 44.4656 4.50749   7
   2   2  -7 45.1302 9.30796   5
   2   2  -7 46.1317 4.50009   6
  -2  -2  -7 44.9234 4.19540   6
  -2   2   7 45.6798 3.83089   4
   2  -2   7 43.2299 4.60986   4
  -2  -2   7 48.3427 9.33028   5
   2  -2  -7 47.3486 3.41730   6
  -2  -2   7 41.8136 4.41453   4
  -2   2  -7 47.6688 4.56138   3
   2   2   7 56.7621 12.6985   5
  -2  -2   7 49.6982 5.04238   7
  -2   2  -7 52.2468 4.95177   6
  -2   2  -7 54.8741 5.14494   7
   2  -2  -7 45.3230 8.26718   5
  -2  -2   7 39.2804 4.32670   6
  -2   2  -7 53.8628 11.9731   5
   3   2  -7 71.5136 11.3913   5
   3  -2   7 73.7261 5.95063   7
   3  -2   7 78.0530 5.80330   4
   3  -2   7 80.7901 8.89687   6
   3   2  -7 80.8025 5.73698   6
   3  -2   7 67.5764 15.4493   5
  -3   2   7 77.9524 4.60673   4
  -3   2   7 73.3746 4.57003   7
  -3   2   7 64.4218 6.37743   6
  -3  -2  -7 73.6656 5.32893   6
  -3   2  -7 78.7613 5.94291   6
  -3  -2   7 63.6616 14.3163   5
   3  -2  -7 80.1242 4.58125   6
  -3   2  -7 84.0376 16.2924   5
   3   2   7 95.2987 19.4599   5
  -3   2  -7 63.0350 6.59200   7
  -3  -2   7 78.2398 4.90608   6
  -3  -2   7 70.3822 5.75287   4
   4   2  -7 76.5932 5.79833   6
  -4   2   7 71.9161 4.69767   4
  -4   2   7 76.2311 5.27457   6
   4  -2   7 71.9692 6.44051   7
  -4  -2  -7 79.3747 5.77782   6
   4  -2   7 78.9117 5.96108   4
   4  -2   7 88.7219 9.68332   6
  -4  -2   7 69.6992 6.25108   4
   4  -2  -7 74.3701 4.63109   6
  -4   2  -7 75.3639 6.26061   6
  -4  -2   7 74.4454 4.82145   6
   5  -2   7 831.633 33.3034   4
  -5  -2  -7 884.766 32.6068   6
   5  -2   7 877.372 33.3883   7
  -5   2   7 852.881 32.3653   6
  -5   2   7 858.919 32.2031   7
  -5   2   7 883.613 32.4891   4
   5  -2   7 853.072 34.7589   6
   5   2   7 877.483 33.8582   7
   5  -2  -7 858.316 32.4375   6
  -5  -2   7 862.183 32.4209   6
   5   2   7 822.709 33.4448   4
  -5   2  -7 822.411 32.9203   4
  -5  -2   7 840.414 32.7154   4
  -5   2  -7 892.398 33.8078   6
  -6   2   7 306.669 12.8190   7
  -6   2   7 320.737 13.2727   4
   6  -2   7 344.008 14.6209   7
  -6   2   7 312.555 13.1324   6
   6  -2   7 324.409 14.3796   4
  -6  -2  -7 295.233 13.2228   6
   6   2   7 280.686 14.3985   4
  -6  -2   7 332.616 13.2699   6
   6   2   7 309.281 15.3474   7
   6  -2  -7 310.069 13.1976   6
  -6   2  -7 322.821 14.6583   6
   7  -2   7 786.256 31.1218   4
  -7   2   7 825.283 30.2611   6
   7  -2   7 812.304 30.9849   7
  -7   2   7 781.378 30.2527   4
   7  -2  -7 788.790 30.2200   6
   7   2   7 783.313 31.6051   7
  -7  -2   7 819.624 30.3295   6
  -7   2  -7 785.533 31.4186   6
  -8   2   7 20.8514 2.79738   4
   8  -2   7 20.9667 3.59614   4
  -8   2   7 23.2098 3.15351   6
   8  -2   7 18.9481 2.87499   7
   8  -2  -7 23.7534 3.10755   6
  -8  -2   7 17.0570 2.59347   6
  -8   2  -7 14.1902 3.35722   6
   8   2   7 23.0634 3.74659   7
   0  -3   7 931.056 34.8282   4
   0  -3   7 922.473 42.0746   5
   0   3  -7 886.983 34.9717   6
   0   3  -7 914.063 40.5720   5
   0   3   7 932.290 38.0089   5
   0  -3  -7 955.743 33.9811   6
   0  -3   7 896.070 35.1276   6
   0  -3   7 931.908 34.7870   7
  -1   3   7 445.927 18.9966   7
   1  -3   7 484.335 20.0552   6
   1  -3   7 473.569 27.4753   5
   1  -3   7 515.646 19.6241   4
   1   3  -7 465.895 19.6938   6
   1   3  -7 468.006 24.8171   5
   1  -3   7 508.331 19.6577   7
  -1  -3  -7 487.589 18.7187   6
  -1   3   7 462.401 18.8996   4
  -1  -3   7 505.809 19.5056   4
  -1  -3   7 475.954 19.6223   6
  -1   3  -7 486.602 19.8573   6
   1   3   7 548.383 24.4695   5
  -1   3  -7 466.174 26.3677   5
  -1  -3   7 486.072 26.6733   5
  -1   3  -7 529.491 19.2560   3
   1  -3  -7 511.611 18.5896   6
   2  -3   7 1958.89 73.4664   6
   2  -3   7 1888.85 81.9660   5
   2  -3   7 2084.37 72.9152   7
   2   3  -7 1902.73 78.1115   5
  -2   3   7 1869.98 72.1612   7
  -2  -3  -7 1963.78 72.0481   6
   2   3  -7 2019.12 73.3312   6
  -2   3   7 1971.61 72.2286   4
   2  -3   7 1975.05 72.9128   4
  -2   3  -7 2002.57 73.2375   6
  -2  -3   7 1997.27 72.8689   6
  -2  -3   7 2097.23 72.8253   4
   2  -3  -7 1984.91 72.0684   6
  -2   3  -7 1966.39 72.3798   3
  -2   3  -7 2058.10 72.6262   7
  -3  -3  -7 5.39001 3.43830   6
  -3   3   7 3.95305 1.79939   4
  -3   3   7 2.04756 1.95971   7
   3  -3   7 10.8614 4.40536   6
   3  -3   7 7.53004 3.00102   7
  -3  -3   7 20.2215 14.7253   5
  -3  -3   7 2.29138 3.84512   4
   3  -3  -7 3.40707 1.88699   6
  -3  -3   7 4.89445 2.34961   6
  -3   3  -7 2.42814 2.88851   7
  -3   3  -7 0.24253 3.18036   3
  -3   3  -7 3.81054 3.23221   6
  -4   3   7 678.612 26.3794   4
  -4   3   7 715.874 26.4449   7
   4  -3   7 694.346 27.2133   7
   4  -3   7 705.987 27.5075   4
  -4   3  -7 703.558 26.4820   7
  -4  -3   7 671.188 26.6743   6
  -4   3  -7 698.129 27.8378   6
   4  -3  -7 682.964 26.3395   6
   5  -3   7 293.692 15.0400   6
  -5   3   7 307.319 12.7248   4
   5  -3   7 314.640 13.8519   4
   5  -3   7 308.874 13.5864   7
  -5   3   7 300.383 12.9161   6
  -5   3   7 303.779 12.5818   7
   5  -3  -7 292.886 12.6041   6
  -5   3  -7 308.642 14.4834   6
  -5   3  -7 287.943 13.5998   4
  -5  -3   7 303.042 12.8797   6
  -6   3   7 8.72979 2.45020   7
  -6   3   7 6.21523 2.75153   6
   6  -3   7 11.9221 5.76579   6
  -6   3   7 10.1215 2.46349   4
   6  -3   7 9.94345 3.48812   4
   6  -3   7 4.46115 2.94192   7
   6   3   7 6.18393 6.91532   7
  -6   3  -7 6.44024 3.81219   6
   6  -3  -7 11.0122 2.40879   6
  -6   3  -7 15.1363 3.72997   4
  -6  -3   7 5.63443 2.61908   6
   7  -3   7 836.521 31.5204   7
   7  -3   7 843.378 32.2216   4
   7  -3   7 847.865 33.6191   6
  -7   3   7 835.271 31.3348   6
  -7   3   7 810.984 31.3696   4
   7  -3  -7 819.446 31.3307   6
  -7   3  -7 828.328 32.8083   6
   7   3   7 823.006 32.6494   7
  -7  -3   7 839.943 31.5552   6
  -8   3   7 35.8966 3.46205   6
   8  -3   7 50.5529 4.02391   7
  -8   3   7 43.7755 3.87472   4
   8  -3   7 39.1096 4.80003   4
  -8   3  -7 49.7601 5.49230   6
  -8  -3   7 44.5548 3.79722   6
   8  -3  -7 46.8104 3.48237   6
   0  -4   7 28.1356 15.7284   5
   0   4  -7 -1.5017 4.55126   6
   0  -4   7 3.85483 3.41475   4
   0  -4  -7 1.27862 1.91340   6
   0  -4   7 0.78806 3.02376   6
  -1   4   7 1213.52 45.4612   4
   1  -4   7 1142.04 56.6123   5
  -1   4   7 1203.99 45.5665   7
   1  -4   7 1210.78 46.4840   6
   1  -4   7 1288.88 46.1183   4
  -1   4  -7 1286.36 45.9154   3
  -1   4  -7 1247.01 46.6695   6
   1  -4  -7 1243.41 45.0244   6
  -1  -4   7 1302.37 46.1109   4
  -1  -4   7 1165.81 55.1992   5
  -1  -4   7 1234.45 46.2865   6
   2  -4   7 1200.83 46.8846   6
   2  -4   7 1279.55 45.9044   7
   2  -4   7 1231.78 46.3506   4
  -2   4   7 1185.65 45.6559   7
  -2   4   7 1215.50 45.6196   4
   2  -4  -7 1253.89 45.3809   6
  -2   4  -7 1279.45 46.2595   7
  -2   4  -7 1244.00 46.9416   6
  -2  -4   7 1208.10 46.3647   6
  -2   4  -7 1266.84 46.0448   3
  -3   4   7 301.670 12.3857   4
  -3   4   7 295.608 12.4792   7
   3  -4   7 294.406 13.4750   4
   3  -4   7 293.508 14.2938   6
   3  -4   7 299.382 13.1046   7
  -3   4  -7 303.515 14.1725   6
   3  -4  -7 305.415 12.2848   6
  -3  -4   7 292.092 13.1387   6
  -3   4  -7 320.055 13.1958   7
  -3   4  -7 297.580 12.8726   3
  -4   4   7 107.725 6.01303   7
  -4   4   7 107.997 5.94248   4
   4  -4   7 104.029 6.89886   7
   4  -4   7 105.104 7.41632   4
   4  -4  -7 118.255 5.86756   6
  -4   4  -7 106.073 6.88519   7
  -4  -4   7 106.723 6.77161   6
  -4   4  -7 113.120 8.17930   6
  -5   4   7 202.299 9.22756   4
   5  -4   7 190.103 11.2881   6
   5  -4   7 191.026 9.53765   7
  -5   4   7 207.427 9.14265   7
   5  -4   7 201.648 10.4010   4
   5  -4  -7 202.012 9.07518   6
  -5   4  -7 206.560 11.4487   6
  -5   4  -7 204.299 10.3615   4
  -5  -4   7 208.320 9.79488   6
  -6   4   7 103.056 7.22593   6
   6  -4   7 108.790 6.30727   7
  -6   4   7 120.218 6.35594   4
   6  -4   7 119.218 7.52106   4
  -6   4   7 106.937 5.98595   7
   6  -4   7 123.490 8.83318   6
  -6  -4   7 112.044 6.81541   6
  -6   4  -7 108.351 8.26351   6
   6  -4  -7 118.088 6.12373   6
  -6   4  -7 119.855 7.59758   4
  -7   4   7 154.160 7.61208   6
   7  -4   7 158.162 8.38256   4
  -7   4   7 163.924 7.53629   4
  -7   4   7 143.831 6.92123   7
   7  -4   7 174.739 10.1858   6
  -7  -4   7 163.518 7.70520   6
  -7   4  -7 148.430 8.81938   6
   7  -4  -7 154.013 7.19544   6
  -8   4   7 596.668 22.1395   4
   8  -4   7 613.771 22.4251   4
   8  -4   7 512.986 23.4336   6
  -8   4   7 591.326 22.1980   6
  -8   4  -7 650.835 23.3166   6
  -8  -4   7 574.578 21.6844   6
   8  -4  -7 565.711 21.9665   6
   0  -5   7 815.593 31.6998   6
   1  -5   7 326.844 14.5708   6
   1  -5   7 309.357 14.3480   4
  -1   5  -7 333.201 13.8195   3
  -1  -5   7 308.015 14.1302   6
   1  -5  -7 325.839 12.5127   6
  -2   5   7 245.813 11.1799   4
   2  -5   7 260.563 12.2389   4
   2  -5   7 272.185 12.8421   6
  -2   5   7 257.305 11.4482   7
  -2   5  -7 272.478 12.1548   7
   2  -5  -7 265.636 10.6682   6
  -2  -5   7 263.147 12.1218   6
  -2   5  -7 274.386 13.9679   6
  -2   5  -7 262.676 11.8131   3
   3  -5   7 492.408 21.7578   6
   3  -5   7 534.470 21.0693   4
  -3   5   7 522.667 20.2135   4
  -3   5   7 516.835 20.3621   7
   3  -5  -7 520.973 19.9114   6
  -3   5  -7 547.559 21.0275   7
  -3   5  -7 511.074 20.6960   3
  -3   5  -7 521.027 22.3099   6
  -3  -5   7 505.822 20.9858   6
  -4   5   7 1266.43 47.1791   4
  -4   5   7 1263.03 47.2251   7
   4  -5   7 1219.27 48.5313   6
   4  -5   7 1256.39 47.6884   4
  -4  -5   7 1287.97 47.7580   6
   4  -5  -7 1303.77 47.0042   6
  -4   5  -7 1330.38 47.5286   7
  -4   5  -7 1259.75 48.8850   6
   5  -5   7 233.232 11.0407   4
  -5   5   7 240.750 10.2885   4
  -5   5   7 236.804 10.1928   7
   5  -5   7 223.524 11.8840   6
  -5   5  -7 243.998 11.6200   4
   5  -5  -7 234.826 10.0176   6
  -5  -5   7 230.085 10.6763   6
  -5   5  -7 215.611 12.3185   6
   6  -5   7 47.5164 6.32176   6
   6  -5   7 44.3384 5.07696   4
  -6   5   7 48.7477 4.07772   4
  -6   5   7 46.5621 3.80517   7
  -6  -5   7 39.7606 4.56877   6
  -6   5  -7 41.0539 5.22852   4
   6  -5  -7 41.3431 3.72356   6
  -6   5  -7 44.6768 6.74859   6
   7  -5   7 40.1114 4.48653   4
  -7   5   7 41.1715 3.56121   4
  -7   5   7 39.0184 3.21646   7
   7  -5   7 32.0768 5.22912   6
  -7   5  -7 36.6999 4.57651   6
   7  -5  -7 39.6227 3.08949   6
  -7   5  -7 37.4903 3.84670   4
   0  -6   7 3343.06 122.025   6
   1  -6   7 166.199 9.26679   6
  -1   6  -7 168.361 8.45067   3
  -1  -6   7 157.704 8.88339   6
   2  -6   7 1576.11 58.3815   6
  -2   6   7 1508.13 56.9763   4
  -2   6   7 1516.83 57.1541   7
  -2   6  -7 1582.90 57.9000   7
  -2  -6   7 1564.41 57.8113   6
   2  -6  -7 1520.91 56.3300   6
  -2   6  -7 1600.65 57.6817   3
  -3   6   7 404.553 16.1785   7
  -3   6   7 390.530 15.9442   4
  -3   6  -7 390.545 19.3708   6
  -3   6  -7 404.188 16.6169   3
   3  -6  -7 402.969 15.4352   6
  -3   6  -7 404.172 16.8167   7
  -3  -6   7 392.773 16.6237   6
  -4   6   7 678.428 25.5776   7
  -4   6   7 666.907 25.3975   4
   4  -6   7 668.911 26.8506   6
  -4   6  -7 648.714 25.7974   7
  -4   6  -7 665.665 26.4811   4
  -4   6  -7 653.880 27.3234   6
   4  -6  -7 662.354 24.9520   6
  -4  -6   7 676.929 25.8462   6
  -5   6   7 454.643 17.6075   4
  -5   6   7 454.096 17.5653   7
   5  -6   7 431.167 18.8673   6
   5  -6   7 428.178 17.7049   4
  -5  -6   7 442.531 17.5174   6
   5  -6  -7 458.137 17.2047   6
  -5   6  -7 464.143 19.6549   6
  -5   6  -7 436.605 18.5379   4
  -6   6   7 322.750 12.6695   4
  -6   6   7 291.838 12.3328   7
   6  -6   7 315.013 13.6544   6
  -6   6  -7 312.403 14.1935   6
  -6   6  -7 317.756 13.2130   4
   6  -6  -7 303.893 12.1548   6
   0  -7   7 294.645 13.5753   6
   0   7  -7 318.789 13.3952   3
  -1   7  -7 462.247 18.7815   3
  -1  -7   7 436.584 18.7089   6
  -1   7  -7 477.151 19.0238   7
  -2   7   7 514.992 20.3612   7
  -2  -7   7 513.107 20.7051   6
  -2   7  -7 541.945 21.1080   7
  -2   7  -7 508.371 20.7628   3
  -3   7   7 529.663 20.4863   7
  -3   7   7 537.473 20.3482   4
   3  -7   7 484.940 21.3623   6
  -3   7  -7 528.463 20.8304   3
  -3  -7   7 550.973 20.5866   6
  -3   7  -7 516.990 21.0910   7
  -4   7   7 197.409 8.64626   7
  -4   7   7 193.697 8.49561   4
   4  -7   7 191.427 9.78135   6
   4  -7  -7 183.137 7.68611   6
  -4   7  -7 187.933 8.78966   7
  -4   7  -7 192.618 9.75403   4
   5  -7   7 45.8589 5.00974   6
  -5   7   7 48.6463 3.56664   7
  -5   7   7 50.1895 3.84551   4
  -5   7  -7 55.7488 7.02831   6
   5  -7  -7 49.2239 2.88671   6
  -5   7  -7 40.8472 5.00521   4
   0  -8   7 123.030 6.91325   6
   0   8  -7 118.657 6.98532   7
   0   8  -7 117.490 6.80591   3
  -1   8   7 390.098 15.1027   7
   1   8  -7 367.181 15.1360   3
   1  -8   7 352.947 15.1298   6
  -1  -8   7 360.239 14.7156   6
  -1   8  -7 363.234 15.2738   7
  -1   8  -7 361.526 15.1565   3
  -2   8   7 63.7136 4.60757   7
   2  -8   7 57.5225 4.98183   6
  -2   8  -7 59.5397 5.10793   7
  -2   8  -7 61.2073 5.12622   3
  -3   8   7 243.913 12.0111   4
  -3   8   7 243.261 10.2324   7
   3  -8   7 243.143 10.7460   6
  -3   8  -7 239.019 10.6198   7
  -3   8  -7 239.804 10.9077   4
  -4   8   7 113.606 5.47843   7
   4  -8   7 110.789 6.18921   6
  -4   8   7 100.777 5.57743   4
  -4   8  -7 115.848 6.44852   4
  -4   8  -7 119.217 5.87148   7
   0   9  -7 376.265 15.1927   3
   0   9  -7 385.661 15.2401   7
   1   9  -7 89.8757 5.08452   3
   1   9  -7 90.5123 5.20707   7
  -1   9  -7 83.1405 5.23768   3
  -1   9  -7 86.4560 5.09168   7
  -1   9  -7 83.5293 5.35396   4
   0   0  -8 3234.69 117.018   6
   0   0   8 3153.13 116.909   7
   0   0  -8 3350.24 121.629   5
   0   0   8 3125.05 117.134   4
   0   0   8 3295.42 122.447   5
   1   0  -8 254.633 15.9091   5
   1   0  -8 255.096 10.4440   6
  -1   0   8 258.099 10.4957   7
   1   0   8 250.704 10.7156   7
   1   0   8 232.803 10.7723   4
  -1   0  -8 250.377 10.7269   6
  -1   0  -8 264.447 18.9767   5
  -1   0   8 242.519 15.7692   5
  -1   0   8 248.752 10.7869   4
   1   0   8 227.945 16.6688   5
  -1   0   8 214.346 11.3334   6
  -2   0   8 1020.13 38.0647   4
  -2   0  -8 1017.83 45.3459   5
  -2   0   8 986.199 38.1155   6
   2   0   8 969.225 46.2470   5
   2   0   8 1034.21 38.1853   7
  -2   0   8 1049.44 37.8573   7
  -2   0   8 1006.69 43.6670   5
  -2   0  -8 1032.84 38.3347   6
   2   0   8 1003.56 38.4535   4
   2   0  -8 1066.33 37.8822   6
   2   0  -8 1005.78 42.8401   5
  -3   0   8 2.03104 2.21581   4
   3   0   8 3.84106 2.98922   4
   3   0   8 6.55917 2.95003   7
  -3   0  -8 3.81147 2.63229   6
   3   0  -8 4.64687 1.98670   6
  -3   0   8 7.14012 2.34039   7
   3   0   8 11.4086 15.1324   5
  -4   0  -8 -0.3581 2.64623   6
   4   0   8 1.18643 3.14220   4
   4   0   8 0.53723 2.74423   7
   4   0  -8 1.42641 1.94262   6
  -4   0   8 7.31953 2.33227   6
   5   0  -8 232.545 10.3326   6
  -5   0  -8 246.859 11.6429   6
   5   0   8 250.172 12.0852   4
  -5   0   8 233.712 10.3576   6
   5   0   8 223.408 11.7644   7
  -5   0   8 213.824 10.1214   7
  -5   0   8 251.051 10.6534   4
  -6   0   8 1.85042 2.23138   6
   6   0  -8 -1.0442 2.21815   6
  -6   0   8 -0.9807 2.43519   4
  -6   0  -8 6.46225 3.27800   6
   6   0   8 -0.2934 3.58947   7
   6   0   8 1.09072 3.66867   4
  -7   0   8 144.608 7.72341   4
   7   0   8 163.672 9.24498   4
   7   0  -8 143.008 7.23127   6
   7   0   8 120.382 8.54834   7
  -7   0   8 121.971 6.94866   6
  -7   0  -8 153.166 8.44638   6
   8   0   8 281.284 12.5609   4
  -8   0   8 267.969 11.4349   6
   8   0  -8 273.684 11.6440   6
   8   0   8 287.473 12.5847   7
   0   1   8 3254.16 117.166   7
   0   1  -8 3291.79 117.470   6
   0  -1  -8 3173.76 117.090   6
   0   1   8 3146.99 117.334   4
   0  -1   8 3291.83 123.649   5
   0  -1   8 3235.46 118.028   6
   0  -1   8 3319.95 117.274   7
   0   1   8 3282.57 122.101   5
   0  -1   8 3119.97 117.450   4
   0   1  -8 3264.35 122.543   5
  -1   1   8 888.322 38.6569   5
   1  -1   8 932.115 34.4373   4
   1  -1   8 921.502 33.9887   7
  -1  -1  -8 923.400 33.9508   6
   1  -1   8 862.504 40.7776   5
   1   1  -8 897.327 39.1757   5
  -1   1   8 920.097 33.9643   4
  -1  -1  -8 888.662 38.9669   5
   1   1  -8 903.593 33.9866   6
  -1   1   8 908.423 33.7327   7
   1   1   8 895.756 34.2371   4
  -1  -1   8 917.717 33.8719   7
  -1   1  -8 925.711 41.2453   5
  -1  -1   8 872.495 34.3335   6
   1   1   8 889.853 33.9286   7
   1  -1  -8 920.577 33.7010   6
  -1  -1   8 901.897 34.1384   4
   1  -1  -8 942.103 38.1752   5
   1   1   8 894.525 39.4046   5
  -1   1  -8 893.013 34.2053   6
  -1  -1   8 904.814 40.0544   5
   2  -1   8 525.234 25.2080   6
   2  -1   8 592.838 22.5502   7
   2  -1   8 553.144 32.1849   5
   2  -1   8 584.030 22.8252   4
   2   1  -8 584.327 22.2690   6
  -2  -1  -8 581.025 22.4131   6
  -2   1   8 592.663 22.2871   4
  -2   1   8 562.023 27.9330   5
  -2   1   8 583.976 22.0906   7
  -2   1   8 559.939 22.5945   6
   2   1  -8 585.012 28.0629   5
   2   1   8 611.347 23.1984   4
   2  -1  -8 581.149 27.5556   5
   2  -1  -8 601.128 22.0200   6
   2   1   8 562.879 22.4154   7
   2   1   8 571.783 31.0554   5
  -2  -1   8 540.576 28.1364   5
  -2   1  -8 585.567 22.7773   6
  -2  -1   8 552.655 22.4780   6
  -2  -1   8 598.157 22.2112   7
  -2   1  -8 576.054 32.9195   5
  -2  -1   8 580.726 22.5008   4
   3  -1   8 520.489 20.7047   7
  -3   1   8 531.030 20.3823   6
   3   1  -8 524.266 20.2486   6
  -3   1   8 432.327 19.8914   7
   3  -1   8 528.047 20.9964   4
  -3  -1  -8 511.975 20.5465   6
   3   1   8 521.356 37.0134   5
  -3  -1   8 551.801 20.5481   4
   3  -1  -8 528.173 20.0401   6
  -3  -1   8 534.803 20.4474   6
   3   1   8 525.848 21.3854   4
  -3  -1   8 553.266 20.1711   7
   3   1   8 496.871 20.5779   7
  -3   1  -8 487.328 35.0476   5
   4   1  -8 125.685 6.79397   6
  -4   1   8 121.675 6.83553   4
  -4   1   8 133.403 6.63625   7
   4  -1   8 128.261 8.17392   7
  -4   1   8 126.658 6.64475   6
  -4  -1  -8 130.732 7.51793   6
   4  -1   8 138.232 8.17241   4
   4  -1  -8 122.673 6.36283   6
   4   1   8 121.612 7.84490   7
   4   1   8 127.771 8.96352   4
  -4  -1   8 120.315 7.14326   4
  -4  -1   8 127.820 6.75954   6
  -4   1  -8 116.241 7.72275   6
   5  -1   8 644.930 25.9191   7
  -5   1   8 620.453 24.3211   7
  -5  -1  -8 643.507 25.3289   6
  -5   1   8 636.683 24.8277   4
  -5   1   8 611.761 24.5831   6
   5   1  -8 649.102 24.8098   6
   5  -1   8 672.196 25.9822   4
   5   1   8 634.540 26.3587   7
   5   1   8 652.256 26.0108   4
  -5   1  -8 639.653 25.8354   6
   5  -1  -8 641.125 24.6588   6
  -5  -1   8 646.183 24.9553   4
  -5  -1   8 628.844 24.7045   6
  -6   1   8 101.881 5.80581   6
  -6  -1  -8 91.0622 6.92683   6
   6  -1   8 96.7136 7.61417   4
  -6   1   8 91.0634 5.97196   4
   6   1  -8 93.1146 6.09907   6
   6  -1   8 100.789 7.61718   7
   6   1   8 97.5841 7.89065   7
  -6  -1   8 80.5757 6.78918   4
   6  -1  -8 92.4835 5.69935   6
  -6  -1   8 92.2559 5.66284   6
  -6   1  -8 90.9295 7.35424   6
   6   1   8 96.9400 7.95093   4
  -7   1   8 312.629 13.6210   4
  -7  -1  -8 301.331 13.6809   6
   7  -1   8 356.417 15.0329   7
   7   1  -8 332.578 14.0629   6
  -7   1   8 334.389 13.6963   6
   7  -1   8 337.987 15.0199   4
  -7  -1   8 342.717 13.7811   6
   7  -1  -8 322.428 13.4601   6
   7   1   8 338.970 15.3939   7
  -7   1  -8 329.585 14.8001   6
   8  -1   8 288.321 12.2263   4
   8  -1   8 256.124 11.4529   7
  -8   1   8 260.682 10.9460   6
   8  -1  -8 247.867 10.7512   6
  -8   1  -8 249.554 11.5037   6
   8   1   8 285.931 12.5170   7
  -8  -1   8 248.359 10.9472   6
   0   2   8 243.381 10.8305   7
   0  -2   8 249.033 11.7967   6
   0  -2   8 251.469 20.0783   5
   0  -2   8 255.311 10.8477   7
   0  -2  -8 257.601 10.3815   6
   0   2   8 258.148 10.9188   4
   0  -2   8 264.042 11.3717   4
   0   2   8 233.653 16.1153   5
   0   2  -8 235.731 11.1889   6
   0   2  -8 242.081 18.0673   5
  -1  -2  -8 400.280 16.0562   6
   1  -2   8 402.333 17.7773   6
   1   2  -8 412.945 23.3777   5
  -1   2   8 407.685 16.2195   4
   1  -2   8 431.545 16.9474   4
   1  -2   8 422.507 16.4588   7
  -1   2   8 406.185 22.0100   5
   1   2  -8 407.897 16.5647   6
   1  -2   8 383.724 25.3905   5
  -1   2   8 405.429 16.0465   7
   1   2   8 399.178 16.8993   4
  -1   2  -8 401.160 16.7622   6
  -1  -2   8 409.113 16.2262   7
  -1  -2   8 415.650 16.6872   4
  -1   2  -8 411.827 16.1487   3
   1  -2  -8 408.457 15.8067   6
   1   2   8 394.659 16.4165   7
  -1  -2   8 408.976 16.8800   6
   1   2   8 395.181 22.9391   5
  -1   2  -8 411.668 26.2065   5
  -1  -2   8 393.917 24.7437   5
  -2   2   8 934.765 41.9726   5
   2  -2   8 1009.28 36.7761   7
   2  -2   8 880.760 37.7452   6
  -2  -2  -8 976.321 36.3464   6
  -2   2   8 996.589 36.3565   4
   2  -2   8 981.990 36.9459   4
  -2   2   8 978.717 36.1788   7
   2   2  -8 998.715 36.5920   6
  -2  -2   8 977.419 36.1265   7
   2   2   8 923.880 37.3407   4
  -2  -2   8 982.131 36.7640   6
   2  -2  -8 976.189 41.1573   5
   2  -2  -8 1003.94 36.0314   6
  -2   2  -8 1047.13 36.3099   7
  -2  -2   8 1001.45 36.6615   4
  -2   2  -8 941.280 48.0111   5
   2   2   8 952.389 36.5722   7
   2   2   8 949.646 46.4350   5
  -2   2  -8 987.486 37.0845   6
  -2  -2   8 906.570 44.4084   5
  -3   2   8 441.776 17.1192   7
   3  -2   8 428.801 18.0975   7
   3   2  -8 432.477 17.5943   6
   3  -2   8 417.459 20.2739   6
  -3   2   8 420.470 17.1692   4
   3  -2   8 429.141 18.1354   4
   3   2   8 434.016 19.4290   4
  -3  -2   8 435.174 17.6552   6
  -3   2  -8 450.367 18.3494   6
   3  -2  -8 432.705 16.9837   6
  -3  -2   8 447.140 17.7675   4
   3   2   8 435.217 18.2272   7
   4  -2   8 971.895 36.6231   7
   4  -2   8 969.146 38.3006   6
   4  -2   8 946.100 36.4957   4
  -4  -2  -8 937.076 35.7220   6
  -4   2   8 969.279 35.6840   6
   4   2  -8 959.174 35.8804   6
  -4   2   8 917.432 35.5450   4
  -4   2   8 1004.30 35.5398   7
  -4  -2   8 918.666 35.7782   6
   4   2   8 912.913 36.4301   7
   4  -2  -8 937.713 35.4475   6
   4   2   8 912.614 36.9634   4
  -4   2  -8 946.976 36.7715   6
  -4  -2   8 948.924 35.8897   4
  -5  -2  -8 74.9902 6.23356   6
   5  -2   8 84.1904 11.4779   6
   5  -2   8 74.3535 6.49050   7
  -5   2   8 72.8726 5.20914   4
   5  -2   8 78.9920 6.53827   4
  -5   2   8 78.7981 5.11106   7
  -5   2   8 75.1392 5.39951   6
   5   2  -8 74.7344 6.23027   6
   5   2   8 76.8054 8.25858   7
  -5  -2   8 77.0716 5.27448   6
   5  -2  -8 80.3112 5.01555   6
  -5  -2   8 77.7335 6.70623   4
  -5   2  -8 67.4853 6.82979   6
  -6   2   8 94.2290 5.70119   6
   6  -2   8 96.1063 7.01681   4
   6  -2   8 109.477 7.26311   7
  -6   2   8 91.3418 5.96615   4
  -6   2   8 94.9572 5.55878   7
  -6   2  -8 82.3064 7.31890   6
   6  -2  -8 89.0548 5.45079   6
   6   2   8 101.384 8.69868   7
  -6  -2   8 98.9559 5.89562   6
  -7   2   8 584.229 22.4035   6
   7  -2   8 583.895 23.4050   4
  -7   2   8 560.037 22.4223   4
   7  -2   8 595.876 23.0238   7
   7  -2  -8 595.527 22.4079   6
  -7  -2   8 580.831 22.6385   6
   7   2   8 606.692 24.2312   7
  -7   2  -8 545.328 23.4803   6
   8  -2   8 5.83421 2.14077   7
   8  -2   8 3.58619 2.74491   4
  -8   2   8 1.94733 1.88935   6
  -8   2   8 1.15701 2.25720   4
   8   2   8 4.04399 2.99264   7
   8  -2  -8 4.61903 1.80789   6
  -8  -2   8 2.46013 1.97509   6
   8   2   8 -1.2900 2.98556   4
  -8   2  -8 5.20080 2.86839   6
   0   3   8 303.671 13.5615   4
   0   3  -8 335.967 14.3364   6
   0  -3  -8 335.357 12.9446   6
   0   3   8 295.646 20.1906   5
   0  -3   8 318.291 14.4174   6
   0   3   8 323.851 13.5814   7
   0  -3   8 339.434 14.1339   7
   0  -3   8 335.988 14.0898   4
   1   3  -8 195.386 10.1784   6
   1  -3   8 217.708 10.3144   7
  -1   3   8 200.157 9.28764   7
  -1  -3  -8 210.972 9.15290   6
   1  -3   8 205.808 10.6355   6
  -1   3   8 207.053 9.40719   4
   1  -3   8 215.727 10.2489   4
  -1   3   8 199.032 17.7318   5
  -1  -3   8 214.461 10.2502   6
  -1  -3   8 223.357 10.2542   4
  -1   3  -8 208.614 9.51130   3
  -1   3  -8 212.736 10.3744   6
   1  -3  -8 199.957 8.70869   6
   2  -3   8 63.2406 7.12618   6
  -2   3   8 53.5493 4.58316   4
  -2  -3  -8 56.7844 4.88234   6
   2  -3   8 54.3894 5.33643   4
  -2   3   8 57.5490 4.31131   7
   2   3  -8 61.4541 5.71671   6
   2  -3   8 57.0260 5.99021   7
  -2  -3   8 57.5161 5.84696   4
  -2   3  -8 59.4317 5.35906   3
   2  -3  -8 53.8565 3.69482   6
  -2  -3   8 63.3413 5.30148   6
  -2   3  -8 68.9126 6.13394   6
  -2   3  -8 68.2491 5.49686   7
   3  -3   8 239.840 10.8730   7
   3   3  -8 181.312 10.7720   6
  -3   3   8 211.862 9.66935   4
   3  -3   8 220.971 10.7158   4
  -3  -3  -8 220.702 9.97984   6
   3  -3   8 206.980 12.2216   6
  -3   3   8 226.428 9.73740   7
   3  -3  -8 234.662 9.49599   6
  -3  -3   8 222.183 10.9407   4
  -3   3  -8 218.164 10.1901   7
  -3  -3   8 220.412 10.3765   6
  -3   3  -8 216.178 11.0346   6
  -4   3   8 370.113 15.1917   4
  -4   3   8 373.794 15.1593   7
   4  -3   8 367.428 16.0299   7
   4  -3   8 371.728 16.3415   4
  -4  -3   8 365.781 15.6552   6
  -4   3  -8 388.505 16.9058   6
   4  -3  -8 379.494 15.0016   6
  -5   3   8 -2.0429 3.10924   6
   5  -3   8 6.74504 3.03106   7
   5  -3   8 4.13178 3.31979   4
  -5   3   8 5.47919 2.33580   7
   5  -3   8 -1.5853 5.15287   6
  -5   3   8 3.70507 2.11924   4
  -5  -3   8 6.16809 2.80941   6
  -5   3  -8 4.03890 3.82523   6
  -5   3  -8 4.00615 3.48454   4
  -6   3   8 294.841 11.8805   7
   6  -3   8 282.731 13.1792   4
   6  -3   8 282.262 18.0410   6
   6  -3   8 281.025 12.6841   7
  -6   3   8 298.737 12.3896   4
  -6   3   8 278.443 12.3071   6
   6   3   8 281.370 15.5814   7
   6  -3  -8 304.365 12.1612   6
  -6   3  -8 293.706 13.9541   6
  -6  -3   8 274.041 12.5038   6
  -7   3   8 373.437 15.3226   4
  -7   3   8 376.780 15.3053   6
   7  -3   8 390.070 16.1304   4
   7  -3   8 382.983 15.2731   7
  -7   3  -8 383.060 16.6624   6
  -7  -3   8 384.774 15.5251   6
   7  -3  -8 380.643 15.0892   6
  -8   3   8 142.577 6.49454   6
  -8   3   8 128.677 6.26228   4
   8  -3   8 146.051 7.06429   4
   8  -3  -8 127.640 5.97064   6
  -8   3  -8 126.620 7.34008   6
  -8  -3   8 147.247 6.55787   6
   0  -4   8 474.933 19.0999   4
   0   4  -8 460.219 19.7637   6
   0  -4  -8 473.987 17.8564   6
   0  -4   8 448.530 19.2894   6
   1  -4   8 1024.19 39.9347   6
   1   4  -8 1059.60 39.9838   6
  -1   4   8 1043.82 38.8149   4
  -1  -4  -8 897.762 38.1962   6
  -1   4   8 1016.83 38.7400   7
   1  -4   8 1053.44 39.3488   4
  -1   4  -8 1042.28 39.9431   6
  -1  -4   8 1032.80 39.7001   6
  -1   4  -8 1111.61 39.2162   3
   1  -4  -8 1067.37 38.3032   6
  -1  -4   8 1089.14 39.3768   4
   2  -4   8 1039.97 39.0698   7
  -2   4   8 1083.07 39.1287   4
   2  -4   8 1026.16 40.3281   6
  -2   4   8 1021.01 38.9371   7
   2  -4   8 1024.32 39.6567   4
  -2  -4   8 1044.78 39.8298   6
  -2   4  -8 1068.96 40.4071   6
  -2   4  -8 1047.47 39.4212   7
  -2   4  -8 1064.98 39.2566   3
  -2  -4   8 1022.90 39.5911   4
   2  -4  -8 1058.41 38.5785   6
   3  -4   8 74.2389 7.91206   6
   3  -4   8 87.9859 6.74007   4
  -3   4   8 82.0129 5.15178   7
  -3   4   8 78.1326 5.21890   4
   3  -4   8 82.7265 6.50135   7
  -3   4  -8 86.8886 7.34691   6
   3  -4  -8 88.6903 4.79187   6
  -3  -4   8 81.0930 6.10303   6
  -3   4  -8 78.8710 6.29144   7
  -4   4   8 644.471 24.8394   7
   4  -4   8 634.897 24.8913   7
   4  -4   8 632.501 25.7164   4
  -4   4   8 635.018 24.8767   4
  -4   4  -8 655.106 26.5739   6
  -4  -4   8 655.590 25.5795   6
   4  -4  -8 666.143 24.6565   6
   5  -4   8 1151.31 42.6648   7
   5  -4   8 1153.45 44.6573   6
  -5   4   8 1161.73 43.0089   4
   5  -4   8 1127.85 43.6239   4
  -5   4   8 1133.95 42.7816   7
  -5   4  -8 1216.34 44.7563   6
  -5  -4   8 1123.96 43.3252   6
   5  -4  -8 1134.16 42.6934   6
  -5   4  -8 1171.52 43.7459   4
  -6   4   8 34.0283 3.65187   7
  -6   4   8 30.0959 3.90563   4
   6  -4   8 32.6082 5.49496   6
   6  -4   8 34.8235 4.28810   4
  -6   4  -8 22.9377 4.49612   6
   6  -4  -8 33.4498 3.27088   6
  -6  -4   8 30.4601 4.49935   6
  -6   4  -8 22.2510 3.85308   4
   7  -4   8 42.7165 7.09578   6
  -7   4   8 53.9538 4.93900   6
  -7   4   8 50.8484 4.21341   4
   7  -4   8 60.5312 4.94540   4
  -7   4  -8 59.1709 5.81815   6
   7  -4  -8 57.8222 3.66519   6
  -7  -4   8 49.4842 4.30944   6
   0  -5   8 111.901 7.72281   6
  -1   5   8 121.714 7.44811   4
  -1   5   8 126.396 7.36133   7
   1  -5   8 140.381 8.46321   4
   1  -5   8 128.537 8.39072   6
  -1  -5   8 142.810 8.34046   6
   1  -5  -8 135.904 6.24121   6
  -1   5  -8 134.185 7.44609   3
  -1   5  -8 146.802 10.1414   6
  -2   5   8 715.951 28.2551   7
   2  -5   8 733.734 29.6760   6
  -2   5   8 745.758 28.3721   4
   2  -5   8 755.742 29.0261   4
  -2  -5   8 711.323 29.1458   6
  -2   5  -8 775.973 30.3752   6
  -2   5  -8 763.188 28.7207   3
  -2   5  -8 757.655 28.9757   7
   2  -5  -8 739.114 27.6957   6
  -3   5   8 77.9028 5.12311   7
   3  -5   8 87.4546 7.65897   6
   3  -5   8 73.7137 6.64978   4
  -3   5   8 78.2010 5.19601   4
  -3   5  -8 70.5541 6.32450   3
  -3  -5   8 81.6966 6.09714   6
  -3   5  -8 80.0277 7.74967   6
   3  -5  -8 79.4347 4.50440   6
  -3   5  -8 82.2928 6.30684   7
  -4   5   8 511.803 19.7327   7
  -4   5   8 497.294 19.7426   4
   4  -5   8 487.847 21.2388   6
   4  -5   8 497.710 20.3718   4
  -4   5  -8 507.179 21.6135   6
   4  -5  -8 510.645 19.3550   6
  -4   5  -8 503.603 19.8845   7
  -4  -5   8 504.978 20.4531   6
  -5   5   8 239.842 10.2681   7
   5  -5   8 238.854 11.2784   4
  -5   5   8 239.993 10.4158   4
   5  -5   8 234.552 12.0986   6
   5  -5  -8 212.162 9.86867   6
  -5  -5   8 243.907 11.0512   6
  -5   5  -8 243.642 12.4633   6
  -5   5  -8 249.983 11.6478   4
  -6   5   8 183.518 8.39391   7
   6  -5   8 199.452 10.5672   6
   6  -5   8 184.667 9.26912   4
  -6   5   8 201.866 8.72686   4
  -6  -5   8 213.915 9.12124   6
  -6   5  -8 186.250 10.4743   6
   6  -5  -8 196.677 8.26861   6
  -6   5  -8 192.011 9.55443   4
  -7   5   8 510.985 19.4772   4
   0  -6   8 -1.6152 3.27571   6
   0   6  -8 1.68291 2.98388   3
  -1   6   8 1868.09 69.7747   7
   1  -6   8 1903.77 70.9109   6
  -1  -6   8 1849.32 70.6105   6
  -1   6  -8 1994.98 70.6231   7
  -1   6  -8 1918.14 70.3950   3
  -2   6   8 4.93747 2.41529   7
   2  -6   8 7.18119 4.26703   6
  -2   6   8 8.06488 2.69455   4
  -2  -6   8 12.4905 3.46860   6
  -2   6  -8 11.4007 3.62395   3
   2  -6  -8 11.5438 2.01680   6
  -2   6  -8 7.79544 8.19550   6
  -2   6  -8 10.0035 3.23618   7
  -3   6   8 121.369 6.51630   4
  -3   6   8 118.409 6.47979   7
  -3   6  -8 122.498 10.6286   6
  -3  -6   8 118.065 7.31334   6
  -3   6  -8 112.735 7.32903   7
   3  -6  -8 123.574 5.60940   6
  -3   6  -8 124.655 7.47236   3
  -4   6   8 756.130 28.5271   7
  -4   6   8 779.239 28.5970   4
   4  -6   8 763.368 29.8558   6
  -4   6  -8 725.372 30.2199   6
  -4   6  -8 790.735 29.6947   4
  -4   6  -8 725.772 28.4757   7
  -4  -6   8 764.747 28.9039   6
   4  -6  -8 723.469 27.8936   6
   5  -6   8 194.561 10.1852   6
  -5   6   8 212.817 8.95321   4
  -5   6   8 201.299 8.70104   7
  -5   6  -8 181.706 9.66448   4
  -5  -6   8 205.786 8.99491   6
  -5   6  -8 207.007 11.3826   6
   5  -6  -8 194.894 8.15119   6
  -6   6   8 19.5610 2.54821   7
  -6   6   8 19.4070 2.99015   4
   6  -6   8 18.5002 3.11459   6
  -6   6  -8 14.1020 3.64120   6
  -6   6  -8 16.9766 2.88236   4
   6  -6  -8 16.8892 2.00410   6
   0   7  -8 30.4660 4.51443   3
   0  -7   8 20.3208 4.15186   6
  -1   7   8 4.34924 2.92143   7
   1   7  -8 0.55898 3.03660   3
  -1   7  -8 1.39413 2.97187   3
  -1   7  -8 -0.4110 2.61962   7
  -1  -7   8 -1.6693 3.41177   6
  -2   7   8 398.340 15.6265   7
  -2  -7   8 393.057 16.1173   6
  -2   7  -8 386.736 16.2004   7
  -2   7  -8 375.189 16.0286   3
   3  -7   8 184.826 9.50642   6
  -3   7   8 181.271 8.38148   7
  -3   7   8 177.104 8.61164   4
  -3  -7   8 186.421 8.81091   6
  -3   7  -8 196.240 8.94804   7
  -4   7   8 260.943 10.6472   7
  -4   7   8 270.342 10.8212   4
   4  -7   8 253.141 11.5789   6
  -4   7  -8 256.952 11.6331   4
  -4   7  -8 240.191 10.6117   7
   5  -7   8 81.1173 5.30688   6
  -5   7   8 80.0999 4.32395   7
   5  -7  -8 78.0038 3.63989   6
  -5   7  -8 92.5664 8.99536   6
  -5   7  -8 88.9207 5.71884   4
   0  -8   8 410.399 16.3631   6
   0   8  -8 418.507 16.6177   7
   0   8  -8 390.450 16.3710   3
   1  -8   8 251.987 11.0934   6
   1   8  -8 252.187 11.1914   3
  -1   8   8 275.316 11.0759   7
  -1   8  -8 246.270 11.1886   7
  -1   8  -8 250.556 11.1522   3
  -1  -8   8 258.394 10.7836   6
  -2   8   8 667.254 25.4425   7
   2  -8   8 684.853 25.9973   6
   2   8  -8 668.348 25.8424   3
  -2   8  -8 676.049 25.9020   3
  -2   8  -8 688.344 25.9064   7
  -3   8   8 616.979 23.5810   7
   3   8  -8 594.820 23.8889   3
   3  -8   8 649.645 24.1437   6
  -3   8  -8 641.581 24.4281   4
  -3   8  -8 639.573 23.7865   7
   0   0   9 2.67876 2.12805   7
   0   0  -9 -7.4681 12.0480   5
   0   0  -9 0.77310 2.10890   6
   0   0   9 -0.7950 2.24965   4
  -1   0  -9 1094.13 41.3559   6
  -1   0   9 1116.83 41.3364   4
  -1   0  -9 1032.61 51.0936   5
   1   0   9 1134.24 41.1875   7
   1   0  -9 1013.91 47.5909   5
   1   0   9 1152.67 41.6706   4
  -1   0   9 1152.16 41.0351   7
  -1   0   9 1077.77 41.7451   6
   1   0  -9 1126.27 41.1147   6
  -2   0   9 28.0409 4.03904   4
   2   0  -9 30.7968 3.44395   6
  -2   0   9 31.1561 4.93238   6
   2   0   9 23.9925 3.62457   4
  -2   0  -9 33.4568 4.55159   6
   2   0   9 30.9702 4.14844   7
  -3   0  -9 1688.71 61.8355   6
   3   0   9 1610.92 61.3434   7
  -3   0   9 1661.35 60.8866   7
  -3   0   9 1633.22 61.3480   6
  -3   0   9 1651.38 61.2954   4
   3   0   9 1738.06 62.0734   4
   3   0  -9 1636.72 60.9914   6
   4   0  -9 137.690 6.97138   6
  -4   0   9 146.074 6.89813   7
   4   0   9 121.899 8.35673   4
  -4   0   9 139.350 7.40752   6
   4   0   9 137.772 8.04173   7
  -4   0   9 132.235 7.39476   4
  -4   0  -9 135.132 8.35874   6
   5   0   9 698.093 28.3522   7
  -5   0   9 689.171 27.3084   4
   5   0   9 714.723 28.5951   4
  -5   0  -9 713.877 28.1724   6
  -5   0   9 700.168 27.2654   6
   5   0  -9 727.400 27.1477   6
  -6   0   9 365.250 15.9313   4
   6   0   9 395.915 17.1770   7
   6   0   9 420.397 17.7397   4
   6   0  -9 378.596 15.6711   6
  -6   0   9 394.504 15.9180   6
  -6   0  -9 381.338 16.6936   6
   7   0  -9 700.802 26.8971   6
  -7   0  -9 708.223 27.2777   6
  -7   0   9 701.729 27.0251   6
   7   0   9 730.755 27.9888   7
   7   0   9 750.416 28.3284   4
  -7   0   9 658.196 26.7451   4
  -8   0   9 50.2463 3.90650   6
   8   0   9 49.1951 4.71302   7
   8   0  -9 45.7947 4.47190   6
   0  -1  -9 1144.62 41.2603   6
   0  -1   9 1086.59 41.6550   4
   0   1  -9 948.109 51.0389   5
   0  -1   9 1144.55 42.3146   6
   0  -1   9 1121.08 41.2629   7
   0   1   9 1093.32 41.4294   4
   0   1  -9 1140.45 41.6803   6
   0   1   9 1155.65 41.2604   7
   1  -1   9 132.992 7.89569   4
   1  -1   9 130.582 11.2365   6
   1   1  -9 162.772 7.80655   6
  -1   1   9 169.697 7.76161   4
  -1   1   9 167.151 7.43319   7
  -1  -1  -9 129.020 7.35620   6
   1  -1   9 148.493 7.64927   7
   1  -1  -9 153.347 19.5210   5
   1  -1  -9 165.661 7.31045   6
  -1  -1   9 145.802 7.77540   4
  -1   1  -9 126.447 7.81651   6
   1   1   9 153.247 7.85160   4
  -1  -1   9 136.634 7.43438   7
  -1  -1   9 145.869 8.35792   6
   1   1   9 160.512 7.62958   7
  -1   1  -9 162.175 24.7896   5
  -2   1   9 463.741 17.8449   7
   2   1  -9 458.616 18.0924   6
   2  -1   9 454.430 18.6281   4
   2  -1   9 377.086 21.4506   6
  -2  -1  -9 468.078 18.3721   6
   2  -1   9 454.392 18.2653   7
  -2   1   9 454.261 18.1712   4
  -2   1   9 420.942 18.6814   6
  -2   1  -9 461.816 18.7568   6
   2   1   9 438.985 18.7138   4
   2  -1  -9 473.974 17.7756   6
  -2  -1   9 447.732 18.4298   6
  -2  -1   9 462.906 17.9332   7
  -2  -1   9 465.922 18.3182   4
   3   1  -9 568.656 21.7486   6
  -3   1   9 532.348 21.6392   4
   3  -1   9 556.877 22.4255   4
  -3   1   9 553.163 21.9866   6
  -3   1   9 543.781 21.3869   7
  -3  -1  -9 548.621 22.0988   6
   3  -1   9 562.700 22.2193   7
  -3  -1   9 570.062 22.0347   4
  -3  -1   9 569.852 21.3726   7
  -3  -1   9 555.713 22.0652   6
   3  -1  -9 553.457 21.3374   6
   3   1   9 520.716 22.6923   4
   3   1   9 540.318 21.8769   7
  -3   1  -9 560.946 22.5532   6
  -4   1   9 573.514 22.9625   4
  -4   1   9 585.074 23.0999   6
   4  -1   9 576.514 23.8744   7
  -4   1   9 572.631 22.6095   7
   4   1  -9 611.924 23.0684   6
   4  -1   9 600.565 23.9678   4
  -4  -1  -9 581.997 23.4661   6
  -4   1  -9 601.280 24.2028   6
   4  -1  -9 596.807 22.7119   6
  -4  -1   9 577.731 23.1440   6
   4   1   9 579.508 24.4287   4
   4   1   9 591.206 23.5481   7
  -4  -1   9 581.054 23.1886   4
  -5  -1  -9 100.953 7.18114   6
   5  -1   9 100.948 7.52200   7
  -5   1   9 104.462 6.43742   4
   5  -1   9 103.880 7.62859   4
   5   1  -9 103.276 6.25346   6
  -5   1   9 100.604 5.81091   7
  -5   1   9 104.268 6.20592   6
  -5   1  -9 102.886 7.49773   6
  -5  -1   9 103.155 6.24304   6
  -5  -1   9 96.6718 6.69254   4
   5  -1  -9 106.314 5.81891   6
   5   1   9 113.312 8.25144   7
   5   1   9 108.724 8.82778   4
  -6   1   9 83.3942 5.71587   4
   6  -1   9 80.8644 7.34185   4
   6   1  -9 85.3194 5.93956   6
   6  -1   9 76.1697 6.66632   7
  -6  -1  -9 81.2542 6.26995   6
  -6   1   9 77.2161 5.31894   6
   6   1   9 90.8779 7.46848   7
  -6  -1   9 88.6512 5.58431   6
   6  -1  -9 84.3618 5.04425   6
  -6   1  -9 88.5539 6.85674   6
  -6  -1   9 61.5386 6.37786   4
  -7   1   9 3.86859 2.28384   6
   7  -1   9 1.61950 2.72272   7
  -7  -1  -9 2.21520 2.57429   6
   7  -1   9 -2.9485 2.97720   4
   7   1  -9 5.64139 3.22597   6
  -7   1   9 0.19260 2.38601   4
   7   1   9 -1.2725 3.09645   7
   7  -1  -9 7.05827 2.15303   6
  -7  -1   9 2.63846 2.26210   6
  -7   1  -9 6.78012 3.47738   6
   7   1   9 -6.3210 3.45476   4
   8  -1   9 45.3257 4.23562   7
  -8   1   9 42.2062 3.65056   6
   8  -1   9 45.2133 4.91374   4
  -8  -1   9 35.7084 3.61114   6
   8   1   9 38.8249 4.97262   7
   0   2  -9 1756.18 68.0016   3
   0   2  -9 1908.78 68.9560   6
   0  -2   9 1866.90 68.3784   7
   0   2   9 1842.79 68.4733   4
   0  -2  -9 1850.29 68.1755   6
   0  -2   9 1870.07 68.8075   4
   0   2   9 1920.03 68.3236   7
   0  -2   9 1905.69 69.2400   6
   1  -2   9 1682.71 61.7471   7
  -1   2   9 1665.21 61.7232   4
   1   2  -9 1713.55 62.0953   6
  -1  -2  -9 1678.81 61.5953   6
   1  -2   9 1738.93 62.3263   4
  -1   2   9 1632.07 61.4329   7
   1  -2   9 1692.40 62.7783   6
  -1   2  -9 1591.44 61.2863   7
   1   2   9 1682.84 61.9695   4
  -1   2  -9 1642.41 62.2890   6
  -1  -2   9 1664.43 62.3025   6
  -1  -2   9 1721.30 62.1462   4
   1  -2  -9 1687.89 61.3670   6
   1   2   9 1599.84 61.5019   7
  -1  -2   9 1749.65 61.5593   7
   2  -2   9 247.904 11.9316   7
   2  -2   9 227.983 13.5090   6
  -2   2   9 260.355 11.1661   4
   2   2  -9 266.555 11.5694   6
   2  -2   9 260.439 12.0490   4
  -2   2   9 262.092 11.0213   7
  -2  -2  -9 256.163 11.2696   6
  -2  -2   9 261.248 11.7072   4
   2  -2  -9 254.919 10.6228   6
  -2  -2   9 257.494 11.7361   6
   2   2   9 249.261 11.3433   7
   2   2   9 252.442 12.7386   4
  -2  -2   9 247.889 11.1826   7
   3  -2   9 688.911 25.8966   4
   3  -2   9 559.443 27.1993   6
   3  -2   9 676.264 25.7758   7
  -3   2   9 644.047 24.6919   7
  -3   2   9 655.936 24.9296   4
  -3  -2  -9 654.049 25.0678   6
   3   2  -9 671.119 25.2109   6
   3  -2  -9 648.254 24.5071   6
   3   2   9 562.089 26.4014   4
  -3  -2   9 650.772 25.1794   4
  -3  -2   9 634.131 25.3010   6
  -3   2  -9 638.203 25.9882   6
   3   2   9 661.220 25.2962   7
  -4   2   9 330.947 14.7025   6
   4  -2   9 347.809 15.3652   4
   4   2  -9 354.008 14.6803   6
  -4   2   9 337.755 14.3676   4
  -4   2   9 350.756 14.1586   7
   4  -2   9 351.954 15.3496   7
  -4  -2  -9 335.956 14.5890   6
  -4  -2   9 352.339 14.8309   6
  -4   2  -9 316.541 15.0750   4
   4  -2  -9 349.388 13.9678   6
  -4  -2   9 344.387 14.7330   4
  -4   2  -9 345.941 15.7548   6
   4   2   9 350.718 15.3896   7
  -5   2   9 92.9047 5.59517   7
   5  -2   9 102.294 7.17622   7
  -5  -2  -9 90.3935 6.79370   6
  -5   2   9 93.6195 6.33400   6
   5  -2   9 100.232 7.19117   4
  -5   2   9 93.5224 5.85919   4
   5   2  -9 80.9550 6.58210   6
  -5  -2   9 99.2229 6.37628   6
   5  -2  -9 98.0413 5.35942   6
   5   2   9 96.5748 8.71596   7
  -5   2  -9 90.1911 7.67388   6
  -5  -2   9 87.7353 7.21636   4
  -6   2   9 221.574 9.78421   7
  -6   2   9 239.305 10.6462   4
  -6   2   9 243.074 10.7226   6
   6  -2   9 244.619 11.6621   4
   6   2  -9 220.666 11.2604   6
   6  -2   9 244.121 11.2490   7
  -6  -2   9 241.238 10.8339   6
   6  -2  -9 241.790 10.2323   6
  -6   2  -9 226.908 11.7912   6
   6   2   9 241.657 13.0322   7
  -7   2   9 536.286 20.1926   6
   7  -2   9 532.108 20.9722   4
   7  -2   9 512.213 20.2521   7
  -7   2   9 503.197 20.0519   4
  -7   2  -9 513.663 21.0775   6
   7  -2  -9 494.692 19.7478   6
   7   2   9 544.263 21.8239   7
  -7  -2   9 502.345 20.2392   6
   0  -3  -9 430.247 16.5811   6
   0   3   9 405.363 16.8343   7
   0  -3   9 407.688 17.8945   6
   0   3  -9 423.373 16.9838   3
   0  -3   9 412.837 17.3769   7
   0  -3   9 436.891 17.6228   4
   0   3  -9 441.083 17.9693   6
   0   3   9 409.790 17.1608   4
   1   3  -9 878.229 33.9843   6
  -1  -3  -9 912.663 33.1210   6
  -1   3   9 877.619 33.3418   4
   1  -3   9 921.699 33.6893   7
   1  -3   9 870.219 33.8554   4
   1  -3   9 863.941 34.3149   6
  -1   3   9 848.576 33.0493   7
   1   3   9 861.158 33.2498   7
  -1  -3   9 883.172 33.7309   4
  -1   3  -9 872.452 34.2078   6
  -1  -3   9 872.875 34.0890   6
  -1   3  -9 857.123 33.2651   7
   1  -3  -9 900.010 32.8898   6
   1   3   9 912.067 33.9271   4
  -2   3   9 428.623 17.1256   4
   2  -3   9 427.833 18.8902   6
  -2  -3  -9 426.597 16.9321   6
  -2   3   9 422.419 16.8531   7
   2   3  -9 414.257 17.8912   6
   2  -3   9 434.323 17.7432   7
   2  -3   9 447.947 18.0180   4
  -2  -3   9 422.207 17.8453   6
  -2   3  -9 397.462 16.9530   7
   2   3   9 403.083 17.3943   7
  -2  -3   9 442.884 17.7678   4
   2  -3  -9 426.851 16.5588   6
  -2   3  -9 410.468 18.1510   6
  -3   3   9 1330.63 49.9929   4
  -3   3   9 1326.59 49.7779   7
   3  -3   9 1293.56 51.5524   6
  -3  -3  -9 1315.52 49.5498   6
   3  -3   9 1432.43 50.6055   7
   3   3  -9 1335.54 50.4907   6
   3  -3   9 1392.59 50.8401   4
   3  -3  -9 1313.96 49.5263   6
  -3  -3   9 1342.30 50.2212   4
  -3  -3   9 1321.96 50.5374   6
   3   3   9 1401.07 50.5403   7
  -3   3  -9 1351.78 51.2703   6
   4   3  -9 83.7577 7.46072   6
  -4   3   9 83.8345 5.41831   4
  -4   3   9 81.5967 5.36764   7
   4  -3   9 81.8724 6.46390   7
   4  -3   9 82.9914 6.96463   4
   4  -3  -9 81.4183 4.78406   6
   4   3   9 59.6713 8.76193   7
  -4   3  -9 83.4033 7.32015   6
  -4  -3   9 79.5902 6.16648   6
   5  -3   9 543.166 21.8016   7
  -5   3   9 563.050 21.2226   7
  -5   3   9 576.460 21.6555   4
   5  -3   9 535.898 24.4828   6
  -5   3   9 545.546 21.6188   6
   5  -3   9 565.650 22.5211   4
  -5   3  -9 550.410 23.0328   6
   5   3   9 506.236 23.5639   7
  -5   3  -9 519.937 22.0590   4
  -5  -3   9 550.098 21.9122   6
   5  -3  -9 545.816 21.1190   6
  -6   3   9 23.4054 3.35934   7
   6  -3   9 27.9667 4.05811   4
  -6   3   9 31.1975 4.86362   6
   6  -3   9 23.9877 4.32772   7
  -6   3   9 29.0135 3.84231   4
   6  -3   9 23.5620 7.98330   6
  -6  -3   9 32.2239 4.59311   6
   6  -3  -9 29.6485 3.10213   6
   6   3   9 13.7411 5.10964   7
  -6   3  -9 22.0679 4.27226   6
  -7   3   9 35.0449 4.44587   6
   7  -3   9 31.4679 4.55975   4
  -7   3   9 29.7351 3.37604   4
   7  -3   9 21.6163 2.68182   7
   7  -3  -9 26.6822 2.71359   6
  -7   3  -9 24.1376 3.89058   6
  -7  -3   9 26.6104 3.57090   6
   0   4  -9 210.167 11.8071   6
   0  -4   9 223.598 11.4019   6
   0  -4   9 233.681 11.1272   4
   0   4   9 229.963 10.8928   4
   0  -4  -9 232.594 9.78503   6
   0   4  -9 233.854 10.5795   3
   0   4   9 229.480 10.3650   7
  -1   4   9 690.498 26.4276   4
   1   4  -9 693.059 27.6721   6
  -1   4   9 677.573 26.1961   7
   1  -4   9 690.179 27.6044   6
   1  -4   9 685.370 26.9169   4
  -1  -4  -9 668.348 25.7728   6
  -1   4  -9 687.559 26.5985   7
   1  -4  -9 688.460 25.8172   6
  -1  -4   9 715.197 27.5509   6
  -1   4  -9 676.479 27.6626   6
  -1  -4   9 696.594 26.8781   4
  -1   4  -9 654.935 26.3758   3
   2   4  -9 144.463 10.5979   6
  -2   4   9 157.386 7.38781   7
   2  -4   9 149.797 9.45417   6
  -2   4   9 149.696 7.82924   4
   2  -4   9 158.354 8.63065   4
  -2  -4   9 155.413 8.61440   6
   2  -4  -9 153.470 6.92421   6
  -2   4  -9 139.354 7.94077   7
  -2  -4   9 134.732 9.24954   4
  -2   4  -9 143.064 9.12990   6
   3  -4   9 37.3203 5.77545   4
  -3   4   9 37.8468 3.96321   7
  -3   4   9 32.8489 4.10879   4
   3  -4   9 33.8874 5.63059   6
  -3   4  -9 32.5743 5.31633   7
   3  -4  -9 43.6120 3.38084   6
  -3   4  -9 28.8138 4.86125   6
  -3  -4   9 43.6261 5.09994   6
  -4   4   9 480.124 19.1412   4
   4  -4   9 463.996 19.9134   4
  -4   4   9 491.956 19.0298   7
  -4   4  -9 502.128 20.9674   6
   4  -4  -9 479.229 18.6331   6
  -4  -4   9 476.029 19.8391   6
   5  -4   9 373.584 17.2517   6
   5  -4   9 352.803 15.6015   4
  -5   4   9 374.721 14.6314   7
  -5   4   9 367.494 14.9464   4
  -5  -4   9 379.842 15.4435   6
  -5   4  -9 312.433 15.4571   4
   5  -4  -9 369.870 14.3611   6
  -6   4   9 156.267 7.26055   4
   6  -4   9 136.022 9.58293   6
  -6   4   9 135.715 6.38714   7
   6  -4   9 142.506 7.86992   4
  -6  -4   9 135.879 7.24224   6
   6  -4  -9 151.303 6.61367   6
  -6   4  -9 148.525 8.98842   6
   7  -4   9 49.8950 4.25879   4
  -7   4   9 57.0842 3.93325   4
   7  -4   9 34.7052 5.36842   6
   7  -4  -9 50.7206 3.13222   6
  -7   4  -9 51.8203 5.17348   6
  -7  -4   9 51.0499 3.96470   6
   0   5  -9 54.7819 6.76875   6
   0  -5   9 41.1078 6.00505   6
   0   5   9 57.5687 5.38033   7
   0   5  -9 42.0265 4.96678   3
   1  -5   9 101.254 7.59347   6
  -1   5   9 86.4836 6.35450   4
  -1   5   9 79.5260 5.74912   7
   1  -5   9 99.5877 7.51218   4
  -1  -5   9 86.1667 6.95092   6
  -1   5  -9 88.0998 6.53803   7
  -1   5  -9 92.3759 6.56972   3
  -1   5  -9 96.1336 8.72492   6
   1  -5  -9 91.4143 5.08047   6
  -2   5   9 1586.96 58.9565   7
  -2   5   9 1578.81 59.0672   4
   2  -5   9 1619.17 59.4752   4
   2  -5   9 1637.13 60.4324   6
  -2   5  -9 1607.63 60.5781   6
  -2   5  -9 1529.03 59.0750   3
  -2   5  -9 1584.23 59.3413   7
  -2  -5   9 1637.38 59.9292   6
   2  -5  -9 1651.60 58.4630   6
  -3   5   9 14.7863 2.72130   4
   3  -5   9 5.56465 3.43859   4
  -3   5   9 13.5784 2.48787   7
  -3   5  -9 19.6026 4.91891   6
  -3   5  -9 10.1683 3.06704   7
   3  -5  -9 9.70486 1.91774   6
  -3  -5   9 12.7586 3.53550   6
   4  -5   9 5.39750 3.59243   6
  -4   5   9 3.90062 2.02926   7
   4  -5   9 3.67950 3.22263   4
  -4   5   9 4.71056 2.22029   4
   4  -5  -9 3.39794 1.60937   6
  -4   5  -9 0.46957 4.21203   6
  -4   5  -9 5.83757 3.36268   4
  -4  -5   9 7.29768 3.10559   6
   5  -5   9 530.838 21.5426   4
  -5   5   9 541.124 21.2671   4
  -5   5   9 567.657 21.1345   7
   5  -5   9 566.345 22.5886   6
  -5   5  -9 539.127 21.9165   4
  -5   5  -9 556.569 22.8396   6
  -5  -5   9 537.713 21.5687   6
   5  -5  -9 549.341 20.7685   6
  -6   5   9 18.3776 2.62014   7
   6  -5   9 24.6104 4.29676   6
   6  -5   9 23.1722 3.08569   4
  -6   5   9 20.7263 3.17672   4
  -6   5  -9 12.1742 3.39923   6
  -6  -5   9 31.0241 3.69759   6
   6  -5  -9 22.7018 2.26845   6
  -6   5  -9 18.7028 2.95609   4
   0  -6   9 62.3101 6.41742   6
   0   6   9 71.0259 5.97066   7
   0   6  -9 69.6520 5.69536   3
   1   6  -9 3.47970 2.94546   3
   1  -6   9 4.33084 3.66077   6
  -1   6   9 6.18425 2.60825   7
  -1  -6   9 9.19662 3.44530   6
  -1   6  -9 9.06203 3.48946   3
  -1   6  -9 9.48427 3.06570   7
   2  -6   9 1840.57 66.9474   6
  -2   6   9 1852.22 65.8932   4
  -2   6   9 1615.92 65.5919   7
  -2   6  -9 1796.54 67.5263   6
  -2   6  -9 1848.11 66.1727   7
  -2  -6   9 1884.28 66.5779   6
  -2   6  -9 1731.94 65.9140   3
  -3   6   9 72.4302 4.79116   7
  -3   6   9 77.8842 5.05730   4
   3  -6  -9 64.8584 3.84154   6
  -3   6  -9 71.5873 8.76161   6
  -3   6  -9 60.7664 5.23330   7
  -3  -6   9 60.8393 5.54211   6
  -4   6   9 897.831 32.3176   7
  -4   6   9 890.411 32.4303   4
   4  -6   9 873.459 33.4540   6
  -4   6  -9 881.291 33.2111   4
  -4   6  -9 832.943 33.5924   6
  -4  -6   9 842.805 32.4095   6
   4  -6  -9 816.263 31.6122   6
  -5   6   9 134.180 6.41354   4
   5  -6   9 123.376 7.25023   6
  -5   6   9 117.253 6.01740   7
   5  -6  -9 132.166 5.50970   6
  -5   6  -9 122.933 7.99857   6
  -5  -6   9 131.988 6.34381   6
  -5   6  -9 140.840 7.45976   4
   0   7  -9 64.7534 5.33657   7
   0   7  -9 55.5930 5.38034   3
   0  -7   9 58.0748 5.53954   6
  -1   7   9 81.6034 5.22927   7
   1   7  -9 66.2500 5.55362   3
  -1   7  -9 70.5176 5.90534   3
  -1   7  -9 84.9423 5.78505   7
  -1  -7   9 84.4538 6.09508   6
   2   7  -9 147.116 7.83205   3
  -2   7   9 154.134 7.30228   7
   2  -7   9 150.579 8.18164   6
  -2   7  -9 155.740 7.69163   7
  -2  -7   9 156.003 8.00097   6
  -2   7  -9 152.059 8.20656   3
  -3   7   9 225.100 9.93972   4
   3  -7   9 223.248 10.5699   6
  -3   7   9 215.836 9.39159   7
  -3   7  -9 224.128 10.5259   4
  -3   7  -9 213.650 9.53366   7
  -3  -7   9 233.086 9.81027   6
   4  -7   9 79.0168 5.66287   6
  -4   7   9 79.0725 4.42292   7
  -4   7   9 89.9325 4.98868   4
  -4   7  -9 84.7289 5.93770   4
   0   8  -9 173.892 8.00401   7
   0  -8   9 164.346 7.77396   6
   0   8  -9 166.985 8.07032   3
   1  -8   9 108.560 6.01498   6
   1   8  -9 111.996 6.18063   3
  -1   8   9 112.933 6.03933   7
   1   8  -9 110.181 6.06534   7
  -1   8  -9 113.045 6.39286   3
  -1   8  -9 117.840 5.99253   7
  -1  -8   9 111.989 5.62624   6
   0   0 -10 3584.53 128.647   6
   0   0  10 3424.97 128.554   4
   0   0  10 3601.61 128.341   7
   1   0  10 363.303 15.0285   7
  -1   0 -10 354.953 15.2803   6
   1   0 -10 365.382 14.9659   6
   1   0  10 344.499 15.3335   4
  -1   0  10 351.587 16.1476   6
  -1   0  10 362.500 15.2382   4
  -1   0  10 360.107 14.7417   7
  -2   0  10 423.993 16.6318   7
   2   0 -10 406.447 16.6694   6
   2   0  10 399.502 17.3915   4
  -2   0  10 430.193 17.2000   4
  -2   0 -10 418.243 17.4462   6
  -2   0  10 390.771 17.4314   6
   2   0  10 414.489 17.0355   7
  -3   0  10 1087.63 40.9653   7
   3   0  10 1122.70 42.2035   4
  -3   0  10 1081.35 41.4640   4
   3   0 -10 1111.26 41.2284   6
   3   0  10 1120.08 41.6583   7
  -3   0 -10 1069.34 42.0607   6
  -3   0  10 1107.36 41.7753   6
   4   0 -10 249.338 10.8818   6
   4   0  10 243.493 12.2237   4
  -4   0  10 239.170 11.2094   4
  -4   0 -10 241.897 12.0650   6
  -4   0  10 252.261 10.6506   7
  -4   0  10 251.673 11.4621   6
   4   0  10 242.412 12.1075   7
  -5   0  10 1074.14 40.6304   4
   5   0  10 1091.75 41.4951   7
  -5   0  10 1097.54 40.7633   6
  -5   0 -10 1077.27 41.3749   6
   5   0  10 1026.24 41.8733   4
   5   0 -10 1112.53 40.5094   6
   6   0  10 1208.56 44.6960   7
   6   0  10 1152.91 45.0718   4
   6   0 -10 1161.94 43.6752   6
  -6   0  10 1192.02 44.0041   6
  -6   0 -10 1202.35 44.2827   6
  -6   0  10 1139.12 43.6713   4
  -7   0  10 207.604 9.38005   6
   7   0 -10 197.357 8.95753   6
  -7   0 -10 205.664 9.19496   6
   7   0  10 219.456 10.0039   7
   0   1 -10 4608.54 163.264   6
   0  -1  10 4611.92 163.620   6
   0   1  10 4428.56 162.932   4
   0  -1  10 4453.78 162.669   7
   0   1  10 4403.82 162.619   7
   0  -1 -10 4400.79 162.747   6
   0  -1  10 4589.37 163.258   4
   1  -1  10 682.005 25.5463   7
  -1   1  10 658.674 25.2094   7
  -1   1  10 643.412 25.5124   4
  -1  -1 -10 661.020 25.6065   6
   1   1 -10 650.941 25.6488   6
   1  -1  10 663.762 27.4321   6
   1  -1  10 655.506 25.8882   4
   1   1  10 640.689 25.6907   4
   1  -1 -10 683.478 25.3058   6
  -1  -1  10 603.295 25.9488   6
  -1   1 -10 665.240 26.0539   6
  -1  -1  10 646.289 25.7233   4
  -1  -1  10 653.177 25.1672   7
   1   1  10 643.319 25.2984   7
  -2  -1 -10 345.276 14.8270   6
  -2   1  10 341.606 14.6082   4
   2  -1  10 347.034 14.6510   7
   2  -1  10 339.831 15.0016   4
  -2   1  10 337.566 15.7649   6
   2  -1  10 339.028 24.9002   6
   2   1 -10 338.659 14.4559   6
  -2   1  10 345.837 14.2230   7
  -2  -1  10 352.136 14.7691   4
  -2  -1  10 341.712 15.0610   6
  -2   1 -10 334.610 15.1467   6
  -2  -1  10 331.369 14.0420   7
   2   1  10 351.548 15.0258   4
   2   1  10 340.924 14.4923   7
   2  -1 -10 341.344 14.0971   6
  -3   1  10 392.070 16.5998   6
  -3  -1 -10 382.370 16.3786   6
  -3   1  10 386.752 16.0118   4
  -3   1  10 389.110 15.5881   7
   3  -1  10 385.701 16.5087   7
   3   1 -10 377.666 15.8796   6
   3  -1  10 388.105 16.6211   4
  -3   1 -10 389.956 16.8902   6
   3  -1 -10 377.156 15.4754   6
  -3  -1  10 355.805 15.2903   7
   3   1  10 372.701 17.0009   4
   3   1  10 380.146 16.0357   7
  -3  -1  10 384.606 16.1512   4
  -3  -1  10 398.983 16.4888   6
  -4   1  10 741.012 29.3264   4
   4  -1  10 806.899 30.4190   4
  -4  -1 -10 768.089 29.8098   6
  -4   1  10 776.914 29.5603   6
   4  -1  10 763.846 30.1615   7
   4   1 -10 780.689 29.3506   6
  -4   1  10 753.220 28.8298   7
  -4  -1  10 785.238 29.5033   4
   4   1  10 664.262 30.3626   4
   4   1  10 774.128 29.7258   7
   4  -1 -10 738.202 28.9334   6
  -4  -1  10 786.703 29.7390   6
  -4   1 -10 763.776 30.4154   6
  -5  -1 -10 153.279 8.60029   6
   5  -1  10 159.373 9.51914   4
   5   1 -10 144.376 7.73501   6
  -5   1  10 153.724 7.90309   4
   5  -1  10 157.294 8.99333   7
  -5   1  10 156.037 8.21930   6
  -5   1  10 136.138 7.16089   7
  -5  -1  10 147.085 8.01201   6
   5   1  10 158.831 9.45614   7
  -5  -1  10 150.274 8.14100   4
   5  -1 -10 147.384 7.37453   6
  -5   1 -10 146.632 9.04612   6
  -6   1  10 111.743 6.42807   6
  -6  -1 -10 96.5121 6.40621   6
   6   1 -10 106.053 6.28633   6
   6  -1  10 111.580 7.03629   7
  -6   1  10 104.988 6.25356   4
   6  -1  10 98.0164 7.33180   4
   6  -1 -10 101.461 5.65070   6
  -6  -1  10 109.985 6.53152   6
  -6   1 -10 94.9610 7.10827   6
   6   1  10 99.3228 7.61488   7
   7   1 -10 52.1498 5.01021   6
   7  -1  10 55.0383 4.62109   7
   7  -1  10 35.3523 5.16867   4
  -7   1  10 56.3453 4.45987   6
  -7   1  10 54.1601 4.34855   4
   7   1  10 42.8538 5.46412   7
  -7   1 -10 50.6476 5.00237   6
   7  -1 -10 50.0553 3.63118   6
  -7  -1  10 57.2619 4.49869   6
   0  -2  10 612.775 25.4809   6
   0  -2  10 643.609 24.5106   7
   0  -2  10 646.607 25.1493   4
   0   2  10 624.665 24.7190   4
   0  -2 -10 633.455 24.3955   6
   0   2  10 637.333 24.4857   7
   0   2 -10 653.177 25.3889   6
   0   2 -10 601.440 24.1568   7
  -1   2  10 16.5246 2.74229   7
   1  -2  10 8.49089 2.87887   7
  -1  -2 -10 24.2103 3.52011   6
   1  -2  10 21.6280 4.95163   6
   1   2 -10 19.0510 3.68804   6
  -1   2  10 13.9726 2.93583   4
  -1  -2  10 18.6918 3.61201   4
   1   2  10 16.4225 2.96358   7
  -1  -2  10 13.8752 3.87448   6
   1   2  10 17.0762 3.43790   4
  -1  -2  10 9.35042 2.79821   7
  -1   2 -10 12.4104 3.69447   6
   1  -2 -10 17.8800 2.63959   6
  -2  -2 -10 588.050 23.5376   6
   2  -2  10 617.310 24.2072   4
   2  -2  10 618.299 25.4844   6
   2  -2  10 615.578 24.2073   7
  -2   2  10 603.832 23.6314   4
   2   2 -10 587.005 23.7958   6
  -2   2  10 596.732 23.2423   7
  -2   2 -10 591.857 24.4957   6
   2   2  10 610.326 24.4546   4
  -2  -2  10 589.358 24.1442   6
  -2  -2  10 594.388 23.0319   7
   2  -2 -10 599.377 23.0790   6
  -2  -2  10 598.111 23.8536   4
   2   2  10 573.326 23.3954   7
  -3   2  10 290.089 11.8457   7
   3  -2  10 265.062 12.7716   7
   3  -2  10 217.574 15.8359   6
   3   2 -10 291.734 12.6988   6
  -3  -2 -10 278.735 12.3636   6
  -3   2  10 267.865 12.1058   4
   3  -2  10 285.856 12.9997   4
  -3  -2  10 274.461 12.5288   4
  -3   2 -10 286.449 13.4295   6
  -3  -2  10 283.543 12.8152   6
   3  -2 -10 283.097 11.6140   6
   3   2  10 273.145 12.3173   7
   4  -2  10 368.300 15.9867   7
   4   2 -10 376.336 15.7041   6
  -4   2  10 369.066 15.7270   6
   4  -2  10 358.778 15.9558   4
  -4  -2 -10 361.441 15.2938   6
  -4   2  10 365.990 14.8419   7
  -4   2  10 357.328 15.1506   4
  -4  -2  10 369.190 15.5158   4
  -4   2 -10 349.107 16.4515   6
   4  -2 -10 355.811 14.6463   6
   4   2  10 373.920 15.9618   7
  -4  -2  10 360.291 15.6486   6
   5  -2  10 43.1861 5.86056   4
  -5   2  10 35.4697 3.83958   7
   5  -2  10 37.5676 5.20284   7
  -5   2  10 39.1310 4.50252   4
   5   2 -10 38.8603 5.84243   6
  -5   2  10 35.0798 5.56539   6
   5  -2 -10 37.6043 3.59372   6
  -5   2 -10 27.6838 4.57171   6
   5   2  10 43.2359 6.90914   7
  -5  -2  10 31.2058 4.91510   6
   6  -2  10 99.6383 6.54860   7
   6   2 -10 107.710 7.33878   6
   6  -2  10 115.383 7.28032   4
  -6   2  10 113.471 6.65792   6
  -6   2  10 95.0318 5.97022   4
   6  -2 -10 100.182 5.36167   6
  -6   2 -10 95.9055 7.44214   6
  -6  -2  10 98.2886 6.22052   6
   7  -2  10 158.117 7.29097   7
  -7   2  10 159.112 7.73053   6
   7  -2  10 160.139 8.10330   4
  -7   2  10 158.788 7.38576   4
   7  -2 -10 146.558 6.82051   6
  -7  -2  10 156.870 7.46554   6
   0  -3 -10 889.457 33.9228   6
   0  -3  10 902.288 35.1777   6
   0   3  10 897.713 34.3704   4
   0  -3  10 871.374 34.0700   7
   0  -3  10 925.160 34.7941   4
   0   3 -10 932.223 35.2680   6
   0   3  10 905.578 34.1127   7
   1  -3  10 320.640 13.8205   7
  -1   3  10 314.457 13.1631   7
   1  -3  10 312.340 14.6826   6
  -1   3  10 332.488 13.6523   4
  -1  -3 -10 326.324 13.2159   6
   1   3 -10 318.897 14.3956   6
   1  -3  10 308.605 14.0104   4
   1   3  10 313.289 13.3516   7
  -1   3 -10 316.211 14.6001   6
   1  -3 -10 314.584 12.8945   6
  -1  -3  10 318.118 13.9983   4
  -1  -3  10 312.804 14.3284   6
  -1   3 -10 281.595 13.0807   7
   1   3  10 307.813 14.0229   4
  -2   3  10 967.103 36.8942   7
   2   3 -10 984.169 37.8427   6
  -2  -3 -10 981.737 36.8373   6
   2  -3  10 1000.08 37.7741   4
   2  -3  10 955.859 37.2265   7
   2  -3  10 1027.80 38.6417   6
  -2   3  10 998.889 37.2421   4
  -2  -3  10 988.876 37.4349   4
  -2   3 -10 959.271 38.3073   6
   2   3  10 951.162 37.0534   7
   2  -3 -10 984.056 36.6743   6
  -2  -3  10 1005.26 37.9987   6
  -3   3  10 12.7455 2.64372   4
  -3  -3 -10 1.63297 3.26122   6
   3  -3  10 5.65862 3.02295   7
   3  -3  10 8.16375 3.20419   4
  -3   3  10 11.0850 2.29894   7
   3  -3  10 -1.8862 5.08354   6
   3   3 -10 0.66953 3.88567   6
   3   3  10 10.2858 3.56181   7
   3  -3 -10 8.15743 1.96828   6
   3   3  10 0.42353 5.29590   4
  -3  -3  10 10.5566 3.54660   6
  -3  -3  10 3.15072 3.59848   4
  -3   3 -10 10.5013 3.93143   6
   4   3 -10 854.155 32.3251   6
   4  -3  10 804.917 31.5890   7
  -4   3  10 832.733 31.5539   4
   4  -3  10 819.500 32.2027   4
  -4   3  10 833.669 31.2460   7
   4  -3 -10 833.459 31.0069   6
  -4   3 -10 780.900 31.8808   4
  -4   3 -10 852.165 33.0836   6
   4   3  10 780.188 32.1352   7
  -4  -3  10 865.461 32.1466   6
  -5   3  10 96.3072 5.94704   4
  -5   3  10 92.5710 5.47126   7
   5  -3  10 95.3431 10.8653   6
   5  -3  10 93.2461 6.10322   7
   5  -3  10 101.755 7.08319   4
  -5  -3  10 105.352 6.68079   6
  -5   3 -10 99.6083 7.94399   6
   5  -3 -10 94.6382 5.18517   6
   5   3  10 87.0967 9.18710   7
  -6   3  10 296.796 12.7572   6
   6  -3  10 282.612 11.7834   7
   6  -3  10 282.141 12.4713   4
  -6   3  10 268.109 11.1576   7
  -6   3  10 288.655 11.9618   4
  -6   3 -10 299.692 13.4636   6
  -6  -3  10 296.553 12.3445   6
   6  -3 -10 276.118 11.4771   6
   0  -4  10 437.484 18.1060   6
   0   4  10 419.756 16.7643   7
   0   4  10 424.458 17.2868   4
   0   4 -10 376.877 16.8098   3
   0  -4 -10 410.339 16.3855   6
   0  -4  10 405.932 17.3333   4
   0   4 -10 430.392 18.4808   6
   1  -4  10 8.02954 3.48684   4
   1   4 -10 18.9574 4.69348   6
   1   4 -10 19.6724 3.88710   3
   1  -4  10 7.74402 4.00526   6
  -1   4  10 16.9816 2.83227   7
  -1   4  10 15.8202 2.98373   4
  -1   4 -10 13.1539 4.41178   6
  -1   4 -10 12.1754 2.93722   7
   1   4  10 22.0831 4.51589   4
   1  -4 -10 7.69860 2.10951   6
  -1   4 -10 0.11271 4.01319   3
  -1  -4  10 15.4831 3.88104   6
   1   4  10 12.2900 2.89554   7
  -1  -4  10 6.75365 3.74101   4
   2  -4  10 105.789 7.21225   4
  -2   4  10 106.616 6.19115   7
  -2   4  10 116.326 6.63070   4
   2  -4  10 103.617 8.37130   6
   2   4 -10 118.685 8.70411   6
  -2   4 -10 101.810 7.97271   6
  -2   4 -10 105.655 6.93731   7
  -2  -4  10 109.703 7.41262   6
   2   4  10 109.838 6.85873   7
   2  -4 -10 101.644 5.61705   6
  -3   4  10 37.9650 3.91016   7
   3  -4  10 28.5868 4.00793   4
  -3   4  10 33.6882 4.24863   4
   3  -4  10 36.9096 5.61950   6
  -3   4 -10 27.3216 4.99384   6
   3  -4 -10 28.5913 3.11646   6
  -3  -4  10 46.7427 5.21457   6
   3   4  10 37.7480 4.86470   7
   4  -4  10 516.711 22.1881   4
  -4   4  10 593.355 21.5545   7
  -4   4  10 479.297 21.5245   4
  -4   4 -10 583.154 22.5525   4
   4  -4 -10 554.939 21.1234   6
  -4  -4  10 594.720 22.4028   6
  -4   4 -10 554.729 23.2609   6
   5  -4  10 50.0478 6.25842   6
   5  -4  10 49.3797 4.84014   4
  -5   4  10 43.3736 3.72850   7
  -5   4  10 47.2192 4.36878   4
  -5  -4  10 42.0650 4.57500   6
   5  -4 -10 49.3603 3.31114   6
  -5   4 -10 37.4598 4.39632   4
  -5   4 -10 47.9851 6.40692   6
  -6   4  10 15.2024 2.28402   4
   6  -4  10 15.8756 2.77883   4
  -6   4  10 14.5515 2.50120   7
   6  -4  10 18.8865 4.66218   6
  -6  -4  10 10.6263 2.33349   6
   6   4  10 2.42514 3.95100   7
   6  -4 -10 10.4963 1.65505   6
  -6   4 -10 13.1408 3.40810   6
   0   5 -10 319.959 15.8104   6
   0   5  10 328.037 13.6471   7
   0   5 -10 324.679 13.9469   3
   0  -5  10 336.939 15.1282   6
   1  -5  10 55.7982 6.42294   6
   1   5 -10 58.0212 5.49851   3
  -1   5  10 60.5652 4.92892   7
  -1   5  10 70.2903 5.72114   4
   1  -5  10 67.0476 6.70665   4
  -1   5 -10 60.3912 6.05901   3
   1   5  10 50.2028 5.24063   7
  -1   5 -10 68.0189 8.15876   6
  -1  -5  10 70.0249 6.11530   6
  -1   5 -10 58.4973 5.25233   7
   2  -5  10 285.988 13.4656   6
   2  -5  10 267.969 12.5151   4
  -2   5  10 268.705 11.8603   4
  -2   5  10 284.863 11.6797   7
   2  -5 -10 268.676 11.0452   6
  -2  -5  10 273.616 12.6149   6
  -2   5 -10 254.559 13.9151   6
  -2   5 -10 272.384 11.8843   7
   3  -5  10 75.9295 6.63955   4
  -3   5  10 89.1411 5.84455   4
  -3   5  10 85.7507 5.37345   7
  -3   5 -10 86.7013 7.80959   6
   3  -5 -10 91.4916 4.70538   6
  -3  -5  10 86.0144 6.59230   6
  -4   5  10 78.5337 4.85451   7
  -4   5  10 91.9690 5.48961   4
   4  -5  10 81.9402 6.01869   4
   4  -5  10 76.5770 6.88677   6
   4  -5 -10 79.3954 4.33215   6
  -4  -5  10 79.5578 5.73685   6
  -4   5 -10 80.3624 7.34537   6
  -4   5 -10 89.9041 6.75463   4
  -5   5  10 181.059 7.65019   7
   5  -5  10 186.369 9.35315   6
  -5   5  10 185.749 8.06682   4
   5  -5  10 173.513 8.41926   4
  -5  -5  10 179.245 8.25092   6
  -5   5 -10 173.944 9.43492   6
   5  -5 -10 164.862 7.26215   6
  -5   5 -10 161.532 8.22054   4
   0   6  10 20.2453 3.04265   7
   0  -6  10 21.1990 4.02266   6
   0   6 -10 28.9475 4.88482   3
   0   6 -10 28.1258 4.25103   7
   1   6 -10 350.137 15.4230   3
   1  -6  10 416.179 16.7678   6
  -1   6  10 372.819 15.2025   7
  -1   6 -10 375.088 15.5113   7
  -1   6 -10 360.252 15.5596   3
  -1  -6  10 398.952 16.3384   6
   2   6 -10 186.422 9.57293   3
  -2   6  10 219.513 9.23389   7
  -2   6  10 212.790 9.66534   4
  -2   6 -10 213.944 12.2495   6
  -2  -6  10 205.645 9.93949   6
  -2   6 -10 195.756 9.28522   7
  -3   6  10 474.071 18.2699   4
  -3   6  10 462.905 18.1010   7
   3  -6  10 458.428 19.1292   6
  -3   6 -10 474.614 20.1184   6
  -3  -6  10 452.456 18.5501   6
  -4   6  10 144.881 6.52855   7
  -4   6  10 139.319 6.86942   4
   4  -6  10 142.707 7.79342   6
  -4   6 -10 142.838 7.81004   4
  -4  -6  10 137.587 6.93494   6
  -4   6 -10 130.877 8.53219   6
   4  -6 -10 136.129 5.77515   6
   0   7 -10 0.95403 2.09550   7
   0   7  10 5.27480 2.32734   7
   0   7 -10 0.62962 3.27806   3
   1   7 -10 184.789 8.65833   3
   1   7 -10 176.197 8.48827   7
  -1   7  10 184.585 8.10310   7
  -1   7 -10 177.865 8.37157   7
  -1  -7  10 187.197 8.74284   6
  -1   7 -10 180.303 8.94665   3
   2  -7  10 259.835 11.4170   6
  -2   7  10 253.028 10.6196   7
   2   7 -10 234.230 10.9867   3
  -2   7 -10 252.915 10.5726   7
  -2  -7  10 296.968 11.3579   6
   0   0  11 0.20370 2.62228   4
   0   0  11 -0.4793 2.18275   7
   0   0 -11 3.59985 2.66974   6
  -1   0  11 48.5765 4.64598   7
   1   0 -11 46.2386 4.63979   6
   1   0  11 37.5220 5.02707   4
  -1   0 -11 42.9823 5.10385   6
   1   0  11 37.8045 4.68077   7
  -1   0  11 41.3679 4.98742   4
  -1   0  11 48.7667 7.81650   6
  -2   0  11 37.1859 4.18131   7
   2   0  11 31.9313 4.18167   4
  -2   0 -11 50.7155 5.53251   6
   2   0 -11 38.5858 4.22292   6
  -2   0  11 38.3329 6.22510   6
   2   0  11 38.0398 4.72465   7
  -2   0  11 31.1836 3.99275   4
  -3   0  11 1350.13 48.6068   7
   3   0 -11 1277.92 48.9380   6
   3   0  11 1314.72 49.6999   4
  -3   0  11 1291.85 49.5183   6
   3   0  11 1328.65 49.2862   7
  -3   0  11 1318.48 49.2341   4
  -3   0 -11 1316.36 49.7814   6
   4   0  11 123.175 7.87575   7
  -4   0  11 115.064 7.62908   6
  -4   0  11 121.355 7.15376   4
   4   0  11 119.616 8.19070   4
  -4   0 -11 116.373 8.07268   6
   4   0 -11 118.855 6.52261   6
   5   0 -11 124.479 6.56923   6
   5   0  11 118.938 7.64896   7
  -5   0  11 123.374 7.03118   4
   5   0  11 101.808 8.64513   4
  -5   0  11 128.303 7.15458   6
  -5   0 -11 123.806 7.83763   6
  -6   0  11 4.30760 2.65056   6
  -6   0 -11 0.00610 2.66915   6
   6   0  11 2.55527 2.45579   7
   6   0  11 -0.6611 3.53154   4
  -6   0  11 4.55050 2.67659   4
   6   0 -11 7.05676 2.27784   6
   0  -1 -11 2887.91 102.734   6
   0  -1  11 2810.22 102.982   4
   0   1 -11 2856.32 103.216   6
   0  -1  11 2838.48 103.391   6
   0   1  11 2829.27 102.491   7
   0   1  11 2731.28 102.710   4
   0  -1  11 2728.47 102.332   7
  -1   1  11 218.632 10.2486   4
   1  -1  11 224.998 13.2138   6
   1  -1  11 209.851 10.5035   4
   1   1 -11 211.946 10.4544   6
  -1   1  11 212.746 9.76637   7
   1  -1  11 201.993 10.0788   7
  -1  -1 -11 206.495 10.3854   6
  -1  -1  11 203.974 9.70166   7
  -1  -1  11 220.562 10.6757   4
   1   1  11 217.600 10.0851   7
   1   1  11 206.650 10.4274   4
  -1   1 -11 215.830 10.9087   6
  -1  -1  11 215.928 11.2973   6
   1  -1 -11 212.465 9.86544   6
   2  -1  11 585.153 22.7827   7
   2  -1  11 575.638 23.0104   4
  -2   1  11 579.810 22.2403   7
  -2   1  11 565.589 22.6659   4
  -2  -1 -11 567.471 22.9094   6
   2   1 -11 552.922 22.6599   6
  -2   1  11 499.170 24.9380   6
  -2  -1  11 554.094 22.0179   7
   2   1  11 558.179 22.4647   7
  -2  -1  11 572.066 22.8449   4
   2  -1 -11 580.144 22.3623   6
  -2   1 -11 576.201 23.5150   6
  -2  -1  11 590.450 23.3766   6
   2   1  11 592.990 23.0508   4
  -3   1  11 48.8164 4.23097   7
   3  -1  11 43.0641 5.50079   7
  -3   1  11 51.0742 4.82246   4
   3   1 -11 46.8776 4.70323   6
  -3   1  11 41.9172 6.77993   6
  -3  -1 -11 43.5030 5.50353   6
   3  -1  11 42.4959 5.36873   4
   3   1  11 42.8272 5.65436   4
  -3  -1  11 41.7152 5.03816   4
   3   1  11 42.4367 5.02341   7
   3  -1 -11 45.8731 4.15629   6
  -3   1 -11 37.9379 5.86966   6
  -3  -1  11 47.3409 5.68363   6
  -4  -1 -11 233.368 10.9205   6
  -4   1  11 222.907 9.75624   7
  -4   1  11 218.933 11.0811   6
   4  -1  11 227.175 11.3185   4
   4  -1  11 220.480 11.0469   7
   4   1 -11 231.779 10.4375   6
  -4   1  11 224.955 10.4728   4
   4  -1 -11 227.885 10.0095   6
  -4  -1  11 225.436 10.5810   4
   4   1  11 185.595 11.7333   4
  -4  -1  11 221.774 10.7558   6
  -4   1 -11 230.378 11.8050   6
  -5   1  11 18.6186 3.42122   6
  -5  -1 -11 16.1194 3.42209   6
   5  -1  11 17.8309 3.39937   7
   5   1 -11 13.1055 2.95950   6
   5  -1  11 16.4679 3.80211   4
  -5   1  11 15.9575 2.87073   4
  -5   1 -11 13.8901 3.56728   6
   5  -1 -11 12.6382 2.35106   6
   5   1  11 19.0370 3.67170   7
   5   1  11 5.97978 4.45947   4
  -5  -1  11 13.9805 3.21164   4
  -5  -1  11 21.0674 3.62773   6
  -6   1  11 341.667 13.7248   4
   6  -1  11 322.677 14.4951   4
  -6   1  11 352.964 14.1149   6
   6  -1  11 332.574 13.9039   7
   6   1 -11 323.140 13.7998   6
   6  -1 -11 334.426 13.4646   6
   6   1  11 326.905 14.5178   7
  -6   1 -11 337.880 14.4279   6
  -6  -1  11 341.796 14.0568   6
   0  -2 -11 33.4475 4.16646   6
   0   2  11 29.3398 4.49026   4
   0   2  11 33.6536 4.09344   7
   0   2 -11 37.3852 5.68338   6
   0  -2  11 32.7623 4.97452   7
   0  -2  11 29.4036 4.11609   4
   0  -2  11 40.1597 5.19957   6
  -1   2  11 267.376 12.0490   4
   1   2 -11 260.112 12.5946   6
   1  -2  11 272.564 12.4511   7
  -1  -2 -11 272.842 11.9498   6
   1  -2  11 267.678 12.5583   4
  -1   2  11 267.511 11.7122   7
   1  -2  11 255.390 13.4997   6
   1   2  11 276.937 12.3593   4
  -1  -2  11 256.295 11.9188   7
  -1   2 -11 269.507 12.9742   6
  -1  -2  11 267.803 12.7756   6
   1  -2 -11 269.847 11.5557   6
   1   2  11 257.670 11.7312   7
  -1  -2  11 267.852 12.4672   4
  -2   2  11 80.5607 5.71898   4
   2  -2  11 75.8218 9.29701   6
  -2  -2 -11 80.6584 6.07524   6
  -2   2  11 81.9839 5.45380   7
   2   2 -11 77.7371 6.60089   6
   2  -2  11 80.0510 6.22501   4
   2  -2  11 75.8701 6.44198   7
   2  -2 -11 82.3686 5.12350   6
  -2  -2  11 76.7378 6.09950   4
  -2   2 -11 74.8652 6.80875   6
   2   2  11 82.3839 5.76743   7
   2   2  11 84.8394 6.83763   4
  -2  -2  11 83.4328 6.85984   6
  -3   2  11 261.915 11.3348   7
  -3  -2 -11 259.443 11.8725   6
   3  -2  11 254.845 15.9149   6
   3  -2  11 272.257 12.3112   7
   3   2 -11 263.461 12.1228   6
   3  -2  11 256.794 12.3750   4
  -3   2  11 261.528 11.8376   4
  -3  -2  11 275.785 12.2851   4
   3   2  11 215.009 12.9729   4
  -3   2 -11 267.867 13.2544   6
  -3  -2  11 274.181 12.5738   6
   3   2  11 263.498 11.8179   7
   3  -2 -11 270.731 11.2688   6
   4   2 -11 14.3511 3.45299   6
  -4   2  11 10.0635 2.83184   4
   4  -2  11 16.7380 3.26901   7
  -4   2  11 9.39649 4.54360   6
   4  -2  11 9.32333 3.16002   4
  -4   2  11 21.2139 3.42719   7
  -4   2 -11 11.5828 4.18608   6
  -4  -2  11 16.7306 3.47773   6
   4   2  11 0.89908 4.36315   4
   4   2  11 14.5807 3.24088   7
  -4  -2  11 22.7295 3.80114   4
   4  -2 -11 19.9881 3.22511   6
   5  -2  11 311.259 13.3518   7
  -5   2  11 325.775 13.9750   6
  -5   2  11 289.715 12.2850   7
  -5   2  11 304.185 13.0977   4
   5   2 -11 322.288 13.6353   6
   5  -2  11 320.995 13.9182   4
   5   2  11 313.861 14.3030   7
  -5  -2  11 309.214 13.5206   6
   5  -2 -11 303.244 12.6116   6
  -5   2 -11 302.711 14.2622   6
  -6   2  11 199.270 9.18884   6
   6  -2  11 166.070 8.05614   7
   6   2 -11 188.711 9.46072   6
   6  -2  11 190.069 8.81848   4
  -6   2  11 176.245 8.03334   4
   6  -2 -11 172.857 7.66838   6
  -6   2 -11 167.985 9.03762   6
  -6  -2  11 179.590 8.53642   6
   6   2  11 149.280 9.18657   7
   0   3 -11 266.874 13.2134   6
   0  -3 -11 265.327 11.5187   6
   0  -3  11 266.010 12.3647   4
   0   3  11 274.806 11.7718   7
   0   3  11 265.467 12.1280   4
   0  -3  11 259.557 12.8865   6
  -1   3  11 627.226 24.5788   4
   1  -3  11 620.866 24.9560   4
   1  -3  11 624.422 25.4276   6
   1  -3  11 619.255 24.1782   7
   1   3 -11 637.350 25.3965   6
  -1   3  11 626.779 24.2440   7
  -1  -3 -11 621.722 24.1460   6
   1   3  11 644.709 24.9436   4
   1   3  11 606.826 24.2419   7
  -1  -3  11 628.391 25.3664   6
   1  -3 -11 629.698 24.0945   6
  -1   3 -11 628.961 25.7315   6
  -1  -3  11 609.805 24.7507   4
  -2   3  11 220.892 10.0325   7
   2   3 -11 231.842 11.4782   6
   2  -3  11 225.507 11.1656   4
   2  -3  11 238.608 12.0647   6
  -2   3  11 232.301 10.6312   4
   2  -3  11 216.546 10.4181   7
  -2  -3 -11 210.727 10.1259   6
   2  -3 -11 221.220 9.82093   6
   2   3  11 226.042 10.4022   7
  -2   3 -11 227.845 12.0669   6
  -2  -3  11 230.943 10.8879   4
  -2  -3  11 234.194 11.3474   6
   3  -3  11 308.075 15.1255   6
   3  -3  11 273.511 12.9955   4
   3   3 -11 273.256 13.6546   6
   3  -3  11 273.947 12.4063   7
  -3   3  11 287.920 12.6348   4
  -3   3  11 292.976 12.2013   7
   3   3  11 298.892 12.7950   7
  -3  -3  11 274.848 12.8806   4
   3  -3 -11 283.539 11.9245   6
  -3  -3  11 296.096 13.2645   6
  -3   3 -11 296.698 14.2988   6
  -4   3  11 343.193 14.0861   7
   4   3 -11 352.655 15.5055   6
   4  -3  11 324.179 14.9305   4
  -4   3  11 346.831 14.5240   4
   4  -3  11 342.981 14.2415   7
   4   3  11 370.431 15.1572   7
  -4   3 -11 355.832 16.1070   6
   4  -3 -11 341.290 13.9251   6
  -4  -3  11 344.477 14.9437   6
   5  -3  11 162.125 7.75733   7
   5  -3  11 194.763 11.9396   6
   5  -3  11 177.592 8.71819   4
  -5   3  11 166.161 7.90731   4
  -5   3  11 162.752 7.36229   7
   5  -3 -11 164.025 7.41014   6
  -5  -3  11 172.175 8.53998   6
   5   3  11 133.892 9.50775   7
  -5   3 -11 176.596 9.62093   6
   6  -3  11 260.361 10.6459   4
  -6   3  11 234.344 10.1250   4
  -6  -3  11 264.848 10.7305   6
  -6   3 -11 226.396 11.0122   6
   6  -3 -11 231.426 9.78087   6
   0  -4  11 469.388 18.8166   4
   0   4  11 461.273 18.2257   7
   0   4  11 458.969 18.6046   4
   0  -4  11 477.031 19.4688   6
   0   4 -11 434.514 17.9317   7
   0   4 -11 455.074 19.6794   6
   0  -4 -11 439.685 17.7212   6
  -1   4  11 82.5971 5.21193   7
   1   4 -11 86.6795 7.91678   6
  -1   4  11 80.0876 5.81732   4
   1  -4  11 76.3370 7.14538   6
   1  -4  11 71.4923 6.24336   4
   1  -4 -11 79.1093 5.04355   6
  -1   4 -11 74.8816 7.27521   6
   1   4  11 73.9346 5.44305   7
  -1  -4  11 80.5701 6.78069   6
   1   4  11 70.2165 6.99587   4
  -1  -4  11 84.2164 6.47636   4
   2  -4  11 142.731 8.29713   4
   2  -4  11 162.861 9.35121   6
   2   4 -11 136.265 9.68309   6
  -2   4  11 141.698 7.34101   7
   2   4 -11 135.297 8.00121   3
  -2   4  11 143.831 7.98159   4
   2   4  11 160.731 8.05786   7
  -2   4 -11 160.531 9.74942   6
   2  -4 -11 144.200 7.03077   6
  -2  -4  11 157.705 8.64383   6
  -3   4  11 68.2838 5.40845   4
   3  -4  11 78.5867 6.42732   4
   3   4 -11 79.5731 8.42955   6
  -3   4  11 73.1749 4.94822   7
   3  -4 -11 69.4800 4.38818   6
  -3   4 -11 79.3249 7.29439   6
  -3  -4  11 79.6660 6.52227   6
   3   4  11 93.0271 6.63494   7
  -4   4  11 113.930 5.88563   7
   4  -4  11 108.479 6.76541   4
   4  -4  11 123.486 7.76118   6
  -4   4  11 112.981 6.17387   4
  -4   4 -11 101.837 7.77706   6
   4  -4 -11 107.767 5.50077   6
  -4  -4  11 116.464 7.05110   6
  -4   4 -11 116.282 7.36111   4
  -5   4  11 415.191 16.4896   7
   5  -4  11 406.240 17.0635   4
  -5   4  11 443.027 17.1164   4
   5  -4  11 457.978 18.2469   6
  -5   4 -11 439.062 18.3680   6
   5  -4 -11 436.926 16.5649   6
  -5  -4  11 433.879 17.3284   6
   0   5 -11 101.618 9.00499   6
   0   5  11 89.1391 5.53554   7
   0   5  11 91.2995 6.99309   4
   0   5 -11 88.2458 5.70890   7
   0  -5  11 90.3373 7.24341   6
  -1   5  11 216.380 9.48571   7
   1   5 -11 232.962 13.0144   6
   1  -5  11 202.796 10.8210   6
   1   5 -11 188.821 9.98098   3
   1   5 -11 201.220 9.37289   7
  -1   5  11 210.277 9.94371   4
  -1   5 -11 199.379 9.28341   7
  -1   5 -11 220.223 11.7528   6
   1   5  11 214.640 9.55433   7
  -1  -5  11 214.723 10.6575   6
   2  -5  11 673.326 25.6508   6
   2  -5  11 642.503 24.5590   4
  -2   5  11 638.395 24.3390   7
  -2   5  11 639.697 24.5785   4
   2   5 -11 572.607 24.3270   3
   2  -5 -11 622.427 23.6942   6
   2   5  11 669.495 24.7074   7
  -2   5 -11 642.942 26.0392   6
  -2  -5  11 622.979 25.0526   6
   3   5 -11 266.747 12.3589   3
  -3   5  11 312.960 12.4869   4
  -3   5  11 306.775 12.1715   7
   3  -5  11 278.196 12.5337   4
  -3  -5  11 314.532 13.0388   6
   3  -5 -11 295.530 11.6037   6
  -3   5 -11 286.405 13.8289   6
   4  -5  11 203.598 9.60101   6
  -4   5  11 192.256 8.82878   4
  -4   5  11 189.987 8.31450   7
   4  -5  11 198.360 8.93555   4
  -4   5 -11 197.236 9.47615   4
   4  -5 -11 188.074 7.95494   6
  -4  -5  11 198.836 9.00072   6
  -4   5 -11 193.589 10.1991   6
   0   6 -11 620.855 24.6346   7
   0  -6  11 662.801 25.5981   6
   0   6  11 671.610 24.7807   7
   1  -6  11 294.300 12.7392   6
  -1   6  11 289.193 11.6880   7
   1   6 -11 266.593 12.1515   3
   1   6 -11 260.104 11.7578   7
   1   6  11 297.381 12.0209   7
  -1   6 -11 279.482 14.5137   6
  -1   6 -11 299.444 11.6597   7
  -1  -6  11 297.017 12.5653   6
   2   6 -11 295.771 12.6965   3
  -2   6  11 314.155 12.4253   7
  -2   6  11 319.043 12.8971   4
  -2  -6  11 296.396 12.9385   6
   2   6  11 289.947 13.1608   7
  -2   6 -11 325.998 15.0999   6
  -3   6  11 126.301 6.08438   7
   3  -6  11 129.055 7.03479   6
  -3   6  11 138.093 6.59079   4
   3   6 -11 122.664 6.88074   3
  -3   6 -11 131.749 7.19818   4
  -3  -6  11 141.111 6.78394   6
  -3   6 -11 126.122 9.18508   6
   0   0 -12 390.619 16.5717   6
   0   0  12 376.071 16.4776   4
   0   0  12 383.909 15.9117   7
   1   0 -12 13.6783 3.19631   6
  -1   0 -12 10.4808 3.43116   6
  -1   0  12 15.1536 2.71619   7
  -1   0  12 10.2180 3.18268   4
   1   0  12 19.5369 3.14081   7
   1   0  12 9.38683 2.87549   4
  -1   0  12 19.8414 5.56385   6
  -2   0  12 271.723 12.4211   4
   2   0  12 286.077 12.2660   7
   2   0 -12 272.106 12.0925   6
   2   0  12 263.729 12.4625   4
  -2   0  12 270.081 13.4591   6
  -2   0  12 276.387 11.6153   7
  -2   0 -12 261.201 12.7005   6
  -3   0  12 56.8116 4.67357   7
   3   0  12 56.9296 5.77695   7
   3   0 -12 52.5445 4.58409   6
  -3   0  12 60.0195 6.74567   6
  -3   0 -12 53.1782 5.80812   6
  -3   0  12 65.9196 5.32667   4
   3   0  12 52.5138 5.60063   4
   4   0 -12 6.29925 2.27547   6
  -4   0 -12 12.8064 3.34773   6
  -4   0  12 7.09472 3.41187   6
   4   0  12 13.3843 3.33211   4
  -4   0  12 6.40744 2.55521   4
   4   0  12 11.1164 2.90008   7
   5   0  12 294.143 13.4879   4
   5   0 -12 288.428 12.4057   6
   5   0  12 320.921 13.1053   7
  -5   0  12 280.419 12.3677   4
  -5   0 -12 299.692 12.9720   6
  -5   0  12 304.859 13.0731   6
   0  -1  12 145.824 7.77952   7
   0   1  12 144.895 7.70962   7
   0   1 -12 149.530 8.56704   6
   0  -1 -12 145.841 8.05255   6
   0  -1  12 155.937 8.60262   4
   0   1  12 141.715 8.22374   4
   0  -1  12 142.579 9.99531   6
   1  -1  12 41.8960 5.21798   4
   1   1 -12 34.1429 4.94467   6
  -1   1  12 37.2492 4.59936   4
  -1  -1 -12 35.5346 4.75810   6
   1  -1  12 46.3999 4.84901   7
  -1   1  12 41.0971 4.17139   7
  -1  -1  12 32.9506 4.43583   7
  -1  -1  12 35.5499 5.01811   4
  -1  -1  12 44.0112 6.60932   6
   1   1  12 32.4096 4.76154   4
  -1   1 -12 35.4262 5.59521   6
   1  -1 -12 42.5067 4.47279   6
   1   1  12 34.5456 4.37954   7
   2  -1  12 61.3982 5.52381   4
   2   1 -12 69.0241 5.72843   6
  -2  -1 -12 71.1327 5.86213   6
  -2   1  12 67.5400 4.96261   7
  -2   1  12 61.2180 5.28222   4
   2  -1  12 62.5787 6.01730   7
  -2   1 -12 64.2812 6.63078   6
   2   1  12 72.5090 5.37558   7
  -2  -1  12 76.6839 7.12784   6
  -2  -1  12 65.6931 5.86440   4
   2   1  12 64.8268 5.81879   4
  -2  -1  12 64.9073 5.00368   7
   2  -1 -12 64.0228 4.97055   6
  -3   1  12 1182.29 43.7738   6
   3  -1  12 1182.79 43.4856   4
  -3   1  12 1039.42 42.4757   7
  -3   1  12 1172.70 43.2026   4
   3  -1  12 1193.45 43.6092   7
  -3  -1 -12 970.450 43.0431   6
   3  -1 -12 1146.51 42.8782   6
   3   1  12 1163.01 43.1517   7
   3   1  12 1242.69 43.7505   4
  -3   1 -12 1189.67 44.0699   6
  -3  -1  12 1196.90 43.6715   6
  -3  -1  12 1095.16 43.0956   4
  -4   1  12 326.802 13.8684   4
  -4   1  12 342.006 14.9258   6
  -4   1  12 323.195 13.0280   7
   4  -1  12 336.502 14.3861   4
   4  -1  12 310.265 14.1483   7
  -4  -1 -12 335.449 14.0860   6
   4   1 -12 332.795 13.9806   6
   4  -1 -12 335.544 13.5670   6
  -4   1 -12 311.297 14.6151   6
   4   1  12 320.839 14.3116   7
  -4  -1  12 339.229 14.0598   4
   4   1  12 337.016 14.9086   4
  -4  -1  12 329.136 14.3054   6
   5   1 -12 216.260 9.53185   6
  -5   1  12 210.774 10.0141   6
   5  -1  12 193.714 9.41647   7
  -5   1  12 200.388 9.13603   4
   5  -1  12 218.471 10.0843   4
  -5  -1 -12 184.163 8.78344   6
   5   1  12 202.077 9.75726   7
  -5  -1  12 209.022 9.37383   4
  -5  -1  12 206.429 9.64393   6
   5  -1 -12 205.744 8.98093   6
   0  -2 -12 17.4268 3.19537   6
   0   2 -12 12.3691 3.82774   6
   0  -2  12 12.9696 3.19669   7
   0  -2  12 13.7877 3.15845   4
   0   2  12 23.0478 4.02587   7
   0  -2  12 20.4169 4.42007   6
   0   2  12 15.6455 3.40038   4
  -1   2  12 166.705 7.98592   7
  -1   2  12 154.372 8.43381   4
  -1  -2 -12 158.966 8.35813   6
   1  -2  12 147.412 8.35483   7
   1   2 -12 160.858 9.05337   6
   1  -2  12 171.151 10.4972   6
   1  -2  12 162.351 8.89684   4
   1   2  12 157.960 8.41925   4
   1  -2 -12 163.993 7.99969   6
   1   2  12 157.749 8.17817   7
  -1  -2  12 169.579 9.63399   6
  -1  -2  12 152.433 8.48313   4
  -1   2 -12 147.077 9.21733   6
   2  -2  12 739.771 28.8228   6
   2  -2  12 731.962 27.7805   4
   2   2 -12 686.509 27.6944   6
  -2  -2 -12 680.855 27.1285   6
  -2   2  12 731.798 27.4736   4
   2  -2  12 666.959 27.1747   7
  -2   2  12 664.017 26.7491   7
   2   2  12 736.786 27.7656   4
   2   2  12 695.106 27.1317   7
  -2  -2  12 689.920 27.3461   4
   2  -2 -12 683.247 26.8771   6
  -2   2 -12 705.648 28.3481   6
  -2  -2  12 716.009 27.9159   6
  -3   2  12 46.5673 4.96551   4
   3  -2  12 68.9438 10.5328   6
   3  -2  12 45.8300 5.48583   4
  -3   2  12 44.6422 4.22004   7
   3  -2  12 48.5709 5.28597   7
   3   2 -12 50.4045 5.60006   6
  -3  -2 -12 54.0681 5.22334   6
  -3   2 -12 42.1874 6.26045   6
   3   2  12 49.3711 4.96632   7
   3  -2 -12 44.5030 4.05976   6
  -3  -2  12 48.2829 5.92896   6
   3   2  12 49.3450 5.96735   4
  -3  -2  12 52.1724 5.39379   4
   4  -2  12 301.417 12.8285   4
   4  -2  12 271.050 12.0848   7
   4   2 -12 294.194 12.6997   6
  -4   2  12 292.766 11.5472   7
  -4   2  12 283.040 12.1246   4
   4  -2 -12 275.139 11.6377   6
  -4   2 -12 274.533 13.1382   6
  -4  -2  12 273.864 12.2287   4
   4   2  12 275.142 12.7215   7
  -4  -2  12 273.133 12.5411   6
  -5   2  12 112.354 6.01652   4
   5  -2  12 110.887 5.89576   7
  -5   2  12 113.644 8.46995   6
   5   2 -12 109.188 7.02818   6
   5  -2  12 107.648 6.51722   4
  -5  -2  12 106.353 6.26554   6
  -5   2 -12 96.8773 6.77892   6
   5  -2 -12 109.820 5.49792   6
   5   2  12 121.580 6.91906   7
   0   3  12 824.311 30.6964   7
   0  -3  12 831.678 31.7671   6
   0  -3 -12 784.113 30.4533   6
   0   3 -12 878.798 32.1401   6
   0   3  12 694.900 30.6984   4
   0  -3  12 821.471 31.0817   4
  -1   3  12 87.6573 5.45189   7
  -1  -3 -12 79.6694 5.57749   6
   1   3 -12 88.3730 7.12196   6
   1  -3  12 89.7826 7.29653   6
  -1   3  12 76.5006 5.99045   4
   1  -3  12 87.5544 6.47164   4
   1   3  12 82.8391 6.20831   4
  -1  -3  12 74.7035 6.93031   6
  -1  -3  12 72.8113 6.36659   4
  -1   3 -12 78.9416 7.58063   6
   1   3  12 71.3655 5.54867   7
   1  -3 -12 77.4421 5.26118   6
  -2   3  12 402.223 16.6688   4
   2  -3  12 401.273 16.9488   4
   2   3 -12 411.482 17.4727   6
  -2   3  12 414.597 16.2431   7
   2  -3  12 425.415 17.6028   6
  -2  -3  12 379.425 16.4894   4
  -2  -3  12 410.968 17.4110   6
   2   3  12 398.979 16.3806   7
  -2   3 -12 386.500 17.7033   6
   2  -3 -12 387.784 15.9503   6
   3   3 -12 422.765 17.6739   6
   3  -3  12 423.213 17.2523   4
  -3   3  12 418.016 16.8531   4
  -3   3  12 399.225 16.2870   7
  -3   3 -12 413.659 18.0443   6
   3  -3 -12 395.546 16.1945   6
   3   3  12 404.402 16.7345   7
  -3  -3  12 426.307 17.3572   6
   4  -3  12 710.875 26.3924   6
  -4   3  12 699.301 24.6011   7
   4   3 -12 634.966 25.5461   6
  -4   3  12 622.301 24.8761   4
   4  -3  12 642.314 25.2511   4
   4   3  12 683.814 25.4994   7
   4  -3 -12 606.512 24.4338   6
  -4   3 -12 613.357 25.8868   6
  -4  -3  12 626.501 25.2091   6
   5  -3  12 51.6432 4.22325   4
  -5   3  12 39.8649 3.04901   7
  -5   3  12 37.9014 3.61873   4
  -5   3 -12 41.2282 4.95105   6
   5  -3 -12 50.9788 3.33109   6
   5   3  12 48.4402 4.93433   7
  -5  -3  12 46.1465 4.21137   6
   0   4  12 10.0593 2.23809   7
   0   4  12 15.7391 3.12996   4
   0  -4  12 10.2048 3.13142   4
   0   4 -12 6.73591 4.06544   6
   0  -4 -12 7.51793 2.37490   6
   0  -4  12 13.1352 3.66005   6
   1  -4  12 971.464 36.3930   6
  -1   4  12 932.570 35.4553   7
   1  -4  12 957.799 35.7353   4
   1   4 -12 987.465 36.7842   6
  -1   4  12 946.560 35.6486   4
  -1  -4  12 909.862 35.4040   4
   1   4  12 970.719 35.5670   7
   1   4  12 811.444 35.5654   4
  -1   4 -12 992.577 36.9745   6
  -1  -4  12 1014.26 36.5135   6
   1  -4 -12 909.396 34.9641   6
   2  -4  12 389.138 16.3174   4
   2  -4  12 379.010 16.8513   6
  -2   4  12 411.306 16.2485   4
  -2   4  12 391.624 15.8209   7
   2   4 -12 381.175 17.3868   6
   2  -4 -12 402.499 15.5268   6
  -2  -4  12 405.253 16.8106   6
   2   4  12 391.654 15.9830   7
  -2   4 -12 416.223 17.6142   6
  -3   4  12 230.406 10.1868   7
  -3   4  12 233.493 10.6344   4
   3   4 -12 237.905 12.8210   6
   3  -4  12 245.669 10.8369   4
  -3   4 -12 265.379 12.3734   6
   3   4  12 250.993 10.8156   7
  -3  -4  12 240.431 11.0368   6
  -3   4 -12 240.008 11.0548   4
  -4   4  12 148.331 7.05709   4
   4  -4  12 132.688 7.19345   4
   4  -4  12 150.683 7.98574   6
  -4   4 -12 136.439 8.62774   6
   4  -4 -12 144.356 6.33276   6
  -4  -4  12 151.034 7.55294   6
   0   5  12 65.0299 6.21136   4
   0   5 -12 57.4574 7.79797   6
   0  -5  12 51.9081 5.54250   6
   0   5  12 45.4439 4.18089   7
  -1   5  12 113.467 5.85296   7
  -1   5  12 120.692 6.72215   4
   1   5 -12 113.107 9.67341   6
   1  -5  12 102.881 7.11737   6
  -1   5 -12 112.231 8.66891   6
   1   5  12 103.373 5.91177   7
  -1  -5  12 103.210 6.66178   6
  -2   5  12 74.0290 4.59047   7
   2  -5  12 77.2977 5.54238   4
   2   5 -12 65.3965 4.39810   7
  -2   5  12 76.7575 5.22589   4
  -2  -5  12 73.8536 5.60860   6
   2   5  12 87.8079 5.19512   7
  -2   5 -12 75.5428 7.46250   6
   3   5 -12 181.149 8.00153   7
   3  -5  12 207.087 9.35940   6
   3  -5  12 181.533 8.50770   4
  -3   5  12 207.590 8.45984   7
  -3   5  12 200.110 8.82021   4
  -3   5 -12 195.297 9.20354   4
  -3   5 -12 201.846 10.0868   6
   3  -5 -12 192.893 8.17056   6
  -3  -5  12 199.583 9.04226   6
   0   6  12 72.3290 4.29982   7
   0  -6  12 73.3452 5.29246   6
   0   0 -13 -0.2800 2.83443   6
   0   0  13 4.80132 2.54750   7
   0   0  13 2.24447 2.71609   4
  -1   0  13 199.578 9.82129   4
  -1   0 -13 190.611 9.81861   6
   1   0  13 196.340 9.35562   7
   1   0  13 194.389 9.86515   4
  -1   0  13 196.538 9.02993   7
   1   0 -13 202.536 9.89694   6
   2   0  13 284.560 12.6785   7
  -2   0  13 288.004 12.5643   4
  -2   0  13 276.667 11.7151   7
  -2   0  13 283.584 13.8835   6
  -2   0 -13 289.535 13.0669   6
   2   0  13 278.714 12.5647   4
   2   0 -13 290.906 12.4663   6
   3   0  13 157.053 8.23016   7
   3   0  13 155.258 8.23809   4
  -3   0 -13 165.191 8.59658   6
  -3   0  13 150.088 8.01688   4
   3   0 -13 160.631 7.99178   6
  -3   0  13 155.173 9.34668   6
  -4   0 -13 256.231 11.0473   6
   4   0  13 236.280 10.7524   7
   4   0 -13 247.057 10.6326   6
  -4   0  13 235.184 10.6772   4
   4   0  13 257.355 11.2145   4
  -4   0  13 247.684 11.4445   6
   0   1 -13 767.798 29.8822   6
   0  -1  13 682.285 28.8966   7
   0  -1 -13 744.912 29.2760   6
   0   1  13 760.490 29.4215   4
   0   1  13 783.576 29.0452   7
   0  -1  13 804.237 30.2968   6
   0  -1  13 769.452 29.5216   4
  -1  -1 -13 353.943 15.7014   6
  -1   1  13 383.881 15.2740   7
   1  -1  13 360.244 15.5779   7
   1  -1  13 360.032 15.8276   4
   1   1 -13 385.207 16.2187   6
  -1   1  13 382.434 16.0092   4
   1   1  13 368.424 15.7462   4
   1  -1 -13 391.313 15.8283   6
  -1  -1  13 400.751 16.9526   6
  -1  -1  13 347.662 15.1760   7
   1   1  13 395.891 15.6432   7
  -1  -1  13 374.862 15.8910   4
  -1   1 -13 384.204 16.3986   6
  -2   1  13 25.1387 3.39437   7
  -2  -1 -13 20.0149 3.21036   6
   2   1 -13 28.7358 3.94495   6
  -2   1  13 24.4126 3.41916   4
   2  -1  13 18.3225 3.13376   4
   2  -1  13 17.9994 3.06736   7
   2  -1 -13 24.7169 3.83172   6
   2   1  13 25.1300 3.97612   7
   2   1  13 19.7088 3.09263   4
  -2  -1  13 27.1391 4.13103   4
  -2  -1  13 23.4809 4.37756   6
  -2   1 -13 19.1556 3.68375   6
  -3  -1 -13 52.6226 5.26510   6
   3  -1  13 60.0202 5.17280   7
  -3   1  13 65.0270 4.86643   4
   3   1 -13 60.0034 5.15689   6
   3  -1  13 58.4357 5.07244   4
  -3   1  13 56.3914 4.23939   7
   3  -1 -13 64.8555 4.65655   6
  -3   1 -13 63.8764 5.99839   6
   3   1  13 70.0593 5.51021   4
  -3  -1  13 62.7093 5.25498   4
  -3  -1  13 57.0122 5.74318   6
   3   1  13 56.8746 5.18709   7
  -4   1  13 22.5096 3.72154   4
   4   1 -13 31.7750 4.08256   6
   4  -1  13 26.0025 3.44364   4
  -4   1  13 24.2811 4.68646   6
   4  -1  13 23.6239 3.06593   7
  -4  -1 -13 31.3892 3.91068   6
   4  -1 -13 27.9111 3.31134   6
  -4  -1  13 17.6091 3.31524   6
  -4   1 -13 30.7970 4.49794   6
  -4  -1  13 31.9508 4.35558   4
   4   1  13 33.0204 4.56598   4
   4   1  13 28.7295 4.14715   7
   0  -2 -13 367.451 15.6662   6
   0   2  13 384.008 16.0724   4
   0  -2  13 385.870 16.1830   4
   0  -2  13 398.405 16.8742   6
   0   2  13 399.591 15.7028   7
   0   2 -13 368.480 16.6237   6
  -1   2  13 441.497 17.7793   7
   1  -2  13 439.989 19.0909   6
   1  -2  13 435.016 17.5698   7
  -1  -2 -13 449.458 17.9876   6
   1   2 -13 447.355 18.7498   6
   1  -2  13 443.630 18.2889   4
  -1   2  13 450.513 18.3317   4
  -1  -2  13 481.506 19.0874   6
  -1  -2  13 454.347 18.2460   4
   1  -2 -13 446.290 17.9004   6
   1   2  13 437.767 18.2079   4
  -1   2 -13 461.848 19.1646   6
   1   2  13 444.583 17.9988   7
  -2   2  13 177.216 8.17853   7
   2   2 -13 169.526 9.07944   6
   2  -2  13 193.626 11.4042   6
  -2  -2 -13 177.620 8.50844   6
   2  -2  13 176.593 8.37863   7
  -2   2  13 182.303 8.81142   4
   2  -2  13 162.685 8.70378   4
  -2  -2  13 168.708 8.68542   4
   2   2  13 190.170 9.05562   4
  -2   2 -13 166.631 9.60156   6
   2  -2 -13 169.987 8.20601   6
   2   2  13 187.370 8.58110   7
  -2  -2  13 179.283 9.43778   6
  -3   2  13 54.8060 3.97053   7
   3  -2  13 56.7742 5.14608   4
   3  -2  13 53.9120 4.62256   7
   3   2 -13 57.4209 5.31986   6
  -3   2  13 64.3844 4.78129   4
  -3  -2  13 50.2968 4.58010   4
  -3  -2  13 58.5555 5.78818   6
  -3   2 -13 47.7925 5.67164   6
   3  -2 -13 55.0506 4.11153   6
   3   2  13 64.4296 5.24027   4
   3   2  13 52.9999 4.61762   7
  -4   2  13 81.0593 4.23185   7
   4  -2  13 74.1973 4.61964   7
   4   2 -13 73.8024 5.77909   6
  -4   2  13 80.4275 4.96674   4
   4  -2  13 72.3969 5.18867   4
   4   2  13 77.5748 5.16236   7
   4  -2 -13 88.3461 4.65931   6
  -4  -2  13 63.6040 5.87154   4
  -4  -2  13 88.2806 5.53082   6
  -4   2 -13 67.5985 5.63473   6
   0  -3 -13 12.4218 2.44405   6
   0   3 -13 8.45943 3.60388   6
   0  -3  13 5.79594 2.58049   4
   0   3  13 13.4291 2.49697   7
   0   3  13 9.62354 2.72164   4
   0  -3  13 11.9900 3.93144   6
   1  -3  13 22.2057 3.19281   4
  -1   3  13 33.5661 4.53040   4
  -1   3  13 36.8520 3.70037   7
  -1  -3 -13 28.3535 3.80673   6
   1   3 -13 29.1400 4.54312   6
   1  -3  13 45.5348 5.25254   6
  -1   3 -13 26.8827 4.44095   6
   1   3  13 34.5200 3.86153   7
  -1  -3  13 32.9658 5.53075   6
   1   3  13 34.8937 4.61948   4
   1  -3 -13 25.7921 3.62521   6
  -1  -3  13 31.1417 4.70174   4
  -2   3  13 126.828 6.81282   4
   2  -3  13 128.336 8.67424   6
   2  -3  13 123.368 6.94551   4
  -2   3  13 133.835 6.25735   7
   2   3 -13 122.182 7.56272   6
  -2   3 -13 118.197 7.93726   6
  -2  -3  13 112.527 7.39431   6
   2   3  13 118.766 6.40137   7
  -2  -3  13 114.577 6.77601   4
   2   3  13 101.881 6.87841   4
   2  -3 -13 125.582 6.10808   6
  -3   3  13 107.976 5.95895   4
  -3   3  13 102.401 5.21075   7
   3  -3  13 98.8115 6.02960   4
   3   3 -13 105.049 7.17275   6
   3   3  13 106.634 5.89366   7
   3  -3 -13 106.849 5.30215   6
  -3   3 -13 92.5474 6.82543   6
  -3  -3  13 91.9314 6.12856   6
   0   4 -13 -5.1156 3.47999   6
   0   4  13 0.96771 1.88439   7
   0  -4  13 0.94906 3.13681   6
   0   4  13 4.67147 2.41348   4
   0  -4  13 -3.6384 2.91937   4
  -1   4  13 163.853 7.85352   7
   1   4 -13 160.703 9.69993   6
   1  -4  13 175.435 8.41405   4
  -1   4  13 180.707 8.38624   4
   1  -4  13 180.228 9.29645   6
  -1  -4  13 170.937 8.77701   6
   1   4  13 192.110 8.62879   4
   1   4  13 178.010 8.07922   7
  -1   4 -13 174.579 9.49801   6
   2  -4  13 151.014 7.72518   4
  -2   4  13 167.133 7.66001   4
   2   4 -13 166.799 9.41218   6
  -2   4  13 161.874 7.22798   7
  -2  -4  13 162.586 8.09928   6
   2   4  13 159.599 7.45624   7
   2  -4 -13 148.324 6.73716   6
  -2   4 -13 156.044 7.77916   4
  -2   4 -13 147.405 8.67541   6
   0   0 -14 50.9632 4.89105   6
   0   0  14 49.2117 4.25619   7
   0   0  14 47.8063 4.45973   4
   1   0 -14 30.3527 4.06583   6
   1   0  14 27.1613 4.16688   4
  -1   0  14 27.0431 3.81183   4
  -1   0  14 21.8658 3.90188   7
   1   0  14 25.7411 4.09827   7
  -1   0 -14 26.4776 4.40146   6
   2   0  14 174.266 8.16326   7
  -2   0 -14 166.874 8.34245   6
   2   0 -14 180.349 8.25663   6
   2   0  14 152.187 7.98635   4
  -2   0  14 167.464 8.22356   4
   3   0  14 250.483 10.8781   4
  -3   0  14 253.981 10.8209   4
   3   0 -14 270.581 10.9984   6
  -3   0 -14 239.384 10.7836   6
  -3   0  14 272.369 12.1545   6
   3   0  14 251.764 10.7247   7
   0   1  14 785.652 28.7184   4
   0  -1 -14 692.039 28.3569   6
   0   1  14 732.576 28.1276   7
   0   1 -14 785.856 29.0524   6
   0  -1  14 781.314 28.6539   4
   0  -1  14 708.806 27.7301   7
  -1   1  14 79.0246 4.73418   7
  -1   1  14 72.4597 5.17313   4
  -1  -1 -14 71.6134 5.28755   6
   1   1 -14 76.5319 5.46884   6
   1  -1  14 69.3847 5.05875   7
   1  -1  14 74.4686 5.16655   4
   1   1  14 79.9534 5.48341   4
  -1   1 -14 77.9925 5.70328   6
   1   1  14 76.9441 4.93302   7
   1  -1 -14 77.4465 5.23388   6
  -1  -1  14 95.9721 7.65172   6
  -1  -1  14 84.5112 5.53472   4
  -2   1  14 37.5107 4.03285   4
  -2   1  14 32.2293 3.16435   7
   2  -1  14 28.7898 3.71203   7
   2   1 -14 36.1501 4.01437   6
  -2  -1 -14 34.6692 4.14116   6
   2  -1  14 34.0169 4.03445   4
   2   1  14 32.8433 3.86544   7
   2   1  14 38.4750 4.02532   4
   2  -1 -14 39.2845 3.78639   6
  -2  -1  14 43.2223 6.02278   6
  -2   1 -14 34.0841 4.50046   6
  -2  -1  14 36.4743 4.23887   4
   3  -1  14 14.4726 2.19417   7
   3  -1  14 20.8684 3.20170   4
  -3   1  14 10.7159 2.03021   4
  -3  -1  14 12.6380 3.19188   6
  -3  -1  14 12.7051 2.41209   4
   3   1  14 8.76974 1.99704   7
   3   1  14 20.8032 3.35173   4
   0  -2  14 -1.6523 3.80609   6
   0  -2  14 1.95253 2.18738   4
   0  -2 -14 5.64725 2.24260   6
   0   2  14 1.06468 1.70866   7
   0   2 -14 1.67102 2.87380   6
   0   2  14 3.46439 2.39193   4
   1   2 -14 49.2870 4.79181   6
  -1   2  14 54.0924 3.85876   7
  -1  -2 -14 53.5870 4.16657   6
   1  -2  14 49.1593 4.32626   4
  -1   2  14 50.1946 4.28659   4
  -1   2 -14 55.5203 5.21466   6
   1   2  14 52.2603 4.29738   4
   1   2  14 59.6083 4.32227   7
   1  -2 -14 53.2098 4.17130   6
  -1  -2  14 58.2300 5.71766   6
  -1  -2  14 44.2701 4.18130   4
   2  -2  14 706.164 27.3478   4
   2   2 -14 724.080 27.7182   6
  -2   2  14 705.614 26.8412   7
  -2   2  14 761.295 27.4446   4
   2  -2 -14 700.913 27.0473   6
  -2  -2  14 759.852 27.7290   6
   2   2  14 728.250 27.2833   4
  -2   2 -14 684.795 27.8545   6
   0   3  14 192.976 9.24719   4
   0  -3  14 224.845 9.46442   4
   0  -3  14 215.351 10.1154   6
   0   3  14 216.660 9.10827   7
   0   3 -14 203.552 9.95226   6
  -1   3  14 27.4305 3.00773   7
   1  -3  14 23.3579 4.15726   6
   1   3 -14 30.3881 4.69431   6
   1  -3  14 22.0820 2.73684   4
   1  -3 -14 27.6771 2.97576   6
  -1  -3  14 31.1893 4.28974   6
  -1   3 -14 22.1776 3.77711   6
   1   3  14 34.3356 3.88688   4
   1   3  14 21.3019 3.16080   7
  -1  -3  14 28.9510 4.06059   4
   0   0   0    0.00    0.00   0

 _exptl_absorpt_process_details 'SADABS 2014/5'
 _exptl_absorpt_correction_type   multi-scan
 _exptl_absorpt_correction_T_max  0.6599
 _exptl_absorpt_correction_T_min  0.4169
 _exptl_special_details
)
 The following wavelength and cell were deduced by SADABS from the
 direction cosines etc. They are given here for emergency use only:
 CELL 1.34180    7.639    7.771   11.043   89.988   89.994   89.978
)

;
_shelx_hkl_checksum              91762
loop_
_space_group_symop_operation_xyz
'x, y, z'
'x+1/2, -y+1/2, -z'
'-x, y+1/2, -z+1/2'
'-x+1/2, -y, z+1/2'
loop_
_atom_site_label
_atom_site_type_symbol
_atom_site_fract_x
_atom_site_fract_y
_atom_site_fract_z
_atom_site_U_iso_or_equiv
_atom_site_adp_type
_atom_site_occupancy
_atom_site_site_symmetry_order
_atom_site_calc_flag
_atom_site_refinement_flags_posn
_atom_site_refinement_flags_adp
_atom_site_refinement_flags_occupancy
_atom_site_disorder_assembly
_atom_site_disorder_group
O01 O 0.35451(12) 0.26755(13) 0.14669(9) 0.0083(2) Uani 1 1 d . . . . .
O02 O 0.68290(13) 0.13861(13) 0.15821(9) 0.0083(2) Uani 1 1 d . . . . .
H02A H 0.643(3) 0.119(3) 0.2284(19) 0.010 Uiso 1 1 d . U . . .
O03 O 1.01611(13) 0.29981(15) 0.32417(10) 0.0112(2) Uani 1 1 d . . . . .
O04 O 0.44778(12) 0.53623(13) 0.11720(9) 0.0081(2) Uani 1 1 d . . . . .
O05 O 0.68615(13) 0.42000(13) 0.33885(9) 0.0070(2) Uani 1 1 d . . . . .
H05A H 0.651(2) 0.520(3) 0.3554(17) 0.008 Uiso 1 1 d . U . . .
O06 O 1.04292(13) 0.38131(13) 0.12984(9) 0.0091(2) Uani 1 1 d . . . . .
H06A H 1.157(3) 0.337(3) 0.1403(18) 0.011 Uiso 1 1 d . U . . .
N01 N 0.83186(16) 0.19006(16) 0.53454(11) 0.0088(2) Uani 1 1 d . . . . .
H01A H 0.736(3) 0.173(3) 0.5768(19) 0.011 Uiso 1 1 d . U . . .
H01B H 0.909(3) 0.261(3) 0.5673(17) 0.011 Uiso 1 1 d . U . . .
H01C H 0.877(3) 0.089(3) 0.5176(18) 0.011 Uiso 1 1 d . U . . .
H01D H 0.801(3) 0.236(3) 0.4645(19) 0.011 Uiso 1 1 d . U . . .
C01 C 0.47422(17) 0.37844(17) 0.13127(11) 0.0054(3) Uani 1 1 d . . . . .
C02 C 0.95585(17) 0.36215(17) 0.23175(12) 0.0059(3) Uani 1 1 d . . . . .
H02B H 0.714(3) 0.335(2) 0.0510(18) 0.007 Uiso 1 1 d . U . . .
C03 C 0.66539(16) 0.31605(17) 0.13244(12) 0.0055(2) Uani 1 1 d . . . . .
C04 C 0.76812(17) 0.42683(17) 0.22319(11) 0.0053(3) Uani 1 1 d . . . . .
H04A H 0.768(2) 0.543(3) 0.1951(17) 0.006 Uiso 1 1 d . U . . .
loop_
_atom_site_aniso_label
_atom_site_aniso_U_11
_atom_site_aniso_U_22
_atom_site_aniso_U_33
_atom_site_aniso_U_23
_atom_site_aniso_U_13
_atom_site_aniso_U_12
O01 0.0046(4) 0.0069(4) 0.0135(5) 0.0014(4) 0.0006(3) -0.0007(3)
O02 0.0089(4) 0.0044(4) 0.0116(5) -0.0007(4) 0.0011(4) 0.0013(4)
O03 0.0079(5) 0.0159(5) 0.0097(4) 0.0031(4) -0.0009(4) 0.0030(4)
O04 0.0065(4) 0.0059(4) 0.0120(4) 0.0015(4) -0.0005(3) 0.0001(4)
O05 0.0069(4) 0.0070(4) 0.0069(4) -0.0004(3) 0.0017(3) 0.0019(3)
O06 0.0041(4) 0.0138(5) 0.0095(4) 0.0030(4) 0.0017(3) 0.0016(4)
N01 0.0074(5) 0.0085(5) 0.0106(5) -0.0012(5) 0.0004(4) -0.0006(5)
C01 0.0052(5) 0.0068(6) 0.0043(5) -0.0002(5) -0.0004(4) 0.0006(5)
C02 0.0051(5) 0.0042(5) 0.0084(6) -0.0003(4) -0.0010(4) -0.0011(5)
C03 0.0043(6) 0.0049(6) 0.0072(5) 0.0001(5) -0.0001(4) 0.0002(4)
C04 0.0037(6) 0.0054(5) 0.0069(5) 0.0006(4) -0.0001(4) -0.0003(4)
loop_
_atom_type_symbol
_atom_type_description
_atom_type_scat_dispersion_real
_atom_type_scat_dispersion_imag
_atom_type_scat_source
C C 0.0137 0.0067 'International Tables Vol C Tables 4.2.6.8 and 6.1.1.4'
H H 0.0000 0.0000 'International Tables Vol C Tables 4.2.6.8 and 6.1.1.4'
N N 0.0241 0.0134 'International Tables Vol C Tables 4.2.6.8 and 6.1.1.4'
O O 0.0389 0.0241 'International Tables Vol C Tables 4.2.6.8 and 6.1.1.4'
loop_
_geom_angle_atom_site_label_1
_geom_angle_atom_site_label_2
_geom_angle_atom_site_label_3
_geom_angle
_geom_angle_site_symmetry_1
_geom_angle_site_symmetry_3
C03 O02 H02A 109.0(14) . .
C04 O05 H05A 107.6(13) . .
C02 O06 H06A 108.7(12) . .
H01A N01 H01B 115.6(18) . .
H01A N01 H01C 107.9(18) . .
H01B N01 H01C 112.5(19) . .
H01A N01 H01D 107.9(19) . .
H01B N01 H01D 106.3(19) . .
H01C N01 H01D 106.1(18) . .
O04 C01 O01 124.47(12) . .
O04 C01 C03 117.56(11) . .
O01 C01 C03 117.97(11) . .
O03 C02 O06 124.73(12) . .
O03 C02 C04 122.59(12) . .
O06 C02 C04 112.69(11) . .
O02 C03 C04 111.52(10) . .
O02 C03 C01 113.50(10) . .
C04 C03 C01 108.27(10) . .
O02 C03 H02B 107.3(11) . .
C04 C03 H02B 108.6(11) . .
C01 C03 H02B 107.5(11) . .
O05 C04 C02 110.26(10) . .
O05 C04 C03 109.85(10) . .
C02 C04 C03 109.66(10) . .
O05 C04 H04A 109.0(11) . .
C02 C04 H04A 109.5(11) . .
C03 C04 H04A 108.5(11) . .
loop_
_geom_bond_atom_site_label_1
_geom_bond_atom_site_label_2
_geom_bond_distance
_geom_bond_site_symmetry_2
O01 C01 1.2680(16) .
O02 C03 1.4146(16) .
O02 H02A 0.85(2) .
O03 C02 1.2198(17) .
O04 C01 1.2527(16) .
O05 C04 1.4232(15) .
O05 H05A 0.84(2) .
O06 C02 1.3155(16) .
O06 H06A 0.94(2) .
N01 H01A 0.88(2) .
N01 H01B 0.88(2) .
N01 H01C 0.88(2) .
N01 H01D 0.88(2) .
C01 C03 1.5387(17) .
C02 C04 1.5225(18) .
C03 C04 1.5367(17) .
C03 H02B 0.98(2) .
C04 H04A 0.96(2) .
