#------------------------------------------------------------------------------
#$Date: 2016-11-25 18:11:13 +0200 (Fri, 25 Nov 2016) $
#$Revision: 188671 $
#$URL: file:///home/coder/svn-repositories/cod/cif/3/50/00/3500044.cif $
#------------------------------------------------------------------------------
#
# This file is available in the Crystallography Open Database (COD),
# http://www.crystallography.net/
#
# All data on this site have been placed in the public domain by the
# contributors.
#
data_3500044
loop_
_publ_author_name
'Lubomir Smrcok'
'Armel Le Bail'
'Miroslav Boca'
_publ_requested_journal          'Inorganic Chemistry'
_publ_section_abstract
;
At least 7 polymorphs in the range 273-763K
;
_publ_section_title
;
 Polymorphism of K~2~ZrF~6~ by synchrotron powder diffraction and DFT
;
_journal_name_full               'Personal communication to COD'
_journal_year                    2016
_chemical_formula_moiety         'F6 Zr, 2(K)'
_chemical_formula_sum            'F6 K2 Zr'
_chemical_formula_weight         283.42
_chemical_name_systematic        ' ?'
_space_group_IT_number           225
_symmetry_cell_setting           cubic
_symmetry_space_group_name_Hall  '-F 4 2 3'
_symmetry_space_group_name_H-M   'F m -3 m'
_cell_angle_alpha                90.00000
_cell_angle_beta                 90.00000
_cell_angle_gamma                90.00000
_cell_formula_units_Z            4
_cell_length_a                   9.15641(3)
_cell_length_b                   9.15641(3)
_cell_length_c                   9.15641(3)
_cell_measurement_temperature    768
_cell_volume                     767.672(4)
_computing_molecular_graphics    DIAMOND
_computing_structure_refinement  FULLPROF
_diffrn_ambient_temperature      768
_diffrn_measurement_device_type  synchrotron
_diffrn_radiation_probe          x-ray
_diffrn_radiation_type           synchrotron
_diffrn_radiation_wavelength     0.826946
_exptl_absorpt_coefficient_mu    3.833
_exptl_crystal_density_diffrn    2.452
_exptl_crystal_density_method    'Not Measured'
_exptl_crystal_F_000             528
_exptl_special_details
; 
Beamline I11
;
_pd_calibration_special_details  ' ?'
_pd_char_colour                  white
_pd_instr_location
; 
Diamond Light Source, Didcot, UK
;
_pd_meas_2theta_range_inc        0.001000
_pd_meas_2theta_range_max        50.00000
_pd_meas_2theta_range_min        1.50000
_pd_meas_number_of_points        48501
_pd_proc_2theta_range_inc        0.001000
_pd_proc_2theta_range_max        50.0003
_pd_proc_2theta_range_min        1.5003
_pd_proc_ls_pref_orient_corr     ' ?'
_pd_proc_ls_prof_R_factor        5.7245
_pd_proc_ls_prof_wR_expected     6.3572
_pd_proc_ls_prof_wR_factor       9.6889
_pd_proc_ls_special_details      ' ?'
_pd_proc_wavelength              0.826946
_refine_ls_goodness_of_fit_all   1.524
_refine_ls_number_parameters     8
_refine_ls_number_reflns         39
_refine_ls_number_restraints     0
_refine_ls_R_I_factor            4.1396
_refine_ls_shift/su_max          0.03
_refine_special_details          ' ?'
_iucr_refine_instructions_details
;
Fullprof .pcr file, modified to fit inside 80 columns
followed by the .dat file and DFT-optimized atomic coordinates



COMM    H495  smoothed by EVA     Pnma   from 1st optimization fixed...
! Current global Chi2 (Bragg contrib.) =      2.909    
! Files => DAT-file: h-495-final.dat,  PCR-file: h-495-final
!Job Npr Nph Nba Nex Nsc Nor Dum Iwg Ilo Ias Res Ste Nre Cry Uni Cor Opt Aut
   0   5   4  46   2   0   1   1   0   0   1   0   0   0   0   0   0   0   0
!
!Ipr Ppl Ioc Mat Pcr Ls1 Ls2 Ls3 NLI Prf Ins Rpa Sym Hkl Fou Sho Ana
   0   0   1   0   2   0   4   0   0  -3   0  -1   0  -2   2   1   1
!
!-------------------------------------------------------------------------------
! Lambda1  Lambda2 Ratio Bkpos Wdt Cthm muR AsyLim  Rpolarz  2nd-muR -> Patt# 1
 0.826946 0.826946  1.00000   40.000  5.0000 0.0000 0.0000 30.00  0.0000  0.0000
!
!NCY  Eps  R_at  R_an  R_pr  R_gl    Thmin      Step      Thmax    PSD    Sent0
 50  0.01  0.20  0.20  0.20  0.40     1.5000  0.001000   50.0000   0.000   0.000
!
!2Theta/TOF/E(Kev)   Background  for Pattern#  1
         1.5179       259.4474        641.00
         2.0536       239.9375        651.00
         2.5000       213.7399        661.00
         2.9464       192.0672        671.00
         3.5268       165.5501        681.00
         4.3304       150.3130        691.00
         5.4018       143.0868        701.00
         6.5625       143.4209        711.00
         7.6786       158.7118        721.00
         8.3482       178.1663        731.00
         8.7500       194.2595        741.00
         9.4196       234.3637        751.00
        10.0000       225.1807        761.00
        10.4464       248.6182        771.00
        11.0714       263.4722        781.00
        11.7411       271.5078        791.00
        12.4554       264.0565        801.00
        12.9018       259.1671        811.00
        14.0179       231.2815        821.00
        15.2679       189.2211        831.00
        16.3393       177.7771        841.00
        17.4107       166.5124        851.00
        18.8393       174.7869        861.00
        19.5982       196.5882        871.00
        20.3571       210.9345        881.00
        21.2500       235.7812        891.00
        22.0089       230.3981        901.00
        23.0357       233.3269        911.00
        24.5536       247.1112        921.00
        25.8482       241.5766        931.00
        26.6518       230.0352        941.00
        27.8571       229.4726        951.00
        29.1964       225.1335        961.00
        30.0446       207.7423        971.00
        32.0089       196.9148        981.00
        34.2857       189.0107        991.00
        36.5625       181.5373       1001.00
        37.9464       178.4100       1011.00
        39.4196       173.1227       1021.00
        41.2053       158.4062       1031.00
        42.0536       145.6284       1041.00
        43.4821       134.1527       1051.00
        45.1339       127.8424       1061.00
        46.7411       126.3906       1071.00
        48.3929       125.9212       1081.00
        49.5089       127.3659          0.00
! 
! Excluded regions (LowT  HighT) for Pattern#  1
        0.00        1.50
       49.50      180.00
! 
!
     117    !Number of refined parameters
!
!  Zero    Code    SyCos    Code   SySin    Code  Lambda     Code MORE ->Patt# 1
 -0.00030  371.0  0.00000    0.0  0.00000    0.0 0.000000    0.00   0
!-------------------------------------------------------------------------------
!  Data for PHASE number:   1  ==> Current R_Bragg for Pattern#  1:    13.38
!-------------------------------------------------------------------------------
K2ZrF6 Pnma
!
!Nat Dis Ang Pr1 Pr2 Pr3 Jbt Irf Isy Str Furth       ATZ    Nvk Npr More
  14  18   0 0.0 0.0 1.0   0   0   0   0   0       1479.600   0   5   1
!
!Jvi Jdi Hel Sol Mom Ter Brind RMua RMub RMuc Jtyp Nsp_Ref Ph_Shift N_Domains
   0   3   0   0   0   0  1.0000  0.0000  0.0000  0.0000   0    0    0     0
!
! Max_dst(dist) (angles)  Bond-Valence Calc.
      4.0000      3.5000           
P N M A                  <--Space group symbol
!Atom   Typ       X        Y        Z     Biso      Occ   In Fin N_t Spc /Codes
K1     K+1     0.67983  0.25000  0.07379 14.71210   0.50000   0   0   0    0  
                561.00     0.00   571.00   101.00      0.00
K2     K+1     0.59654  0.25000  0.85547 14.71210   0.50000   0   0   0    0  
                581.00     0.00   591.00   101.00      0.00
K3     K+1     0.55656  0.25000  0.29379 14.71210   0.50000   0   0   0    0  
                601.00     0.00   611.00   101.00      0.00
K4     K+1     0.99788  0.25000  0.92632 14.71210   0.50000   0   0   0    0  
                621.00     0.00   631.00   101.00      0.00
Zr1    Zr+4    0.25748  0.25000  0.05715  7.56512   0.50000   0   0   0    0  
                111.00     0.00   121.00   151.00      0.00
Zr2    Zr+4    0.24796  0.25000  0.80695  7.56512   0.50000   0   0   0    0  
                131.00     0.00   141.00   151.00      0.00
F1     F-1     0.22137  0.47035  0.11749 13.44565   1.00000   0   0   0    0  
                161.00   171.00   181.00   281.00      0.00
F2     F-1     0.26476  0.48132  0.00429 13.44565   1.00000   0   0   0    0  
                191.00   201.00   211.00   281.00      0.00
F3     F-1     0.32574  0.47099  0.76327 13.44565   1.00000   0   0   0    0  
                221.00   231.00   241.00   281.00      0.00
F4     F-1     0.16597  0.47244  0.84908 13.44565   1.00000   0   0   0    0  
                251.00   261.00   271.00   281.00      0.00
F5     F-1     0.34085  0.25000  0.86553 13.44565   0.50000   0   0   0    0  
                291.00     0.00   301.00   281.00      0.00
F6     F-1     0.40866  0.25000  0.06806 13.44565   0.50000   0   0   0    0  
                311.00     0.00   321.00   281.00      0.00
F7     F-1     0.11426  0.25000  0.03740 13.44565   0.50000   0   0   0    0  
                331.00     0.00   341.00   281.00      0.00
F8     F-1     0.14685  0.25000  0.75445 13.44565   0.50000   0   0   0    0  
                351.00     0.00   361.00   281.00      0.00
!-------> Profile Parameters for Pattern #  1
!  Scale        Shape1      Bov      Str1      Str2      Str3   Strain-Model
 0.10891E-04   0.08814   0.00000   0.00000   0.00000   0.00000       0
  1091.00000   381.000     0.000     0.000     0.000     0.000
!       U         V          W       X      Y     GauSiz   LorSiz Size-Model
   0.003000   0.004293  -0.000053   0.000000 0.000000 0.000000 0.000000    0
      0.000    401.000    391.000      0.000      0.000     0.000     0.000
!     a          b         c        alpha      beta       gamma   #Cell Info
  10.308444   6.029092  23.801748  90.000000  90.000000  90.000000   
  411.00000  421.00000  431.00000    0.00000    0.00000    0.00000
!  Pref1    Pref2      Asy1     Asy2     Asy3     Asy4  
  1.00000  0.00000 -0.00585 -0.01604  0.00000  0.00000
     0.00     0.00   441.00   451.00     0.00     0.00
! Soft distance constraints:
Zr1  F1     1    0.00000    0.00000    0.00000    1.96000    0.02000
Zr1  F2     1    0.00000    0.00000    0.00000    1.96000    0.02000
Zr1  F6     1    0.00000    0.00000    0.00000    1.96000    0.02000
Zr1  F7     1    0.00000    0.00000    0.00000    1.96000    0.02000
Zr2  F3     1    0.00000    0.00000    0.00000    1.96000    0.02000
Zr2  F4     1    0.00000    0.00000    0.00000    1.96000    0.02000
Zr2  F5     1    0.00000    0.00000    0.00000    1.96000    0.02000
Zr2  F8     1    0.00000    0.00000    0.00000    1.96000    0.02000
F1   F2     1    0.00000    0.00000    0.00000    2.77300    0.03000
F1   F6     1    0.00000    0.00000    0.00000    2.77300    0.03000
F1   F7     1    0.00000    0.00000    0.00000    2.77300    0.03000
F2   F6     1    0.00000    0.00000    0.00000    2.77300    0.03000
F2   F7     1    0.00000    0.00000    0.00000    2.77300    0.03000
F3   F4     1    0.00000    0.00000    0.00000    2.77300    0.03000
F3   F5     1    0.00000    0.00000    0.00000    2.77300    0.03000
F3   F8     1    0.00000    0.00000    0.00000    2.77300    0.03000
F4   F5     1    0.00000    0.00000    0.00000    2.77300    0.03000
F4   F8     1    0.00000    0.00000    0.00000    2.77300    0.03000
!-------------------------------------------------------------------------------
!  Data for PHASE number:   2  ==> Current R_Bragg for Pattern#  1:     4.14
!-------------------------------------------------------------------------------
K2ZrF6 - cubic
!
!Nat Dis Ang Pr1 Pr2 Pr3 Jbt Irf Isy Str Furth       ATZ    Nvk Npr More
   5   0   0 0.0 0.0 1.0   0   0   0   0   0        767.130   0   5   1
!
!Jvi Jdi Hel Sol Mom Ter Brind RMua RMub RMuc Jtyp Nsp_Ref Ph_Shift N_Domains
   0   3   0   0   0   0  1.0000  0.0000  0.0000  0.0000    0   0    0      0
!
! Max_dst(dist) (angles)  Bond-Valence Calc.
      4.0000      3.5000           
F M -3 M                 <--Space group symbol
!Atom   Typ       X        Y        Z     Biso       Occ  In Fin N_t Spc /Codes
K1     K+1     0.50000  0.50000  0.50000 12.46789   0.74009   0   0   0    0  
                  0.00     0.00     0.00    51.00     21.00
K2     K+1     0.25000  0.25000  0.25000 12.46789   1.25991   0   0   0    0  
                  0.00     0.00     0.00    51.00    -21.00
Zr1    Zr+4    0.00000  0.00000  0.00000  7.95219   1.00000   0   0   0    0  
                  0.00     0.00     0.00    31.00      0.00
F1     F-1     0.00000  0.00000  0.78413 11.17775   2.51944   0   0   0    0  
                  0.00     0.00    61.00    41.00     71.00
F2     F-1     0.88966  0.00000  0.78911 11.17775   3.48056   0   0   0    0  
                 81.00     0.00    91.00    41.00    -71.00
!-------> Profile Parameters for Pattern #  1
!  Scale        Shape1      Bov      Str1      Str2      Str3   Strain-Model
 0.73923E-08   0.22250   0.00000   0.00000   0.00000   0.00000       0
  1101.00000   461.000     0.000     0.000     0.000     0.000
!       U         V          W           X       Y    GauSiz  LorSiz Size-Model
   0.002000   0.000048   0.000109   0.000000   0.000000 0.000000 0.000000   0
      0.000    481.000    471.000      0.000      0.000      0.000      0.000
!     a          b         c        alpha      beta       gamma      #Cell Info
   9.156407   9.156407   9.156407  90.000000  90.000000  90.000000   
  491.00000  491.00000  491.00000    0.00000    0.00000    0.00000
!  Pref1    Pref2      Asy1     Asy2     Asy3     Asy4  
  1.00000  0.00000  0.02577  0.01178  0.00000  0.00000
     0.00     0.00   501.00   511.00     0.00     0.00
!-------------------------------------------------------------------------------
!  Data for PHASE number:   3  ==> Current R_Bragg for Pattern#  1:    12.44
!-------------------------------------------------------------------------------
 ZrO2
!
!Nat Dis Ang Pr1 Pr2 Pr3 Jbt Irf Isy Str Furth       ATZ    Nvk Npr More
   2   0   0 0.0 0.0 1.0   0   0   0   0   0        767.130   0   5   0
!
P 42/N M C               <--Space group symbol
!Atom   Typ       X        Y        Z     Biso       Occ   n Fin N_t Spc /Codes
Zr1    Zr      0.75000  0.25000  0.75000  0.87887   1.00000   0   0   0    0  
                  0.00     0.00     0.00  1131.00      0.00
O1     O       0.25000  0.25000  0.43930  0.87887   2.00000   0   0   0    0  
                  0.00     0.00  1121.00  1131.00      0.00
!-------> Profile Parameters for Pattern #  1
!  Scale        Shape1      Bov      Str1      Str2      Str3   Strain-Model
 0.39701E-06   0.64782   0.00000   0.00000   0.00000   0.00000       0
    11.00000   541.000     0.000     0.000     0.000     0.000
!       U         V          W           X      Y    GauSiz   LorSiz Size-Model
   0.002000   0.000230   0.000076   0.000000   0.000000 0.000000  0.000000    0
      0.000      0.000    551.000      0.000      0.000      0.000      0.000
!     a          b         c        alpha      beta       gamma      #Cell Info
   3.612633   3.612633   5.221054  90.000000  90.000000  90.000000   
  521.00000  521.00000  531.00000    0.00000    0.00000    0.00000
!  Pref1    Pref2      Asy1     Asy2     Asy3     Asy4  
  1.00000  0.00000  0.00000  0.00000  0.00000  0.00000
     0.00     0.00     0.00     0.00     0.00     0.00
!-------------------------------------------------------------------------------
!  Data for PHASE number:   4  ==> Current R_Bragg for Pattern#  1:    46.81
!-------------------------------------------------------------------------------
 phase 4:
!
!Nat Dis Ang Pr1 Pr2 Pr3 Jbt Irf Isy Str Furth       ATZ    Nvk Npr More
   3   0   0 0.0 0.0 1.0   0   0   0   0   0        566.813   0   5   0
!
P 21/C                   <--Space group symbol
!Atom   Typ       X        Y        Z     Biso     Occ     In Fin N_t Spc /Codes
ZR     Zr      0.27530  0.03990  0.20910  4.00000   1.00000   0   0   0    0  
                  0.00     0.00     0.00     0.00      0.00
O1     O       0.06800  0.32900  0.34200  6.00000   1.00000   0   0   0    0  
                  0.00     0.00     0.00     0.00      0.00
O2     O       0.44900  0.75990  0.47800  6.00000   1.00000   0   0   0    0  
                  0.00     0.00     0.00     0.00      0.00
!-------> Profile Parameters for Pattern #  1
!  Scale        Shape1      Bov      Str1      Str2      Str3   Strain-Model
 0.50881E-05   0.59829   0.00000   0.00000   0.00000   0.00000       0
  1111.00000     0.000     0.000     0.000     0.000     0.000
!       U         V          W           X     Y   GauSiz   LorSiz Size-Model
   0.003000   0.007116   0.000116   0.000000 0.000000 0.000000 0.000000    0
      0.000      0.000      0.000      0.000      0.000      0.000      0.000
!     a          b         c        alpha      beta     gamma    #Cell Info
   5.165400   5.213856   5.343107  90.000000  99.080994  90.000000   
 1141.00000 1151.00000 1161.00000    0.00000 1171.00000    0.00000
!  Pref1    Pref2      Asy1     Asy2     Asy3     Asy4  
  1.00000  0.00000  0.03897 -0.00423  0.00000  0.00000
     0.00     0.00     0.00     0.00     0.00     0.00
!  2Th1/TOF1    2Th2/TOF2  Pattern # 1
       1.500      49.500       1



Powder pattern, .dat file

   1.50000   0.00100   50.00000
      266       268       271       270       268       268       265       265
      263       260       253       254       252       251       253       256
      258       256       255       256       256       258       258       259
      257       258       258       260       260       261       262       262
      259       258       259       256       254       252       249       252
      254       257       257       260       261       263       263       264
      264       259       257       256       254       254       247       244
      243       242       244       250       253       257       260       261
      260       259       257       251       246       247       247       246
      251       257       258       264       265       265       261       260
      257       252       250       248       246       245       245       245
      246       247       248       251       253       254       255       256
      255       253       253       252       249       248       249       253
      253       255       255       257       256       255       252       250
      251       251       249       249       252       255       253       253
      252       252       251       249       248       252       253       254
      253       254       253       251       250       247       248       247
      248       250       250       254       256       259       260       262
      261       262       265       262       260       256       255       255
      252       255       258       258       256       255       255       256
      257       251       247       246       246       248       250       254
      255       254       254       252       250       249       251       246
      245       246       250       254       258       259       259       260
      259       255       252       248       249       250       252       253
      256       260       261       260       257       259       259       258
      257       254       257       259       255       257       259       261
      259       259       258       260       258       259       261       262
      262       261       260       261       260       260       260       261
      260       259       256       255       257       252       249       251
      250       248       250       253       253       254       257       255
      251       249       247       244       246       250       251       251
      255       256       255       255       258       257       255       254
      253       256       256       259       260       262       261       258
      258       257       260       260       257       252       249       249
      249       253       254       256       254       256       258       257
      258       256       253       250       252       255       257       257
      259       260       260       262       259       258       259       256
      253       252       253       251       248       247       252       252
      253       255       256       261       263       262       263       265
      264       261       258       252       249       244       243       243
      243       247       246       245       248       248       249       248
      246       243       243       241       244       245       247       248
      246       247       249       248       250       253       255       255
      256       255       256       255       253       254       252       250
      246       243       242       244       245       247       248       250
      251       250       250       251       251       251       249       250
      248       245       245       245       242       242       240       238
      239       239       244       245       246       248       248       249
      250       251       251       253       250       250       252       252
      253       255       253       253       254       253       248       246
      244       241       237       239       240       240       243       248
      249       253       255       256       255       253       253       253
      252       250       249       246       247       245       240       239
      237       237       237       236       238       240       239       239
      240       240       243       241       241       243       244       243
      242       242       245       250       250       249       247       248
      247       244       242       242       241       237       239       241
      243       244       243       244       239       238       233       232
      231       234       236       238       242       242       242       245
      247       248       246       247       243       243       243       245
      244       245       247       247       248       248       250       250
      249       249       245       244       241       240       235       234
      236       234       234       237       241       245       247       250
      249       250       249       248       244       243       240       236
      239       240       240       241       240       240       234       233
      235       236       237       238       237       241       244       243
      242       243       240       235       231       234       234       235
      235       237       238       244       245       246       251       252
      251       250       251       248       247       246       246       247
      248       250       251       250       250       247       244       239
      235       231       229       225       226       227       228       231
      234       234       233       235       235       236       236       238
      239       235       234       235       235       236       234       234
      234       234       234       233       235       235       235       231
      234       236       236       238       238       242       241       240
      240       240       245       244       243       243       242       241
      239       236       235       235       233       236       237       238
      241       239       237       236       235       237       235       232
      234       232       233       235       234       232       233       231
      227       224       224       225       226       225       228       228
      230       232       235       238       243       244       242       241
      239       239       238       235       233       232       233       234
      236       238       237       238       237       236       233       229
      226       225       227       229       229       228       228       228
      226       228       230       230       230       229       228       232
      233       230       228       230       234       234       235       237
      242       244       244       246       245       244       242       236
      235       232       230       227       226       224       221       221
      221       226       228       230       231       233       237       234
      234       234       235       233       231       234       236       234
      232       231       231       234       233       229       227       226
      225       222       223       223       221       220       221       222
      227       229       227       228       229       228       226       223
      223       222       222       224       225       227       228       229
      232       235       235       233       230       227       227       227
      225       225       224       223       221       225       226       225
      225       224       223       223       225       225       223       226
      223       224       223       226       224       219       218       216
      217       217       218       222       227       230       229       230
      228       230       228       226       232       232       232       231
      230       229       228       226       225       224       225       227
      226       230       236       235       234       233       229       225
      224       223       222       219       219       218       220       222
      225       224       227       228       229       226       226       223
      221       221       220       219       218       217       216       216
      220       223       223       222       222       219       220       222
      222       225       224       223       223       223       221       221
      218       216       212       211       217       221       224       228
      229       227       226       225       223       223       221       222
      220       222       223       219       219       221       221       217
      213       213       214       214       216       221       221       221
      220       219       218       220       216       213       213       213
      214       214       218       223       223       222       218       216
      215       214       211       209       211       210       210       210
      211       211       210       209       210       214       214       216
      217       219       220       220       217       216       214       215
      215       214       214       214       216       219       224       226
      226       225       225       224       224       226       224       220
      219       219       216       214       215       213       214       213
      212       211       212       215       216       215       218       216
      214       218       219       222       224       222       221       219
      218       218       216       216       214       212       218       225
      227       228       226       224       223       219       215       214
      210       209       205       205       208       209       210       210
      211       214       216       217       219       223       223       223
      218       215       214       215       216       215       217       215
      213       211       211       212       208       203       199       199
      201       203       205       206       213       212       210       211
      211       212       211       208       207       207       207       209
      213       214       218       216       216       218       218       222
      219       214       212       211       210       209       207       205
      202       204       204       205       207       209       207       208
      212       215       216       215       218       218       216       215
      211       211       208       207       206       208       210       207
      206       206       208       209       208       206       205       206
      208       212       213       214       213       211       210       209
      211       209       205       201       198       199       200       202
      201       201       201       204       204       205       203       203
      205       206       208       207       208       208       206       205
      205       206       207       207       209       215       219       220
      223       222       223       217       215       214       211       211
      208       205       204       201       199       199       200       200
      202       205       210       213       216       217       215       214
      213       213       212       214       213       213       215       214
      213       211       211       208       207       207       209       212
      214       218       216       215       217       213       212       208
      204       203       203       204       206       208       208       207
      206       210       212       210       209       208       208       208
      212       212       213       211       209       210       211       216
      216       214       212       211       210       208       209       203
      202       198       197       197       197       201       206       208
      208       212       214       213       214       213       216       215
      215       212       211       211       212       209       207       206
      206       204       203       201       200       196       196       195
      197       195       195       195       197       197       198       196
      196       197       198       200       202       207       208       207
      208       210       212       212       210       211       212       214
      215       212       209       211       207       206       205       207
      209       210       209       209       208       209       207       204
      202       203       200       196       197       197       201       203
      202       200       202       203       203       204       207       206
      202       199       200       199       199       194       194       194
      196       197       197       203       204       202       200       201
      202       199       194       192       197       197       199       203
      204       208       208       206       205       205       204       202
      200       201       198       199       200       203       200       201
      203       201       202       203       204       203       205       203
      200       201       197       196       192       191       189       188
      189       189       191       192       194       192       193       195
      195       195       193       193       191       194       198       200
      201       199       193       194       195       199       199       197
      196       195       193       195       195       196       195       194
      194       197       197       200       200       201       201       197
      194       191       188       185       184       184       185       186
      188       190       193       198       197       196       196       194
      191       189       189       189       189       188       188       188
      189       193       194       196       197       196       195       193
      194       193       193       192       192       194       195       198
      199       198       198       197       197       195       194       193
      191       191       191       193       193       193       196       195
      198       199       202       200       199       197       195       196
      193       194       195       196       198       196       197       198
      199       199       199       197       194       194       192       192
      190       190       190       189       188       187       189       190
      191       188       186       187       185       186       187       190
      190       191       189       187       188       188       187       187
      188       190       190       190       188       188       186       185
      183       181       180       182       183       190       192       193
      192       193       191       190       191       190       189       190
      189       188       189       189       188       187       187       187
      184       184       187       186       187       191       191       189
      193       193       194       194       191       189       189       188
      188       185       185       186       187       188       189       188
      188       190       190       192       192       190       190       187
      186       187       185       181       180       182       182       183
      183       184       183       184       186       183       184       185
      182       183       185       187       186       185       187       186
      189       188       186       184       185       185       182       182
      182       181       178       180       182       182       183       183
      187       191       194       192       192       190       188       183
      181       180       179       179       179       184       188       190
      190       189       189       187       186       184       182       182
      182       181       180       181       179       178       177       176
      176       176       178       182       185       187       188       187
      188       189       186       186       184       181       181       180
      180       181       179       177       178       176       178       180
      182       185       188       187       186       185       184       182
      180       178       177       178       182       184       186       187
      187       185       185       187       188       188       187       187
      188       189       188       183       180       177       176       174
      172       170       171       170       171       176       179       179
      178       178       180       181       180       180       180       179
      182       180       180       185       184       185       185       188
      190       188       186       186       183       181       179       175
      175       177       177       181       183       187       187       186
      186       182       180       182       179       177       176       175
      174       173       172       172       174       177       180       180
      184       186       184       184       184       184       182       180
      179       179       177       177       178       177       177       175
      172       169       169       171       171       169       169       171
      171       174       174       174       174       172       171       171
      173       174       174       172       174       173       173       174
      173       172       172       171       172       173       175       174
      175       173       174       173       179       182       185       182
      183       183       184       182       180       180       178       175
      174       173       175       176       176       175       177       178
      179       177       178       179       174       172       171       169
      167       169       170       169       170       174       176       180
      181       182       181       182       181       179       176       178
      173       171       169       169       168       168       169       170
      169       168       166       168       169       173       173       176
      173       175       173       174       174       170       166       165
      163       166       167       169       171       174       173       174
      171       169       166       164       161       163       165       168
      172       177       184       188       190       191       189       185
      182       176       173       170       167       166       165       165
      165       164       165       168       167       166       167       166
      166       166       168       168       167       169       171       172
      174       175       176       176       174       171       168       167
      166       164       164       170       170       168       169       169
      171       168       166       166       166       167       167       168
      170       172       169       168       168       166       164       161
      161       162       162       163       162       164       165       164
      167       170       171       171       172       175       178       179
      178       178       177       176       175       171       171       169
      166       163       161       163       166       165       167       168
      169       173       177       179       180       182       183       179
      179       179       179       176       175       173       172       173
      174       173       170       169       170       169       167       169
      174       175       175       175       175       176       174       171
      168       166       164       162       162       165       166       166
      165       167       169       167       165       165       163       163
      161       163       166       165       165       165       165       167
      166       166       166       166       166       169       168       170
      170       170       169       167       166       167       167       169
      169       168       166       165       163       163       162       162
      161       162       163       164       162       164       166       164
      162       162       159       161       163       163       165       168
      170       171       171       174       176       175       175       177
      174       177       177       176       177       178       179       176
      176       174       172       168       166       167       167       168
      167       167       167       165       166       167       167       165
      164       161       162       162       164       164       163       162
      160       161       162       163       162       163       165       165
      168       169       170       171       171       167       167       165
      164       163       161       157       157       158       160       158
      158       157       155       154       156       157       158       161
      161       160       162       163       163       163       165       164
      165       168       169       170       171       174       172       170
      165       163       163       164       164       165       166       167
      166       167       168       167       165       161       157       158
      159       160       163       164       164       166       166       167
      167       164       162       162       162       164       165       165
      168       165       166       164       163       163       163       163
      164       165       166       167       168       167       169       168
      168       167       168       168       167       167       163       161
      161       160       158       155       157       156       156       158
      159       162       163       166       167       166       168       168
      168       168       167       166       165       163       160       159
      155       155       153       151       153       155       157       160
      162       161       162       163       163       161       159       158
      159       162       164       164       165       166       165       161
      163       163       160       158       156       153       154       158
      160       162       165       167       169       169       172       171
      169       168       165       163       162       165       166       165
      162       165       165       167       168       165       164       163
      163       163       161       161       158       154       153       156
      157       158       159       157       159       158       158       157
      156       155       155       157       157       158       160       159
      156       155       155       154       154       153       152       155
      155       156       156       157       158       156       156       158
      160       162       161       161       160       162       160       159
      159       159       157       155       156       157       157       157
      156       159       161       163       165       166       164       164
      164       164       164       162       160       159       158       160
      160       160       162       164       162       166       170       170
      169       169       165       163       159       157       157       156
      156       156       157       160       162       161       161       162
      159       158       155       159       161       159       158       157
      159       159       160       160       159       160       159       157
      157       160       159       158       156       156       155       153
      154       155       154       157       159       160       162       166
      168       167       165       161       158       159       160       157
      158       159       159       159       158       159       159       157
      156       156       160       163       165       164       167       167
      165       162       159       157       154       153       151       150
      154       156       159       161       163       164       166       167
      166       165       164       164       161       159       160       161
      163       160       160       161       163       165       166       166
      166       162       158       157       158       161       161       163
      166       170       174       176       175       175       170       163
      156       155       152       151       150       151       153       156
      157       160       164       165       162       162       160       161
      159       159       156       152       150       151       152       152
      154       153       153       154       154       155       155       154
      154       152       153       155       155       155       159       159
      156       156       157       157       156       156       155       154
      155       154       155       155       158       157       154       154
      156       155       155       156       155       154       153       153
      155       156       161       161       159       157       160       160
      161       161       159       158       155       155       155       156
      157       154       150       151       152       151       153       154
      154       156       153       154       155       155       155       154
      152       154       152       150       151       150       151       152
      150       152       152       152       151       148       147       148
      148       148       150       152       153       152       152       152
      151       152       150       148       151       150       151       153
      156       155       156       155       155       154       152       149
      148       149       150       150       153       157       159       161
      160       159       157       155       152       151       152       152
      153       156       158       159       160       161       157       156
      151       149       148       146       147       147       151       152
      154       156       158       160       159       159       156       155
      153       153       153       152       153       148       148       150
      150       151       152       152       154       156       158       158
      156       155       153       147       147       146       145       142
      142       145       146       147       148       147       148       150
      151       152       153       157       159       159       162       163
      163       159       154       151       149       150       148       147
      147       151       154       152       154       154       155       149
      149       149       148       148       147       148       148       147
      146       141       139       139       137       137       139       142
      146       150       155       158       156       157       158       157
      158       156       153       153       153       153       155       155
      157       156       153       151       149       148       149       148
      150       151       153       153       158       160       162       161
      158       156       155       156       155       157       158       156
      155       155       157       158       155       156       153       152
      149       146       143       144       145       146       148       149
      151       153       151       154       153       151       150       152
      151       154       156       160       162       159       158       157
      156       154       153       151       152       152       150       152
      151       151       150       147       148       146       147       145
      148       151       153       156       158       159       157       159
      159       157       154       150       148       145       146       146
      145       144       142       144       146       149       150       149
      149       150       152       151       150       151       152       149
      148       149       150       150       151       153       155       157
      158       155       156       158       156       153       152       150
      148       146       147       147       146       147       147       146
      147       149       149       150       152       150       150       151
      150       149       149       152       152       151       149       148
      145       144       143       139       141       139       140       142
      144       148       149       149       148       147       146       148
      147       145       147       147       147       150       152       155
      155       156       156       153       152       153       153       151
      151       149       145       147       144       146       147       146
      148       148       150       152       153       152       150       150
      151       150       150       153       153       151       152       151
      147       145       144       142       143       145       147       149
      153       158       158       160       159       158       156       153
      151       149       148       146       145       146       147       149
      150       153       152       152       150       149       150       151
      150       149       148       145       145       145       147       148
      147       149       151       154       155       155       152       150
      148       146       147       148       149       150       151       153
      156       156       156       154       150       147       145       143
      140       140       139       140       140       143       149       151
      152       152       152       151       151       149       148       149
      148       148       149       154       155       153       153       151
      150       147       146       147       147       147       145       146
      148       148       149       150       149       148       148       147
      145       145       144       142       142       142       142       144
      145       144       142       146       148       149       148       148
      149       148       151       149       150       150       151       151
      150       151       148       149       147       147       146       144
      142       142       143       143       145       145       146       145
      146       149       149       150       150       149       148       149
      149       150       152       152       153       153       153       153
      152       152       148       147       147       146       145       143
      145       145       146       146       146       149       151       150
      150       152       149       146       143       141       144       145
      147       149       150       151       151       148       149       146
      144       146       145       145       147       149       149       147
      148       145       143       140       139       140       141       140
      137       134       133       133       134       138       140       141
      144       145       146       145       145       144       144       144
      144       147       150       154       155       156       157       156
      155       153       151       150       149       149       150       151
      151       153       152       151       151       151       151       150
      149       148       148       149       149       147       145       145
      140       138       138       137       141       143       145       148
      150       150       151       152       152       153       150       150
      149       150       149       147       146       144       142       140
      140       142       143       144       144       145       145       148
      146       146       146       144       143       142       141       141
      138       138       138       140       142       143       143       145
      144       146       146       147       147       147       144       143
      145       146       145       145       144       146       146       148
      147       148       148       149       150       152       156       153
      154       152       151       151       150       151       149       147
      148       150       153       153       154       153       155       154
      152       151       152       153       152       150       152       152
      152       151       152       152       152       149       147       145
      148       150       151       151       154       153       152       151
      152       150       148       146       147       145       147       147
      147       147       149       148       148       147       148       149
      151       154       154       154       155       155       156       153
      152       151       147       144       146       149       150       149
      149       150       149       149       150       148       147       144
      139       140       141       139       139       140       140       140
      144       146       147       147       148       145       145       146
      144       141       140       141       141       142       144       143
      143       144       146       147       150       148       147       147
      149       151       149       148       147       145       145       146
      147       151       151       150       152       152       154       152
      149       147       144       141       141       140       139       142
      142       144       146       145       146       147       145       144
      143       142       142       143       143       145       145       144
      143       141       140       139       137       137       139       142
      148       152       153       154       152       151       150       149
      147       144       144       141       140       140       143       144
      144       144       143       146       146       147       147       149
      149       146       145       142       143       142       140       139
      140       140       139       142       146       150       152       155
      158       160       164       169       175       181       188       191
      199       208       217       227       236       247       254       261
      270       285       299       308       317       329       349       376
      412       444       473       496       507       509       505       488
      465       431       395       363       335       315       297       275
      255       236       217       199       184       174       170       164
      159       158       157       155       153       151       149       148
      145       144       147       149       149       149       151       151
      147       146       148       150       151       152       151       150
      151       152       153       154       154       151       150       149
      150       152       151       151       150       148       148       148
      148       148       149       149       151       150       152       152
      150       150       150       150       149       145       143       144
      145       145       149       150       152       151       149       149
      149       147       145       142       143       146       145       145
      148       147       147       146       145       145       143       143
      143       142       142       141       139       140       142       141
      144       145       145       146       150       151       149       147
      145       144       143       145       146       143       142       142
      142       145       149       151       151       151       150       152
      150       151       150       146       142       139       139       141
      145       148       148       151       154       155       153       151
      151       149       145       144       144       146       146       146
      145       145       144       139       138       137       137       135
      135       138       141       143       144       144       144       142
      140       137       138       138       138       137       138       140
      142       144       147       146       146       144       144       142
      143       142       140       137       135       137       138       142
      142       141       143       144       145       142       142       142
      140       140       142       145       147       151       150       151
      153       153       151       148       146       145       140       138
      135       132       131       131       129       128       130       132
      135       136       137       139       140       141       143       146
      146       145       145       143       144       144       144       142
      141       139       141       142       144       144       141       142
      142       140       141       142       141       143       144       143
      144       145       144       146       145       146       146       144
      143       143       143       143       142       138       137       138
      139       143       144       146       148       146       144       143
      143       142       144       144       146       145       147       147
      148       148       147       145       142       141       139       140
      142       140       140       140       139       138       137       137
      140       140       140       138       139       140       141       139
      142       145       145       143       144       147       149       147
      145       143       143       143       140       137       139       139
      139       139       141       140       139       139       139       139
      139       140       139       139       141       142       144       144
      145       144       146       147       146       146       146       146
      144       143       144       147       146       144       145       145
      143       140       139       137       137       137       136       136
      140       141       143       141       142       142       140       141
      144       143       144       143       141       139       139       140
      141       138       138       137       139       144       146       145
      144       143       142       141       140       140       140       141
      140       140       140       142       143       143       141       140
      143       143       144       144       143       143       142       144
      143       144       145       144       143       143       146       145
      146       144       141       141       141       143       142       142
      141       144       144       143       144       145       146       146
      145       144       142       142       143       144       145       147
      147       147       148       148       147       146       145       143
      141       141       141       142       140       140       141       143
      145       145       143       142       143       143       142       143
      142       143       142       140       140       142       143       141
      139       140       141       141       141       144       144       143
      139       137       137       139       138       137       138       138
      139       141       143       145       146       146       143       143
      143       144       141       140       141       139       140       141
      140       140       139       139       139       139       139       139
      139       139       140       140       143       145       144       145
      146       149       149       147       148       148       145       143
      141       140       140       138       136       138       137       139
      139       140       140       140       140       139       139       139
      139       137       139       142       144       143       147       150
      149       148       150       150       152       152       151       151
      153       151       149       147       147       143       139       137
      139       139       138       135       137       139       137       135
      136       138       137       138       142       144       145       145
      144       144       143       137       133       131       130       129
      128       129       131       134       139       142       145       148
      150       150       152       156       153       150       146       142
      141       140       140       137       136       138       140       142
      147       151       149       150       151       152       152       148
      145       142       139       139       139       139       138       137
      137       138       140       139       138       135       134       136
      138       140       141       145       147       149       151       150
      150       146       145       143       142       140       140       140
      139       141       142       142       140       139       139       141
      143       141       140       141       142       141       139       142
      141       139       139       142       145       149       150       148
      145       145       144       141       142       145       144       143
      145       146       148       151       150       146       145       141
      141       139       138       136       135       135       135       139
      142       143       142       142       144       142       144       143
      142       143       142       144       145       147       147       147
      147       146       145       145       146       146       147       147
      147       148       146       146       147       146       145       142
      142       143       144       145       146       146       147       144
      141       140       140       136       134       133       134       137
      138       140       142       144       143       142       142       142
      141       139       139       136       136       138       140       142
      143       144       141       141       139       137       136       136
      134       136       137       139       142       143       145       145
      143       143       142       140       140       140       143       146
      145       147       148       149       151       153       152       154
      152       149       147       146       145       140       138       138
      137       138       136       139       140       142       144       146
      147       148       147       147       148       149       148       148
      145       147       148       150       152       150       149       146
      143       141       141       140       140       140       141       143
      147       149       150       152       152       149       148       145
      144       143       143       142       142       142       142       145
      149       148       146       143       142       139       136       134
      133       133       134       134       136       138       140       140
      142       144       145       143       140       140       141       141
      141       140       140       140       143       145       145       147
      147       144       142       142       139       139       137       137
      138       140       143       143       141       141       141       143
      141       142       142       144       145       146       146       146
      146       143       141       141       141       142       141       142
      141       141       140       138       137       137       138       140
      144       147       147       148       151       151       150       150
      146       144       142       141       140       143       142       141
      139       138       138       139       139       139       139       139
      140       141       142       145       145       146       146       146
      145       145       143       142       141       139       137       136
      136       136       135       136       139       140       140       140
      139       140       142       141       141       139       138       137
      137       137       140       140       139       139       140       142
      143       143       143       143       142       142       141       139
      140       140       138       139       140       141       143       144
      145       144       141       142       140       139       140       143
      142       143       144       147       148       148       148       147
      146       146       144       144       143       143       139       137
      136       135       135       137       138       140       139       139
      141       144       146       148       146       144       145       145
      144       144       142       140       139       140       144       147
      149       150       150       151       155       155       153       152
      150       149       148       147       146       145       142       142
      141       143       146       146       144       146       146       147
      147       145       145       145       146       146       144       145
      144       143       141       142       141       143       143       143
      143       143       143       142       141       144       144       143
      144       143       142       143       144       141       141       142
      142       142       142       143       143       142       142       141
      142       144       144       143       146       147       147       146
      146       145       144       142       140       139       141       141
      140       143       146       145       146       147       148       148
      147       145       144       145       145       142       143       145
      143       138       137       137       136       135       137       139
      139       138       137       138       141       142       140       140
      139       139       142       143       142       142       142       141
      141       141       141       142       142       142       142       143
      143       141       140       140       142       142       142       143
      143       143       144       145       146       146       145       145
      146       146       148       148       148       144       142       140
      141       142       143       143       145       146       147       147
      148       147       146       143       142       141       141       143
      144       145       147       147       148       147       148       149
      149       149       148       148       146       148       147       147
      146       145       143       140       139       140       137       140
      141       142       141       143       142       143       147       148
      148       143       140       139       136       140       140       141
      140       141       141       143       146       148       150       148
      148       148       147       149       149       148       146       146
      145       144       145       150       153       153       153       152
      150       149       147       145       143       142       141       138
      138       138       137       136       135       137       138       138
      142       143       145       147       150       150       149       147
      145       143       143       142       140       138       137       135
      139       144       148       151       150       151       152       154
      156       152       150       146       142       140       143       142
      142       141       140       141       143       145       144       143
      145       142       144       144       143       141       143       146
      148       148       149       147       146       147       145       143
      144       143       141       142       145       145       143       144
      142       141       143       145       145       147       150       150
      150       149       149       146       146       146       145       145
      149       150       150       151       151       149       146       143
      142       140       140       140       140       141       143       143
      143       146       146       146       145       144       145       146
      147       148       149       148       146       146       145       145
      144       144       144       145       147       145       144       144
      143       139       139       140       140       140       140       143
      145       146       147       147       146       145       145       145
      145       147       146       146       144       146       145       145
      145       144       141       139       140       139       140       143
      142       144       143       146       146       145       144       142
      141       141       143       141       144       145       145       148
      149       152       152       152       151       151       148       146
      141       139       140       140       141       144       147       150
      154       152       150       147       140       137       132       131
      131       132       132       136       138       140       139       136
      136       137       138       139       141       144       150       152
      154       156       154       151       146       143       141       138
      135       133       132       132       134       133       137       141
      144       145       147       146       145       146       145       143
      142       142       143       144       146       145       146       145
      145       144       143       146       146       147       148       148
      147       146       145       144       145       146       148       150
      151       153       154       154       153       150       148       146
      144       144       141       139       139       140       140       140
      138       140       142       144       148       149       152       154
      150       146       146       146       143       141       137       138
      138       141       142       142       145       148       145       145
      147       147       146       148       146       146       148       149
      147       148       151       151       149       146       147       148
      150       150       150       150       153       151       152       152
      150       150       149       149       150       152       150       148
      146       143       143       141       143       142       144       147
      149       148       151       154       154       154       152       150
      149       149       150       149       148       147       145       144
      145       146       147       147       145       145       147       146
      145       144       141       140       139       141       142       145
      146       148       147       150       150       147       146       144
      143       140       140       143       144       144       147       150
      150       152       152       152       152       149       150       148
      150       149       146       145       148       147       146       146
      148       146       147       147       149       150       151       148
      148       149       149       148       149       148       149       149
      149       149       150       153       152       152       152       152
      151       152       152       152       152       153       152       152
      152       150       145       145       145       144       144       145
      144       147       147       147       147       146       142       137
      135       136       139       139       139       142       142       146
      148       149       153       154       153       152       151       150
      148       143       139       136       135       135       137       140
      142       146       149       151       151       150       147       145
      142       140       140       139       140       141       141       143
      143       141       140       140       140       142       145       145
      145       145       147       150       150       151       151       151
      156       157       157       156       157       153       152       151
      150       150       148       148       148       148       149       145
      144       143       142       141       144       148       148       145
      143       143       142       140       140       138       140       140
      143       144       147       150       148       150       151       150
      149       147       147       146       147       147       145       143
      142       142       143       145       147       146       146       146
      146       148       150       148       147       148       148       148
      149       148       149       147       144       142       142       146
      148       147       149       150       151       151       154       155
      156       153       152       154       155       155       153       148
      147       146       145       145       146       145       146       143
      146       149       148       146       147       147       150       152
      150       150       151       152       152       152       155       156
      155       152       155       154       154       151       149       149
      149       145       146       150       151       150       149       148
      151       153       150       149       149       146       142       139
      141       143       144       143       144       146       149       149
      148       149       149       148       146       146       146       145
      145       146       146       150       150       149       149       152
      155       154       150       149       148       145       146       147
      149       150       146       147       150       154       154       150
      150       152       151       150       153       155       159       158
      157       158       157       155       151       146       145       144
      144       144       146       148       149       149       150       151
      152       151       149       148       149       150       153       153
      154       154       154       153       152       154       154       151
      149       147       144       143       145       143       143       145
      147       145       149       155       155       155       152       150
      147       145       145       143       142       143       141       139
      141       145       146       149       150       151       150       149
      154       153       152       151       147       146       144       145
      144       144       142       141       139       141       145       144
      144       144       144       143       141       140       141       140
      140       139       140       144       145       147       151       155
      157       156       157       156       155       155       156       154
      153       152       150       152       154       152       151       151
      152       150       150       152       153       152       149       148
      149       151       149       150       153       155       154       154
      153       152       152       152       153       153       153       153
      153       157       157       155       154       155       153       152
      154       156       156       152       149       145       145       146
      144       142       144       146       147       146       150       152
      153       155       155       157       159       158       156       154
      154       151       147       144       142       138       140       143
      145       147       149       151       152       153       156       157
      156       157       155       153       153       154       154       149
      150       149       148       146       145       143       142       142
      143       146       147       152       151       149       152       151
      152       153       152       153       153       154       156       158
      161       164       162       161       162       160       159       159
      156       155       152       149       143       142       143       143
      143       143       146       147       149       150       151       153
      155       156       154       156       161       164       165       163
      162       160       157       157       158       156       158       157
      155       157       159       158       155       153       153       155
      154       153       153       153       154       155       154       155
      156       155       155       157       159       156       151       149
      149       150       150       150       150       153       155       157
      159       161       164       163       163       160       159       155
      150       147       145       144       143       144       146       147
      151       154       154       154       156       156       157       158
      158       158       158       159       155       153       152       151
      150       150       151       152       153       156       159       161
      163       163       160       159       157       158       157       155
      154       152       151       151       149       149       150       147
      146       147       147       149       150       151       150       151
      150       147       147       147       146       143       143       143
      143       141       142       145       147       150       153       153
      152       152       151       150       152       153       152       150
      152       155       155       155       155       151       149       148
      146       148       148       148       148       151       153       155
      154       156       157       157       157       155       156       157
      156       158       160       162       162       162       161       161
      158       157       155       154       153       155       157       157
      159       158       159       159       159       159       158       157
      158       159       161       162       160       158       157       155
      156       157       156       155       152       153       155       157
      157       156       153       153       153       156       159       158
      159       160       160       162       160       160       159       158
      154       152       150       148       150       150       152       153
      152       151       151       153       154       154       154       154
      154       155       158       159       158       156       152       150
      153       153       151       150       151       151       154       156
      156       156       156       155       154       156       158       157
      154       154       154       155       155       154       152       150
      150       152       153       154       154       156       156       157
      157       158       157       158       156       159       161       164
      168       170       175       179       184       185       188       190
      186       186       184       182       176       173       171       168
      164       163       165       165       167       164       161       161
      159       156       153       154       152       150       148       151
      153       151       151       149       150       153       154       156
      156       157       155       155       154       154       151       148
      150       153       156       159       159       159       160       160
      158       158       155       153       152       152       155       154
      153       156       157       160       161       161       162       162
      161       161       161       160       159       155       157       159
      158       158       155       156       156       156       156       157
      157       158       158       158       159       159       159       159
      156       159       160       160       160       161       160       158
      158       157       153       151       151       153       154       156
      156       159       163       165       167       167       166       164
      162       160       160       155       152       150       150       152
      152       151       149       147       148       151       153       154
      154       153       154       157       159       159       159       156
      155       156       155       158       157       157       156       156
      155       160       162       163       164       163       164       163
      159       157       153       153       152       152       153       155
      157       158       162       165       168       168       166       165
      163       162       160       155       155       156       155       156
      159       163       166       166       168       168       166       164
      160       158       158       154       153       154       159       163
      165       166       171       173       174       173       169       168
      163       160       161       161       159       157       155       156
      158       161       164       166       168       170       170       174
      173       168       164       162       160       160       157       157
      158       159       161       162       164       166       164       162
      160       159       162       161       161       164       165       167
      168       170       171       172       167       163       160       159
      160       159       161       163       163       163       161       161
      160       158       154       153       151       153       154       156
      160       161       164       165       164       166       167       166
      166       164       161       163       163       167       165       164
      165       164       163       165       165       162       164       165
      166       169       172       173       172       170       172       171
      170       169       167       167       170       169       169       170
      169       169       170       167       166       167       167       168
      169       169       165       162       159       155       153       151
      151       151       152       154       156       160       163       163
      163       163       163       163       165       165       167       167
      166       162       165       166       166       165       164       163
      163       162       162       162       165       166       169       170
      171       169       168       169       167       164       163       162
      160       158       159       156       155       152       148       151
      154       159       160       165       170       173       176       176
      176       173       171       169       166       169       167       168
      166       166       165       165       168       169       169       167
      166       165       167       168       167       167       166       165
      166       170       172       173       171       167       168       166
      166       165       165       167       169       170       174       178
      178       178       181       183       185       186       189       190
      192       197       200       200       199       198       195       191
      190       187       181       176       170       165       165       170
      172       172       171       169       171       171       173       176
      175       172       170       170       174       177       175       171
      168       166       165       165       164       166       167       166
      167       171       170       171       170       168       167       169
      169       169       169       172       174       176       177       178
      174       172       169       166       163       164       162       162
      164       166       168       169       169       170       169       169
      168       166       165       165       165       166       163       162
      161       159       157       158       158       155       156       158
      160       163       167       168       170       175       177       179
      177       177       174       174       174       173       171       172
      174       177       181       182       184       186       185       184
      182       181       175       173       170       172       175       178
      182       186       191       195       199       205       211       227
      247       293       343       410       495       591       707       836
      975      1124      1301      1494      1702      1965      2242      2533
     2790      3003      3147      3214      3217      3142      2991      2802
     2588      2364      2155      1980      1810      1645      1471      1286
     1101       924       761       605       469       371       293       250
      222       208       202       196       192       192       190       189
      186       183       182       182       179       178       176       177
      174       175       177       177       178       181       181       182
      183       183       180       178       178       177       177       178
      178       174       173       172       171       172       172       172
      174       176       181       182       182       183       178       174
      173       171       171       170       170       171       175       179
      184       185       187       188       186       185       183       180
      176       172       168       169       170       171       171       172
      172       174       175       177       176       177       175       175
      176       178       177       174       170       173       172       175
      178       179       179       180       178       177       175       174
      175       173       174       179       180       180       181       179
      178       178       178       177       177       179       178       175
      175       176       174       171       171       172       172       175
      175       176       178       178       176       177       180       181
      182       184       184       184       187       188       187       187
      187       182       181       180       179       177       175       173
      171       173       176       178       178       180       183       185
      189       189       191       190       185       184       182       177
      174       172       170       170       171       174       173       177
      179       179       177       178       175       173       175       174
      171       172       173       175       175       177       179       177
      175       171       171       171       170       170       170       174
      175       179       180       180       180       175       171       170
      171       172       171       174       177       177       178       179
      177       174       168       163       163       164       165       166
      166       169       173       175       178       179       179       177
      177       179       179       178       178       178       181       180
      183       185       185       184       181       182       182       179
      175       173       175       175       176       179       181       183
      183       180       178       179       178       178       178       177
      179       179       179       182       183       183       180       174
      174       176       176       179       181       181       181       181
      182       183       184       183       179       175       177       178
      176       174       174       171       169       168       171       173
      173       175       175       176       177       177       175       172
      170       170       171       174       179       181       182       185
      187       188       185       186       184       181       179       180
      181       183       183       183       183       184       186       186
      186       188       186       183       181       180       179       178
      179       179       182       181       181       181       183       183
      181       179       178       179       180       181       183       184
      185       181       179       179       179       178       177       176
      177       180       179       180       181       182       184       185
      186       184       187       188       187       185       183       182
      178       177       177       176       177       178       178       177
      183       184       185       185       183       186       188       187
      188       186       187       185       182       183       183       181
      182       180       182       187       189       190       192       190
      187       185       185       184       183       184       184       184
      185       185       186       187       185       182       181       182
      184       181       182       183       183       182       183       185
      186       186       188       188       189       187       184       183
      182       182       181       181       182       184       187       189
      192       193       193       191       189       190       187       187
      188       189       190       191       190       191       191       194
      193       193       191       191       190       191       189       186
      183       183       181       181       181       186       187       189
      189       191       190       187       182       181       181       182
      179       178       180       182       183       183       182       184
      185       187       187       188       188       189       189       190
      190       189       184       182       181       182       181       183
      183       182       183       184       183       184       183       181
      178       178       179       179       181       184       186       186
      187       185       187       189       188       189       188       189
      189       187       187       187       184       183       184       183
      185       186       190       195       198       203       202       200
      203       201       198       196       195       194       193       189
      189       190       190       191       190       193       193       190
      191       192       195       194       191       188       188       189
      192       192       191       191       186       186       187       187
      186       186       186       186       188       189       191       191
      192       193       192       191       193       192       193       194
      193       194       192       193       191       192       195       197
      195       194       196       194       193       192       193       195
      194       194       189       189       189       189       188       188
      186       186       184       184       183       184       185       183
      184       188       189       190       191       192       193       194
      193       191       189       191       190       191       194       195
      192       191       192       194       197       197       199       201
      205       206       204       203       200       200       197       194
      194       192       193       191       193       194       196       194
      192       189       188       189       190       190       191       194
      197       198       198       197       200       197       195       191
      190       188       189       189       194       199       201       202
      201       202       202       199       197       193       190       188
      188       190       192       191       194       195       198       201
      204       207       209       210       210       213       213       211
      208       204       201       199       199       196       196       197
      198       198       199       201       200       198       197       193
      191       192       191       193       198       203       204       206
      211       211       212       212       210       207       207       205
      206       208       208       204       202       204       205       205
      206       206       206       206       208       208       208       209
      208       206       207       208       210       211       208       209
      208       209       212       213       212       213       214       216
      217       219       218       217       212       210       206       205
      204       204       204       206       209       213       215       218
      220       225       225       227       228       229       231       230
      230       231       233       234       233       235       238       242
      243       244       247       251       255       256       265       275
      280       284       292       304       317       347       417       535
      696       920      1214      1586      2023      2518      3070      3678
     4325      5047      5890      6908      8055      9163     10061     10639
    10791     10508      9793      8720      7372      5861      4331      2962
     1888      1174       774       557       451       399       357       337
      323       319       310       300       294       285       276       268
      267       260       257       252       243       239       239       239
      239       237       235       235       235       237       238       237
      232       229       226       224       225       223       225       226
      230       237       242       247       248       246       245       244
      240       237       235       232       233       233       235       235
      235       236       234       232       232       230       231       230
      228       224       223       224       223       224       224       225
      223       221       220       220       220       218       214       213
      215       219       220       222       223       225       225       226
      227       228       225       224       224       228       231       233
      235       233       231       231       229       225       223       220
      218       218       221       223       225       228       229       228
      230       227       227       226       226       226       227       227
      229       229       228       228       227       227       227       225
      226       224       224       224       227       230       233       234
      232       232       234       235       238       238       236       233
      232       234       234       235       235       234       230       230
      231       235       238       240       243       245       249       252
      250       249       250       250       250       255       255       258
      256       257       258       258       259       257       258       259
      265       270       277       282       281       279       278       281
      281       282       280       281       282       284       294       304
      315       329       340       357       388       424       466       527
      618       755       959      1256      1640      2133      2770      3562
     4484      5602      6926      8456     10170     11975     13936     16012
    18203     20418     22360     23849     24751     25012     24602     23594
    22192     20440     18411     16307     14330     12542     11067      9855
     8694      7622      6617      5686      4804      4029      3430      2891
     2428      2068      1738      1442      1207      1014       835       713
      608       521       459       426       397       382       366       349
      340       329       322       316       312       305       300       295
      290       285       284       278       271       269       269       264
      266       266       271       274       274       274       275       279
      279       275       276       275       273       267       264       262
      262       260       256       255       257       259       262       265
      269       270       274       273       270       270       268       269
      268       269       273       274       274       272       270       271
      275       276       278       286       292       298       305       311
      317       320       322       322       328       341       366       423
      512       651       831      1070      1375      1741      2143      2624
     3171      3776      4492      5331      6303      7319      8273      9065
     9658     10022     10115      9979      9596      9055      8388      7685
     7047      6494      6047      5612      5183      4724      4286      3846
     3398      2979      2552      2149      1782      1458      1177       933
      737       577       464       384       347       333       322       316
      313       307       302       297       292       288       281       276
      273       271       268       268       265       263       260       256
      256       252       249       247       250       253       258       258
      258       260       259       259       256       253       250       247
      243       241       244       242       241       240       238       237
      236       240       240       239       239       240       240       243
      245       244       247       247       243       242       237       235
      231       229       227       224       225       227       226       228
      233       236       237       239       234       234       234       235
      236       239       242       245       243       244       243       243
      240       238       233       233       230       230       232       233
      230       229       228       225       223       223       223       224
      227       230       232       235       236       236       232       233
      231       229       230       229       225       224       221       220
      221       223       224       226       225       227       228       230
      227       227       226       225       225       226       228       228
      229       232       234       235       237       237       236       239
      240       239       240       239       237       232       229       226
      223       220       220       219       220       222       223       221
      223       226       225       223       219       220       223       226
      229       230       233       236       233       230       228       227
      227       226       225       227       228       229       230       231
      231       231       230       227       227       225       223       223
      221       220       221       219       221       222       221       223
      225       228       232       232       232       235       233       234
      231       228       228       228       226       226       227       228
      229       228       227       228       227       226       224       225
      225       224       224       223       226       231       232       231
      232       232       231       229       228       229       228       227
      230       233       235       234       229       226       223       220
      221       221       225       230       231       236       238       237
      235       233       229       230       228       229       228       227
      231       232       231       232       226       226       226       227
      226       229       227       230       228       227       229       227
      224       221       215       218       222       223       222       223
      224       223       219       220       218       215       215       214
      216       220       226       227       227       224       226       222
      223       222       222       224       225       227       228       229
      231       228       225       219       222       221       222       221
      225       229       231       232       233       233       231       228
      227       224       229       227       227       225       227       227
      227       225       224       224       224       226       228       229
      231       233       231       230       231       229       229       228
      227       225       224       222       220       219       221       222
      217       218       220       220       223       226       226       225
      226       224       226       230       234       232       229       229
      229       228       227       225       220       221       224       223
      223       225       225       225       226       226       227       227
      229       225       224       230       235       233       232       232
      232       234       234       233       235       235       238       234
      235       236       237       233       231       228       228       228
      229       232       235       235       240       244       245       246
      244       242       240       238       237       238       237       238
      235       233       233       235       232       230       228       226
      225       224       223       226       225       227       226       228
      230       234       235       234       234       232       232       228
      229       230       229       233       232       233       235       234
      235       233       231       229       231       231       234       236
      240       244       244       241       241       242       244       244
      244       240       241       240       239       241       244       247
      248       245       246       249       250       250       248       245
      244       243       241       244       247       255       260       263
      265       271       277       282       284       290       295       302
      312       338       377       437       515       626       776       963
     1175      1421      1692      1986      2298      2661      3067      3504
     3927      4306      4639      4901      5060      5107      5032      4853
     4569      4207      3816      3435      3056      2696      2338      1997
     1692      1410      1156       936       753       611       498       418
      369       338       318       315       310       305       300       295
      288       280       275       272       269       264       261       260
      256       253       253       253       251       249       247       246
      243       244       249       249       248       251       249       248
      249       249       249       249       251       252       252       257
      258       260       260       265       263       262       258       256
      253       250       247       244       245       244       242       245
      245       248       248       250       248       245       242       238
      234       231       232       229       229       232       234       237
      238       240       241       241       238       237       235       232
      235       235       237       238       238       238       237       237
      236       234       232       231       234       237       238       239
      242       241       241       242       241       240       236       235
      233       236       240       239       237       238       241       245
      246       251       254       260       263       274       281       292
      301       307       311       314       321       322       320       317
      314       311       309       303       296       293       289       286
      285       283       283       281       279       276       273       267
      265       256       251       246       244       245       246       242
      243       242       239       237       233       232       232       230
      230       232       232       235       236       239       240       237
      236       230       226       226       227       226       227       227
      228       232       234       237       238       237       239       238
      239       242       246       242       241       238       238       233
      231       231       232       232       234       235       235       239
      240       237       236       234       234       231       235       239
      239       239       237       235       234       234       232       231
      232       231       233       234       238       241       238       238
      235       234       232       231       233       232       234       233
      231       231       233       231       230       233       233       235
      233       232       231       229       229       230       230       234
      236       238       239       245       246       248       250       247
      245       242       240       243       244       241       239       237
      235       237       241       244       248       245       246       243
      244       244       241       238       238       236       236       237
      241       242       245       244       247       245       246       246
      247       249       250       250       247       246       245       245
      243       241       241       240       244       244       247       247
      246       244       240       237       233       228       224       223
      224       227       231       233       235       239       240       240
      241       240       242       241       243       245       249       248
      247       247       247       245       243       240       239       241
      243       245       247       246       244       240       239       236
      232       227       224       220       221       224       226       230
      235       240       245       248       249       248       248       246
      242       241       241       239       238       239       239       240
      240       235       233       232       234       236       235       239
      240       240       243       243       242       238       237       235
      236       237       240       242       242       242       244       246
      249       247       245       242       245       245       246       248
      251       250       252       252       256       258       260       260
      260       258       258       258       256       256       256       255
      256       256       260       264       267       268       271       272
      271       272       271       272       269       267       269       270
      273       273       273       277       281       286       287       295
      299       303       308       318       331       357       388       434
      515       639       812      1041      1319      1645      2010      2451
     2998      3608      4318      5115      5899      6604      7137      7419
     7419      7126      6558      5761      4811      3827      2889      2054
     1423       997       720       560       467       407       377       362
      356       349       337       327       319       309       297       292
      290       286       283       278       279       277       276       272
      269       264       262       257       252       251       250       247
      245       243       249       249       252       252       253       251
      252       253       252       253       254       250       249       250
      253       255       256       254       254       253       252       252
      254       257       258       254       256       257       258       260
      259       256       254       253       250       249       251       251
      249       250       252       254       257       261       263       262
      262       261       257       255       256       255       254       252
      249       248       247       247       243       242       246       245
      246       247       250       248       245       240       240       241
      242       241       241       245       248       248       246       246
      245       242       243       241       246       247       246       246
      246       244       242       243       242       241       243       246
      246       248       251       251       252       253       252       253
      258       262       259       254       255       254       250       249
      245       242       242       242       242       247       253       256
      257       256       257       258       257       257       257       257
      255       255       252       253       256       255       256       249
      247       246       247       250       249       252       250       251
      252       257       261       259       258       254       254       251
      250       249       249       249       247       251       252       253
      248       245       244       243       242       241       243       245
      244       245       247       249       247       247       243       240
      241       241       241       242       243       247       245       248
      248       251       253       252       248       246       246       246
      244       244       245       248       249       255       254       257
      257       253       253       256       258       261       261       263
      265       266       268       264       258       259       254       248
      250       250       250       250       252       254       258       258
      257       255       257       256       250       248       248       248
      248       248       250       254       259       258       259       261
      262       259       256       256       256       254       253       251
      252       256       253       250       252       251       248       245
      243       242       241       239       238       239       241       243
      242       245       249       248       250       257       258       258
      254       254       255       256       256       254       253       253
      254       253       255       255       250       246       243       247
      252       253       255       255       258       258       258       256
      256       251       249       250       250       251       251       251
      257       259       262       259       261       263       264       262
      261       260       255       255       256       259       262       262
      261       260       260       258       258       257       252       247
      246       249       247       248       245       246       246       245
      246       246       250       252       251       250       251       249
      249       251       251       251       247       246       247       247
      250       252       255       255       256       261       264       267
      270       269       266       265       264       264       265       267
      268       266       264       265       260       258       258       255
      252       250       250       250       252       254       253       254
      254       254       254       254       258       260       259       259
      259       256       257       253       252       253       252       253
      254       254       259       261       260       260       263       263
      265       262       264       265       264       266       263       263
      265       266       265       267       268       264       261       257
      258       258       258       255       251       253       254       258
      262       266       266       267       267       268       271       270
      267       264       261       262       259       259       257       258
      259       263       261       261       264       266       268       268
      265       263       261       261       261       264       263       267
      267       269       274       276       279       276       273       273
      273       272       273       274       273       277       277       280
      287       298       316       332       358       392       435       483
      537       608       693       784       878       981      1070      1141
     1186      1209      1208      1187      1147      1083      1013       954
      893       840       791       749       698       648       596       547
      500       459       420       381       350       329       313       303
      292       284       279       276       273       272       274       278
      279       276       271       272       271       267       266       263
      263       260       259       261       264       270       269       270
      270       271       273       274       274       274       277       274
      274       271       266       268       265       265       267       269
      277       284       296       315       336       355       373       394
      416       447       464       480       495       503       507       504
      493       474       453       427       401       382       368       355
      338       325       316       311       304       297       286       278
      273       267       263       265       268       270       270       269
      269       270       268       267       266       264       262       263
      263       263       266       268       268       267       267       265
      264       264       262       261       263       267       267       269
      272       273       273       271       270       264       262       259
      255       255       257       261       261       264       264       268
      267       264       261       254       254       249       249       251
      254       255       255       255       257       262       265       268
      268       266       266       266       267       266       263       260
      257       255       257       258       260       263       261       260
      264       265       267       268       267       268       266       264
      265       263       261       259       255       254       259       259
      265       269       271       273       273       273       273       268
      265       265       262       264       268       270       274       276
      276       278       277       273       268       262       259       257
      255       256       257       259       262       266       271       272
      274       271       267       266       261       259       258       258
      259       261       265       268       271       274       275       272
      270       268       263       266       265       265       264       263
      266       267       270       271       270       269       267       267
      268       273       272       274       271       271       274       272
      271       268       266       263       263       261       264       263
      261       262       260       262       263       258       259       260
      257       259       261       257       262       262       264       265
      268       268       271       269       272       270       271       274
      270       269       271       269       266       263       259       257
      259       257       259       260       262       268       270       273
      276       278       280       280       277       279       278       275
      274       270       267       269       264       262       263       264
      262       259       258       261       263       267       267       265
      264       266       268       269       270       269       263       265
      266       266       266       263       259       257       255       259
      260       260       260       260       259       262       264       264
      263       263       264       266       265       264       260       257
      256       257       256       258       260       261       262       265
      268       271       270       269       268       267       266       267
      263       263       261       261       260       259       259       262
      267       269       271       270       272       277       277       279
      280       283       282       280       279       276       276       273
      269       264       263       264       263       262       265       267
      267       268       270       271       274       276       274       276
      280       284       283       284       285       283       277       275
      274       271       268       267       266       267       268       267
      265       267       267       265       261       263       265       264
      263       268       272       272       272       269       268       268
      265       263       262       264       262       260       262       264
      268       268       269       267       268       268       271       274
      277       279       276       278       276       271       273       271
      269       265       265       264       265       264       263       263
      263       268       267       268       270       269       269       268
      266       266       263       261       261       262       264       267
      268       270       269       267       265       265       265       268
      268       266       268       273       272       272       270       268
      270       269       269       272       274       272       272       272
      277       281       279       277       274       276       279       274
      274       273       269       265       264       263       262       264
      264       265       264       265       265       265       269       272
      271       271       271       269       269       272       273       271
      265       262       258       254       253       255       253       256
      261       258       262       265       268       268       268       268
      263       263       266       269       270       271       271       267
      271       273       274       276       276       273       271       272
      271       273       273       272       271       269       270       271
      272       275       275       273       274       271       270       271
      272       268       266       263       261       261       260       263
      265       265       264       264       266       270       270       270
      271       271       271       273       274       274       277       278
      279       277       277       275       273       275       274       275
      273       271       271       270       275       276       276       273
      275       278       282       285       286       285       281       280
      280       278       279       276       272       267       266       266
      266       266       266       267       267       270       270       270
      271       266       262       258       258       260       263       268
      269       270       272       273       272       269       265       259
      258       258       261       265       266       267       265       263
      261       257       256       255       251       254       258       262
      264       266       266       266       267       269       269       271
      275       279       280       283       282       284       284       283
      280       277       275       275       274       274       270       270
      267       263       262       264       263       265       265       268
      269       273       273       269       268       269       266       265
      261       260       260       263       266       267       270       274
      271       269       271       273       272       272       268       271
      268       268       268       268       269       266       260       259
      261       264       265       270       270       267       266       267
      267       267       266       265       267       272       274       273
      275       276       270       268       268       267       268       267
      268       271       273       272       271       270       270       267
      268       272       272       275       276       273       275       273
      272       271       271       273       273       273       278       279
      279       281       277       274       272       268       270       268
      268       266       267       269       272       270       270       273
      273       272       272       272       276       276       276       274
      277       276       272       271       271       272       274       272
      271       273       277       279       278       277       276       274
      272       274       273       273       275       274       277       279
      278       275       271       269       269       266       262       260
      262       262       265       274       280       281       282       282
      282       281       278       276       272       271       273       273
      274       276       273       273       272       273       273       275
      275       277       275       279       279       280       275       273
      269       268       267       267       266       264       263       261
      263       268       268       268       270       274       275       280
      286       289       287       287       282       282       283       282
      279       274       270       265       263       264       266       269
      267       267       270       277       282       285       283       280
      277       274       275       275       277       273       270       270
      274       273       273       272       268       266       264       265
      269       271       271       272       273       277       281       281
      283       282       277       271       269       268       265       265
      264       263       263       265       264       264       265       265
      265       265       267       262       260       262       263       265
      264       261       262       263       267       272       274       276
      275       270       272       274       275       274       270       270
      272       274       274       272       270       268       266       268
      270       263       261       262       264       268       272       273
      271       272       273       272       275       281       279       277
      281       283       283       282       284       282       281       280
      280       283       284       287       285       283       283       283
      285       284       286       289       294       304       319       330
      344       366       388       410       435       456       470       473
      475       466       450       431       407       380       357       342
      326       311       302       294       291       292       291       290
      289       290       289       292       291       289       284       279
      279       276       280       280       277       279       280       282
      281       282       282       276       272       269       271       268
      269       264       262       263       264       264       263       263
      264       265       267       269       274       273       272       271
      271       270       269       269       267       269       273       278
      278       278       280       280       280       281       279       276
      278       280       283       287       289       289       288       288
      289       289       286       283       281       281       286       287
      288       286       288       287       287       284       283       282
      278       278       277       276       275       275       273       275
      278       280       283       287       291       293       294       296
      296       297       295       297       295       297       296       299
      299       303       303       302       307       309       311       313
      313       318       325       337       360       399       480       591
      750       992      1304      1692      2143      2641      3169      3720
     4254      4722      5119      5419      5605      5655      5603      5477
     5271      5017      4716      4388      4064      3760      3457      3174
     2924      2685      2456      2242      2034      1848      1669      1496
     1327      1167      1025       891       769       682       602       540
      495       456       417       389       363       342       327       320
      313       307       304       307       306       307       307       306
      305       302       297       295       295       294       295       294
      296       294       297       298       300       301       305       308
      307       310       313       320       325       329       334       337
      340       339       339       339       340       333       328       321
      317       317       316       317       315       315       311       310
      307       306       303       297       294       289       287       286
      284       279       276       272       269       267       265       269
      272       273       271       272       273       272       274       271
      269       267       267       266       269       274       278       277
      275       277       275       269       270       268       269       272
      270       270       270       273       277       277       282       283
      283       282       288       291       296       296       294       292
      291       295       296       293       292       291       299       311
      333       357       392       438       498       575       662       774
      894       998      1087      1168      1221      1251      1258      1243
     1205      1159      1111      1058      1010       989       965       930
      899       874       851       830       811       791       767       749
      735       716       709       698       679       655       624       590
      556       510       463       415       374       335       313       296
      287       277       274       273       271       269       269       268
      268       269       271       273       275       276       276       278
      282       281       277       275       275       276       276       274
      274       274       272       270       267       270       268       266
      264       266       271       275       274       274       277       277
      274       272       269       267       263       265       264       266
      268       272       269       271       273       277       277       275
      273       270       271       269       267       266       265       265
      264       268       271       273       272       270       271       267
      265       258       259       258       257       257       260       263
      266       267       269       270       273       273       272       268
      270       270       266       266       266       264       262       262
      261       259       260       261       262       265       270       273
      274       280       280       280       277       275       274       267
      266       265       265       265       267       269       268       269
      266       266       267       269       270       270       272       272
      271       272       273       270       263       261       260       262
      265       264       264       265       267       268       269       271
      272       274       274       272       270       270       269       266
      265       263       261       259       256       256       261       266
      268       268       268       271       275       274       272       268
      264       264       263       264       265       268       269       270
      268       268       269       263       261       262       266       271
      273       274       276       279       277       275       268       264
      262       259       259       263       264       267       272       272
      274       273       272       272       267       267       268       269
      270       272       272       276       279       278       278       278
      278       276       276       277       276       273       269       270
      269       270       269       265       263       261       258       256
      257       257       260       257       254       256       256       258
      258       256       260       261       265       268       271       276
      280       276       270       269       268       268       266       263
      262       258       259       260       259       261       263       263
      264       267       272       275       275       274       270       268
      272       272       269       271       271       270       271       269
      272       271       269       266       261       261       262       261
      260       261       260       260       262       262       265       268
      271       270       272       277       278       279       279       276
      272       265       263       261       264       268       272       273
      278       281       281       283       283       281       278       273
      272       272       275       273       268       266       264       263
      264       264       267       272       271       271       273       275
      277       275       271       272       271       271       273       274
      280       283       285       289       291       294       298       298
      298       296       295       292       289       285       281       278
      279       281       283       285       290       294       301       304
      309       314       316       318       321       327       332       340
      345       351       362       377       396       427       480       561
      683       838      1042      1326      1677      2128      2683      3328
     3967      4549      5028      5362      5521      5520      5371      5075
     4681      4248      3802      3414      3096      2826      2557      2297
     2034      1762      1494      1255      1048       867       718       606
      523       469       432       408       394       378       367       355
      342       329       325       322       322       323       323       324
      325       332       340       353       370       390       413       437
      463       484       502       513       513       511       503       491
      477       462       447       437       429       423       416       413
      410       407       407       408       403       393       391       387
      381       377       373       366       358       347       336       327
      318       303       292       280       279       276       273       275
      275       276       282       282       286       289       290       289
      290       290       289       289       285       282       281       283
      284       284       285       288       288       290       293       295
      294       297       297       298       302       307       310       316
      319       319       318       314       311       306       302       297
      295       291       287       284       280       278       273       268
      264       261       262       265       268       270       272       275
      274       273       270       272       270       268       269       271
      269       269       268       265       266       267       266       263
      262       261       260       260       263       265       265       263
      264       263       262       260       257       257       255       254
      251       250       252       252       251       250       251       251
      253       254       255       259       260       261       260       262
      261       261       260       258       260       262       261       258
      258       258       258       257       257       257       256       261
      260       263       266       267       265       263       264       263
      262       259       255       255       257       261       257       260
      261       262       260       260       261       262       260       256
      254       256       259       258       255       255       256       257
      260       260       260       255       253       254       257       258
      261       263       264       264       267       266       269       265
      262       258       259       260       256       253       253       256
      254       253       252       250       252       253       253       255
      255       255       254       255       257       258       256       255
      257       259       261       263       261       264       263       264
      262       260       257       254       253       252       253       252
      253       255       256       261       260       259       256       254
      256       258       259       261       258       257       258       259
      260       264       263       261       262       264       268       270
      273       275       274       276       276       274       273       273
      270       269       270       267       266       264       262       260
      257       257       254       254       254       254       255       260
      262       263       266       265       263       259       256       257
      258       259       259       258       259       262       260       260
      258       255       251       245       245       245       248       250
      254       257       261       262       258       257       252       249
      248       242       239       238       238       238       243       247
      251       252       254       262       266       270       270       267
      263       262       258       258       257       254       252       251
      252       257       256       252       252       253       252       252
      252       252       249       247       245       245       243       240
      239       238       245       246       248       250       251       252
      251       251       250       251       248       249       253       254
      256       253       252       251       250       246       246       246
      245       244       246       248       253       256       253       253
      253       252       251       250       251       249       249       247
      246       247       252       253       250       252       251       250
      248       247       245       246       246       244       243       246
      248       251       254       259       262       263       263       258
      254       252       248       246       243       245       249       256
      262       266       268       268       266       263       261       260
      257       255       257       259       261       262       262       259
      259       255       253       253       253       257       256       261
      260       258       257       258       256       256       253       249
      249       249       254       257       259       265       264       264
      263       262       259       259       254       254       254       254
      256       254       256       259       259       258       254       253
      252       255       257       259       257       259       257       253
      251       252       252       253       251       251       253       257
      261       263       263       265       265       263       262       262
      261       262       257       252       250       249       250       250
      249       253       255       254       254       254       252       250
      246       245       245       244       246       248       253       258
      260       263       262       264       264       262       260       260
      256       252       249       244       244       243       242       242
      243       247       250       249       251       253       252       253
      254       255       255       252       251       251       248       249
      252       252       251       251       253       255       255       256
      257       255       251       249       246       251       255       256
      252       250       250       248       247       251       253       250
      248       250       251       252       252       252       249       247
      248       250       251       250       251       253       256       258
      257       252       251       252       254       253       256       255
      253       250       254       257       259       258       259       257
      256       255       254       252       251       249       245       245
      246       248       254       259       264       264       267       270
      272       275       275       275       271       269       267       264
      263       262       261       260       263       264       265       268
      271       272       271       270       270       270       271       269
      267       268       268       271       270       272       273       271
      272       275       277       281       279       275       275       278
      278       278       276       275       272       272       275       276
      274       272       270       268       269       268       265       264
      271       273       275       277       279       281       282       283
      284       285       284       281       284       285       290       291
      292       293       298       302       307       310       313       317
      320       323       326       329       336       339       340       344
      349       356       361       366       373       379       386       396
      410       423       436       453       501       576       684       843
     1058      1366      1739      2264      2954      3839      4873      6009
     7191      8362      9421     10297     10880     11210     11225     10986
    10553     10023      9447      8901      8406      7966      7585      7268
     6974      6697      6411      6192      5943      5712      5508      5239
     4960      4634      4276      3864      3421      2967      2512      2080
     1700      1385      1115       914       774       651       574       511
      476       452       435       423       410       399       383       376
      368       359       352       341       340       341       342       350
      366       390       433       481       542       612       676       739
      791       828       857       874       871       853       821       782
      744       705       674       647       620       598       575       562
      553       546       527       509       489       469       450       429
      412       392       372       358       343       332       321       309
      299       293       286       281       277       273       273       269
      270       272       272       274       276       277       279       278
      274       274       274       272       269       268       270       266
      261       258       253       251       249       249       249       253
      253       253       256       259       257       256       256       255
      252       253       255       255       258       261       260       261
      261       261       259       261       262       261       258       258
      258       255       255       254       250       247       246       245
      243       241       240       239       236       237       237       239
      242       244       244       244       245       245       244       243
      241       241       241       241       242       243       245       247
      249       249       247       248       248       247       249       247
      245       243       237       237       240       240       239       236
      234       233       231       235       236       234       235       238
      234       238       238       237       238       238       236       233
      233       235       236       240       245       251       254       255
      251       251       252       250       245       241       243       240
      239       240       241       246       247       245       244       245
      246       246       245       245       245       244       241       243
      242       244       245       247       246       247       247       247
      247       246       246       246       243       241       238       237
      238       238       235       236       236       236       236       235
      236       234       231       230       231       231       232       230
      228       230       233       230       228       229       231       232
      233       236       236       233       230       228       229       231
      232       231       234       237       240       243       244       243
      239       237       234       235       235       235       235       236
      239       237       235       235       234       233       231       233
      232       237       238       238       236       235       234       232
      231       231       229       230       232       234       235       236
      235       233       230       228       227       225       224       225
      224       224       225       227       228       226       225       226
      229       231       231       233       238       235       234       235
      235       236       233       230       228       229       229       227
      226       225       224       222       224       226       224       224
      224       226       224       225       227       227       226       225
      224       226       227       227       224       225       229       231
      235       238       241       240       237       233       228       225
      223       221       223       226       227       229       233       234
      234       233       230       227       224       219       219       219
      221       220       218       217       220       224       225       226
      231       231       231       231       229       230       233       231
      231       234       243       252       258       269       288       307
      332       364       400       449       495       535       572       600
      617       619       615       608       590       563       543       529
      517       513       510       510       508       506       505       506
      513       521       520       515       515       506       494       480
      466       446       424       408       396       392       386       387
      386       383       380       371       366       357       342       327
      311       298       285       277       266       257       248       241
      235       234       232       229       223       221       218       217
      215       217       218       219       218       221       221       221
      221       220       220       220       219       215       213       213
      212       214       216       216       214       214       217       216
      219       217       216       214       218       218       220       223
      224       224       221       221       222       216       215       211
      210       212       214       214       215       218       221       223
      224       226       225       222       222       220       219       221
      222       222       224       226       225       224       222       220
      220       219       220       219       220       221       222       221
      222       221       222       219       220       221       223       226
      227       227       224       224       223       221       218       216
      216       216       220       221       222       224       222       223
      221       221       219       217       217       218       218       221
      223       221       219       219       219       220       219       222
      225       228       232       231       232       231       226       220
      219       216       215       209       209       212       215       217
      217       219       221       219       216       215       216       219
      220       217       219       219       218       221       219       222
      220       217       215       216       217       218       216       210
      209       209       211       216       219       220       219       218
      218       216       216       214       215       212       211       211
      211       213       212       211       212       211       211       210
      213       216       216       214       212       211       208       210
      211       212       212       211       210       210       208       206
      205       206       208       208       209       213       212       211
      211       211       210       210       209       210       213       216
      217       218       218       219       218       216       212       213
      215       215       218       219       220       218       216       219
      221       220       219       219       221       225       226       224
      225       220       218       213       212       212       211       208
      208       211       214       213       215       215       215       215
      213       212       208       206       206       204       202       199
      202       204       208       210       211       211       208       210
      212       211       213       212       212       212       214       217
      215       215       213       212       211       214       217       215
      217       216       217       215       217       217       214       212
      213       213       214       217       219       218       218       216
      216       214       216       214       211       211       214       215
      216       216       214       214       215       215       212       210
      211       211       209       213       219       222       223       224
      226       228       229       225       220       220       217       213
      213       215       215       216       215       215       216       216
      215       214       215       215       216       218       219       216
      216       215       213       211       211       209       205       205
      207       213       217       220       224       230       239       246
      257       267       281       293       304       319       333       347
      353       361       364       366       359       351       342       331
      322       316       308       302       297       296       293       292
      290       287       281       280       278       275       274       271
      266       261       258       258       258       260       258       255
      254       256       255       254       248       242       236       232
      228       225       220       216       212       208       206       211
      211       212       212       214       218       219       217       215
      210       210       207       204       203       205       203       206
      208       210       212       211       213       212       213       215
      211       212       213       215       216       217       215       211
      211       210       206       202       203       202       201       202
      205       211       212       215       213       212       213       213
      213       214       214       212       211       209       208       209
      211       212       213       213       216       221       226       226
      223       223       222       217       217       217       218       218
      219       221       226       229       235       240       245       252
      255       259       263       261       261       261       258       255
      256       254       254       255       254       254       255       253
      249       246       247       244       240       234       230       225
      223       223       222       222       222       220       221       224
      225       225       223       218       214       212       211       209
      209       204       203       205       205       204       202       204
      205       206       208       210       213       215       218       217
      220       220       218       216       215       216       216       214
      215       214       215       218       218       217       216       215
      216       217       216       215       214       215       216       218
      220       223       222       225       224       221       223       219
      217       214       213       215       215       215       217       222
      226       229       230       231       233       231       231       227
      227       226       224       221       221       222       222       220
      222       226       226       229       231       231       233       232
      233       231       231       230       230       230       232       237
      238       245       249       255       258       259       260       259
      260       262       263       267       273       282       291       305
      313       322       328       335       343       349       366       384
      410       467       562       712       955      1302      1779      2424
     3267      4333      5557      6895      8239      9448     10373     10935
    11073     10777     10087      9068      7827      6494      5195      4036
     3060      2306      1749      1341      1028       806       649       537
      463       422       396       383       373       378       388       404
      429       462       502       550       604       662       718       764
      798       820       822       807       775       736       680       632
      579       536       498       468       437       409       382       360
      340       319       303       283       267       259       248       244
      237       234       231       231       230       232       235       235
      233       229       225       224       222       221       217       217
      216       216       218       219       221       222       222       223
      223       225       226       223       221       220       217       217
      216       215       213       212       216       220       221       222
      222       217       215       212       210       209       206       207
      207       212       216       218       218       221       222       221
      222       219       219       220       221       222       221       221
      216       211       211       209       208       208       208       208
      210       211       213       216       220       221       222       224
      225       221       219       216       212       209       204       201
      202       202       203       204       207       210       210       210
      209       208       206       205       204       203       202       198
      198       198       201       203       202       203       205       204
      205       205       203       203       199       195       195       196
      198       197       198       199       200       200       202       207
      208       210       207       206       205       208       207       208
      209       208       205       204       207       211       209       211
      211       210       212       214       214       217       216       214
      213       215       217       216       213       213       211       209
      209       207       207       205       201       199       198       199
      200       200       201       201       204       208       210       214
      215       216       212       210       206       204       201       198
      200       201       203       203       204       208       208       208
      208       208       206       207       204       205       207       207
      208       207       211       214       214       216       218       217
      216       220       218       221       225       228       228       230
      233       234       234       233       236       237       242       247
      250       256       260       264       267       269       272       275
      277       281       290       292       296       299       306       309
      316       324       334       341       348       356       365       372
      376       372       366       361       356       348       343       334
      331       321       311       305       299       292       279       267
      257       251       246       243       239       236       237       234
      231       230       229       226       223       221       222       222
      221       222       218       218       217       215       213       211
      210       210       209       209       212       212       212       213
      213       212       210       208       206       203       207       208
      207       210       211       214       214       216       213       211
      211       212       212       212       217       220       226       231
      235       239       242       245       244       245       248       243
      240       236       235       237       237       234       232       231
      233       230       227       223       221       216       214       212
      211       215       214       216       216       216       214       208
      203       200       201       202       202       202       204       207
      208       210       209       206       202       199       200       202
      207       213       217       218       222       224       227       225
      225       228       228       228       230       229       233       234
      235       231       231       228       224       218       219       219
      221       219       220       218       217       215       213       210
      207       205       203       201       199       199       200       197
      198       196       195       194       194       193       192       194
      195       194       191       194       192       195       194       195
      195       194       192       190       190       192       194       194
      195       195       194       194       195       197       197       198
      195       194       194       193       193       193       192       191
      190       190       195       196       196       197       195       193
      194       194       197       198       199       200       200       201
      202       201       198       196       190       188       188       188
      190       188       188       190       192       195       198       199
      200       200       197       195       195       197       197       193
      193       194       197       199       198       198       198       198
      196       195       195       192       188       187       188       193
      195       196       197       200       202       204       203       203
      199       192       190       188       188       190       187       185
      183       184       184       185       186       189       191       195
      198       197       202       201       198       196       195       193
      192       191       192       193       194       194       195       194
      197       195       194       194       190       189       190       191
      192       193       192       194       197       197       199       197
      197       194       192       194       194       192       191       191
      187       187       186       187       186       188       189       188
      191       189       188       185       184       184       183       183
      185       186       186       191       189       189       191       191
      193       194       196       197       198       199       199       197
      198       195       191       190       191       191       192       190
      190       187       188       189       187       188       191       190
      191       193       194       192       194       195       195       194
      193       190       186       183       181       179       179       181
      181       183       188       192       195       197       197       197
      197       197       198       199       197       198       198       196
      193       188       184       181       183       185       186       189
      192       193       193       195       195       195       192       189
      190       189       191       191       193       194       196       196
      193       192       189       189       190       187       186       183
      181       180       178       176       179       180       179       181
      184       188       195       192       192       192       188       185
      181       179       178       178       181       184       187       189
      194       195       197       195       196       196       192       191
      190       191       189       190       189       190       193       195
      192       192       192       188       185       186       187       187
      185       187       187       188       191       191       189       190
      187       189       190       192       193       190       189       189
      189       189       189       187       185       185       183       185
      183       183       185       183       183       185       185       184
      184       182       182       182       183       185       187       189
      192       191       191       191       190       190       190       190
      192       192       194       197       199       198       197       195
      195       192       192       191       192       189       186       184
      183       186       187       186       188       189       191       192
      193       192       195       192       195       194       194       196
      194       191       194       193       192       191       187       185
      187       189       189       187       188       189       189       186
      188       187       189       191       191       191       191       193
      192       195       200       202       204       202       202       204
      205       203       196       189       183       182       177       180
      182       181       183       185       189       191       191       192
      190       189       187       187       186       188       186       183
      185       186       188       187       191       194       195       193
      192       192       189       188       186       185       186       188
      188       189       190       192       194       195       200       199
      201       205       206       205       202       200       196       195
      192       192       191       189       189       189       192       194
      193       189       188       190       192       194       193       194
      194       195       195       197       199       200       200       199
      201       200       198       197       196       199       199       197
      195       195       196       198       198       197       198       198
      201       204       207       210       208       205       204       201
      199       198       197       198       201       206       211       217
      222       226       227       228       232       234       240       247
      261       284       312       358       430       563       731       937
     1167      1386      1574      1720      1804      1833      1809      1730
     1620      1505      1407      1345      1302      1282      1278      1269
     1245      1210      1163      1112      1061      1010       972       938
      913       890       870       838       809       764       702       633
      566       495       435       377       330       296       275       264
      256       252       251       249       243       247       254       269
      298       331       388       468       581       729       896      1077
     1254      1395      1507      1597      1628      1622      1581      1501
     1409      1323      1244      1171      1113      1062      1011       949
      906       863       815       786       760       738       725       720
      703       685       666       637       603       557       511       461
      422       387       348       316       294       278       260       247
      232       223       217       213       211       210       212       211
      208       209       210       212       209       207       205       206
      205       204       202       203       205       205       203       201
      201       199       198       198       198       198       195       195
      193       194       194       191       190       190       194       194
      194       194       191       190       191       188       182       181
      181       183       188       193       196       199       197       197
      194       194       193       190       187       190       192       193
      196       196       197       198       199       199       200       201
      199       198       197       196       192       191       193       194
      196       197       201       202       203       200       200       199
      197       197       196       196       197       196       196       194
      195       192       192       194       197       196       195       195
      194       196       198       199       199       199       202       203
      202       201       197       192       190       188       191       193
      194       194       194       196       200       199       199       202
      203       206       208       209       214       211       208       208
      208       205       205       206       206       207       205       206
      207       210       213       214       218       222       226       230
      236       245       253       261       282       313       360       426
      513       618       742       876      1016      1153      1276      1388
     1481      1566      1656      1746      1826      1921      2011      2097
     2174      2217      2232      2196      2123      2020      1881      1740
     1601      1463      1323      1219      1122      1050      1003       962
      935       915       914       922       940       983      1043      1102
     1169      1234      1282      1318      1335      1310      1262      1186
     1087       979       865       759       663       579       514       457
      413       383       357       333       321       304       295       292
      283       282       279       281       286       297       318       360
      426       516       626       746       866       981      1082      1166
     1219      1240      1237      1214      1174      1137      1098      1057
     1020       985       953       931       920       903       878       856
      831       810       791       772       754       737       722       709
      706       709       711       705       702       699       692       689
      681       670       660       645       623       597       571       542
      507       473       440       407       378       347       316       292
      274       258       245       232       224       216       214       213
      209       206       203       202       205       210       214       213
      213       209       205       201       200       193       187       186
      189       192       194       194       195       196       197       197
      195       195       194       192       194       196       196       195
      191       187       190       192       192       191       193       193
      192       192       193       193       194       194       193       191
      194       194       193       192       191       187       184       183
      186       187       187       189       191       191       191       191
      190       189       186       187       188       189       189       187
      187       186       186       185       186       188       188       188
      189       193       193       192       191       191       188       185
      182       182       180       179       180       182       185       186
      185       185       188       187       186       185       185       183
      181       182       182       184       183       181       179       178
      179       180       181       183       184       183       186       187
      188       191       191       188       186       188       187       187
      185       183       180       181       179       178       178       178
      177       175       178       181       180       182       183       183
      184       184       180       180       180       181       181       182
      183       185       186       188       190       190       191       190
      189       191       192       193       197       201       204       204
      205       206       207       207       208       206       204       204
      206       209       214       216       214       212       209       206
      204       200       194       189       186       183       184       186
      188       190       191       191       190       193       194       195
      193       189       187       184       182       183       180       179
      179       175       174       178       179       182       181       178
      176       174       173       172       169       168       170       168
      170       175       177       180       180       176       175       176
      177       177       177       177       179       178       179       179
      178       179       177       174       174       174       175       174
      173       173       176       174       173       174       175       177
      178       179       182       184       186       186       187       188
      186       180       179       177       172       170       171       171
      173       173       174       175       175       173       171       172
      174       175       172       173       177       177       179       180
      183       182       178       174       172       174       174       173
      173       174       175       177       180       181       182       181
      179       180       179       182       183       182       181       180
      178       178       175       174       175       175       176       176
      173       176       176       175       174       175       176       178
      179       180       180       180       182       180       178       177
      176       177       178       181       182       180       179       177
      176       176       179       176       175       176       180       184
      187       187       186       183       183       182       180       178
      178       175       173       175       176       177       180       181
      183       183       185       187       187       187       188       187
      187       187       185       185       183       182       182       180
      178       175       173       174       175       176       176       175
      177       179       179       181       181       179       178       175
      177       178       178       177       177       175       177       179
      178       177       173       171       170       167       169       170
      173       172       173       172       176       177       176       175
      171       171       171       172       175       174       174       172
      171       174       174       173       174       174       171       174
      173       174       175       175       176       176       178       182
      182       186       188       186       185       186       185       185
      187       183       183       183       184       183       183       183
      181       180       178       176       179       176       177       176
      179       180       180       180       183       182       184       183
      182       182       183       181       184       185       185       184
      182       179       179       178       177       176       178       179
      180       181       183       186       188       187       185       183
      183       183       184       186       189       191       188       187
      190       192       189       187       186       184       185       183
      184       186       188       190       192       196       206       216
      226       241       259       276       291       305       321       331
      336       342       344       342       339       329       321       313
      303       291       280       270       264       255       249       248
      244       242       239       236       235       235       237       236
      241       247       251       256       261       267       270       275
      278       282       287       292       296       296       301       303
      301       302       301       295       291       285       280       273
      268       266       261       258       260       260       265       267
      280       292       324       351       398       454       527       624
      743       884      1019      1151      1265      1349      1411      1440
     1439      1402      1355      1291      1220      1159      1105      1061
     1006       963       912       857       799       738       671       610
      553       497       440       393       349       316       288       273
      258       244       236       228       220       216       211       206
      202       197       193       193       193       195       192       190
      191       192       192       191       190       191       191       194
      197       201       201       201       202       199       199       199
      198       194       193       189       185       186       184       184
      184       186       185       184       186       189       192       191
      192       191       189       189       189       188       185       183
      180       179       179       178       178       175       176       176
      177       178       180       180       177       178       180       183
      183       182       182       180       179       177       178       177
      175       171       166       166       167       168       169       168
      170       172       172       173       175       174       173       172
      173       174       175       178       182       183       186       187
      183       180       180       176       173       172       174       176
      176       178       179       179       180       180       179       178
      175       170       168       169       169       168       168       171
      171       171       173       177       181       181       178       178
      177       176       176       174       174       175       174       175
      176       180       180       179       178       181       179       178
      178       177       177       178       180       183       181       182
      182       184       183       185       179       177       173       170
      171       169       168       170       170       173       175       177
      179       182       181       182       180       178       177       175
      179       179       180       181       182       183       183       184
      182       181       178       175       174       177       179       179
      180       183       185       184       184       185       184       180
      177       176       174       174       172       173       175       176
      174       175       179       180       180       179       179       181
      178       175       174       175       174       172       171       175
      177       175       178       178       176       180       178       176
      177       176       175       174       175       172       170       170
      170       170       171       174       175       175       174       172
      173       170       170       168       171       173       174       177
      178       178       181       181       179       177       176       176
      178       183       190       197       208       226       245       269
      293       309       325       337       347       354       356       356
      349       342       336       330       326       321       315       308
      304       297       300       301       303       304       304       303
      301       297       294       292       291       287       282       278
      279       275       272       268       262       256       249       242
      236       231       224       221       220       220       217       217
      219       219       218       216       217       214       211       208
      204       205       202       200       198       199       201       199
      197       196       197       195       194       193       191       191
      188       189       190       190       190       187       185       184
      182       182       182       181       183       184       184       186
      188       189       187       185       182       181       177       175
      173       170       170       171       171       171       170       173
      172       174       176       179       177       176       176       177
      180       181       179       176       173       175       173       172
      169       166       165       165       168       171       172       175
      177       178       180       183       181       177       173       173
      173       171       170       171       169       171       173       173
      176       175       175       176       179       180       179       179
      182       185       182       184       184       182       179       177
      177       179       175       171       170       171       171       170
      169       172       174       175       176       179       181       181
      176       173       170       167       163       160       161       165
      168       173       174       178       183       185       185       189
      192       192       190       189       191       192       193       192
      188       191       191       192       194       203       205       213
      224       239       260       295       344       420       517       642
      793       963      1139      1309      1465      1578      1634      1637
     1585      1485      1348      1190      1019       859       717       595
      496       422       371       323       286       263       244       229
      221       212       208       205       203       200       195       191
      187       183       177       175       176       177       179       178
      178       177       178       179       178       180       184       187
      188       189       188       188       189       186       178       174
      175       173       172       175       180       179       181       179
      178       180       180       176       172       174       176       174
      176       178       179       177       178       177       176       174
      173       173       173       172       173       172       176       178
      180       180       178       179       178       179       178       183
      183       181       181       178       179       178       176       173
      172       170       171       172       172       173       174       176
      181       183       185       186       184       185       185       181
      178       173       168       165       164       164       166       166
      165       166       168       172       174       176       176       175
      174       172       170       172       176       177       178       176
      177       180       183       181       181       177       174       169
      167       170       171       170       170       169       170       174
      173       174       173       170       168       163       161       163
      162       161       160       162       166       170       169       171
      169       172       171       169       170       171       172       171
      171       174       176       179       180       181       182       184
      183       180       179       176       175       170       167       164
      164       166       167       168       169       170       170       169
      169       168       167       164       165       165       167       168
      169       170       173       174       175       174       176       177
      176       177       180       178       180       179       179       180
      179       177       176       177       181       185       185       188
      189       187       186       182       181       176       171       170
      171       172       170       171       170       172       172       171
      171       171       174       173       176       179       182       182
      181       180       181       181       180       178       178       174
      171       170       172       175       176       176       175       174
      176       176       176       175       171       169       167       169
      170       170       170       171       171       171       173       173
      174       173       173       176       178       181       182       182
      182       181       180       179       178       177       174       172
      174       174       176       178       180       182       181       182
      181       181       180       179       175       174       177       176
      174       178       180       182       181       183       182       181
      180       180       178       175       173       168       164       166
      165       167       171       175       176       178       181       182
      180       178       177       174       172       173       173       175
      176       178       179       181       183       180       178       177
      176       175       172       172       171       168       170       174
      174       174       173       172       172       172       175       177
      175       174       173       173       175       172       170       171
      170       171       174       177       180       181       181       180
      181       179       175       171       169       168       165       165
      169       170       172       173       176       177       178       177
      175       174       173       173       172       174       176       176
      178       178       182       180       181       179       178       177
      177       178       175       174       171       169       170       171
      172       171       173       173       174       173       174       174
      170       168       165       163       166       168       167       167
      167       167       167       165       169       172       172       173
      174       175       176       177       175       174       174       173
      173       173       176       176       174       177       178       177
      176       177       174       174       177       178       178       177
      176       173       171       172       170       168       172       172
      172       175       177       179       178       178       175       176
      172       170       168       168       169       169       170       171
      170       171       170       168       167       167       164       163
      163       164       165       167       167       168       169       172
      172       174       175       178       178       178       180       179
      178       177       174       174       175       174       174       174
      174       174       172       170       170       168       168       169
      169       173       173       175       178       179       181       179
      177       177       175       174       171       168       167       166
      164       164       165       165       165       165       168       171
      172       171       171       173       174       173       176       174
      174       172       171       172       175       177       178       180
      183       187       189       192       194       191       190       185
      186       187       185       182       184       184       184       184
      183       184       184       183       181       181       182       179
      175       176       179       179       180       178       179       179
      180       178       178       180       179       175       173       176
      179       178       175       173       171       169       167       166
      167       166       166       166       167       171       173       171
      170       170       166       165       163       162       161       164
      165       167       168       172       174       174       174       174
      171       171       169       168       168       170       168       169
      169       170       170       171       170       171       173       175
      175       173       172       171       169       168       166       165
      167       168       166       168       169       169       169       168
      170       175       176       176       176       177       179       178
      176       177       176       178       179       178       179       180
      178       176       175       174       172       172       170       170
      172       171       172       171       173       174       178       178
      179       178       177       177       176       176       177       174
      173       172       173       176       177       175       176       177
      177       176       177       176       176       175       172       173
      175       177       174       176       180       180       177       176
      176       173       170       170       169       172       174       174
      175       181       184       183       184       189       191       190
      191       193       193       195       191       188       186       184
      184       185       188       191       194       194       197       200
      201       200       198       198       194       194       198       200
      201       202       204       206       211       213       215       214
      214       209       203       199       194       192       189       186
      186       190       191       192       196       193       192       190
      186       182       177       176       174       172       171       173
      174       176       175       174       174       176       177       179
      179       185       189       190       191       193       191       187
      182       181       179       175       173       168       168       172
      173       172       171       171       168       171       175       179
      179       177       180       178       181       183       182       182
      180       178       176       178       177       175       172       170
      171       171       172       176       180       184       188       189
      191       194       193       191       186       185       186       186
      183       183       182       180       177       174       171       171
      169       169       171       178       183       184       185       184
      184       185       182       180       177       173       171       171
      171       173       172       172       173       176       180       181
      179       178       180       178       175       174       174       173
      172       172       175       177       176       174       173       175
      178       177       175       176       176       173       172       174
      175       173       170       169       167       170       171       174
      176       178       180       181       180       182       182       181
      181       180       180       182       183       184       184       184
      186       186       183       184       186       186       186       181
      181       182       184       181       181       182       186       188
      191       193       196       196       198       202       213       223
      230       235       248       260       268       273       276       273
      269       261       254       244       237       225       214       206
      200       196       194       193       192       193       193       194
      195       196       198       197       197       198       197       202
      205       207       205       205       207       207       210       211
      209       207       210       214       215       220       228       239
      258       289       345       418       501       585       667       745
      809       851       875       882       866       840       807       775
      757       738       718       703       686       666       642       617
      596       577       553       543       529       518       504       487
      476       466       449       430       409       386       367       349
      330       316       298       278       259       242       234       222
      212       203       194       188       184       185       185       187
      188       188       189       191       192       190       190       188
      186       186       185       187       185       185       183       181
      183       183       182       183       184       186       188       189
      190       188       186       186       183       183       181       179
      179       177       176       178       179       179       180       181
      184       185       186       186       186       187       186       183
      181       181       182       179       179       180       181       182
      181       182       182       182       182       180       180       181
      182       180       182       183       186       187       188       190
      190       191       191       191       191       190       190       189
      191       191       192       192       194       196       198       198
      202       205       207       211       212       213       218       217
      219       220       222       223       220       217       218       216
      215       212       210       211       212       211       211       210
      209       207       206       208       212       220       229       246
      265       284       303       322       339       352       366       380
      394       407       419       438       455       472       487       498
      505       506       500       488       475       455       435       416
      401       389       374       364       360       354       349       348
      343       338       331       323       315       309       306       299
      290       285       280       276       274       274       271       268
      263       257       251       249       250       245       241       240
      235       233       229       223       218       213       209       204
      201       201       201       197       197       199       197       195
      193       190       191       190       191       190       189       189
      190       190       194       196       198       199       202       204
      205       202       203       200       200       199       198       200
      202       201       202       203       203       200       196       195
      192       186       184       182       183       184       186       186
      186       187       185       186       188       192       195       200
      215       228       242       252       261       268       270       266
      261       253       245       238       232       229       229       226
      222       219       215       213       211       207       204       200
      199       198       199       200       196       193       192       194
      196       195       196       195       193       192       193       191
      194       196       193       193       194       196       194       192
      191       191       191       194       199       203       209       220
      227       236       245       257       272       284       298       312
      324       332       332       329       319       309       291       272
      253       239       227       215       210       204       204       203
      200       203       201       202       202       204       204       207
      207       207       209       212       217       216       215       216
      213       213       213       212       208       205       200       199
      201       200       198       195       193       190       187       185
      184       182       182       180       178       180       184       187
      189       193       193       191       192       191       190       189
      187       184       183       185       185       187       184       186
      183       180       181       181       181       181       183       185
      186       186       188       190       190       190       188       186
      186       185       186       186       187       188       189       188
      187       187       187       185       183       180       179       184
      185       187       190       191       190       189       186       185
      183       180       174       173       177       180       181       183
      185       188       194       198       197       195       193       193
      190       190       190       189       189       190       189       192
      193       192       186       183       180       177       174       173
      174       178       181       183       183       186       190       192
      190       188       186       184       182       180       181       181
      184       185       185       192       196       199       200       201
      200       201       199       204       210       217       227       236
      246       257       263       270       274       276       276       276
      272       269       265       258       252       245       237       230
      224       219       220       221       221       221       221       222
      222       217       215       212       208       205       204       204
      204       201       198       198       198       200       202       203
      202       200       201       202       201       200       196       193
      190       189       187       187       188       185       182       183
      184       185       187       188       187       188       189       190
      191       191       191       189       190       191       193       194
      197       200       205       208       212       216       219       219
      220       222       222       222       223       220       221       220
      218       213       214       212       209       205       207       207
      207       207       206       204       206       207       209       208
      208       205       204       202       205       206       206       202
      202       201       202       204       203       202       199       199
      199       199       201       200       198       195       196       194
      194       193       192       193       190       190       188       188
      188       188       188       187       189       187       186       184
      185       185       182       180       179       181       180       181
      182       179       181       183       187       191       194       194
      193       193       195       193       191       190       186       186
      187       188       189       187       187       185       185       186
      187       187       188       187       188       191       193       195
      195       193       194       194       193       191       188       187
      187       184       182       182       183       184       185       185
      186       186       185       182       182       183       185       183
      182       183       183       182       182       182       183       182
      183       184       185       185       187       189       190       191
      189       190       190       188       191       190       188       188
      185       184       186       190       189       192       193       196
      197       196       197       194       191       190       188       189
      190       190       188       192       191       190       186       181
      180       176       176       178       179       181       180       181
      182       182       180       178       173       174       175       178
      184       187       190       191       191       195       195       193
      193       193       192       192       189       187       186       185
      181       180       177       179       179       181       187       190
      189       190       187       187       187       189       188       188
      188       193       195       197       198       195       193       192
      189       188       187       188       191       189       189       189
      186       184       181       178       178       178       179       176
      178       181       183       183       181       180       180       182
      184       186       190       191       188       189       193       195
      195       195       191       189       187       187       188       186
      185       184       184       189       191       188       188       185
      182       179       178       180       183       186       187       190
      194       198       199       198       196       194       193       191
      191       191       191       191       185       183       187       186
      187       185       184       185       187       188       189       188
      188       187       185       186       189       187       188       186
      189       190       193       194       192       190       191       193
      191       189       190       189       188       187       188       186
      185       188       187       189       192       193       194       197
      199       199       195       194       194       192       195       201
      205       215       229       245       262       273       282       290
      291       296       295       288       285       278       271       271
      270       268       262       257       255       251       246       246
      240       235       234       231       231       234       231       231
      232       234       233       231       228       226       221       217
      213       207       202       199       195       192       192       193
      192       192       193       193       192       191       191       193
      196       198       195       192       192       193       192       190
      189       185       185       186       188       191       194       192
      190       189       188       188       189       189       190       192
      196       197       195       195       196       197       196       195
      194       193       195       194       195       195       194       190
      188       188       191       194       196       196       193       193
      194       193       194       190       186       184       182       182
      183       185       184       181       180       184       186       192
      195       197       198       200       201       203       202       197
      192       191       191       190       192       195       194       193
      193       193       193       193       189       186       188       191
      191       193       192       191       191       189       189       189
      189       189       188       191       194       195       195       196
      195       202       207       215       225       238       255       273
      295       317       334       345       353       358       358       354
      340       332       320       309       302       297       295       292
      291       291       289       290       286       281       279       280
      282       283       282       283       281       281       283       278
      273       270       266       260       260       257       258       259
      254       251       246       244       240       236       235       233
      234       233       235       236       239       240       237       236
      230       226       220       216       213       210       211       209
      208       207       205       206       205       205       203       199
      195       195       197       197       200       199       198       198
      198       198       194       194       192       188       185       188
      192       194       193       194       197       197       199       198
      197       199       200       198       195       195       196       195
      194       194       194       192       193       191       191       192
      194       192       195       193       195       195       195       193
      191       190       189       186       188       191       192       192
      196       195       195       195       195       192       192       194
      196       196       199       199       197       197       197       195
      192       191       192       191       192       193       196       194
      194       194       192       193       192       192       192       192
      194       195       197       200       202       203       205       208
      205       204       203       200       197       194       192       191
      188       187       186       188       188       188       185       187
      187       187       190       192       193       191       191       195
      194       195       197       199       200       199       201       204
      206       207       202       201       200       198       195       196
      198       196       194       193       194       199       200       203
      200       201       198       196       195       194       194       190
      191       192       192       200       206       209       210       208
      205       204       201       199       198       195       195       195
      197       203       208       208       213       214       218       222
      222       225       224       222       221       218       214       212
      211       210       213       215       218       219       218       219
      216       214       215       212       211       212       216       215
      216       220       221       220       221       228       240       261
      287       311       334       355       375       388       401       408
      406       399       387       375       366       357       346       332
      318       310       301       297       296       297       299       299
      301       300       307       306       306       307       307       305
      298       294       287       278       268       256       249       239
      236       230       228       225       219       214       211       208
      203       201       200       197       196       197       200       203
      206       205       204       203       203       201       197       196
      194       192       192       193       196       197       203       205
      207       208       206       202       200       200       203       203
      206       205       204       203       204       201       200       196
      194       193       195       198       202       203       206       206
      204       206       208       208       206       206       210       206
      204       202       200       196       194       191       191       193
      194       195       193       195       196       194       196       197
      196       198       199       199       200       198       199       197
      195       197       196       198       202       201       205       208
      211       215       220       230       244       256       272       289
      303       320       334       340       346       344       340       333
      327       323       316       311       307       304       302       300
      298       294       291       282       275       269       264       262
      263       269       272       277       278       276       273       268
      261       247       237       224       213       206       202       198
      196       194       192       191       191       193       196       200
      200       202       206       206       206       205       204       201
      198       194       193       192       192       192       190       192
      194       195       196       195       195       195       194       197
      201       201       202       206       208       209       209       209
      208       208       211       211       211       215       211       211
      211       210       206       203       200       199       202       202
      202       200       201       203       199       201       201       201
      200       200       200       203       206       204       204       202
      200       200       199       201       202       209       220       230
      241       256       266       270       274       272       271       268
      264       259       253       253       257       258       257       258
      254       249       247       244       245       242       241       240
      240       240       240       238       236       236       237       238
      242       247       251       252       256       259       258       256
      249       242       237       231       224       216       211       207
      204       204       208       211       213       216       217       220
      223       226       225       222       221       216       211       209
      206       206       207       208       210       211       212       215
      213       213       211       206       205       203       205       208
      212       215       218       218       218       219       215       213
      210       206       205       205       208       208       210       214
      217       215       216       212       208       206       203       200
      200       202       202       200       202       203       204       207
      208       203       201       201       200       200       199       199
      199       199       200       202       205       208       208       205
      209       213       214       214       216       219       221       226
      232       240       247       256       259       266       278       284
      284       284       282       277       272       267       262       255
      252       246       241       244       248       249       247       250
      249       247       242       240       236       236       238       239
      244       247       251       252       255       256       257       257
      253       253       250       249       248       249       249       248
      248       245       247       246       248       245       242       240
      235       230       229       229       227       229       229       225
      225       222       222       219       216       216       216       215
      215       219       223       231       231       231       236       234
      235       235       231       233       232       231       230       232
      232       232       228       231       234       235       239       246
      250       258       267       273       279       285       291       298
      305       313       319       323       330       335       336       339
      342       336       330       326       322       318       311       299
      292       286       282       280       277       276       274       269
      264       262       259       253       245       239       239       237
      234       234       229       231       238       242       246       255
      266       280       292       305       315       325       331       335
      335       337       334       324       317       311       304       299
      290       281       274       268       263       258       255       251
      247       242       238       233       228       224       219       215
      212       210       209       207       207       209       211       214
      215       217       214       211       210       206       204       203
      203       200       199       203       205       209       210       214
      213       213       214       212       213       214       214       211
      210       211       210       212       209       210       208       205
      203       200       200       199       201       201       202       204
      205       207       206       208       207       206       205       205
      206       206       208       205       204       204       205       207
      210       214       216       215       216       215       214       211
      208       205       202       200       201       203       206       208
      209       211       213       213       211       209       207       203
      200       198       199       203       205       203       204       205
      204       203       204       203       203       202       202       203
      203       206       207       206       207       207       210       214
      218       220       222       222       222       221       220       220
      218       216       214       212       215       216       214       214
      214       215       217       220       221       218       217       216
      215       213       214       211       208       207       205       207
      208       212       213       210       211       213       215       213
      215       213       211       212       211       210       211       213
      211       210       212       213       214       213       213       214
      215       217       215       216       216       217       216       217
      218       217       214       213       207       207       204       203
      202       204       203       204       206       208       208       207
      208       209       210       210       211       213       214       216
      216       215       214       212       212       214       215       214
      213       211       210       210       209       217       219       221
      227       234       242       250       254       257       257       259
      256       257       256       257       253       252       251       253
      257       260       261       263       260       261       261       260
      257       253       250       248       243       244       242       239
      237       233       233       236       241       243       247       245
      241       240       239       238       235       235       234       233
      239       248       262       281       301       315       329       344
      351       352       347       339       326       312       299       284
      272       270       265       260       259       258       254       249
      242       239       238       239       235       231       227       227
      223       221       221       221       221       218       215       215
      215       217       217       219       217       217       215       212
      210       211       211       210       209       211       213       217
      218       221       220       219       219       215       213       209
      207       208       212       215       218       217       216       217
      218       222       225       223       221       218       220       224
      228       225       222       215       212       213       216       216
      213       210       207       205       206       204       204       204
      205       204       206       213       214       212       211       213
      214       215       216       213       215       217       218       216
      215       214       211       208       210       213       215       217
      217       214       211       211       210       208       209       209
      208       208       211       212       212       211       209       204
      202       204       205       207       211       214       214       218
      220       220       220       218       215       215       217       219
      220       224       227       227       228       227       223       221
      218       214       211       209       207       206       204       206
      209       209       211       213       214       216       219       220
      220       220       221       221       219       219       221       219
      216       215       213       214       212       210       213       216
      216       216       215       216       216       214       215       218
      217       219       216       217       220       219       216       213
      211       211       208       210       215       219       219       223
      225       227       232       232       230       228       227       227
      224       223       218       216       215       216       219       221
      227       227       227       232       234       231       228       226
      225       227       229       230       230       233       237       241
      245       249       248       244       241       239       238       237
      235       236       237       244       251       255       260       265
      270       272       273       276       285       291       307       327
      353       393       450       527       628       769       953      1176
     1442      1757      2096      2420      2730      2982      3164      3261
     3265      3171      2994      2764      2499      2216      1943      1698
     1472      1266      1095       940       816       708       614       534
      469       420       382       353       331       311       297       283
      275       267       266       262       256       253       253       252
      253       261       277       296       326       360       400       437
      472       499       515       521       517       505       491       475
      461       449       439       436       438       438       440       439
      433       427       421       417       414       405       398       393
      392       389       389       389       385       381       375       371
      365       355       340       323       309       297       288       278
      275       271       263       260       255       249       242       236
      232       231       229       229       231       233       236       235
      233       233       231       231       230       232       232       232
      231       230       225       223       224       220       217       216
      217       217       215       217       218       217       218       217
      218       222       221       222       222       227       226       223
      221       218       219       216       217       218       220       222
      223       225       227       232       232       233       235       232
      233       232       234       239       242       251       259       270
      281       291       300       307       309       306       303       297
      293       290       287       284       283       285       285       283
      286       287       288       289       287       287       286       287
      287       281       279       277       272       266       266       264
      267       270       268       271       273       278       278       277
      278       276       273       269       267       262       262       261
      257       256       256       256       252       252       252       250
      248       247       245       241       241       239       240       238
      238       238       237       239       237       235       235       236
      234       231       229       229       230       228       227       227
      228       227       225       225       228       231       230       230
      230       233       232       231       233       233       232       230
      228       227       227       226       222       220       217       217
      216       218       221       222       221       221       219       220
      219       220       219       218       219       219       223       224
      224       224       223       224       225       224       226       231
      232       231       232       230       234       243       258       285
      325       371       424       478       523       559       584       590
      580       557       529       500       473       454       446       440
      443       449       450       451       454       448       438       428
      421       413       408       400       393       386       382       379
      372       368       368       366       363       367       372       378
      378       377       378       379       372       362       350       338
      329       318       307       300       293       288       279       276
      275       274       268       261       255       248       246       243
      242       239       239       241       244       251       260       268
      274       276       274       272       276       278       277       275
      275       273       271       269       268       263       258       251
      246       241       243       244       243       245       243       241
      241       243       245       244       247       245       243       237
      236       235       234       233       230       229       230       228
      228       228       226       223       221       221       220       224
      228       235       242       246       252       260       270       275
      282       289       292       290       288       291       288       285
      279       275       272       272       271       271       273       275
      273       271       271       274       272       268       269       266
      260       257       254       253       249       244       239       235
      232       235       237       239       241       242       244       246
      246       244       243       238       232       230       229       230
      229       228       229       230       232       229       228       229
      229       225       225       228       227       225       225       225
      226       224       226       229       228       227       226       225
      225       220       217       214       215       214       214       215
      219       225       224       226       229       228       227       225
      225       223       222       222       223       221       222       222
      222       220       222       222       221       221       219       215
      215       216       213       211       214       215       218       219
      223       228       229       229       228       226       227       225
      223       223       225       227       228       227       228       228
      226       222       221       223       222       220       223       225
      225       228       228       229       229       228       227       227
      227       227       227       227       229       226       225       224
      226       228       228       235       242       260       280       310
      345       383       414       443       466       478       490       491
      486       477       463       449       432       426       425       424
      421       419       415       410       413       412       410       404
      397       390       389       395       394       393       393       389
      384       376       368       362       355       349       344       343
      346       347       340       339       335       330       321       314
      309       302       293       284       279       274       271       268
      260       256       249       243       237       234       234       230
      231       232       235       235       239       239       238       240
      236       234       232       234       238       240       246       249
      253       258       258       259       258       255       250       246
      242       238       233       227       225       222       222       225
      223       226       226       229       229       229       232       229
      227       226       224       223       224       225       227       228
      231       233       231       234       238       237       235       233
      229       227       226       222       222       220       221       222
      222       224       222       221       217       213       215       217
      222       221       225       229       234       235       235       235
      232       232       226       223       222       218       217       214
      215       216       218       219       220       220       221       222
      218       219       218       217       222       223       224       227
      230       232       229       228       227       226       227       228
      230       230       233       231       230       232       228       226
      223       222       225       229       235       236       239       237
      235       236       236       234       230       229       227       226
      226       226       225       222       220       219       219       226
      227       229       235       236       238       241       242       241
      242       243       243       245       247       249       256       277
      308       340       382       426       468       507       540       561
      573       577       576       567       557       556       550       545
      543       538       532       528       514       501       488       475
      465       452       437       424       411       401       393       392
      396       402       403       404       399       389       377       357
      334       311       289       271       258       251       247       246
      247       246       247       245       245       242       242       241
      241       240       239       238       237       238       237       239
      244       243       244       245       244       241       239       237
      230       226       223       221       218       219       219       217
      219       222       223       229       233       235       231       231
      231       231       230       229       228       229       230       231
      233       238       237       232       228       226       227       228
      229       228       229       231       232       236       241       244
      240       239       240       242       245       250       255       261
      271       281       293       300       302       304       305       308
      306       303       302       302       299       298       300       299
      296       290       284       285       284       280       273       268
      265       260       259       260       259       257       254       252
      250       250       247       242       234       230       228       227
      230       233       234       236       236       235       233       233
      232       231       225       225       225       225       228       233
      234       235       237       240       243       246       247       244
      244       245       243       239       235       232       228       227
      228       229       230       233       236       238       242       239
      235       231       226       225       223       222       221       221
      222       225       226       229       232       234       236       240
      242       245       245       245       241       240       237       236
      232       231       228       227       229       231       231       232
      233       234       231       234       237       237       233       229
      226       228       230       231       231       233       235       235
      234       236       236       234       232       231       230       231
      230       230       229       229       227       229       230       230
      228       228       230       230       230       234       235       234
      235       233       234       235       232       230       230       230
      233       232       234       240       243       243       246       248
      249       242       241       240       237       238       236       233
      231       234       235       236       236       235       234       231
      233       234       234       235       236       235       237       241
      241       241       238       235       235       233       231       232
      231       231       230       228       229       230       228       228
      226       226       228       226       227       232       232       231
      229       228       229       229       229       228       226       226
      224       220       219       220       216       215       216       217
      218       220       221       223       225       227       228       229
      228       226       226       230       228       226       225       226
      226       226       227       228       232       234       232       232
      232       232       230       232       233       237       233       230
      231       231       231       231       229       229       226       229
      232       236       244       253       262       282       306       327
      351       380       410       436       454       472       481       483
      482       472       460       451       437       419       405       394
      385       374       363       358       351       339       334       325
      318       312       307       301       298       297       294       293
      288       288       284       279       278       275       270       267
      265       262       262       262       259       260       256       256
      253       253       253       254       257       260       262       264
      263       263       261       261       256       251       247       245
      245       247       247       248       247       245       244       243
      242       241       242       240       241       239       238       238
      235       235       233       230       229       229       229       230
      232       231       231       229       229       230       229       229
      229       228       231       233       233       232       231       231
      230       232       233       232       228       226       227       226
      230       229       229       226       229       231       232       233
      230       228       226       225       225       224       226       227
      230       232       235       235       237       237       232       232
      228       224       222       218       217       219       221       221
      222       223       227       229       228       232       234       236
      235       236       236       235       233       230       228       227
      226       227       227       230       232       235       236       237
      234       232       234       232       234       236       233       233
      233       235       236       236       236       232       232       236
      240       240       240       237       233       232       234       232
      229       225       223       222       225       229       230       226
      225       225       226       227       226       225       223       223
      222       226       232       233       234       233       234       234
      235       231       230       230       227       228       225       228
      227       225       224       225       225       225       227       228
      230       229       228       227       226       226       224       224
      225       226       227       229       232       233       234       233
      234       234       236       236       236       235       236       234
      231       230       230       229       229       225       223       223
      223       222       222       223       224       223       221       223
      223       225       229       231       232       233       233       234
      235       231       228       227       224       226       225       228
      233       234       234       235       235       235       234       231
      234       235       234       235       232       231       231       231
      231       231       230       232       233       236       238       237
      238       237       236       235       236       235       236       237
      235       233       233       231       230       229       226       225
      227       228       229       230       231       234       232       230
      231       232       234       234       231       230       230       230
      231       231       230       233       235       237       240       244
      243       243       236       231       228       226       224       221
      223       227       233       238       241       243       242       244
      243       242       243       244       242       242       243       245
      247       248       243       241       242       242       242       240
      243       245       244       245       245       247       249       247
      243       245       245       243       244       243       246       244
      242       239       238       239       239       237       235       233
      232       232       232       228       228       226       225       224
      227       232       234       233       232       236       239       244
      247       247       250       249       249       250       250       252
      251       248       249       251       249       252       251       248
      248       247       247       246       248       250       252       254
      256       257       258       263       265       268       270       269
      266       265       262       260       263       264       261       259
      260       264       268       270       272       274       276       279
      285       292       302       303       304       305       305       314
      325       343       382       429       491       580       692       813
      949      1099      1250      1408      1572      1723      1869      1997
     2099      2166      2209      2242      2247      2236      2229      2232
     2225      2227      2234      2234      2235      2207      2161      2104
     2036      1972      1904      1839      1778      1715      1647      1579
     1512      1444      1361      1274      1195      1118      1051       998
      948       899       852       802       759       711       663       613
      559       514       473       432       400       378       357       342
      327       312       302       291       284       276       268       263
      264       262       265       267       264       265       261       258
      256       255       255       254       253       254       258       258
      257       253       249       248       246       245       242       244
      246       249       252       255       255       250       243       238
      235       229       229       226       226       230       235       239
      247       254       257       255       256       257       256       253
      256       254       254       253       250       252       257       258
      256       255       253       250       251       250       248       246
      244       243       244       247       249       249       246       246
      243       245       244       243       242       243       242       246
      247       248       248       250       251       257       258       259
      256       258       256       254       251       248       245       243
      238       240       241       243       241       239       238       235
      231       233       232       234       238       239       241       246
      249       249       247       244       245       241       242       243
      244       246       247       249       255       261       276       289
      304       322       345       370       405       443       483       517
      547       571       585       590       589       570       540       505
      468       432       401       374       349       326       311       296
      286       278       271       265       259       255       249       245
      243       242       238       233       235       232       234       232
      239       242       248       253       259       268       275       282
      290       301       312       315       323       324       330       331
      333       335       335       331       326       328       329       329
      323       317       309       301       295       290       285       277
      272       268       271       275       278       279       281       285
      286       288       287       283       279       274       272       267
      264       260       257       254       253       251       248       247
      248       244       242       245       246       246       245       249
      252       253       251       246       243       241       236       233
      231       231       232       231       235       241       242       242
      238       236       234       232       231       231       231       228
      226       225       227       230       229       230       227       225
      224       226       225       225       226       224       223       225
      229       233       236       240       239       240       242       244
      241       238       235       233       232       231       231       228
      228       228       230       232       234       234       232       232
      233       233       235       234       232       230       231       233
      238       239       237       236       236       236       235       232
      234       233       229       228       227       229       230       230
      230       232       231       232       235       236       238       240
      239       240       241       241       239       243       244       243
      241       241       241       238       235       237       233       229
      225       220       220       225       228       230       233       237
      240       243       243       248       251       251       249       245
      243       239       239       240       239       238       235       233
      230       233       228       223       219       219       218       219
      226       231       234       236       236       234       238       236
      230       231       230       234       232       234       239       239
      242       243       239       238       239       234       235       237
      239       242       242       244       244       245       249       247
      241       240       235       236       242       251       264       280
      305       329       352       378       401       416       425       423
      417       407       393       381       368       360       357       349
      344       341       340       338       334       333       334       331
      330       329       328       326       323       318       312       303
      295       286       280       277       272       262       253       248
      242       239       238       239       239       238       235       233
      235       236       232       227       225       226       227       230
      233       236       235       235       236       235       237       237
      237       240       244       245       245       244       242       240
      239       235       231       225       224       222       226       227
      227       227       225       225       228       232       237       238
      238       240       244       249       252       248       246       247
      245       245       246       246       247       243       240       242
      239       237       231       230       229       233       234       238
      241       242       242       240       241       241       235       231
      229       233       234       236       237       239       240       241
      243       244       245       241       236       236       236       237
      237       236       235       233       237       239       239       241
      242       240       241       241       237       235       233       232
      229       227       229       226       227       228       229       229
      230       231       229       227       226       224       221       218
      217       215       217       220       223       227       233       235
      236       237       237       238       240       237       235       235
      233       230       227       225       222       218       216       218
      221       228       232       235       239       245       243       241
      241       238       237       234       232       233       233       235
      234       234       236       235       232       231       232       235
      240       243       246       251       259       266       270       272
      277       276       277       276       278       281       285       287
      289       294       297       294       289       287       284       284
      284       282       280       279       278       279       279       280
      279       280       282       287       287       290       288       288
      283       281       278       277       275       277       277       279
      277       274       270       265       264       263       263       264
      263       265       268       270       270       269       268       268
      268       267       269       268       267       268       267       266
      266       266       266       263       261       262       261       260
      258       256       257       260       260       262       269       275
      284       299       322       353       393       446       515       599
      699       811       940      1076      1211      1333      1436      1510
     1539      1523      1476      1398      1297      1178      1054       933
      834       746       675       624       579       538       493       453
      424       399       380       361       341       324       314       304
      296       291       284       278       272       268       269       271
      275       275       273       273       272       271       265       263
      260       257       255       254       253       252       254       256
      259       261       260       259       257       257       254       250
      246       245       241       240       241       239       235       231
      228       226       226       225       226       226       229       230
      231       234       235       234       234       233       236       236
      234       234       239       242       241       238       239       236
      235       234       233       232       232       231       230       229
      234       234       234       232       233       230       232       234
      236       234       234       236       239       240       246       249
      253       258       267       275       283       291       296       294
      298       303       305       304       301       297       297       296
      293       294       293       291       288       288       289       289
      289       288       285       285       284       280       275       272
      269       265       263       262       260       258       256       257
      254       256       255       255       254       256       257       257
      258       258       257       258       258       261       264       267
      270       272       275       279       280       281       279       276
      274       272       271       271       269       264       263       262
      263       264       263       264       263       266       266       267
      267       265       262       261       260       258       260       262
      261       263       262       260       256       255       254       249
      247       247       245       246       251       253       253       253
      253       251       250       250       250       246       247       246
      245       247       248       245       243       243       243       243
      243       242       242       245       246       242       242       241
      240       235       234       233       235       233       234       235
      236       237       235       233       237       237       236       235
      236       239       241       237       237       236       235       234
      232       231       234       233       231       231       234       237
      234       232       233       233       231       231       230       230
      230       229       231       231       234       234       232       235
      237       235       232       230       230       227       224       223
      223       223       223       225       223       227       232       233
      230       231       232       230       228       228       227       229
      227       228       226       229       230       229       229       230
      227       225       224       224       224       226       227       229
      231       230       231       235       235       236       236       237
      241       242       242       240       240       239       237       232
      227       223       219       218       218       220       221       222
      222       223       224       226       227       228       226       225
      228       228       229       230       232       234       235       235
      234       234       232       230       225       224       224       225
      229       229       234       236       238       244       244       239
      235       233       227       227       230       232       230       229
      233       233       235       236       232       227       227       227
      223       228       230       229       229       231       234       232
      232       234       235       232       233       234       233       236
      235       236       237       236       234       232       234       232
      229       226       224       224       222       223       223       227
      229       228       230       234       236       236       233       230
      226       225       225       227       230       233       233       232
      233       232       232       231       229       230       232       233
      236       239       241       242       240       236       232       230
      228       227       227       228       228       228       229       230
      234       235       233       233       233       230       230       229
      227       229       229       229       231       232       235       234
      235       237       236       234       233       231       231       231
      233       236       238       239       239       241       242       242
      240       240       236       235       234       233       235       233
      233       233       231       234       233       233       232       233
      229       229       226       225       224       224       230       234
      236       240       241       240       243       244       242       243
      239       238       237       237       238       236       236       236
      235       234       236       235       236       237       235       235
      235       235       234       235       238       240       239       240
      241       242       244       245       247       249       251       250
      249       249       250       249       247       246       243       245
      244       246       250       250       251       251       253       254
      255       254       250       249       247       250       251       252
      253       252       252       254       257       258       257       257
      257       259       259       260       258       255       252       251
      251       252       256       258       260       263       265       266
      264       260       258       256       255       257       255       254
      258       262       260       259       259       261       263       262
      262       260       258       257       254       253       253       252
      249       249       249       250       252       252       251       250
      247       250       251       249       248       247       247       245
      242       240       240       240       240       241       240       246
      249       248       248       245       244       240       234       233
      231       231       230       229       233       237       240       242
      243       244       245       245       244       244       239       237
      233       234       234       234       236       239       239       242
      246       249       249       248       245       246       245       243
      238       235       231       231       232       236       241       246
      249       253       256       259       256       256       249       245
      241       241       240       238       241       242       239       237
      236       235       234       235       235       239       240       241
      243       247       251       251       247       247       243       240
      236       237       241       243       243       242       242       243
      242       242       241       240       240       240       238       242
      246       249       248       246       241       241       241       240
      241       240       240       238       237       240       241       242
      244       244       241       241       239       239       240       241
      243       244       249       252       258       271       286       296
      315       344       374       407       438       470       497       519
      541       557       567       574       574       567       561       558
      544       528       511       500       487       478       474       473
      471       475       472       466       458       456       447       440
      438       433       419       407       400       390       384       377
      365       356       349       341       332       328       324       310
      295       287       283       279       279       276       271       268
      270       265       262       259       255       249       243       244
      244       248       247       245       242       242       245       245
      245       244       240       239       237       238       238       238
      236       235       234       236       239       240       240       242
      241       244       244       246       247       246       247       248
      250       250       250       250       248       249       247       247
      246       245       242       241       238       236       237       235
      238       241       239       241       242       245       247       244
      241       242       242       243       241       240       241       238
      235       234       237       239       238       235       237       240
      241       243       245       249       249       251       250       251
      251       245       242       241       242       244       245       250
      254       256       255       257       256       256       249       246
      246       248       251       254       252       253       251       250
      251       256       264       268       271       278       287       293
      300       305       304       301       299       297       295       290
      285       278       275       273       274       272       274       276
      278       281       286       289       290       286       286       286
      286       284       282       278       278       280       280       282
      285       289       290       292       293       291       289       285
      281       276       275       276       272       274       275       274
      271       271       267       262       258       255       249       247
      250       250       250       256       255       254       256       258
      258       258       259       258       259       266       269       269
      274       277       280       293       313       342       382       422
      471       518       570       618       661       707       758       816
      873       939       993      1055      1102      1134      1153      1152
     1141      1115      1082      1045      1009       975       939       907
      875       859       845       837       826       825       817       808
      797       780       764       739       709       683       664       655
      655       657       663       674       680       683       678       664
      639       605       562       520       480       447       419       398
      382       370       361       349       341       338       330       323
      315       310       307       301       294       289       283       278
      273       269       268       268       260       257       257       258
      256       253       252       253       254       255       258       263
      264       263       258       259       261       263       264       263
      264       264       263       268       268       268       268       267
      267       266       268       267       269       269       267       265
      267       269       266       264       263       264       267       267
      268       268       270       273       274       277       279       281
      281       283       290       306       326       352       377       411
      447       485       517       541       567       594       615       636
      655       673       686       695       703       714       722       729
      726       729       741       752       760       768       770       768
      759       746       731       710       691       671       648       631
      617       603       587       575       564       554       541       527
      516       507       504       508       512       522       535       544
      554       568       578       585       582       577       571       563
      553       543       527       518       506       503       507       519
      528       536       541       541       533       522       500       473
      442       419       399       387       376       372       366       363
      360       358       351       348       342       339       339       338
      341       340       338       336       332       331       328       330
      327       324       322       321       322       327       331       331
      337       340       338       337       334       331       320       310
      302       299       295       292       286       285       284       279
      273       271       267       264       263       264       264       268
      265       261       261       258       253       248       246       246
      245       245       246       247       246       246       244       243
      243       241       241       243       245       244       245       243
      246       246       244       243       240       237       238       238
      243       245       243       241       238       240       244       246
      244       243       243       242       246       244       242       239
      237       236       234       239       244       245       244       247
      246       243       241       241       238       239       238       238
      241       244       246       246       245       246       243       241
      241       244       241       242       241       240       242       240
      240       242       241       241       240       241       237       237
      237       236       237       237       235       233       233       237
      237       235       234       236       235       238       240       239
      241       242       240       239       239       241       239       237
      236       236       233       231       233       232       233       236
      236       236       237       238       239       241       244       245
      243       244       245       243       244       246       245       247
      250       252       254       253       253       254       249       247
      244       245       245       247       252       255       257       256
      254       251       249       246       240       238       236       235
      236       242       247       251       259       269       279       289
      294       299       302       303       305       304       307       306
      304       304       304       301       300       299       299       298
      297       300       303       303       303       297       295       293
      286       284       283       280       280       277       277       279
      279       273       270       268       270       269       270       273
      273       275       280       281       284       284       283       280
      282       280       278       275       271       266       264       264
      264       262       261       261       267       272       276       280
      283       283       281       278       273       270       265       261
      258       255       255       252       249       248       248       246
      246       243       240       243       243       242       238       238
      239       238       237       239       239       238       236       231
      229       230       231       229       231       234       238       240
      241       240       238       237       237       236       234       237
      240       238       238       236       237       235       234       235
      234       233       232       233       231       236       237       236
      237       238       238       239       240       242       240       239
      239       241       238       241       240       238       237       235
      235       231       229       232       233       233       236       238
      238       241       246       248       249       251       250       244
      242       240       235       230       229       230       231       234
      239       241       243       246       242       240       238       236
      233       233       235       233       231       231       231       233
      236       236       236       235       236       238       242       248
      246       243       244       246       245       246       245       239
      237       231       228       229       228       227       225       229
      232       231       229       233       233       232       231       230
      230       230       229       231       233       237       239       240
      240       244       244       243       240       241       241       238
      237       237       236       240       241       240       238       238
      238       236       234       234       234       232       233       234
      237       243       243       244       242       238       236       234
      233       234       232       231       230       230       233       235
      236       235       233       234       234       237       237       239
      236       237       240       241       242       243       243       240
      239       238       234       235       236       237       237       239
      241       243       241       240       241       242       242       242
      245       249       250       247       247       247       245       242
      242       244       245       249       251       254       257       257
      256       257       261       260       257       255       254       251
      245       242       241       239       238       238       240       244
      248       252       256       262       264       264       263       260
      262       262       261       258       257       258       257       255
      253       252       250       247       245       245       249       251
      253       255       257       259       257       254       254       252
      257       259       261       263       264       264       265       263
      260       259       257       252       251       251       253       251
      248       247       244       242       241       238       237       237
      236       235       235       235       237       235       235       236
      238       240       244       245       248       248       250       253
      254       259       261       262       260       262       269       275
      282       286       294       296       303       315       324       334
      345       358       373       407       454       512       574       637
      706       763       815       854       874       875       866       845
      814       791       771       750       726       708       695       678
      658       641       616       595       576       560       544       531
      518       502       487       474       457       441       421       405
      386       370       352       341       330       317       306       300
      297       290       283       280       277       272       269       266
      264       260       258       254       253       254       255       251
      251       253       253       251       254       255       256       254
      252       250       248       246       247       246       247       247
      244       241       238       239       238       235       235       236
      240       244       248       250       252       251       250       246
      242       242       239       238       236       235       239       235
      233       233       235       236       238       240       243       246
      249       249       247       247       251       249       248       250
      252       255       258       260       260       262       260       258
      255       253       257       254       252       251       248       251
      248       248       249       249       247       245       243       244
      247       246       246       246       251       253       251       252
      250       249       249       246       245       245       244       242
      242       246       246       249       250       252       250       249
      249       246       242       236       235       232       230       229
      226       228       227       228       227       232       235       237
      236       236       239       237       236       234       231       231
      233       236       241       246       247       247       248       247
      248       246       245       242       241       243       244       245
      245       244       242       241       237       238       240       239
      238       236       236       238       238       238       239       239
      241       240       238       238       239       240       240       240
      239       239       239       239       239       240       240       239
      236       236       237       240       241       240       241       241
      246       248       248       249       246       246       242       241
      240       238       238       236       236       234       236       236
      239       241       241       242       243       247       248       246
      242       241       240       236       238       239       241       244
      244       244       246       247       245       240       238       238
      237       237       240       239       241       244       249       254
      262       270       279       291       299       308       320       329
      334       337       338       337       336       333       329       328
      327       327       322       321       324       321       317       314
      311       308       300       299       298       301       303       307
      312       320       326       328       330       334       337       337
      336       336       339       336       333       337       341       344
      349       356       372       399       432       482       538       614
      717       834       977      1151      1345      1543      1757      1974
     2169      2335      2459      2531      2541      2501      2406      2259
     2082      1891      1695      1499      1330      1182      1048       940
      854       780       723       673       625       579       539       502
      466       431       400       372       346       324       309       298
      294       290       285       284       286       283       281       278
      273       268       263       261       259       257       256       258
      261       266       271       273       274       272       270       267
      261       258       255       254       257       263       268       270
      270       270       270       269       266       259       255       257
      259       257       259       260       260       257       253       251
      250       248       244       241       242       243       241       242
      245       246       245       243       243       245       248       249
      250       253       254       255       256       259       259       260
      259       259       261       261       258       255       256       252
      250       252       252       253       251       251       251       251
      251       247       242       241       242       244       249       252
      253       253       250       252       254       254       255       255
      253       255       258       261       257       255       254       253
      251       249       247       244       245       246       244       245
      244       245       245       247       250       253       253       248
      244       239       238       241       240       239       242       245
      246       248       253       250       245       241       239       238
      241       246       246       246       248       248       249       252
      252       247       245       243       246       251       256       260
      261       260       262       264       271       274       274       275
      277       282       290       297       302       307       309       311
      313       314       315       310       307       306       304       301
      296       295       291       290       284       280       279       279
      278       277       278       277       278       283       289       300
      314       330       348       365       387       406       414       420
      422       423       423       423       419       415       411       401
      397       387       383       381       372       368       366       370
      373       378       380       379       376       373       370       363
      362       363       360       358       353       354       348       345
      342       334       326       318       310       303       302       297
      293       288       280       279       274       272       265       257
      252       247       246       246       245       242       246       246
      247       249       249       247       242       241       238       236
      236       237       234       231       232       234       234       236
      238       239       237       241       241       240       239       237
      234       229       224       224       225       226       230       233
      234       236       234       234       234       232       231       229
      223       220       220       222       223       226       225       226
      227       232       237       239       241       241       239       237
      237       237       234       236       232       231       231       231
      231       231       232       236       240       241       242       244
      243       243       241       237       236       233       231       231
      232       236       237       238       239       240       238       237
      235       232       231       230       230       232       234       237
      239       236       237       234       232       228       226       225
      223       223       223       224       223       225       229       227
      230       230       232       232       234       234       236       236
      235       233       233       233       231       229       229       229
      230       228       229       229       232       231       233       235
      236       236       235       236       237       238       235       230
      230       226       224       224       224       224       226       230
      232       232       235       237       237       237       238       240
      241       243       240       239       239       236       234       229
      227       227       227       227       233       236       238       236
      234       235       233       233       231       226       225       224
      227       229       234       233       233       231       235       235
      234       232       230       229       231       232       233       231
      233       234       234       236       238       235       231       230
      228       229       229       229       228       227       229       232
      235       239       240       242       242       239       238       239
      239       237       237       238       238       237       240       239
      238       240       239       237       236       237       237       235
      236       238       239       238       241       242       244       245
      246       247       244       245       244       239       233       230
      229       229       231       231       231       233       237       238
      239       240       237       234       231       233       238       243
      245       244       247       251       254       255       253       250
      245       241       237       234       235       234       233       233
      236       238       243       244       244       245       245       246
      247       249       253       255       257       260       264       269
      271       270       273       276       280       283       289       298
      304       312       328       352       378       411       446       491
      540       587       623       651       672       676       664       644
      617       579       539       498       457       427       401       380
      361       345       336       330       323       318       312       303
      302       292       285       286       289       295       301       315
      338       374       424       483       554       632       705       768
      819       859       874       867       848       818       785       754
      727       698       679       669       660       656       650       648
      633       621       610       597       585       572       561       551
      542       541       538       539       543       540       531       518
      507       497       485       475       467       452       442       432
      422       417       413       401       391       381       373       363
      353       341       329       317       310       299       288       277
      270       265       262       260       256       253       252       250
      249       250       251       249       247       244       247       250
      249       250       249       247       246       245       243       240
      238       233       226       219       223       223       224       224
      224       228       229       233       233       232       232       231
      230       230       235       236       237       238       238       240
      238       238       238       240       241       240       239       237
      232       228       224       222       221       221       222       224
      226       231       232       230       228       225       224       224
      225       224       227       230       231       231       230       231
      231       228       226       228       230       233       233       231
      231       232       231       229       227       223       224       224
      222       224       225       229       229       230       233       236
      238       238       239       236       239       240       236       233
      228       228       226       225       227       231       232       234
      236       238       242       243       241       239       240       240
      237       235       237       239       236       233       235       236
      238       239       239       238       240       237       239       241
      243       245       243       246       250       253       255       255
      254       253       253       254       259       262       262       258
      258       262       261       263       263       261       262       263
      261       263       266       262       257       253       252       249
      248       251       254       259       269       275       281       288
      296       302       312       325       340       363       387       418
      451       484       513       535       552       555       549       531
      507       475       443       412       379       356       335       321
      312       310       309       305       305       303       301       301
      301       300       298       294       292       288       283       280
      276       275       277       277       284       294       298       303
      309       314       315       313       311       310       307       302
      299       297       300       300       296       296       297       298
      295       295       293       292       289       285       283       280
      277       269       263       262       259       261       257       255
      257       259       259       259       260       260       258       257
      256       255       255       256       249       247       248       242
      237       234       230       227       227       228       229       229
      231       232       230       231       231       228       224       221
      219       221       224       222       220       219       216       217
      217       217       219       220       222       225       232       234
      234       232       231       228       227       229       227       227
      227       225       226       226       225       223       222       221
      221       218       220       222       223       225       224       224
      228       228       230       231       232       233       232       229
      225       223       221       216       214       214       214       214
      215       215       218       221       223       224       221       224
      227       229       230       230       230       230       230       229
      228       227       225       223       220       219       221       224
      222       221       220       222       220       220       221       221
      224       226       229       230       234       236       233       234
      232       232       230       230       228       229       229       229
      228       228       228       226       222       224       225       224
      224       222       221       224       224       226       227       228
      229       228       228       229       230       228       227       223
      223       227       232       234       235       235       234       231
      230       228       228       227       221       220       221       223
      226       227       227       227       226       225       224       222
      222       222       221       225       222       223       228       230
      230       228       225       225       223       224       225       229
      232       232       232       231       229       225       223       218
      216       215       215       217       217       221       223       223
      224       221       221       222       225       227       230       231
      233       233       235       237       239       239       240       238
      238       239       243       245       247       244       243       238
      239       238       239       238       234       231       235       234
      232       230       229       226       226       224       225       225
      224       224       227       229       231       227       226       224
      223       224       225       224       223       223       222       224
      227       225       223       219       219       214       215       216
      218       218       218       221       219       219       224       225
      225       225       226       225       227       227       227       226
      222       221       219       219       220       221       220       218
      217       218       220       218       222       223       223       227
      229       230       232       233       232       231       228       227
      224       222       223       221       224       227       228       229
      231       233       232       230       227       225       221       219
      217       218       221       222       221       220       223       226
      226       228       231       232       229       227       230       232
      230       229       225       223       219       218       217       219
      219       219       216       216       221       222       224       225
      223       227       229       228       229       229       228       227
      226       226       227       225       224       223       221       226
      226       225       224       223       221       222       223       223
      222       222       225       227       224       224       226       227
      225       224       223       225       225       226       227       232
      233       230       224       221       222       220       217       217
      218       220       224       228       232       238       239       238
      236       235       235       230       225       224       223       223
      224       224       226       227       227       226       227       225
      224       221       219       220       225       225       228       228
      232       235       236       238       236       235       235       233
      232       233       231       226       226       225       226       227
      228       227       225       228       230       230       230       231
      231       228       228       229       229       231       231       230
      229       231       232       230       230       231       231       230
      230       232       233       233       231       231       229       227
      227       226       227       226       224       224       221       224
      225       226       226       227       228       230       235       238
      238       236       232       230       229       232       229       227
      224       223       224       226       226       225       224       226
      227       230       233       237       237       239       241       241
      242       243       240       239       243       250       258       270
      285       299       313       328       342       354       364       367
      369       369       367       364       364       361       355       348
      343       343       346       349       350       349       351       348
      347       345       342       335       329       324       321       325
      326       324       323       324       322       325       329       328
      329       328       326       325       328       332       338       350
      364       394       425       474       531       590       656       730
      808       888       966      1042      1108      1150      1169      1172
     1153      1121      1076      1019       950       882       812       749
      694       650       606       561       517       481       452       426
      406       385       359       336       319       303       291       277
      270       260       249       243       241       239       239       240
      242       247       250       250       250       243       239       233
      227       225       221       221       223       223       227       232
      231       232       232       229       230       232       232       231
      227       228       227       224       225       223       224       228
      228       232       235       240       242       240       239       238
      234       232       229       225       225       228       230       232
      234       237       238       239       240       239       237       236
      231       230       233       235       235       231       229       229
      231       232       231       227       221       217       213       216
      215       215       215       216       220       227       232       234
      237       237       236       237       236       237       234       232
      231       231       230       228       226       225       226       228
      225       225       222       217       217       216       216       218
      220       222       225       230       236       238       236       239
      240       238       246       252       262       272       281       292
      302       313       320       322       323       327       322       315
      317       312       309       305       302       299       295       294
      291       291       289       288       283       281       280       274
      268       260       257       251       246       243       240       240
      241       242       247       250       251       249       245       242
      244       243       241       239       240       242       244       248
      249       250       252       252       251       247       246       248
      245       245       245       245       242       242       235       232
      232       231       228       225       226       228       228       228
      229       230       230       231       231       230       233       234
      233       232       232       232       231       231       231       230
      231       230       230       228       228       227       224       221
      221       220       219       218       217       217       216       219
      220       220       222       224       222       223       226       228
      228       227       228       228       227       229       225       224
      225       226       224       223       225       224       223       222
      223       226       227       227       227       229       232       240
      250       265       283       303       318       336       358       374
      385       388       387       381       372       364       355       348
      340       334       329       334       340       343       347       350
      355       356       353       349       344       342       337       339
      343       350       354       356       357       356       354       348
      341       336       331       330       325       326       328       328
      324       321       319       313       309       307       302       296
      294       290       284       280       271       264       254       249
      247       245       242       240       236       231       232       230
      228       229       229       231       228       232       232       234
      230       231       229       225       225       223       223       225
      225       226       228       232       232       232       231       233
      230       228       227       227       229       227       227       225
      228       230       232       233       232       231       228       226
      225       224       222       220       218       217       218       218
      218       219       219       219       217       215       218       218
      220       223       223       225       224       223       223       222
      222       223       222       223       226       227       228       229
      230       229       228       226       224       220       222       221
      218       218       222       224       227       230       234       233
      235       233       230       226       225       221       218       219
      221       222       224       223       222       218       216       212
      214       216       217       220       223       229       233       236
      237       235       230       228       227       226       224       221
      218       219       219       221       225       233       238       252
      268       286       306       321       334       343       346       348
      345       338       330       323       317       316       313       309
      312       310       310       307       306       308       310       309
      308       312       314       310       307       304       301       297
      296       295       295       296       295       297       299       304
      310       312       313       312       308       305       304       303
      297       293       292       298       303       310       319       326
      337       352       371       391       409       426       438       446
      454       457       458       451       445       438       428       418
      410       403       394       384       373       362       356       349
      346       339       336       332       325       320       317       314
      308       302       296       291       286       282       276       268
      262       254       248       243       239       235       234       234
      233       235       239       244       246       246       245       240
      238       235       231       228       229       229       231       231
      233       235       238       235       235       231       227       221
      220       221       223       224       226       225       223       221
      222       220       223       223       226       228       233       237
      238       238       239       241       238       237       237       235
      235       237       237       238       236       234       230       229
      229       230       230       228       229       232       235       238
      239       239       237       232       228       227       223       220
      219       218       219       222       224       225       226       230
      230       229       231       237       236       240       242       245
      250       254       259       259       260       261       259       257
      259       259       256       261       260       263       275       285
      292       301       307       314       321       323       327       329
      331       333       333       333       334       328       318       315
      304       296       289       284       281       280       281       283
      285       286       284       283       282       279       277       276
      275       277       274       269       266       264       261       261
      260       260       258       255       257       259       261       264
      260       255       248       244       237       231       227       223
      224       227       230       236       242       244       243       242
      241       242       239       238       236       235       237       238
      236       237       236       232       228       228       230       226
      225       225       221       218       219       220       221       222
      223       224       225       226       228       227       228       226
      221       218       217       218       218       218       219       218
      219       222       225       225       222       219       216       215
      215       215       214       214       213       217       220       223
      223       221       220       220       221       219       217       214
      211       212       215       221       224       225       226       226
      230       230       232       231       229       230       228       229
      228       226       225       221       219       216       219       216
      217       216       216       218       216       216       217       220
      222       224       226       228       229       228       229       231
      231       229       229       229       230       232       231       232
      231       230       229       228       230       233       233       233
      235       233       233       236       242       252       264       283
      304       327       348       368       387       398       404       403
      394       387       379       371       360       358       354       350
      346       347       349       350       350       350       348       352
      357       359       360       364       367       369       371       372
      372       370       361       354       350       346       345       337
      333       329       327       326       326       328       325       321
      313       306       303       297       291       284       277       267
      262       258       256       254       251       251       247       241
      242       240       237       235       233       231       229       227
      227       227       227       226       223       220       222       219
      217       214       216       219       219       222       226       230
      230       232       234       236       238       237       236       236
      237       239       237       239       239       239       238       239
      239       239       243       242       245       248       244       243
      243       247       252       255       257       257       255       252
      252       249       250       246       242       242       243       244
      245       245       243       241       239       236       236       236
      239       241       242       242       241       244       243       241
      239       238       236       232       232       233       235       232
      232       234       235       236       231       229       230       230
      230       231       234       236       238       234       238       239
      240       239       238       240       240       239       238       237
      234       231       231       226       226       224       226       224
      225       222       220       218       220       226       230       237
      242       246       248       250       252       252       251       246
      244       241       241       244       244       244       244       242
      240       235       234       235       233       232       234       234
      235       237       241       241       240       238       237       239
      241       243       244       249       255       261       268       280
      297       311       328       341       355       370       376       379
      379       376       370       362       354       350       346       340
      335       329       330       329       328       326       330       332
      333       333       330       329       329       327       325       320
      313       305       300       297       299       299       299       299
      299       305       310       313       314       314       310       306
      304       303       300       299       298       299       298       297
      295       292       289       288       284       279       277       275
      273       271       272       270       269       268       268       261
      258       255       251       245       241       234       228       223
      220       217       217       218       220       221       223       227
      229       230       230       228       230       231       231       231
      226       227       226       226       223       225       222       223
      221       221       223       222       221       221       220       221
      217       216       216       218       220       221       221       222
      224       224       224       227       227       225       221       221
      218       217       219       218       222       225       228       228
      230       231       230       232       230       230       227       227
      227       225       227       227       226       222       220       219
      217       220       221       225       228       230       228       229
      232       233       233       233       232       233       231       232
      232       230       230       227       223       225       223       220
      221       223       224       228       229       227       223       222
      221       218       217       215       210       208       210       212
      216       218       219       218       217       220       219       218
      218       216       217       218       218       220       220       219
      217       215       213       213       210       210       211       213
      217       218       218       218       215       218       219       221
      220       220       220       218       220       221       220       217
      218       215       215       222       222       222       225       229
      228       227       227       226       224       221       221       218
      216       217       216       217       219       217       217       215
      217       220       219       219       217       214       216       219
      220       219       217       219       218       219       223       226
      227       228       224       225       228       226       222       216
      213       210       206       208       210       212       216       219
      218       221       225       225       224       223       222       217
      217       217       215       215       215       215       214       216
      219       219       219       221       219       218       219       219
      219       218       218       220       220       221       222       219
      217       220       220       218       216       216       217       214
      213       212       212       213       211       210       211       211
      211       209       208       209       207       207       206       207
      209       210       210       210       212       213       215       213
      211       211       211       213       214       216       215       214
      213       213       216       217       218       216       216       218
      220       222       222       220       220       221       221       222
      223       223       222       221       222       221       220       218
      215       213       214       213       212       211       212       211
      212       215       214       212       212       212       212       212
      212       214       216       219       221       222       225       223
      220       219       221       219       218       218       217       216
      216       218       219       220       222       221       224       224
      225       223       225       223       221       216       218       218
      220       220       220       222       223       223       223       225
      228       224       222       220       222       220       219       217
      216       219       222       225       230       236       236       236
      235       238       240       239       235       236       235       236
      237       240       241       242       241       243       244       246
      247       243       242       241       238       236       236       236
      232       231       229       226       226       225       223       221
      223       225       229       231       237       237       236       236
      237       237       238       236       235       234       232       233
      233       232       233       231       228       229       229       227
      226       226       225       224       225       226       225       228
      230       232       233       232       230       229       227       227
      225       222       221       217       216       219       221       225
      228       228       229       228       227       228       226       223
      222       219       217       220       224       227       230       230
      230       229       229       231       228       230       231       230
      231       236       236       231       227       224       223       218
      216       215       214       219       223       226       229       230
      228       225       225       227       228       229       229       227
      231       237       239       241       243       247       253       260
      268       274       281       287       291       295       300       303
      299       297       291       292       289       286       281       276
      270       266       263       263       260       258       258       258
      257       262       262       261       260       262       261       264
      265       271       268       270       270       268       265       262
      255       252       247       246       247       249       248       253
      255       258       261       260       257       254       250       247
      245       243       243       243       243       246       247       246
      248       244       241       238       234       233       236       233
      234       234       232       228       227       226       228       225
      224       224       225       226       226       223       220       219
      217       214       215       214       212       211       213       214
      215       215       216       216       219       220       221       222
      222       221       221       221       219       219       221       222
      224       222       226       226       227       225       226       225
      224       222       220       219       219       223       222       223
      228       231       232       233       232       231       229       227
      224       223       222       223       220       226       229       233
      234       232       229       228       227       225       223       226
      224       225       230       233       232       232       227       222
      219       220       217       215       215       216       214       217
      222       224       224       227       229       232       235       239
      236       236       232       230       227       229       233       231
      230       233       236       238       242       244       241       239
      236       235       231       230       227       223       221       223
      223       224       230       227       226       228       229       230
      231       227       226       226       227       230       229       232
      235       233       236       238       239       237       236       231
      226       225       225       225       225       227       227       226
      228       226       227       226       225       223       221       223
      223       223       223       224       225       224       223       220
      224       224       224       225       227       231       230       233
      236       238       239       240       241       244       249       248
      243       239       237       236       230       231       227       224
      225       229       231       234       234       230       225       220
      218       216       213       214       214       219       221       226
      228       228       229       231       230       226       224       221
      215       214       215       216       212       210       211       212
      221       226       228       229       231       232       230       232
      231       227       223       221       221       221       223       221
      218       220       221       222       223       221       221       223
      227       229       232       233       233       231       229       229
      228       227       223       219       223       226       227       228
      230       228       229       230       230       231       235       236
      234       236       240       240       238       239       237       235
      234       231       226       220       218       215       215       220
      224       227       229       236       241       242       242       240
      238       235       236       236       238       239       238       237
      239       244       246       243       245       249       255       262
      272       285       306       333       368       411       462       514
      559       596       630       659       675       691       696       701
      711       722       736       756       775       783       792       794
      790       790       784       784       770       757       748       743
      742       741       738       729       725       715       702       691
      676       658       627       596       577       560       547       534
      526       522       520       520       515       507       499       492
      480       469       461       448       438       426       418       411
      400       389       377       365       354       343       334       325
      315       306       303       298       295       290       286       285
      281       280       276       270       267       262       257       255
      253       251       250       247       244       241       238       237
      233       227       223       223       221       220       218       218
      218       221       226       230       231       234       234       233
      233       235       233       230       224       220       220       225
      231       234       234       237       238       241       245       249
      249       246       243       241       240       237       236       232
      229       225       223       225       227       229       231       234
      238       237       235       231       235       232       229       225
      224       222       218       218       220       221       221       219
      216       219       223       227       233       237       239       238
      238       240       238       237       234       229       223       224
      225       226       228       226       221       222       223       227
      226       225       223       225       226       226       225       224
      225       220       217       217       217       216       212       212
      212       215       217       218       220       224       225       226
      229       231       230       231       229       227       225       224
      221       220       221       223       222       224       226       228
      226       229       225       222       218       215       212       213
      215       216       218       223       223       224       224       227
      225       224       222       221       220       222       224       226
      230       231       224       223       222       221       219       217
      215       214       214       215       215       214       215       213
      212       215       215       217       216       215       216       216
      212       213       215       217       221       222       223       223
      222       221       218       217       216       215       214       216
      218       222       223       221       220       220       218       217
      218       219       219       220       219       219       221       221
      219       218       219       220       219       218       220       222
      225       228       230       230       230       228       225       224
      224       224       224       223       225       228       231       233
      237       238       239       244       248       255       264       277
      289       303       320       340       364       396       441       481
      527       589       649       709       766       825       871       903
      922       923       910       891       860       810       761       718
      669       625       588       559       532       509       487       467
      446       432       413       391       372       355       336       321
      307       294       287       281       274       271       268       267
      263       261       262       265       264       262       263       263
      265       266       265       264       259       254       250       249
      248       248       247       247       251       257       259       261
      260       258       256       254       249       245       242       240
      240       242       245       248       251       254       256       260
      262       260       261       261       255       253       252       250
      249       248       247       244       243       240       238       237
      237       234       230       231       231       232       231       231
      229       229       229       226       226       224       222       221
      222       222       223       223       225       225       228       230
      230       230       231       227       225       223       219       217
      218       219       221       219       221       221       223       227
      226       225       223       220       216       217       217       214
      215       217       217       220       222       223       220       220
      219       218       218       219       216       215       217       218
      217       217       217       217       215       215       215       218
      219       221       221       223       223       223       224       223
      220       218       215       214       213       214       213       214
      213       214       217       219       220       218       215       214
      212       213       213       215       213       212       210       210
      213       214       212       211       208       209       210       213
      214       216       216       217       218       218       221       222
      218       217       216       215       211       213       213       213
      214       213       212       214       217       216       216       218
      216       215       214       216       214       213       215       211
      213       214       213       212       214       213       212       210
      207       205       202       203       203       202       205       204
      203       202       202       201       201       201       202       205
      207       210       213       216       219       220       218       215
      214       214       211       212       213       213       212       212
      213       216       219       218       219       217       217       216
      212       211       211       210       209       211       212       215
      215       213       216       218       219       217       216       216
      217       218       221       223       220       219       217       215
      216       215       211       207       205       203       205       208
      212       213       212       214       216       214       210       205
      202       201       201       198       201       202       202       204
      205       208       210       209       209       214       217       221
      223       224       228       227       228       226       223       224
      222       221       221       225       224       227       228       232
      233       230       228       226       223       221       218       215
      210       210       210       213       217       220       221       221
      226       231       232       236       238       240       242       250
      255       260       262       263       264       265       267       266
      267       269       266       267       267       269       266       262
      256       255       255       252       249       248       248       248
      247       251       251       252       249       244       241       241
      236       228       223       221       218       217       217       218
      218       220       222       221       222       222       218       215
      212       212       214       214       214       216       214       216
      218       217       215       213       211       211       210       210
      210       208       207       205       204       205       205       204
      204       205       205       206       204       205       205       205
      206       207       210       210       210       211       207       206
      206       202       201       204       202       201       200       203
      208       210       210       211       210       212       214       211
      213       213       209       209       208       207       206       203
      200       200       200       199       201       202       204       209
      210       210       208       204       205       206       206       203
      206       207       208       209       213       216       214       208
      207       205       205       201       200       199       202       201
      200       200       204       205       205       203       206       207
      206       204       207       204       202       199       195       197
      202       207       211       213       216       219       219       215
      212       206       204       201       201       203       208       213
      218       219       222       221       216       208       203       200
      198       197       197       196       202       207       210       215
      217       216       215       215       214       212       211       209
      208       206       204       202       201       201       199       196
      196       198       201       202       205       207       209       211
      211       211       213       210       207       205       205       204
      204       203       203       207       207       207       205       203
      204       201       202       202       203       199       196       197
      200       206       206       207       206       208       211       211
      214       213       211       209       207       210       213       216
      219       218       217       218       214       211       212       209
      209       208       208       210       212       213       213       212
      210       207       202       198       197       196       194       193
      198       202       204       203       205       209       210       211
      211       212       210       209       209       211       212       209
      207       204       203       203       203       206       206       205
      201       202       203       203       204       203       203       203
      204       206       209       211       211       213       216       220
      223       227       231       235       238       239       241       246
      250       253       259       261       261       262       260       259
      255       250       246       241       239       241       238       237
      239       237       237       239       239       239       239       241
      246       247       248       250       245       241       240       234
      228       224       218       214       211       209       210       210
      212       212       212       211       211       209       209       208
      208       207       205       205       206       207       209       209
      212       213       215       214       216       215       217       215
      214       213       212       213       213       214       219       221
      221       222       225       227       234       235       237       237
      236       233       233       231       231       229       227       225
      222       220       222       219       217       215       214       211
      211       210       212       212       213       212       211       214
      217       217       219       220       221       217       216       214
      212       212       210       209       208       209       209       209
      207       207       207       207       208       208       210       215
      216       218       219       220       219       216       211       208
      207       206       203       203       205       206       207       211
      213       213       210       210       207       205       204       203
      203       204       207       209       211       214       214       216
      213       213       209       203       200       195       194       195
      198       199       200       203       206       210       208       210
      211       212       213       212       212       213       212       209
      210       210       209       209       208       212       218       221
      220       223       224       226       230       230       227       223
      220       217       215       216       214       211       208       208
      209       213       218       220       223       229       238       248
      258       263       264       262       259       258       254       250
      242       240       235       231       234       235       233       229
      228       224       226       229       232       231       230       231
      231       231       232       232       231       228       226       224
      226       228       228       227       228       231       240       243
      246       246       247       243       241       243       241       241
      240       239       241       247       253       257       263       267
      272       276       283       289       294       301       300       300
      297       295       288       281       274       265       252       242
      239       233       232       232       229       228       228       227
      224       225       223       217       214       211       210       208
      207       206       203       201       201       199       200       202
      201       201       204       205       209       209       208       207
      204       203       202       199       200       201       203       207
      209       210       209       204       200       200       198       199
      197       198       203       205       209       214       213       211
      209       208       205       208       208       208       205       204
      202       199       199       199       200       200       205       208
      209       213       215       216       212       207       202       199
      196       193       194       195       199       201       202       207
      212       215       216       216       217       215       211       210
      214       218       221       224       231       239       246       254
      259       264       268       267       266       267       267       264
      262       262       263       267       272       278       281       287
      293       297       300       300       298       294       288       281
      274       277       274       272       267       267       269       272
      273       271       272       268       265       265       262       266
      264       266       264       263       262       260       261       259
      259       256       251       248       245       246       244       244
      242       239       239       243       244       241       241       240
      236       236       236       233       228       228       226       226
      228       228       222       221       218       216       212       209
      207       204       203       203       202       204       203       204
      205       207       204       202       202       202       202       204
      204       204       206       205       205       204       205       201
      197       197       198       197       198       202       202       203
      203       201       199       198       199       199       200       201
      199       200       203       202       203       202       200       197
      195       194       195       197       198       199       201       209
      214       218       225       230       235       236       238       241
      242       245       246       247       246       246       240       234
      232       233       233       231       233       235       232       235
      235       234       230       226       223       223       224       227
      228       226       226       223       221       221       218       217
      218       220       222       225       227       227       224       221
      219       220       219       214       211       211       210       211
      211       213       214       211       209       207       206       206
      203       201       202       204       208       212       215       219
      220       218       215       211       207       204       203       201
      200       200       201       200       201       204       206       207
      209       207       205       206       206       204       204       204
      205       204       204       207       209       208       206       206
      206       205       201       197       200       200       201       201
      204       206       206       207       207       209       210       208
      205       203       203       200       199       201       202       199
      202       206       208       208       207       210       209       211
      211       212       217       222       224       229       237       243
      246       247       252       260       266       282       295       315
      346       380       416       456       494       525       554       578
      589       588       579       563       535       503       475       442
      413       386       365       346       331       318       307       297
      289       281       272       261       255       249       247       244
      242       240       241       246       255       261       266       270
      270       268       266       265       261       253       246       242
      238       236       235       233       234       234       233       234
      234       235       234       231       229       228       229       230
      232       233       235       236       238       239       238       237
      238       240       241       247       250       250       252       253
      256       259       261       263       266       269       274       283
      294       303       308       316       331       345       358       367
      372       376       375       371       365       355       341       326
      313       300       289       277       265       255       247       242
      237       234       232       229       228       231       229       225
      220       217       214       216       215       212       210       210
      208       209       211       211       208       206       204       205
      207       210       211       208       206       204       202       203
      202       197       195       193       192       192       193       197
      199       200       203       205       207       207       206       207
      209       209       206       202       200       200       197       194
      192       191       190       189       189       188       188       190
      190       191       193       194       198       200       202       203
      203       201       199       197       197       201       201       201
      199       198       199       198       193       193       189       187
      185       185       186       189       191       192       193       197
      198       201       205       208       208       209       210       210
      210       211       211       212       212       214       210       209
      204       200       197       193       188       185       184       183
      186       192       196       202       203       204       204       203
      201       198       191       192       190       188       189       190
      192       194       196       197       198       199       199       198
      199       201       202       202       204       203       202       202
      204       202       200       202       198       198       198       197
      197       197       199       196       197       201       204       206
      207       209       209       207       206       206       203       204
      202       198       197       198       198       196       196       198
      198       198       203       203       206       207       206       205
      205       202       199       199       203       207       207       208
      208       207       207       200       194       191       190       188
      192       195       200       205       208       209       212       214
      211       207       206       206       203       203       203       200
      201       201       202       200       202       205       207       211
      211       209       207       208       207       208       210       209
      208       206       206       205       203       202       198       196
      192       192       195       198       199       201       203       203
      202       204       207       206       206       203       200       199
      199       198       198       201       198       197       197       201
      201       201       202       202       204       206       209       211
      212       213       214       213       214       219       217       218
      218       219       220       223       222       222       219       221
      224       224       224       226       219       218       216       215
      215       217       216       216       214       216       216       216
      214       213       208       211       209       210       215       217
      220       220       220       222       223       221       218       220
      218       217       213       216       222       225       233       237
      248       261       274       292       311       334       349       367
      384       400       411       417       418       407       399       385
      370       357       337       318       301       288       276       266
      259       252       244       237       235       231       228       226
      223       219       218       214       214       210       207       203
      201       199       198       198       201       203       202       201
      201       204       206       205       202       202       199       198
      199       203       205       203       203       204       205       211
      211       210       207       204       200       198       198       196
      197       198       198       199       200       204       204       206
      204       205       204       204       204       202       201       201
      195       192       190       189       189       191       193       195
      200       203       204       209       213       217       216       218
      217       215       212       210       208       208       208       207
      206       212       215       218       219       221       218       215
      211       208       205       202       198       195       192       193
      192       196       199       204       206       207       209       208
      207       205       202       202       202       200       201       203
      207       213       217       220       222       224       225       222
      222       222       219       213       212       213       217       217
      220       221       224       226       230       235       238       242
      241       245       251       259       264       269       273       280
      286       292       296       298       295       291       284       279
      273       269       261       255       248       251       253       255
      253       251       249       246       244       243       242       236
      229       226       224       223       220       217       213       208
      206       208       206       207       206       205       206       207
      205       200       198       196       195       194       196       199
      199       203       203       205       205       203       200       198
      197       201       203       205       207       207       205       203
      199       197       193       190       189       192       193       198
      199       202       203       203       204       203       200       196
      193       192       194       193       193       194       197       197
      198       198       197       194       194       195       197       200
      203       205       209       211       210       207       205       202
      199       199       200       201       204       205       204       202
      202       200       198       196       194       194       195       196
      199       198       198       198       200       202       203       200
      197       194       194       194       197       196       196       193
      195       196       195       197       199       199       199       199
      199       201       205       206       207       208       206       201
      200       203       207       204       202       200       201       204
      207       206       207       206       202       200       198       197
      197       193       193       195       199       200       202       201
      203       201       197       197       196       194       193       194
      194       195       194       194       197       199       199       197
      198       202       202       202       202       203       200       199
      201       203       204       206       208       210       211       213
      214       220       225       234       247       261       273       281
      289       295       298       298       296       292       286       280
      277       275       273       270       265       261       261       257
      256       257       258       258       255       256       259       254
      247       246       243       240       238       235       233       234
      235       235       234       237       236       231       229       229
      225       220       216       213       210       211       210       210
      211       214       214       217       218       214       212       209
      207       207       205       204       202       201       204       207
      207       211       212       211       213       214       216       215
      217       218       219       219       224       226       226       226
      226       222       221       219       218       222       226       229
      229       228       229       228       225       220       214       209
      206       206       207       209       209       212       213       214
      213       211       211       208       206       206       206       206
      204       204       201       201       199       199       197       194
      194       194       191       192       195       198       200       202
      203       206       209       212       210       208       205       205
      200       200       200       201       200       201       205       207
      211       213       213       214       212       214       210       209
      207       206       205       204       201       202       202       203
      202       203       202       202       201       202       201       199
      199       199       197       197       196       194       193       193
      192       192       193       191       190       189       192       194
      193       193       194       193       197       201       203       206
      208       207       205       204       201       198       195       191
      190       190       192       193       195       196       196       195
      191       189       188       191       192       195       201       203
      204       206       207       203       202       200       198       197
      199       203       205       208       206       205       202       199
      194       190       189       188       189       189       190       189
      189       191       194       197       195       198       200       201
      200       200       201       201       198       194       195       198
      199       198       200       205       207       203       203       202
      201       200       198       196       198       197       193       192
      195       196       196       195       196       197       193       192
      193       195       199       197       196       197       200       200
      200       198       197       199       194       196       198       199
      202       204       204       205       204       202       202       204
      206       206       207       207       208       208       213       212
      213       217       219       226       231       237       244       253
      258       262       267       276       285       288       296       300
      301       304       302       297       296       292       287       281
      278       279       278       276       277       274       268       267
      262       260       259       258       258       254       253       255
      254       253       251       247       243       244       240       242
      239       242       245       243       241       242       243       242
      239       241       240       236       234       233       228       229
      226       222       219       221       224       223       227       230
      230       233       234       233       233       233       229       227
      224       223       221       218       215       209       205       204
      200       200       200       199       198       200       198       200
      201       201       202       202       206       209       208       209
      210       211       214       215       215       216       218       220
      221       223       227       229       227       227       229       228
      226       224       226       226       228       229       232       237
      243       248       252       254       259       257       255       254
      251       246       244       241       239       237       236       234
      234       232       233       230       229       227       226       228
      232       230       231       230       227       225       221       216
      213       210       207       204       203       206       206       205
      208       213       214       218       219       221       223       224
      224       224       226       227       224       224       228       231
      234       239       242       243       245       245       246       249
      245       240       236       234       236       237       237       236
      233       230       225       222       222       221       215       212
      212       212       214       211       208       209       210       211
      210       214       212       209       204       203       201       199
      199       196       199       204       208       211       215       215
      207       206       205       201       198       195       193       191
      194       194       196       198       199       199       197       198
      198       196       194       192       191       194       197       195
      196       197       197       196       195       197       200       203
      201       201       202       203       204       204       207       208
      207       206       209       214       214       214       214       217
      217       217       217       217       215       214       213       213
      211       211       209       212       217       220       219       219
      218       215       211       208       208       204       202       200
      198       200       201       202       202       203       205       205
      204       205       205       205       204       201       196       193
      190       189       188       185       186       188       189       194
      199       202       202       204       204       205       205       207
      203       200       199       198       196       196       193       193
      192       193       198       199       202       203       202       202
      201       198       197       197       195       197       197       198
      199       198       200       202       203       202       201       201
      203       203       202       201       199       197       193       194
      196       198       198       197       197       199       199       198
      198       198       197       195       190       190       189       190
      188       189       190       190       189       190       194       196
      194       191       187       189       191       190       188       188
      188       188       189       190       191       195       196       198
      198       201       202       199       197       198       198       197
      196       193       190       191       190       188       186       185
      180       178       181       182       184       186       190       190
      192       191       193       195       195       192       192       193
      195       195       194       194       193       193       193       190
      192       194       197       199       205       210       215       218
      219       223       224       224       225       224       225       226
      226       227       230       233       235       235       236       236
      233       230       228       226       222       219       214       215
      214       217       218       217       219       217       216       217
      217       215       212       208       204       203       201       202
      201       201       201       200       202       207       208       205
      203       198       197       194       191       191       191       191
      192       193       199       205       207       206       207       206
      206       204       201       201       197       195       195       196
      197       198       197       195       196       192       193       191
      191       192       190       190       192       195       197       197
      197       194       192       191       191       186       186       184
      183       184       185       187       192       192       194       195
      196       197       196       196       195       194       193       189
      187       188       191       190       192       194       195       198
      203       203       201       197       195       191       190       189
      190       188       189       191       191       194       194       192
      192       190       191       189       190       188       189       189
      192       194       193       196       200       200       201       200
      198       195       196       197       198       200       202       203
      202       204       203       200       198       195       192       191
      193       194       196       196       195       196       194       195
      195       195       195       195       198       199       199       199
      197       196       195       195       194       195       194       191
      188       189       189       187       187       186       184       187
      188       188       191       192       193       193       192       195
      194       192       193       191       188       183       183       183
      186       189       190       194       197       200       202       200
      202       199       197       194       198       195       193       191
      187       187       186       183       182       184       186       186
      188       189       191       189       187       190       193       194
      197       196       199       201       200       198       197       197
      192       189       188       190       191       191       190       189
      188       188       188       188       191       196       198       200
      201       203       203       203       200       196       194       192
      189       188       190       191       192       191       191       195
      195       195       192       190       192       191       191       191
      192       192       195       195       198       199       196       193
      190       188       189       189       189       188       187       188
      191       193       194       192       190       188       188       189
      189       189       189       188       189       192       192       196
      198       199       199       200       199       202       200       202
      204       201       197       194       194       195       193       188
      186       185       182       187       188       194       196       195
      193       194       195       193       188       188       186       185
      187       188       190       192       195       195       195       197
      199       202       200       200       197       196       194       191
      193       194       196       195       197       199       201       201
      201       199       195       194       191       193       195       195
      196       194       194       192       189       190       192       191
      190       191       193       196       196       198       196       195
      193       194       193       195       197       197       196       197
      198       195       193       192       190       192       194       196
      195       196       197       195       196       192       189       185
      185       187       189       190       192       193       195       197
      199       202       202       200       200       199       202       203
      204       201       202       204       206       207       209       212
      210       213       211       209       208       207       205       204
      206       207       207       207       208       212       213       216
      215       211       212       214       215       216       216       215
      216       216       216       216       214       212       208       203
      200       196       196       197       198       203       206       209
      213       216       217       223       228       232       237       242
      249       255       260       263       264       262       262       259
      258       259       259       257       252       248       245       241
      239       238       237       236       236       239       240       242
      245       243       240       240       237       234       235       234
      230       230       227       226       224       225       229       229
      231       234       238       239       243       241       237       236
      232       229       229       228       228       228       230       229
      228       228       227       222       218       217       220       220
      222       221       223       226       231       235       240       246
      252       260       271       280       293       303       312       323
      343       365       386       410       434       459       481       502
      518       531       534       529       519       511       498       477
      457       440       418       400       382       369       360       351
      337       330       323       317       308       304       300       295
      288       285       282       283       283       280       281       281
      283       283       284       285       285       289       293       293
      297       299       298       296       294       289       283       274
      270       263       260       261       260       257       259       262
      263       259       254       248       243       238       240       236
      234       233       231       229       229       228       224       222
      220       218       216       216       216       212       212       206
      203       197       191       187       185       189       188       189
      190       195       199       202       205       205       204       201
      202       202       201       200       198       195       194       195
      193       194       194       196       192       191       192       191
      189       189       190       190       192       193       194       197
      199       199       195       195       195       196       195       197
      199       200       203       204       208       210       212       211
      210       208       203       202       198       195       191       188
      186       184       187       189       189       189       192       193
      196       199       200       200       200       201       203       205
      202       199       195       193       196       193       192       190
      189       190       191       194       196       198       195       199
      198       198       199       196       193       192       188       184
      184       185       185       186       187       191       190       191
      193       194       192       192       190       188       188       189
      190       190       188       189       192       195       199       198
      200       200       200       199       199       199       198       196
      194       195       197       197       197       196       199       198
      197       197       198       195       194       193       192       192
      191       193       197       202       209       216       220       229
      235       238       239       237       234       232       234       232
      230       227       227       229       228       228       229       228
      224       220       220       220       220       216       217       216
      217       220       223       225       229       228       225       224
      223       221       219       217       215       214       215       215
      217       218       219       216       214       215       216       216
      213       213       212       214       213       209       209       208
      207       205       203       202       204       206       205       206
      208       211       210       206       207       204       203       200
      197       197       197       198       196       197       200       201
      200       200       203       204       206       204       203       203
      200       195       192       193       193       195       197       201
      204       206       207       206       208       207       203       199
      197       195       191       192       192       191       188       188
      187       187       188       190       191       194       192       194
      194       197       198       198       198       198       196       199
      198       198       199       200       201       203       206       208
      210       210       207       205       202       201       199       198
      199       197       199       200       204       202       202       201
      197       196       189       192       196       199       200       204
      209       215       220       222       226       228       228       229
      228       234       239       241       246       255       261       268
      274       279       282       286       290       293       295       299
      303       301       305       306       304       308       310       308
      308       305       304       304       303       300       294       289
      283       274       268       268       265       261       259       256
      256       260       263       265       267       271       270       265
      265       268       266       263       257       251       247       247
      245       240       241       239       236       230       230       229
      228       230       230       229       231       231       230       230
      231       230       225       218       216       217       216       218
      217       218       218       221       223       224       223       222
      218       217       218       215       214       212       212       211
      211       210       207       202       201       201       199       200
      201       200       206       207       211       215       214       214
      214       213       211       208       203       201       201       198
      200       200       202       201       199       199       199       197
      196       196       195       195       196       195       193       192
      192       191       188       186       187       190       191       194
      200       200       200       200       197       197       197       196
      192       189       190       190       188       190       192       193
      198       201       202       207       209       211       208       209
      209       206       204       202       200       202       203       205
      207       210       211       212       211       211       209       206
      205       202       197       196       194       192       192       191
      192       194       191       189       190       191       194       197
      198       200       201       200       201       201       202       199
      195       194       194       191       192       193       193       192
      191       191       192       190       190       191       192       193
      192       193       194       195       196       195       196       196
      193       188       189       192       192       193       196       200
      200       200       200       200       199       196       192       190
      188       192       191       192       194       194       192       191
      190       189       187       188       189       188       189       192
      192       192       193       191       190       191       189       186
      185       188       186       186       186       184       183       185
      186       189       191       193       192       191       191       190
      192       193       191       190       192       194       192       189
      189       188       184       182       182       184       189       188
      192       193       196       197       196       195       199       197
      197       197       196       195       196       196       197       194
      194       196       194       193       194       194       196       196
      196       197       200       203       203       206       210       214
      217       224       229       237       245       252       259       262
      264       265       265       267       265       263       262       261
      256       255       256       256       256       255       255       251
      254       253       253       252       251       252       253       254
      253       248       247       244       241       238       237       232
      230       228       229       229       231       228       226       225
      229       232       236       240       242       243       242       239
      234       226       217       208       201       195       192       188
      190       190       191       193       192       194       195       193
      192       195       196       199       202       203       205       205
      205       200       194       193       190       189       188       187
      186       189       189       190       192       192       190       187
      187       191       190       191       185       180       183       183
      182       184       186       184       184       186       188       192
      190       190       187       184       186       186       185       185
      183       182       181       183       185       187       189       191
      191       188       187       185       184       182       184       183
      182       181       181       182       187       188       188       186
      185       187       191       191       197       196       194       192
      192       193       193       191       189       185       183       180
      179       177       179       177       178       181       182       183
      187       190       191       190       188       187       188       188
      188       189       191       193       192       190       192       190
      191       193       190       194       195       194       194       195
      194       187       185       182       181       179       181       182
      184       187       188       190       189       188       186       182
      184       182       183       183       182       186       191       193
      196       198       200       200       202       201       198       195
      195       189       184       184       184       182       184       184
      184       184       184       184       187       188       193       193
      193       194       193       193       190       186       184       183
      182       184       187       188       193       195       199       200
      198       199       197       195       196       195       192       191
      192       191       190       189       189       184       180       178
      178       179       183       186       186       192       196       196
      195       195       193       188       185       184       183       183
      185       186       187       187       187       186       186       188
      187       186       187       187       189       188       189       189
      189       186       188       188       188       191       192       194
      193       194       195       193       192       192       191       191
      193       191       188       189       189       188       186       184
      184       185       186       188       187       189       189       186
      185       185       184       184       182       179       182       183
      187       190       190       192       192       192       196       195
      192       191       190       190       190       189       189       191
      188       189       192       195       201       201       201       204
      206       208       209       210       213       216       220       226
      230       231       232       228       226       225       222       221
      218       218       219       220       219       214       211       209
      208       207       207       208       208       211       212       214
      214       211       206       203       203       201       199       200
      199       198       200       206       207       209       205       202
      199       198       199       195       191       190       188       189
      189       190       192       191       192       196       200       203
      204       203       204       204       202       198       195       196
      196       193       196       199       198       197       198       198
      199       197       193       190       192       191       189       188
      191       193       194       196       196       197       199       198
      195       193       192       189       189       189       188       187
      188       187       187       190       191       191       190       189
      191       192       196       195       193       194       195       194
      192       192       191       187       186       187       186       186
      186       184       184       187       191       194       196       202
      206       214       224       232       236       243       250       255
      258       261       262       261       257       254       251       246
      239       233       226       225       222       218       212       211
      210       213       211       212       212       210       207       210
      210       212       207       201       197       194       191       189
      186       185       183       180       178       182       185       188
      186       187       188       190       190       194       198       198
      196       195       193       193       193       191       190       191
      193       195       198       200       203       201       201       197
      192       189       186       184       184       184       185       187
      190       189       192       193       193       192       190       189
      191       190       189       188       188       188       191       191
      193       190       189       187       186       188       189       187
      185       185       186       188       188       187       186       186
      187       188       190       192       191       190       189       192
      190       187       187       184       182       183       184       186
      186       190       193       195       196       196       194       195
      197       193       193       193       193       192       191       193
      192       190       189       183       183       184       182       182
      183       188       193       194       197       197       197       198
      197       194       192       190       188       188       187       191
      189       188       188       187       184       184       182       182
      181       181       181       181       181       182       179       184
      185       185       184       185       183       183       182       180
      182       182       181       179       178       183       184       185
      186       185       182       183       186       188       190       191
      190       189       188       188       187       183       181       178
      178       178       179       181       180       180       179       179
      180       179       181       180       181       180       180       181
      183       185       183       182       182       182       182       181
      181       180       179       177       176       179       179       179
      177       178       181       182       180       180       181       182
      183       183       184       184       182       179       181       180
      182       180       180       181       185       187       188       187
      187       187       185       186       188       185       186       185
      187       188       188       186       184       182       181       182
      181       180       180       180       179       178       180       182
      182       181       182       184       185       188       190       193
      194       193       191       188       187       186       183       182
      182       182       180       182       188       191       190       192
      189       187       188       186       182       179       177       176
      173       174       176       178       180       183       183       186
      187       190       191       191       190       188       184       181
      182       181       182       182       181       181       186       192
      191       188       186       187       184       184       187       187
      190       189       187       186       190       190       187       185
      185       185       182       183       183       183       184       186
      185       188       191       190       190       187       186       182
      183       182       182       184       187       189       189       192
      192       192       190       187       188       185       186       182
      179       180       179       177       177       182       184       185
      186       190       196       197       198       199       205       212
      215       219       225       232       234       236       239       239
      240       235       227       223       218       211       207       204
      206       206       203       201       200       198       197       195
      193       191       190       191       194       194       194       193
      190       188       189       189       191       190       190       188
      187       189       187       184       183       184       185       185
      189       192       194       198       200       203       207       211
      209       208       205       202       199       198       198       197
      197       197       196       201       202       202       198       197
      196       197       195       197       195       190       187       182
      180       179       177       175       176       179       181       185
      186       189       190       190       192       190       188       188
      188       189       188       186       183       185       182       179
      178       176       179       177       177       180       180       183
      184       185       187       189       187       188       190       190
      191       189       189       191       188       190       188       186
      184       182       183       185       186       185       185       185
      188       188       189       191       190       188       191       192
      196       199       199       199       199       196       193       189
      187       182       181       181       184       186       188       187
      186       186       186       183       181       178       175       179
      185       190       192       192       192       187       186       183
      182       178       177       176       178       183       186       189
      189       188       186       182       183       182       183       185
      188       188       189       191       191       189       187       183
      183       185       186       189       192       193       195       195
      197       197       192       189       185       184       185       185
      184       185       185       185       184       186       188       188
      189       189       189       190       189       188       187       187
      185       181       179       178       178       177       178       175
      176       179       181       184       188       189       187       189
      189       187       188       188       191       190       191       192
      191       188       184       182       179       179       178       178
      179       180       183       183       185       186       188       188
      188       190       188       186       185       180       175       173
      173       171       171       175       174       173       174       176
      176       180       183       181       182       184       185       185
      184       187       184       182       181       179       179       179
      180       181       182       183       183       185       186       187
      188       186       181       179       176       177       181       182
      180       183       181       182       182       183       184       185
      184       184       182       185       184       181       180       181
      180       183       185       187       191       194       193       192
      189       187       185       182       182       182       186       187
      185       187       189       190       190       191       191       190
      190       187       188       188       188       183       181       181
      183       185       185       185       184       185       188       191
      195       197       200       199       199       198       200       199
      195       192       192       195       196       195       195       196
      196       193       193       194       199       200       201       201
      205       205       204       202       204       204       203       200
      200       199       200       203       203       202       202       199
      199       201       202       200       199       197       196       195
      197       201       200       199       198       195       195       196
      192       191       189       189       190       195       198       201
      202       200       200       198       197       195       190       189
      187       188       187       188       189       190       191       191
      194       194       193       190       190       189       189       189
      187       186       186       185       185       185       185       184
      184       185       186       187       188       188       188       186
      185       185       186       184       184       182       183       185
      185       184       181       180       179       178       179       179
      180       183       184       184       187       187       188       186
      185       184       184       185       185       183       184       189
      188       187       185       183       182       179       179       178
      181       186       187       186       189       192       191       190
      188       189       188       188       190       192       197       202
      204       208       213       213       211       208       205       202
      199       196       193       194       196       198       200       203
      204       204       204       205       206       204       201       199
      199       202       204       204       206       206       206       206
      206       207       203       200       197       194       192       193
      194       194       195       194       194       195       196       195
      195       199       199       197       196       197       200       200
      200       200       201       202       204       203       205       205
      204       200       199       198       196       192       188       186
      185       188       190       188       188       190       193       193
      195       197       195       192       189       188       188       190
      189       188       187       188       192       192       193       192
      190       189       187       188       188       188       188       189
      188       186       187       187       189       188       190       192
      190       193       192       193       193       193       189       187
      186       185       188       188       186       187       186       188
      185       184       185       185       186       187       185       187
      188       185       180       179       176       176       172       172
      173       175       181       184       185       187       186       185
      185       186       188       187       185       185       185       189
      192       194       194       193       195       196       197       197
      199       197       197       193       195       195       195       196
      195       195       194       193       192       192       191       188
      185       182       181       177       177       175       176       177
      178       179       183       187       189       191       192       192
      191       192       196       196       202       206       205       204
      203       203       201       199       196       192       191       191
      193       195       196       196       191       188       187       188
      188       186       185       184       183       182       182       185
      184       185       182       183       185       187       187       186
      186       185       184       184       184       185       186       188
      188       190       190       186       185       183       181       180
      180       180       180       184       185       186       186       190
      191       192       195       196       196       196       192       190
      188       188       182       180       179       180       181       182
      181       183       183       183       182       182       184       186
      185       187       185       187       188       187       184       183
      181       183       182       181       180       179       181       181
      182       184       185       186       185       185       186       186
      185       182       181       181       184       185       188       191
      192       191       190       189       190       187       186       182
      181       181       180       184       185       187       187       187
      189       190       191       186       188       186       185       183
      180       181       182       183       182       183       184       185
      185       186       192       195       196       194       191       190
      190       188       185       185       183       181       181       183
      186       185       185       184       183       185       186       187
      187       188       187       185       186       188       186       184
      186       186       187       189       189       190       191       191
      191       192       195       199       203       209       218       226
      238       249       260       269       278       281       288       286
      287       286       285       284       283       281       280       276
      275       271       265       256       251       246       248       248
      250       253       255       255       257       256       256       246
      237       229       225       227       229       229       233       239
      241       244       247       248       247       243       241       238
      237       238       236       231       230       227       224       222
      220       218       213       210       207       203       203       202
      201       201       202       199       199       201       199       198
      196       195       194       193       199       203       208       214
      217       217       219       220       221       221       218       218
      214       215       215       210       210       208       209       207
      205       202       203       199       197       198       196       197
      196       193       192       194       198       198       197       199
      198       195       193       192       192       191       192       191
      191       192       194       196       197       195       191       188
      186       185       186       185       188       189       191       193
      193       193       191       188       187       185       182       183
      182       181       183       184       185       185       184       185
      185       185       186       185       183       180       180       178
      176       175       175       177       178       181       182       183
      185       183       181       180       179       174       173       176
      177       180       182       183       183       185       188       190
      191       192       190       189       190       190       189       187
      185       182       178       178       179       180       176       175
      174       174       176       177       176       176       180       181
      182       185       186       184       181       181       183       186
      188       185       182       184       185       185       187       187
      183       181       179       178       178       180       181       182
      181       182       182       182       184       184       183       182
      181       178       177       182       184       185       185       186
      188       186       187       189       190       190       188       184
      183       183       180       180       179       177       177       177
      179       184       187       190       192       192       193       193
      195       196       194       195       197       195       192       189
      185       184       183       183       183       185       187       188
      191       196       195       197       198       196       197       199
      201       202       198       195       195       194       197       198
      200       205       208       207       209       210       209       208
      203       200       198       197       195       194       196       195
      197       195       199       202       203       206       206       205
      205       207       205       205       207       205       207       205
      208       206       206       204       200       198       197       197
      195       197       198       199       201       200       199       195
      194       191       188       187       184       182       183       186
      185       186       185       183       181       179       179       179
      181       179       182       186       188       192       194       194
      194       192       192       189       187       184       182       179
      181       181       181       185       187       188       191       192
      194       194       193       190       189       189       190       193
      194       194       194       193       193       193       192       191
      188       188       188       186       184       183       182       184
      186       185       184       184       184       186       188       190
      188       183       183       184       185       185       184       184
      185       185       184       185       186       185       185       186
      187       186       185       183       185       187       188       184
      184       187       189       189       191       191       189       189
      189       189       189       190       189       186       186       185
      183       181       182       182       184       183       181       182
      183       184       181       178       176       177       176       177
      178       176       177       178       181       184       186       188
      189       187       188       190       187       183       180       178
      178       179       179       180       180       181       182       182
      181       182       181       178       180       182       184       187
      189       192       193       193       193       192       187       186
      183       182       184       185       187       189       190       191
      189       188       185       184       182       183       182       187
      190       194       199       206       210       212       213       211
      211       213       213       212       210       209       205       204
      204       209       209       209       209       209       211       209
      207       206       200       196       192       192       192       196
      193       196       197       199       198       198       198       199
      196       196       196       197       197       196       193       195
      192       191       189       187       185       185       186       189
      191       192       193       195       195       196       195       193
      189       187       186       186       188       189       187       185
      184       186       184       185       186       187       188       191
      193       197       197       197       196       194       197       199
      197       195       196       194       191       188       186       182
      179       177       178       184       193       197       200       203
      204       201       200       195       191       189       190       188
      188       191       191       190       190       191       190       192
      191       192       194       200       203       205       208       211
      211       212       215       220       225       231       234       237
      239       240       239       238       234       230       227       224
      223       220       217       215       213       207       205       202
      198       196       195       195       197       195       195       194
      193       193       191       188       186       186       185       185
      182       180       181       178       179       179       182       184
      183       185       185       188       189       188       187       185
      184       184       188       193       195       199       203       207
      208       208       205       204       200       194       189       187
      186       187       188       191       195       200       201       200
      201       202       200       197       195       193       193       196
      198       199       203       205       206       203       203       202
      202       199       199       193       189       188       186       186
      189       192       196       197       200       204       208       211
      212       206       204       200       195       193       192       189
      188       185       184       187       189       190       189       188
      189       188       187       188       189       186       189       186
      187       185       187       187       190       193       194       195
      196       196       198       197       195       189       186       180
      178       176       177       180       181       183       184       187
      190       192       193       192       190       188       187       187
      188       188       188       188       189       191       190       193
      194       190       186       189       188       186       184       184
      184       184       185       185       185       185       181       177
      179       184       183       183       182       180       176       176
      177       179       179       179       178       177       179       183
      186       187       187       185       184       187       189       189
      188       187       188       184       187       192       194       193
      195       194       194       193       194       192       192       191
      192       190       191       189       184       181       181       180
      178       178       181       182       184       187       189       191
      193       195       195       194       194       193       193       195
      195       195       194       193       193       195       197       197
      195       194       194       195       195       197       193       193
      192       193       192       191       191       189       189       188
      186       184       183       181       177       177       180       180
      180       182       184       186       190       194       197       199
      199       197       197       198       200       197       195       194
      192       189       188       188       186       182       180       180
      182       182       183       182       182       182       181       178
      177       175       176       174       176       180       182       181
      183       184       185       187       185       184       181       179
      181       179       179       179       179       180       182       184
      184       187       188       189       187       190       192       191
      191       191       192       193       191       190       187       187
      189       188       189       193       194       195       195       193
      191       189       188       187       183       185       187       184
      188       190       187       189       188       185       180       182
      185       186       188       191       192       195       199       195
      193       192       189       187       185       186       187       187
      186       187       189       190       191       190       188       187
      187       185       184       181       181       180       177       179
      180       183       187       188       187       188       187       187
      186       183       185       184       184       182       182       182
      181       180       180       180       181       184       184       184
      189       190       191       192       194       195       193       194
      194       193       191       188       184       180       178       178
      181       184       186       189       191       196       199       197
      196       192       188       184       183       184       185       186
      186       189       194       199       202       205       212       212
      211       212       211       210       207       203       200       198
      198       197       196       198       197       193       192       190
      188       185       185       187       188       188       190       191
      190       190       188       190       191       189       189       187
      190       193       192       192       191       190       186       184
      186       187       184       181       181       180       182       181
      180       180       181       183       183       186       190       192
      189       187       185       183       182       177       175       176
      178       183       186       185       186       187       186       185
      186       189       188       187       187       189       190       193
      191       187       183       182       181       179       180       183
      186       188       190       190       189       192       192       192
      195       200       206       214       222       231       238       244
      248       249       244       239       232       227       222       216
      214       212       209       210       210       215       217       218
      216       215       212       209       203       202       205       206
      205       203       201       200       201       206       208       205
      204       204       202       204       207       208       205       199
      196       196       201       205       205       206       208       207
      203       202       201       196       192       187       189       192
      196       199       202       204       203       200       197       193
      189       184       180       180       182       180       183       189
      194       197       198       196       195       192       191       188
      184       185       181       175       174       177       180       180
      180       180       185       187       189       187       187       186
      183       179       179       179       180       181       182       183
      185       184       184       180       178       178       179       180
      181       181       182       182       183       185       183       182
      184       183       185       191       194       196       198       197
      193       189       188       186       183       184       185       186
      186       192       194       194       194       190       188       186
      187       190       191       192       192       190       190       192
      192       189       189       188       188       186       186       185
      183       182       181       178       179       180       182       180
      179       177       175       177       177       178       180       180
      178       178       179       180       179       178       177       177
      178       180       179       179       180       180       179       178
      179       182       182       183       184       185       185       186
      186       186       185       183       181       178       177       175
      173       173       175       178       181       184       186       186
      184       185       184       184       183       183       184       184
      183       183       181       183       183       182       183       185
      185       186       185       183       183       182       182       183
      181       182       183       183       183       183       182       178
      178       178       179       183       185       186       186       189
      189       188       186       186       183       183       186       189
      194       198       199       201       203       203       202       203
      204       204       205       209       211       215       217       219
      220       223       223       223       224       227       227       225
      230       232       233       235       236       237       235       237
      232       230       226       224       216       215       218       218
      217       215       216       212       212       211       208       208
      208       208       206       211       214       214       210       209
      209       207       208       208       209       208       207       205
      207       207       203       198       194       194       196       197
      196       196       196       196       198       199       203       201
      199       199       202       207       209       207       205       201
      198       196       194       189       187       184       185       189
      191       193       192       193       195       196       197       200
      202       201       202       200       204       201       196       196
      195       197       201       205       207       210       211       207
      205       204       205       199       198       199       197       193
      194       197       196       195       194       193       198       198
      200       200       199       197       195       193       195       198
      197       198       199       202       202       200       202       199
      198       194       192       192       190       190       189       188
      187       187       187       187       186       189       192       190
      191       190       189       189       190       188       189       189
      192       195       195       195       194       195       195       193
      192       192       192       189       191       192       193       191
      187       184       182       182       181       182       183       185
      184       186       187       187       186       183       182       179
      176       177       178       181       181       180       182       182
      180       179       181       184       184       183       181       182
      182       183       183       183       184       182       183       183
      184       183       181       179       180       182       183       185
      187       187       186       186       188       185       183       181
      179       181       187       187       188       190       187       183
      181       180       179       176       173       171       172       176
      179       181       182       181       178       177       177       180
      181       182       182       185       187       191       193       195
      194       194       197       196       194       193       191       188
      186       186       185       186       183       184       187       189
      190       189       188       186       183       183       186       188
      188       187       184       184       185       186       186       190
      191       195       199       204       212       218       226       229
      234       239       247       254       256       258       257       256
      249       240       234       226       220       211       211       209
      206       204       201       200       199       197       193       192
      193       194       194       194       196       193       189       185
      184       181       182       181       180       180       182       184
      185       185       184       183       182       181       183       182
      182       181       179       177       177       176       173       172
      171       172       170       171       173       174       174       177
      179       180       181       179       178       179       181       184
      183       183       184       184       185       188       190       190
      191       189       190       189       190       190       187       183
      180       179       179       180       184       188       189       193
      196       197       197       198       193       189       186       184
      183       184       186       187       187       188       188       189
      187       185       180       176       176       178       177       179
      179       180       181       181       182       182       183       185
      184       184       186       187       186       190       193       194
      193       193       193       198       204       207       205       206
      207       210       211       216       219       221       225       227
      232       240       240       235       231       228       225       220
      213       207       203       200       197       192       191       188
      184       184       186       184       185       183       179       178
      178       177       178       178       179       179       184       189
      191       190       190       190       189       189       187       184
      185       182       180       179       183       184       183       183
      183       182       185       186       185       186       188       188
      189       190       192       191       191       192       190       188
      189       185       184       184       181       178       179       178
      175       178       182       184       184       185       184       184
      183       183       180       180       180       180       179       184
      185       184       184       183       181       179       176       177
      176       175       175       177       177       179       180       182
      182       183       183       181       185       187       186       184
      183       184       183       185       185       186       185       186
      184       181       184       181       176       176       175       178
      179       182       183       184       184       186       184       184
      182       179       177       177       175       175       172       171
      170       171       171       171       171       173       173       175
      180       182       184       184       186       189       189       188
      186       183       182       180       178       179       181       184
      185       185       187       186       183       181       179       174
      174       172       169       171       172       176       178       182
      183       182       185       186       186       184       185       183
      179       180       181       182       183       183       181       179
      181       179       177       176       176       177       177       178
      180       181       182       183       185       185       186       186
      186       186       188       190       191       191       192       194
      199       205       210       213       217       218       217       215
      215       213       212       209       206       205       205       207
      205       204       201       198       195       194       194       192
      192       189       187       188       188       192       190       188
      185       180       179       177       177       174       173       172
      171       173       175       178       179       178       177       177
      179       181       182       182       184       182       181       181
      182       183       185       184       186       186       185       183
      184       184       183       183       185       186       188       189
      189       187       185       181       176       172       171       168
      168       171       176       179       182       184       183       182
      181       180       179       177       177       175       177       180
      182       182       182       181       181       180       178       177
      173       172       173       175       178       178       176       176
      176       177       180       179       180       179       178       179
      181       181       182       182       182       183       184       182
      182       183       184       182       180       179       177       175
      173       172       173       175       175       176       176       182
      186       188       186       186       185       183       180       179
      181       180       178       177       177       180       182       180
      180       181       184       185       184       187       190       186
      184       184       185       187       191       191       190       188
      185       182       181       181       180       177       178       179
      185       190       194       194       194       189       185       183
      181       178       177       177       178       178       182       183
      187       189       191       191       191       189       186       186
      186       185       186       184       182       182       182       182
      182       181       177       174       172       173       175       178
      180       180       181       183       186       185       185       184
      181       178       175       177       177       178       177       178
      177       178       178       175       176       176       175       174
      175       176       176       179       180       179       177       177
      176       174       174       175       174       172       171       170
      172       175       178       179       181       184       184       185
      184       185       183       183       181       182       181       182
      181       182       182       183       184       184       184       184
      183       181       181       180       178       177       176       177
      179       180       184       185       187       185       184       183
      185       185       185       185       182       182       186       186
      189       189       190       192       192       192       191       193
      193       194       193       194       196       197       200       199
      199       197       192       187       186       187       185       186
      184       184       182       188       191       190       189       190
      190       189       193       193       191       192       188       188
      186       193       194       195       195       198       199       199
      200       198       198       196       192       193       191       197
      198       197       197       201       201       199       198       196
      196       193       192       193       191       193       191       192
      192       192       192       192       195       195       195       191
      191       190       192       193       192       189       184       180
      179       178       179       176       173       171       173       175
      179       178       177       174       175       174       175       177
      178       177       179       180       181       183       183       179
      177       175       176       176       176       176       175       175
      177       178       182       183       181       180       182       182
      184       184       184       183       181       178       176       175
      175       172       171       174       176       177       179       178
      180       179       177       175       176       176       178       180
      181       182       180       180       178       176       175       171
      169       167       167       168       171       172       172       172
      171       173       177       178       177       176       177       175
      179       181       182       183       186       188       188       189
      189       186       182       180       180       178       179       177
      175       179       182       183       185       188       188       189
      187       186       184       181       179       175       173       176
      175       173       174       173       173       175       179       179
      180       181       180       179       177       176       172       172
      172       172       175       179       184       184       185       184
      186       184       183       183       183       184       182       179
      180       178       178       177       178       177       183       185
      186       186       185       184       182       180       180       176
      175       176       175       173       174       173       169       168
      167       166       166       167       168       171       176       180
      179       181       183       184       184       184       183       178
      178       178       176       178       179       177       174       176
      176       175       177       179       181       181       184       183
      182       183       182       179       177       177       177       178
      181       184       185       186       184       180       177       174
      170       171       168       166       170       175       177       179
      180       178       176       175       176       174       175       175
      172       172       174       176       176       178       180       177
      180       184       184       183       183       180       179       178
      178       179       181       184       184       182       184       186
      182       179       176       173       171       170       171       173
      176       179       181       183       187       190       190       189
      186       182       177       173       169       169       166       163
      160       160       160       161       162       165       169       170
      173       175       180       184       184       184       184       184
      181       181       177       178       177       172       172       171
      172       174       174       177       180       181       181       180
      178       179       176       175       175       172       170       169
      168       170       170       170       171       173       175       178
      179       179       178       177       177       177       177       177
      179       180       180       179       179       180       181       179
      180       180       181       184       186       188       188       188
      186       182       181       181       176       175       174       174
      178       182       183       184       185       186       185       182
      184       183       181       184       182       182       180       175
      170       168       169       170       171       175       178       182
      184       185       180       178       177       173       171       171
      173       175       174       178       177       179       176       174
      170       172       173       172       173       173       173       175
      178       180       182       182       182       181       180       182
      182       182       183       183       186       187       190       188
      188       183       178       176       176       178       177       180
      183       183       183       181       182       181       181       180
      180       180       180       182       183       184       184       180
      180       179       180       178       178       179       178       172
      171       171       173       175       178       176       177       177
      179       178       180       179       177       172       174       175
      178       179       179       181       183       184       185       183
      180       175       172       170       170       169       168       170
      171       175       175       173       170       167       164       163
      165       166       166       165       167       170       171       171
      169       166       166       167       168       169       168       168
      165       166       168       170       171       170       169       169
      170       168       164       164       163       162       163       167
      171       177       181       183       184       184       182       182
      178       179       176       174       175       174       175       174
      175       175       173       172       171       174       173       172
      172       170       170       169       170       172       174       174
      175       177       178       178       176       175       175       175
      174       173       172       173       173       171       173       172
      172       172       173       175       176       178       174       172
      171       171       171       170       172       172       175       175
      177       181       182       184       182       181       181       181
      182       180       179       178       175       174       175       174
      176       180       182       183       185       187       189       186
      188       183       179       178       179       178       180       184
      184       184       186       189       187       184       181       175
      173       173       172       168       168       168       169       171
      175       180       180       182       181       183       185       184
      184       185       184       183       185       187       188       189
      188       187       182       182       180       178       180       181
      180       182       185       186       186       186       186       182
      178       176       171       167       166       164       162       161
      161       164       166       172       174       176       179       181
      183       182       183       182       178       177       175       175
      173       173       176       174       176       178       178       177
      177       175       173       174       171       169       168       170
      173       171       169       171       170       169       171       171
      171       169       168       170       169       171       171       171
      167       169       168       168       170       168       166       166
      169       169       169       173       173       176       177       178
      178       182       182       179       177       177       176       177
      178       179       180       183       184       182       182       185
      181       178       178       179       178       179       178       177
      176       175       173       172       171       172       171       172
      174       173       173       176       174       171       171       171
      171       173       172       172       171       172       175       176
      178       179       180       181       184       185       186       187
      184       185       185       188       189       189       188       188
      189       189       188       186       185       184       183       184
      181       181       182       182       183       184       185       186
      185       187       188       187       186       184       181       181
      183       183       185       186       186       186       187       189
      187       185       185       187       185       183       183       181
      180       177       174       171       170       171       172       174
      178       182       182       180       182       184       182       180
      178       176       177       179       178       178       178       179
      177       176       176       175       172       170       170       173
      176       175       176       178       179       181       181       183
      182       179       176       174       173       174       176       173
      174       175       176       176       174       174       174       173
      172       171       169       171       173       173       174       171
      170       169       167       170       171       174       176       175
      177       177       178       177       173       168       168       169
      167       166       165       166       167       169       172       173
      174       175       175       175       175       177       178       177
      176       178       180       181       181       180       179       181
      179       180       181       184       187       186       183       183
      182       180       179       177       178       180       183       187
      192       194       197       197       194       191       189       186
      182       181       182       183       185       185       186       185
      184       184       182       180       179       178       178       178
      178       176       177       177       177       179       177       177
      178       179       180       182       183       182       180       180
      182       183       183       181       179       180       178       180
      182       183       183       181       178       177       176       174
      173       174       174       174       174       176       178       175
      175       173       171       170       168       166       165       164
      162       165       165       166       167       167       171       173
      175       176       179       179       179       178       177       177
      175       173       169       168       169       170       171       171
      174       172       172       174       176       177       181       182
      184       186       188       187       188       191       194       198
      205       210       218       227       237       246       252       257
      263       268       279       289       296       301       302       301
      301       300       296       290       283       275       267       260
      256       250       241       236       230       226       219       217
      214       212       209       203       198       196       193       190
      186       185       183       182       180       181       181       181
      179       180       181       181       182       183       180       178
      179       183       183       181       178       173       172       173
      173       173       173       172       172       174       175       177
      177       174       172       170       174       175       176       174
      172       170       169       169       164       164       165       162
      163       164       164       165       168       170       170       171
      174       175       173       176       177       174       172       172
      170       171       171       172       172       172       171       172
      174       176       176       177       178       179       177       175
      173       173       174       170       171       172       172       173
      176       180       181       180       179       177       177       178
      178       176       174       174       173       173       174       172
      171       171       170       167       167       168       170       172
      172       176       179       176       176       175       176       176
      174       171       173       175       175       174       173       175
      175       173       173       173       176       181       183       185
      183       182       178       175       171       168       163       159
      155       154       156       160       161       163       164       168
      173       175       177       178       176       175       176       174
      173       176       176       175       174       174       175       175
      178       177       176       175       174       174       173       173
      173       171       169       169       171       173       174       170
      168       167       168       168       168       167       169       172
      174       175       176       176       174       170       172       173
      173       172       170       170       173       173       173       170
      170       168       169       170       172       172       172       169
      168       170       173       172       177       176       178       178
      180       179       180       180       177       174       172       173
      176       177       177       175       174       170       171       170
      171       170       168       167       164       165       167       165
      166       170       173       173       178       181       182       182
      183       180       180       178       175       171       174       176
      176       175       174       172       169       168       167       166
      168       169       172       176       180       184       187       187
      183       181       180       177       175       174       173       174
      173       172       171       174       173       171       171       172
      173       172       171       171       170       170       170       172
      173       172       168       168       169       167       166       166
      168       168       171       173       176       178       180       178
      177       176       176       175       176       172       170       170
      171       169       172       174       174       173       173       173
      174       175       173       168       167       167       168       167
      168       167       166       165       166       168       169       167
      167       170       171       172       171       168       167       169
      169       169       170       173       173       173       174       174
      171       168       165       164       165       167       169       169
      168       173       178       179       178       177       173       170
      169       168       167       167       166       162       165       168
      171       170       172       171       168       170       172       173
      173       176       177       176       180       180       179       179
      179       176       174       175       172       168       166       167
      165       164       167       167       167       168       165       163
      164       163       158       156       156       158       158       158
      160       162       163       164       164       165       168       167
      166       168       171       173       172       171       170       167
      166       164       164       163       162       163       166       170
      173       176       177       181       179       179       178       175
      173       171       170       171       173       174       170       171
      173       176       175       176       174       173       172       172
      168       166       166       165       163       166       170       173
      174       174       173       173       171       169       162       160
      160       159       158       162       165       169       170       172
      174       175       173       173       170       169       167       166
      167       169       170       173       173       173       172       170
      168       169       168       167       166       169       170       170
      170       167       165       164       163       161       161       166
      167       171       172       174       176       175       173       173
      171       171       167       165       166       166       166       167
      162       160       163       163       164       167       169       170
      169       171       170       167       170       170       165       165
      167       170       171       176       181       183       185       186
      186       185       186       185       181       179       179       180
      178       179       179       176       177       177       178       178
      178       180       181       182       181       178       175       172
      171       169       167       169       170       173       174       177
      176       174       174       175       172       170       171       167
      166       167       168       168       168       167       164       165
      166       165       165       166       168       167       167       168
      168       166       166       162       161       160       161       163
      167       167       167       168       168       169       169       167
      167       165       167       168       169       168       169       169
      169       167       167       167       169       172       176       175
      176       176       176       175       174       171       168       165
      166       167       168       169       167       165       164       164
      164       163       162       161       164       165       167       167
      166       163       162       164       163       164       167       169
      169       173       176       180       181       180       178       175
      173       172       169       168       166       162       162       165
      164       164       165       167       168       168       167       167
      168       167       165       163       165       164       160       159
      163       165       166       165       166       167       166       167
      169       169       172       171       172       173       175       175
      172       170       168       166       165       167       169       170
      170       170       172       172       170       171       171       173
      172       171       171       170       171       172       171       171
      169       169       167       171       173       173       170       169
      169       169       173       176       177       175       176       177
      174       176       174       173       172       170       168       166
      168       168       168       165       165       163       161       163
      166       167       169       167       166       168       172       172
      172       169       170       169       170       171       173       173
      170       167       165       168       171       172       175       177
      178       176       174       173       172       168       161       158
      156       155       155       158       161       161       163       164
      166       170       172       172       171       169       169       169
      168       168       168       168       170       168       168       167
      166       167       167       166       168       170       171       173
      174       175       175       172       170       168       167       166
      165       163       165       166       169       169       171       170
      169       166       165       165       162       161       161       161
      165       168       172       175       178       177       180       178
      177       176       171       171       169       169       169       169
      168       169       168       167       168       166       166       164
      167       167       167       167       165       165       162       163
      164       162       164       167       168       169       172       169
      170       170       173       172       170       169       169       168
      169       169       167       165       163       161       160       162
      163       162       162       164       166       171       173       174
      175       176       176       176       174       173       173       172
      170       169       170       170       168       166       166       166
      168       170       169       170       171       171       173       171
      172       168       167       165       166       165       166       164
      161       161       163       166       169       170       172       173
      174       177       179       177       175       173       172       172
      172       177       181       182       181       180       180       181
      179       178       177       176       176       178       180       182
      183       183       183       183       183       184       184       185
      188       190       191       192       192       193       199       202
      205       209       213       218       221       227       229       226
      224       225       225       225       224       223       224       224
      222       224       223       224       219       223       226       231
      233       234       236       240       242       243       243       243
      240       236       234       235       228       226       222       218
      219       219       219       221       219       217       216       211
      208       206       202       201       200       199       200       197
      196       193       190       187       185       180       179       180
      180       180       184       187       190       192       193       192
      195       194       194       190       186       183       181       176
      175       174       172       172       172       174       175       173
      174       174       173       173       171       167       165       165
      165       166       165       166       164       164       166       167
      166       166       165       166       166       169       171       170
      168       169       166       165       166       166       165       165
      165       166       166       169       169       168       166       162
      161       160       161       163       162       164       166       166
      168       168       166       163       163       161       161       160
      160       161       162       163       165       167       167       162
      161       158       160       158       157       158       160       162
      163       164       167       169       168       166       165       162
      162       158       156       157       157       157       157       159
      163       164       165       165       166       165       164       163
      164       164       164       166       167       168       170       170
      171       172       170       169       168       170       167       164
      163       165       165       165       165       168       170       171
      170       169       169       166       164       162       163       165
      165       164       166       169       171       171       172       172
      171       169       168       166       164       165       164       162
      160       160       160       160       162       163       164       164
      164       163       163       165       166       166       163       165
      166       170       169       170       170       170       170       168
      168       169       173       173       172       173       174       175
      174       175       175       175       173       173       176       178
      181       181       182       182       187       187       189       192
      194       195       193       193       193       187       185       184
      180       179       177       173       174       177       180       181
      182       184       183       184       185       183       182       182
      185       187       188       192       196       201       211       215
      218       224       228       234       240       244       248       244
      245       244       240       235       231       222       217       211
      207       203       200       198       194       194       195       192
      192       190       186       186       186       182       179       179
      177       176       176       176       176       177       177       175
      175       177       179       177       178       177       176       177
      175       173       173       174       175       175       177       177
      178       178       177       175       174       174       171       170
      169       171       172       174       176       175       174       174
      172       172       169       169       166       164       162       162
      164       166       166       165       166       168       168       169
      167       166       165       162       160       159       162       163
      163       165       168       169       171       173       171       169
      169       168       165       164       165       166       166       169
      171       171       172       172       169       167       166       164
      161       160       161       162       163       165       165       163
      164       164       160       158       158       159       159       160
      158       159       160       162       163       163       163       160
      157       156       158       161       164       164       163       164
      166       167       165       163       159       154       151       149
      150       154       157       159       159       160       162       159
      157       157       156       154       153       154       157       160
      163       162       164       166       164       163       163       161
      158       155       154       153       155       154       152       151
      153       155       155       160       161       162       162       161
      160       159       158       155       151       147       147       146
      146       149       150       154       156       157       156       157
      156       157       157       156       157       159       158       158
      159       162       165       166       167       168       166       166
      164       163       161       160       157       158       157       157
      157       158       159       159       160       162       161       163
      164       162       161       161       159       159       160       158
      159       160       161       161       160       159       156       154
      151       149       148       146       146       147       150       155
      160       163       163       163       163       165       165       163
      161       158       157       155       153       152       151       151
      149       149       152       156       159       162       163       163
      164       163       163       164       164       163       160       162
      164       166       166       164       162       162       161       158
      159       157       153       149       144       145       146       148
      148       147       147       149       150       151       154       156
      156       154       154       157       159       159       158       157
      155       156       156       155       154       156       157       156
      158       157       156       154       154       153       152       152
      152       153       155       156       157       157       159       158
      159       158       160       162       162       165       166       169
      172       172       172       170       168       167       165       161
      161       160       160       162       162       164       167       168
      169       171       175       181       185       187       192       193
      194       195       194       197       195       193       193       191
      189       188       187       183       180       176       173       173
      174       176       174       173       170       167       164       163
      162       161       163       164       164       164       166       165
      160       156       155       153       152       151       155       158
      159       162       162       161       160       158       158       157
      159       157       157       158       162       161       160       161
      159       157       156       158       161       159       157       155
      156       159       160       159       159       159       160       159
      159       162       163       161       160       161       162       163
      163       162       161       160       160       158       155       153
      155       156       159       161       163       163       164       165
      163       161       158       155       151       148       150       151
      154       153       154       153       153       155       154       154
      155       158       161       162       165       166       166       164
      163       161       158       156       154       152       153       156
      157       157       159       159       159       157       156       159
      158       156       157       158       160       161       162       165
      167       166       166       164       164       161       157       156
      158       156       154       154       156       160       162       160
      159       158       156       154       153       155       153       153
      154       154       155       158       159       157       158       160
      160       161       163       162       160       160       158       156
      156       157       155       156       157       158       157       157
      157       156       154       154       155       157       159       159
      159       162       160       158       155       153       152       153
      149       148       149       149       149       150       153       152
      150       151       153       155       158       161       161       161
      162       162       160       159       157       153       153       153
      155       154       154       154       155       157       159       156
      155       154       151       148       149       146       147       149
      146       147       152       155       156       154       156       154
      151       148       145       144       144       146       145       147
      149       151       153       156       157       158       158       158
      159       161       160       161       162       160       157       156
      155       153       150       149       149       151       152       151
      151       154       158       155       157       157       157       157
      158       160       159       157       156       156       157       161
      163       164       166       165       164       162       163       160
      155       152       151       150       151       151       150       151
      151       151       150       151       154       154       156       158
      158       159       160       158       156       158       157       157
      156       156       155       155       157       156       155       156
      156       154       154       156       154       154       151       150
      148       149       150       149       151       152       154       154
      157       159       159       158       159       158       158       160
      161       162       162       159       157       154       151       150
      150       149       149       146       148       149       149       150
      150       153       154       153       154       159       163       164
      164       163       164       161       160       157       157       159
      157       156       159       163       168       170       169       172
      174       173       176       177       181       185       188       191
      197       196       194       192       187       184       181       179
      177       176       174       172       170       171       168       162
      160       159       157       157       160       159       158       159
      159       157       159       162       159       159       162       161
      159       158       159       157       158       159       159       158
      159       159       156       157       159       156       154       154
      155       153       153       154       155       156       157       156
      157       158       159       159       159       159       155       154
      154       154       154       157       159       159       163       164
      166       167       166       163       162       163       160       158
      157       158       157       158       160       160       159       158
      159       160       161       160       159       158       155       155
      154       153       151       150       150       151       151       149
      150       151       152       150       147       147       147       145
      143       144       147       149       153       157       161       164
      166       164       162       157       154       148       146       146
      147       147       150       150       150       152       153       150
      150       148       149       149       150       150       149       149
      150       150       152       153       155       154       155       156
      155       156       156       155       157       157       157       155
      154       152       152       150       149       147       144       144
      141       141       143       145       146       147       150       152
      155       155       156       154       153       152       148       149
      149       152       150       149       149       149       151       151
      152       152       153       152       149       151       150       147
      143       141       141       141       144       144       146       147
      150       155       157       159       156       153       152       151
      150       150       150       146       147       147       147       147
      147       148       145       145       148       149       151       153
      154       152       154       151       150       149       147       145
      144       144       145       145       146       147       149       149
      149       149       150       146       145       144       144       145
      147       147       149       150       152       151       151       150
      149       146       145       142       141       141       143       145
      148       148       151       151       152       153       152       152
      149       149       148       149       149       150       152       152
      154       155       155       156       153       150       146       144
      143       141       136       137       140       142       141       144
      147       150       150       148       150       153       156       154
      153       154       155       153       150       150       147       146
      144       144       145       146       144       143       144       144
      145       145       145       146       146       149       150       153
      154       153       152       152       150       150       150       150
      148       148       147       144       142       145       145       145
      146       144       145       147       148       147       148       149
      151       150       152       154       155       157       155       151
      151       150       150       147       146       145       144       142
      144       142       142       142       142       142       142       142
      141       137       135       133       132       132       133       134
      138       141       145       145       144       145       145       143
      140       139       139       137       137       141       144       144
      146       145       146       146       148       148       148       147
      150       150       151       154       153       152       153       152
      152       150       149       146       147       144       145       144
      144       145       146       145       147       147       147       145
      143       142       146       144       143       145       147       148
      149       146       148       145       145       146       148       150
      150       150       150       151       149       146       145       142
      143       141       143       144       146       143       144       147
      145       144       144       146       146       148       149       151
      152       151       151       148       145       143       140       142
      144       146       145       148       149       151       151       150
      149       146       144       143       142       143       144       143
      142       144       146       147       146       148       149       151
      152       150       149       148       147       148       148       149
      149       151       152       154       155       154       151       150
      145       143       142       143       142       140       140       143
      143       145       146       144       144       144       144       147
      149       150       151       150       152       152       151       151
      150       150       151       152       152       153       153       149
      150       150       150       153       154       158       160       164
      166       167       167       165       164       162       161       161
      162       161       160       159       157       155       153       151
      149       146       147       147       148       150       150       150
      150       147       147       147       146       146       146       146
      148       148       148       146       145       145       142       139
      142       142       144       144       146       146       148       150
      148       150       149       149       149       149       150       150
      150       147       148       147       149       149       148       149
      147       147       146       145       145       144       143       142
      143       144       145       145       146       146       147       148
      147       151       154       155       155       153       153       153
      152       151       148       147       145       143       144       146
      147       147       147       147       149       147       146       147
      147       147       146       146       145       146       148       149
      149       149       148       145       146       146       146       145
      147       149       149       153       154       158       159       161
      160       160       159       156       152       149       148       146
      143       143       142       145       146       147       149       150
      149       147       145       146       146       144       142       144
      144       145       147       149       149       149       147       144
      144       145       145       144       145       147       147       146
      149       149       148       149       148       145       143       146
      147       149       150       151       153       156       161       162
      163       165       165       164       164       163       163       165
      164       164       165       165       165       162       159       156
      151       149       147       144       144       144       143       142
      141       141       143       144       143       143       144       146
      147       147       146       145       143       142       142       140
      141       138       138       138       138       137       137       136
      137       137       141       146       147       146       148       148
      148       149       145       143       141       139       137       137
      139       139       140       141       143       144       147       148
      147       147       147       147       148       149       148       150
      153       152       152       153       154       149       149       147
      145       144       144       143       141       143       145       145
      145       147       146       146       150       148       147       148
      148       146       143       141       140       138       136       138
      139       139       139       141       146       150       151       152
      150       149       148       150       150       150       147       143
      145       150       152       155       152       150       148       147
      146       145       143       142       142       146       149       151
      152       151       145       140       138       138       136       136
      134       136       141       144       145       147       147       144
      141       139       139       138       137       136       133       136
      140       140       143       147       149       149       149       149
      147       145       145       143       141       140       138       136
      138       138       137       137       138       140       142       145
      148       149       149       148       148       148       147       143
      141       139       140       142       143       144       145       146
      147       149       149       150       150       148       146       146
      145       144       142       142       142       146       145       148
      148       150       153       152       150       150       147       145
      145       146       148       151       149       150       148       148
      149       147       144       144       144       145       146       147
      149       149       148       148       145       144       143       142
      144       144       144       143       144       146       147       150
      149       147       145       145       144       145       150       148
      147       148       150       152       151       151       148       147
      146       143       142       141       141       139       140       140
      141       143       142       144       145       144       142       139
      139       136       134       135       136       134       135       136
      135       136       137       137       139       138       140       139
      140       140       140       140       142       144       141       141
      142       142       142       140       140       138       137       137
      138       140       143       146       147       151       153       156
      156       155       154       151       149       147       146       146
      146       146       144       144       144       147       146       147
      144       144       145       145       148       150       149       146
      147       148       150       152       152       152       151       154
      154       151       149       148       141       138       138       137
      139       141       143       146       147       149       148       145
      145       146       142       143       143       144       146       146
      146       145       140       139       139       141       144       145
      146       148       150       150       150       150       146       141
      141       140       139       139       139       138       140       140
      140       141       143       144       143       142       145       144
      143       143       143       141       141       141       141       142
      141       142       142       142       143       145       144       146
      144       146       145       142       140       139       137       138
      139       138       139       142       143       143       142       141
      138       137       137       136       137       139       141       142
      143       143       141       138       136       134       133       132
      134       137       139       139       140       142       143       143
      143       144       143       145       144       145       150       151
      149       146       147       149       149       146       144       141
      138       138       136       136       136       137       136       137
      141       143       144       143       147       146       145       144
      144       145       147       148       147       147       146       145
      142       140       140       137       135       134       135       137
      142       145       144       145       144       143       139       141
      139       136       136       136       134       136       139       141
      141       144       143       141       141       144       141       138
      142       142       141       143       144       146       147       148
      147       146       147       147       145       145       147       147
      148       146       145       143       140       138       138       134
      133       134       133       134       132       135       134       133
      132       131       132       134       134       133       136       137
      136       136       136       137       135       135       134       135
      135       135       135       135       135       134       133       135
      135       133       135       137       139       141       140       142
      143       140       137       136       133       134       133       137
      140       141       143       144       142       144       143       140
      138       134       132       133       135       136       134       132
      131       132       133       133       132       131       129       128
      130       133       135       138       139       140       143       147
      149       145       143       141       140       140       140       136
      132       132       134       137       140       142       142       140
      140       143       144       145       142       137       134       135
      137       139       140       138       137       137       140       140
      139       138       138       139       140       141       142       142
      143       145       146       148       150       147       145       143
      144       144       144       142       142       143       144       146
      147       147       147       143       143       142       143       145
      146       146       144       142       142       143       141       140
      138       136       137       135       134       135       134       135
      136       138       141       146       146       149       150       150
      149       145       143       141       139       139       138       137
      137       137       136       136       138       139       137       135
      136       137       137       136       135       134       133       132
      131       130       131       132       133       136       137       137
      138       137       136       132       130       128       126       126
      127       130       133       135       134       136       140       140
      140       137       134       132       129       130       128       131
      134       137       138       143       147       148       147       144
      141       138       136       136       135       137       138       141
      142       144       145       145       145       144       143       142
      139       138       137       137       141       142       143       144
      144       145       145       142       140       137       133       130
      130       130       135       134       136       137       137       139
      139       136       135       135       132       132       137       139
      139       139       142       143       145       148       148       146
      144       144       143       144       146       145       140       140
      142       143       145       148       147       145       146       147
      146       145       144       141       139       140       141       140
      140       140       136       133       133       133       133       132
      132       133       134       136       135       134       134       132
      129       126       125       125       127       126       128       130
      131       134       134       137       138       136       136       134
      133       135       135       136       138       138       138       140
      139       141       139       139       139       137       137       138
      137       136       136       135       137       140       140       142
      143       143       143       144       145       145       143       142
      144       144       146       148       147       149       148       146
      148       146       147       147       145       143       142       141
      140       138       138       138       135       133       131       130
      132       133       134       137       136       136       137       137
      139       140       138       136       136       138       141       140
      142       143       141       140       140       140       143       143
      142       140       139       139       138       136       134       134
      133       132       134       137       138       138       137       138
      137       139       140       142       142       143       143       144
      148       150       148       147       144       140       140       139
      140       141       141       140       139       140       139       140
      139       140       141       142       145       146       149       148
      147       145       141       137       134       134       135       133
      130       129       127       126       127       126       127       128
      128       128       130       133       135       133       132       132
      132       133       133       132       132       134       132       133
      139       144       146       145       147       148       150       149
      145       143       140       138       134       133       135       135
      133       135       138       141       143       143       144       146
      144       143       141       138       137       137       137       136
      137       138       139       140       142       142       140       139
      137       134       136       137       137       136       137       140
      141       143       144       143       142       142       141       141
      141       140       139       136       134       136       134       133
      133       133       137       138       138       140       142       142
      141       139       138       137       133       131       131       129
      130       127       129       132       134       135       136       138
      140       141       143       142       143       140       139       137
      138       137       134       135       134       133       135       134
      136       136       135       133       133       133       132       132
      130       132       133       134       136       136       137       138
      138       139       140       140       143       141       141       143
      144       144       140       137       137       141       140       140
      141       141       142       139       139       139       137       137
      135       137       139       142       142       143       144       143
      143       142       142       141       142       143       141       140
      137       136       132       131       128       126       127       128
      131       134       139       141       143       146       146       144
      145       145       144       147       147       147       146       146
      147       145       144       140       135       132       131       130
      131       134       134       137       139       142       144       144
      143       142       143       145       144       146       149       152
      152       152       149       147       146       143       141       140
      141       144       144       146       150       148       147       147
      144       142       141       138       138       138       141       143
      144       144       147       144       146       145       143       142
      142       142       142       142       142       140       137       137
      135       134       133       133       133       134       137       137
      135       135       136       135       135       135       134       136
      136       137       136       135       134       134       132       134
      136       136       134       133       131       133       132       131
      132       131       133       135       137       139       142       142
      140       137       136       138       137       138       140       141
      141       140       140       141       141       139       136       134
      134       135       135       137       138       137       135       136
      136       135       134       134       134       134       138       139
      141       142       143       142       142       141       140       136
      137       133       133       132       132       131       130       130
      131       134       134       136       138       137       137       134
      135       137       139       140       138       139       141       140
      138       138       136       136       134       131       130       134
      135       135       134       136       137       135       135       133
      131       131       127       124       124       127       127       129
      132       136       136       137       140       139       140       141
      140       140       139       138       135       131       130       129
      128       130       130       128       128       130       130       129
      129       129       131       132       133       138       139       139
      137       138       139       138       135       132       132       132
      134       133       133       135       135       135       136       138
      138       135       135       134       133       135       134       135
      136       135       135       135       135       134       132       128
      126       126       127       128       128       128       127       126
      126       127       127       125       125       125       127       130
      131       134       135       132       131       131       131       132
      132       134       137       138       141       142       141       143
      142       139       138       136       135       135       137       139
      140       139       138       135       133       132       132       129
      128       127       129       130       131       131       130       129
      128       128       128       128       130       130       131       132
      134       134       135       136       136       137       137       138
      138       136       136       137       137       136       137       138
      137       136       135       137       139       137       135       133
      133       134       134       131       131       132       133       134
      138       141       142       140       138       136       135       135
      135       133       133       133       132       132       132       133
      133       135       135       137       140       142       143       142
      142       139       138       137       134       134       134       133
      132       132       133       131       132       132       132       129
      129       128       128       129       131       129       130       132
      135       137       138       141       141       140       139       137
      135       134       135       133       134       134       135       136
      137       141       141       141       140       138       135       135
      134       130       128       127       127       129       132       135
      138       142       145       144       143       144       141       138
      136       134       132       129       129       130       131       132
      132       133       135       136       136       137       138       138
      139       139       143       144       143       141       138       137
      136       135       133       132       131       131       131       136
      140       141       141       139       139       139       139       138
      136       135       134       133       134       136       135       135
      135       134       134       131       130       128       128       128
      131       131       131       130       132       134       137       137
      136       135       135       134       134       133       132       126
      123       123       125       124       123       123       125       125
      128       131       133       134       135       134       133       135
      135       133       131       132       133       130       131       131
      131       130       129       128       128       130       131       132
      134       135       136       136       138       135       137       137
      139       139       139       137       136       135       134       130
      129       127       124       124       124       123       123       122
      122       124       126       128       129       129       131       132
      132       133       129       128       126       124       124       124
      127       127       127       129       133       136       137       138
      137       137       134       131       131       129       130       130
      129       129       128       126       128       128       126       125
      126       126       127       129       130       131       130       129
      129       130       132       131       129       130       132       132
      130       130       131       131       133       134       134       133
      134       133       131       135       136       135       132       134
      135       135       132       131       127       125       121       121
      124       128       129       128       129       132       137       139
      138       139       139       140       140       143       142       140
      140       136       134       132       131       129       130       128
      128       129       129       130       129       131       132       131
      129       127       127       129       131       130       131       134
      135       136       139       139       140       141       139       137
      135       134       133       132       129       130       131       133
      134       135       134       133       132       129       126       124
      122       121       121       123       124       124       123       123
      121       124       126       128       132       135       138       139
      140       139       136       133       127       122       119       118
      119       120       122       123       125       125       125       126
      127       127       126       128       127       126       127       129
      129       130       132       132       133       133       135       135
      139       141       142       143       144       144       142       140
      139       137       132       129       126       125       125       124
      124       124       125       125       125       124       122       123
      126       129       130       132       133       132       132       132
      133       131       130       129       130       134       137       137
      137       138       135       134       134       133       131       129
      128       128       130       131       132       132       132       131
      130       130       131       130       130       131       131       132
      134       133       132       130       128       126       125       126
      127       130       131       132       132       135       134       133
      133       134       134       134       134       135       136       137
      135       135       134       135       136       135       134       135
      136       135       134       132       130       128       124       124
      122       122       123       124       125       126       130       128
      129       129       127       125       122       123       123       123
      124       125       123       124       126       126       129       133
      132       132       134       135       136       135       135       135
      135       135       135       135       134       134       129       128
      125       124       125       125       127       128       129       128
      130       132       134       132       130       128       130       131
      132       134       137       136       133       134       134       134
      133       131       130       130       132       129       127       128
      129       125       124       125       126       127       129       132
      133       132       132       129       129       128       126       124
      124       124       125       125       125       125       127       124
      125       125       126       127       128       130       133       134
      135       134       132       133       134       132       131       129
      129       130       130       132       133       131       130       130
      130       132       132       133       134       133       133       135
      136       135       133       131       130       130       129       127
      126       128       128       127       126       127       125       123
      126       129       131       133       135       137       138       140
      139       135       133       131       128       130       130       131
      130       128       128       128       127       127       127       126
      127       127       126       126       126       128       129       128
      128       128       129       134       136       138       138       136
      133       131       131       130       127       124       121       123
      124       128       127       129       129       129       128       131
      130       129       127       128       129       131       130       131
      132       134       137       135       137       137       135       134
      131       132       132       129       129       131       133       136
      137       136       137       134       135       134       133       135
      136       136       136       137       137       139       138       135
      133       133       133       130       129       130       132       129
      129       129       131       132       132       132       129       129
      127       124       125       126       127       124       126       128
      132       133       132       130       125       126       126       126
      127       127       129       130       131       132       134       134
      131       129       128       128       127       126       124       127
      130       132       133       134       136       136       135       136
      136       135       132       132       131       133       135       135
      137       137       136       134       133       133       129       126
      125       123       123       124       127       127       130       132
      132       133       134       133       132       132       132       132
      131       133       134       135       137       141       140       141
      139       139       139       137       137       138       137       138
      138       138       139       139       138       137       134       131
      130       127       129       128       129       131       132       133
      135       134       135       134       134       135       136       137
      137       137       138       138       139       140       139       138
      138       139       142       144       144       142       138       135
      130       130       132       131       131       133       132       135
      137       136       135       133       131       130       127       128
      130       129       129       128       127       130       131       133
      136       138       139       137       138       137       136       132
      129       127       126       127       127       126       127       127
      128       129       134       131       130       131       132       132
      132       132       132       129       129       127       126       125
      126       126       125       126       125       127       130       132
      133       131       129       129       129       129       129       129
      130       132       134       137       140       137       135       134
      132       134       135       134       132       132       133       135
      137       135       135       133       132       133       134       138
      139       139       138       138       139       142       142       139
      140       142       145       150       154       160       164       167
      168       167       168       167       164       159       157       154
      151       149       149       150       151       150       149       150
      150       150       149       148       145       142       140       139
      138       136       137       137       136       137       136       135
      134       134       132       131       130       131       131       134
      136       136       134       135       136       134       132       130
      127       126       127       129       128       129       128       128
      130       131       129       125       124       123       122       122
      122       120       121       123       123       125       128       129
      128       129       128       130       131       132       132       130
      132       131       128       127       127       129       128       128
      128       131       132       133       133       133       133       132
      131       131       129       132       130       129       129       127
      125       124       122       123       123       125       129       129
      131       133       133       134       136       136       134       133
      132       131       131       130       132       130       129       129
      127       126       125       125       124       126       124       123
      122       124       123       123       126       127       127       129
      132       136       135       135       130       127       124       121
      117       118       118       115       115       119       121       124
      125       128       128       125       126       127       127       130
      129       128       128       131       131       131       131       130
      127       124       123       120       119       118       119       119
      120       122       125       129       131       133       134       133
      129       127       128       129       129       130       132       134
      135       135       135       135       134       132       132       132
      132       130       128       126       127       126       126       125
      125       127       127       128       132       132       132       130
      129       129       131       131       131       128       127       126
      124       123       124       125       124       124       125       126
      127       127       129       130       131       131       131       129
      128       129       127       126       127       125       126       128
      131       133       135       134       133       130       130       131
      130       129       129       128       130       131       132       134
      134       132       130       129       129       129       128       127
      126       124       124       125       127       129       131       131
      131       131       131       132       132       130       127       124
      123       121       119       119       118       115       114       116
      119       124       127       128       130       131       133       132
      131       130       127       124       121       121       120       121
      121       120       122       124       127       127       127       127
      129       129       128       126       125       122       121       121
      120       119       120       121       122       122       124       122
      124       123       124       125       126       126       126       126
      128       127       125       122       121       120       123       127
      130       132       135       137       137       136       136       134
      132       128       125       123       124       125       125       125
      127       127       128       128       130       132       134       134
      133       132       131       130       130       129       128       126
      124       124       124       125       125       124       124       124
      127       128       130       131       132       131       130       132
      130       131       128       127       128       130       129       127
      128       129       128       124       121       122       120       120
      121       122       124       126       125       127       130       133
      132       130       129       131       129       127       126       125
      124       123       119       122       127       129       130       131
      132       132       131       131       132       131       129       127
      127       131       131       128       129       127       127       127
      125       126       127       126       126       127       128       127
      125       123       122       123       124       125       124       125
      127       127       127       127       125       124       125       125
      125       128       129       130       129       130       131       133
      135       134       132       133       131       128       126       125
      124       125       124       123       125       127       128       127
      128       129       127       127       127       131       132       130
      127       126       126       125       125       126       130       132
      134       135       138       139       137       132       131       133
      132       131       131       133       132       134       136       135
      134       131       128       125       125       126       124       122
      121       123       121       124       127       126       125       126
      125       126       127       126       124       123       123       124
      122       123       124       124       127       129       128       128
      127       125       124       124       125       126       125       127
      129       131       135       135       133       131       129       125
      123       120       119       119       123       128       131       135
      138       137       138       140       140       136       135       133
      132       132       132       132       131       129       125       124
      127       129       131       130       132       135       135       136
      138       138       136       135       137       140       141       138
      136       134       134       134       133       135       136       136
      134       135       135       135       129       126       125       125
      124       123       124       125       126       127       127       125
      125       126       125       128       129       128       128       128
      131       134       135       138       137       137       138       137
      137       135       132       129       129       129       130       132
      132       132       131       132       131       130       132       129
      132       131       132       134       135       134       134       131
      130       130       127       125       122       122       124       124
      126       128       130       128       129       130       131       130
      127       125       124       127       128       131       136       138
      139       137       139       139       137       133       130       126
      125       126       128       131       134       135       137       137
      138       139       137       136       134       132       133       133
      132       132       130       128       127       124       124       125
      125       121       122       124       124       124       123       123
      124       125       123       123       124       125       124       121
      122       124       125       125       127       129       131       131
      128       128       128       128       128       128       127       125
      123       121       121       120       119       119       119       122
      122       126       130       133       131       129       129       128
      127       126       125       125       126       126       126       127
      129       130       130       131       132       135       135       133
      132       130       131       130       130       128       126       126
      126       127       128       128       126       126       128       128
      129       129       128       129       130       130       130       130
      129       128       129       131       130       128       127       124
      125       128       131       132       132       132       134       134
      133       132       133       132       131       131       132       133
      135       137       139       141       142       137       134       133
      132       128       125       125       122       124       126       129
      131       132       133       132       135       135       134       134
      134       133       133       136       138       139       138       137
      139       139       139       137       136       133       132       129
      129       132       133       135       134       135       136       138
      139       139       136       133       131       130       129       130
      130       131       130       131       130       132       131       131
      127       126       127       128       129       132       136       138
      139       138       138       140       141       143       140       139
      137       136       136       136       140       141       144       147
      154       162       169       171       171       170       167       164
      161       156       151       148       144       140       142       144
      144       141       143       144       144       145       144       141
      141       143       141       143       146       148       150       150
      152       153       151       150       147       148       148       146
      144       143       143       143       143       141       138       136
      135       134       132       134       133       133       133       135
      136       138       139       139       138       136       137       136
      134       133       129       127       125       123       121       122
      121       121       123       122       126       129       130       130
      129       129       128       129       128       129       129       127
      124       123       123       124       127       127       127       130
      135       138       138       139       139       135       132       130
      126       123       121       119       118       119       120       120
      122       125       127       129       132       133       129       125
      124       123       122       122       122       124       125       126
      125       125       125       124       122       123       125       125
      129       130       131       131       131       130       129       130
      130       132       132       132       132       129       129       125
      123       123       124       123       122       124       125       125
      126       124       124       122       122       121       123       126
      127       126       127       130       133       135       137       137
      137       136       134       131       130       131       128       127
      129       130       133       134       134       133       134       134
      132       133       135       136       135       134       136       136
      136       133       131       129       129       128       128       131
      131       132       131       130       132       131       130       130
      129       129       130       129       131       135       135       138
      137       136       135       134       132       130       131       131
      130       130       130       131       132       133       133       131
      127       124       122       121       124       123       123       121
      119       119       121       123       123       122       120       119
      120       120       122       123       123       123       124       126
      128       130       130       132       131       131       131       131
      132       132       134       135       136       135       135       135
      135       134       131       128       129       128       128       127
      127       128       129       130       131       132       133       135
      133       129       132       131       131       129       131       131
      132       132       132       132       130       129       126       124
      126       126       128       129       131       132       131       130
      131       131       128       129       128       127       125       125
      128       128       127       125       122       121       123       125
      124       128       128       130       130       134       135       134
      132       130       130       128       129       127       125       127
      127       128       128       132       135       136       139       142
      144       144       143       140       138       137       134       132
      129       131       131       131       133       133       131       130
      130       130       128       127       125       124       124       126
      125       126       127       125       126       125       124       126
      125       126       127       128       128       129       128       128
      126       126       128       127       129       131       132       136
      139       136       135       133       131       130       127       127
      127       126       128       127       129       133       136       135
      135       132       132       133       132       132       129       126
      126       124       122       125       128       129       128       127
      130       132       131       129       130       131       130       127
      125       127       129       130       129       127       125       126
      124       123       125       124       123       121       119       122
      125       127       125       125       125       127       124       124
      126       127       127       128       128       130       130       133
      132       133       132       131       130       132       134       134
      133       134       130       128       127       128       125       126
      127       128       129       131       133       135       136       136
      134       135       136       138       137       139       138       138
      136       136       135       135       137       137       141       147
      152       156       159       161       164       165       169       173
      179       183       186       185       191       195       195       193
      188       186       181       178       177       176       172       168
      163       162       161       159       154       152       148       145
      143       141       139       136       132       132       131       130
      129       128       128       127       128       129       131       132
      134       134       136       137       134       133       132       130
      130       130       130       130       130       130       130       130
      132       131       130       130       130       130       130       131
      132       133       132       131       132       132       133       133
      133       132       132       130       127       126       127       128
      127       127       127       128       129       128       128       127
      125       123       122       121       123       125       125       126
      127       127       128       128       127       124       122       122
      122       121       123       124       126       126       126       128
      127       129       129       127       124       124       125       126
      129       131       133       133       134       135       135       134
      130       125       119       119       118       119       121       123
      127       129       129       131       132       132       131       131
      131       133       132       129       127       127       126       122
      121       119       120       122       121       122       124       125
      124       125       125       125       124       125       127       129
      131       131       132       133       134       132       132       132
      129       128       128       128       128       129       130       129
      132       131       130       128       126       127       127       129
      130       130       132       134       135       133       133       130
      128       128       127       130       130       132       132       131
      132       131       127       125       123       121       119       119
      119       120       121       120       119       121       122       123
      123       125       127       130       132       132       135       134
      133       131       131       132       129       128       127       126
      128       129       129       130       131       131       132       133
      134       134       130       130       129       127       126       125
      123       123       122       124       127       128       129       129
      129       129       128       127       128       129       128       129
      130       130       132       131       131       129       128       126
      124       123       123       120       119       120       120       122
      127       129       130       132       133       133       132       132
      130       127       127       128       127       129       129       129
      128       129       130       129       129       126       124       123
      124       124       124       127       127       131       131       132
      133       132       132       130       132       132       131       129
      128       129       130       128       126       126       126       126
      128       131       133       132       129       128       126       128
      129       126       130       131       131       133       135       137
      138       135       132       128       128       128       126       124
      126       125       126       125       124       125       125       126
      125       125       126       126       128       129       129       130
      130       127       127       128       129       128       129       129
      129       130       129       128       127       128       129       129
      131       131       130       131       133       130       127       126
      125       124       122       122       122       122       123       124
      127       130       130       128       127       129       130       129
      128       128       130       132       133       134       137       136
      135       134       133       133       133       136       137       137
      140       140       137       136       135       132       131       130
      129       128       129       132       134       132       132       131
      130       130       130       131       133       135       133       133
      135       139       140       136       137       136       134       133
      131       130       129       125       123       123       125       129
      130       130       133       133       134       133       131       128
      127       125       126       125       127       128       126       125
      126       124       124       123       123       125       128       130
      132       134       138       138       136       135       134       133
      132       128       127       127       127       127       127       127
      126       125       124       123       124       124       125       127
      132       137       140       142       142       141       139       138
      134       131       129       125       125       126       127       128
      127       126       126       126       127       128       130       129
      128       126       127       127       126       125       126       125
      125       126       126       128       130       131       130       129
      129       130       128       129       131       131       130       130
      130       134       136       136       132       131       131       131
      128       129       129       130       128       129       130       132
      132       129       128       130       130       130       131       134
      133       133       134       139       141       140       142       141
      139       137       134       131       129       125       122       123
      124       127       127       127       129       130       128       130
      129       128       125       126       126       128       128       133
      135       136       136       137       135       135       132       130
      128       126       125       126       128       130       129       125
      124       124       123       120       121       120       120       121
      124       125       126       124       123       126       129       133
      131       130       131       132       135       136       135       134
      132       130       130       130       129       129       127       128
      129       129       131       131       130       130       128       129
      129       126       127       129       129       132       132       129
      129       129       129       127       126       126       128       127
      126       127       128       129       127       126       128       129
      128       127       126       127       126       125       123       123
      123       122       121       123       122       121       122       125
      126       127       125       125       124       124       124       124
      123       120       117       118       123       126       127       128
      131       133       134       136       135       137       136       135
      133       132       133       133       131       131       133       131
      129       126       125       126       126       126       126       127
      129       129       130       131       132       130       128       127
      127       125       123       126       127       125       125       125
      128       128       128       129       128       125       124       122
      121       122       120       118       119       119       120       119
      120       122       120       118       121       122       124       125
      126       127       126       127       127       127       128       127
      125       124       123       121       119       118       119       120
      122       123       125       128       129       132       132       132
      130       128       126       128       130       130       129       127
      124       123       120       120       119       119       120       121
      123       125       128       130       133       130       129       128
      126       126       128       127       128       131       129       130
      132       130       128       127       127       126       125       124
      126       125       126       125       125       124       124       121
      121       121       123       124       125       127       131       133
      135       135       137       135       137       136       133       133
      133       131       131       131       132       131       132       130
      129       127       126       125       124       126       125       124
      125       124       123       121       119       119       117       115
      116       119       119       120       121       124       126       127
      127       125       125       125       122       121       122       123
      121       123       124       125       126       126       126       126
      126       126       127       126       127       127       129       130
      130       128       127       125       126       129       129       129
      128       124       123       123       124       124       124       122
      121       124       127       129       126       125       122       122
      122       123       122       124       121       120       120       122
      121       122       122       123       125       127       129       130
      128       127       125       124       122       122       124       125
      126       126       128       129       131       131       127       127
      126       123       122       123       123       123       125       126
      127       129       130       129       129       131       130       129
      129       128       128       126       123       123       122       121
      123       124       128       131       132       133       136       137
      138       136       134       134       132       129       128       126
      125       124       120       118       116       116       116       117
      118       121       122       125       128       130       131       132
      130       127       126       127       124       124       124       127
      125       128       131       132       135       133       131       130
      131       131       129       130       128       127       126       127
      127       126       127       125       128       129       129       130
      131       132       131       130       130       127       126       126
      130       133       134       135       135       137       139       140
      143       144       142       139       136       135       136       132
      131       129       128       130       132       132       134       134
      136       135       132       133       131       129       129       125
      125       126       125       123       122       122       124       125
      125       124       122       124       125       125       126       124
      122       120       119       120       123       125       125       125
      125       127       127       125       122       118       116       115
      119       121       126       128       130       133       133       134
      132       129       127       123       120       121       122       120
      121       123       125       125       127       128       127       127
      126       126       126       126       123       120       120       118
      118       119       119       119       121       124       128       130
      130       128       125       125       125       127       129       129
      130       133       133       132       131       128       124       122
      120       120       121       122       121       120       122       123
      119       118       119       119       120       123       121       121
      122       120       119       118       118       118       119       120
      121       120       120       121       118       120       119       118
      118       117       116       117       117       117       117       117
      119       119       120       123       123       124       122       122
      123       124       124       122       121       123       123       122
      124       124       124       120       120       120       121       120
      120       119       119       122       122       124       127       126
      127       127       129       129       132       131       130       130
      130       130       130       131       133       133       133       131
      132       132       132       129       128       128       127       126
      126       126       124       122       118       119       121       122
      125       127       128       129       129       131       130       130
      127       124       125       126       123       123       124       125
      125       125       127       127       129       129       129       130
      132       132       131       133       135       134       134       133
      131       130       130       128       128       126       124       123
      124       125       126       125       125       128       130       133
      133       133       134       131       131       129       128       125
      123       123       123       125       125       125       125       128
      129       127       128       128       127       126       128       129
      131       131       132       133       132       131       130       127
      126       124       124       124       124       125       127       129
      134       134       135       135       133       130       127       124
      122       119       118       119       120       121       123       124
      125       127       129       130       130       130       128       127
      127       126       125       122       122       124       124       127
      129       131       132       132       130       131       130       129
      128       125       125       124       124       122       122       124
      125       126       129       131       134       135       134       133
      133       130       129       124       123       122       121       121
      123       125       126       128       130       128       129       129
      129       126       125       123       122       123       124       126
      127       132       133       130       129       128       127       126
      128       127       127       129       130       131       133       136
      136       137       135       135       135       135       136       133
      132       131       129       128       127       129       129       127
      127       129       128       130       132       132       135       136
      139       138       135       133       129       128       128       127
      124       124       125       127       130       134       136       134
      133       133       132       134       132       130       128       124
      123       121       122       125       124       124       122       120
      119       120       122       123       123       122       123       123
      125       128       128       126       124       124       126       128
      132       132       132       132       132       134       132       133
      132       131       130       130       131       133       132       131
      130       130       130       128       126       126       125       124
      122       121       122       122       121       121       121       119
      118       117       119       120       122       124       125       125
      128       131       133       131       131       129       126       123
      121       120       122       125       126       128       133       135
      139       138       137       133       129       126       122       122
      123       125       127       130       132       134       135       134
      131       129       126       124       123       124       124       126
      126       124       125       126       125       126       127       131
      133       135       139       141       142       141       138       136
      133       130       124       122       122       124       125       125
      125       126       126       127       129       130       127       124
      120       122       125       125       129       129       128       130
      131       133       132       130       128       127       126       132
      134       133       134       132       131       130       126       123
      123       122       121       120       122       126       126       127
      126       127       126       123       121       123       124       126
      125       125       130       133       133       135       135       133
      130       126       125       125       123       126       129       130
      133       133       131       130       130       129       128       126
      122       119       117       120       121       122       122       123
      123       124       126       127       128       127       125       125
      125       127       128       130       129       129       127       126
      124       124       124       125       125       126       126       127
      128       127       126       126       127       127       126       128
      128       129       127       129       130       131       132       133
      132       133       131       129       125       123       120       117
      116       117       119       123       127       130       131       132
      130       128       126       126       123       123       124       125
      128       130       130       129       128       126       126       124
      123       122       120       117       116       117       118       118
      119       121       121       121       122       123       123       123
      122       121       125       126       127       128       128       128
      127       127       126       125       125       128       127       130
      131       129       129       128       130       131       131       130
      127       128       129       128       125       124       122       121
      122       124       126       126       128       127       125       127
      125       121       121       120       122       126       128       128
      128       129       130       129       128       128       126       124
      126       129       132       132       130       128       127       125
      124       123       122       122       123       123       124       126
      126       128       129       132       132       130       130       129
      129       129       129       126       126       127       126       128
      129       131       130       129       130       130       130       128
      125       124       125       126       128       130       131       134
      134       133       133       132       130       125       122       123
      124       127       129       128       129       131       133       135
      137       135       132       129       127       127       124       124
      123       124       126       128       131       132       131       129
      129       129       130       129       130       134       134       135
      138       139       137       136       133       135       135       135
      135       131       129       126       122       121       121       121
      121       124       125       130       133       134       134       134
      133       131       129       127       128       130       131       134
      131       131       130       127       130       132       132       132
      133       133       134       135       136       137       134       133
      132       132       136       138       140       142       142       141
      144       145       147       145       141       140       138       137
      138       139       142       142       141       141       142       141
      139       135       130       130       126       125       124       126
      126       126       128       128       130       131       131       131
      130       129       127       127       125       126       124       126
      126       126       126       127       126       126       126       128
      128       128       125       126       127       130       130       132
      133       134       135       135       136       135       131       129
      125       123       124       126       127       125       125       126
      127       126       127       128       130       130       129       129
      130       130       129       125       127       127       129       133
      136       139       143       145       147       149       149       149
      150       150       152       153       151       151       149       148
      147       146       145       146       145       144       144       142
      142       141       139       138       137       135       133       133
      133       133       133       132       130       129       129       130
      132       132       131       131       132       132       131       129
      126       126       125       127       127       130       132       131
      131       133       133       131       130       127       124       123
      123       123       122       123       122       122       122       121
      121       122       123       125       125       125       127       129
      131       133       135       133       129       126       124       122
      120       118       115       117       118       120       121       126
      131       135       136       137       139       139       139       137
      136       133       131       128       128       130       132       133
      132       131       133       131       130       128       127       125
      128       129       129       128       126       124       123       121
      122       121       121       121       123       125       129       131
      129       129       130       131       132       134       136       136
      137       137       136       134       132       132       132       130
      128       128       129       129       131       133       136       135
      136       137       138       139       136       133       131       128
      127       123       123       124       127       127       130       132
      134       133       135       136       136       133       132       130
      132       132       131       130       131       131       131       130
      128       125       123       122       120       120       120       119
      121       123       126       126       128       128       127       129
      131       132       134       136       136       138       141       141
      141       139       140       138       135       133       129       129
      130       130       129       132       133       134       136       137
      136       135       130       127       123       125       127       128
      130       131       132       135       135       136       135       134
      128       124       121       122       123       122       122       124
      125       127       130       133       136       135       134       134
      134       133       129       124       122       122       121       123
      126       130       132       131       131       131       132       129
      125       120       119       119       119       118       119       122
      120       119       119       123       125       126       129       128
      129       129       130       128       130       129       125       123
      121       123       120       123       122       121       124       127
      127       128       126       124       123       122       120       121
      122       123       125       126       129       128       127       126
      121       123       126       124       124       127       127       126
      127       126       125       123       124       122       120       120
      120       118       117       115       115       117       120       125
      126       129       130       131       130       130       131       130
      127       124       124       125       125       125       123       122
      121       122       123       123       124       128       129       129
      130       130       131       130       129       130       129       130
      131       130       131       135       134       133       131       130
      129       127       127       128       129       128       128       126
      126       129       128       127       126       126       127       129
      129       128       128       124       124       123       124       124
      125       125       126       128       127       129       127       127
      128       129       132       135       136       137       139       138
      138       137       133       132       129       127       127       126
      124       124       125       125       124       123       125       126
      125       124       122       124       126       127       127       128
      129       130       130       131       133       134       133       134
      133       133       133       133       133       134       132       131
      131       130       129       129       128       127       125       127
      127       129       132       134       132       134       134       132
      131       130       129       128       128       128       128       128
      129       129       128       130       130       130       128       125
      121       120       119       120       123       125       127       129
      129       130       130       130       127       125       123       124
      123       122       123       125       124       123       122       123
      126       127       128       129       132       132       131       131
      129       126       125       123       122       122       120       118
      118       119       121       123       124       124       120       120
      122       124       126       127       127       129       129       129
      129       130       128       127       123       123       124       125
      126       126       126       126       126       128       129       130
      131       131       128       128       129       128       128       126
      122       122       123       123       124       124       124       125
      123       126       131       132       134       132       131       130
      130       132       131       128       127       127       125       125
      127       127       127       124       124       125       126       129
      128       128       128       124       122       119       119       119
      119       119       121       125       129       131       130       130
      128       126       127       125       125       126       127       128
      130       133       133       132       132       132       131       130
      127       125       122       120       119       119       119       120
      123       126       126       126       128       129       129       129
      128       129       131       130       130       133       135       134
      135       136       138       137       135       134       136       140
      141       140       142       142       144       145       145       147
      147       144       142       142       143       144       140       139
      139       138       140       139       138       140       138       138
      137       135       132       131       129       130       129       130
      130       129       129       130       130       129       126       124
      121       120       120       119       121       124       128       133
      138       143       145       142       141       137       131       125
      121       119       119       117       120       124       126       129
      132       130       132       131       128       125       124       125
      126       127       130       130       129       131       131       129
      130       130       130       128       127       128       128       128
      126       125       125       123       121       122       124       125
      126       126       127       129       129       127       127       131
      130       129       129       129       126       124       122       121
      124       125       123       123       125       125       123       124
      126       127       127       129       132       133       137       137
      136       135       132       127       126       127       126       125
      124       123       123       122       123       122       121       122
      121       121       124       126       126       127       126       126
      125       123       121       119       119       120       121       123
      128       130       131       133       134       136       134       133
      130       127       126       126       127       125       126       126
      129       133       133       132       131       131       131       129
      130       129       129       128       127       127       131       131
      128       128       130       132       132       130       133       132
      131       130       128       129       130       128       128       128
      128       127       128       129       132       133       132       132
      134       136       135       131       131       130       128       128
      130       131       132       132       130       131       132       130
      126       124       125       126       124       125       126       127
      129       129       130       132       132       130       131       133
      132       133       134       136       134       132       133       132
      132       131       131       130       129       129       123       121
      121       120       120       123       125       125       126       126
      126       125       125       125       122       123       121       123
      127       129       128       127       126       125       126       128
      131       131       132       133       132       130       130       128
      126       126       125       125       130       132       130       130
      130       129       126       124       124       124       125       125
      124       125       128       128       127       126       124       123
      122       125       126       130       130       129       131       132
      131       133       132       130       133       138       142       149
      155       161       163       168       172       173       174       174
      170       168       167       163       158       157       152       148
      145       145       145       145       145       144       142       141
      137       135       133       131       127       127       129       130
      128       130       132       133       132       132       132       134
      134       132       131       132       131       127       127       129
      128       124       123       126       129       131       133       136
      137       137       136       137       138       137       134       131
      129       128       125       126       126       125       122       123
      122       121       122       122       123       122       121       124
      125       129       129       129       128       129       128       127
      129       129       129       127       126       128       128       128
      127       127       123       122       122       122       123       124
      124       122       122       125       126       126       128       127
      123       123       125       126       129       128       127       126
      128       128       127       125       124       122       120       120
      119       119       122       120       121       123       123       124
      124       123       124       125       124       123       124       127
      129       127       126       121       114       112       109       108
      111       112       114       117       121       127       128       127
      126       123       120       120       119       120       122       124
      126       128       128       130       129       130       130       129
      127       125       124       122       121       121       119       117
      117       118       119       121       124       126       126       128
      127       124       124       126       126       127       127       129
      128       130       130       130       129       130       128       127
      129       130       131       128       127       127       123       121
      120       120       120       123       123       123       127       129
      131       130       130       129       127       126       128       130
      130       130       130       131       133       133       133       132
      132       134       133       134       134       133       133       132
      132       132       131       127       125       126       126       126
      126       127       129       132       134       133       134       133
      131       129       128       128       128       126       125       124
      124       125       124       124       126       128       130       132
      132       136       138       137       136       136       135       135
      134       131       129       127       123       121       121       121
      122       122       124       126       127       128       128       126
      128       129       129       129       130       130       131       129
      131       131       129       128       128       130       129       128
      125       122       123       123       124       124       127       126
      127       128       130       130       126       126       126       123
      125       125       127       127       125       124       123       123
      125       123       122       125       129       128       131       131
      132       133       132       134       131       131       127       123
      122       123       121       118       118       117       120       124
      127       128       128       128       126       126       124       123
      122       121       123       124       126       128       127       126
      126       125       125       125       124       125       127       129
      132       131       131       129       125       127       128       128
      127       126       126       126       125       125       123       124
      126       123       125       130       131       132       132       131
      132       131       129       129       128       129       130       128
      128       129       129       127       124       123       123       122
      122       124       126       128       130       131       129       128
      127       125       124       125       125       124       124       124
      126       126       126       126       125       126       126       126
      127       129       129       131       131       131       132       131
      132       132       132       131       128       125       124       127
      130       134       133       131       131       132       132       132
      131       128       125       124       124       126       126       126
      124       124       123       125       124       125       124       123
      125       125       122       122       120       120       120       120
      119       121       119       119       119       121       123       123
      121       121       120       122       125       124       125       124
      122       123       123       126       128       128       129       130
      130       130       130       129       128       125       123       121
      121       122       122       123       126       128       129       128
      129       131       128       127       126       123       123       124
      122       123       123       122       124       124       125       126
      123       124       125       126       125       127       126       127
      127       127       130       131       134       135       133       136
      136       135       134       133       130       129       129       127
      126       126       126       124       122       123       124       125
      125       123       124       125       126       126       127       127
      127       130       130       133       134       133       132       130
      128       125       125       123       119       116       117       120
      120       119       119       119       120       121       122       125
      125       125       124       125       130       133       133       131
      136       137       138       137       132       127       123       121
      119       117       118       119       123       128       132       134
      135       132       128       127       127       126       126       126
      126       127       131       131       129       127       126       124
      123       120       118       118       121       124       123       123
      126       124       123       123       125       126       125       123
      124       126       129       128       127       127       127       125
      126       128       130       130       131       133       134       135
      135       132       131       130       128       127       127       126
      124       122       124       123       121       123       123       122
      121       123       121       121       121       121       122       122
      121       119       120       123       124       126       128       128
      126       129       128       129       129       127       124       123
      125       125       127       129       129       126       125       125
      125       124       124       123       123       125       128       128
      129       130       128       126       125       124       124       120
      121       121       121       124       124       124       125       127
      129       128       129       131       133       132       133       135
      135       135       133       132       131       131       131       127
      127       127       126       123       123       126       127       127
      128       129       131       130       129       126       125       121
      120       118       118       118       117       118       121       123
      127       126       127       127       128       126       128       126
      125       124       126       127       127       127       126       124
      123       123       124       124       126       126       127       129
      131       132       132       130       127       125       124       124
      124       124       123       122       121       121       123       123
      122       120       122       123       125       128       130       132
      133       131       130       127       125       121       120       120
      121       119       119       122       124       125       126       124
      123       121       121       123       123       123       123       122
      123       127       126       124       124       121       122       121
      124       124       122       122       124       125       127       130
      127       128       127       125       125       124       123       121
      119       120       123       125       126       129       130       132
      132       131       130       131       131       131       130       131
      133       133       133       133       130       129       127       124
      119       118       117       115       114       117       117       119
      122       125       127       131       130       131       131       131
      132       127       125       124       123       122       123       123
      122       123       125       127       128       129       130       126
      126       127       128       126       125       124       124       126
      130       132       135       135       134       132       133       131
      129       128       126       124       126       127       130       133
      134       132       134       136       137       135       133       133
      130       128       128       129       130       130       127       126
      126       129       130       129       130       130       129       127
      126       127       125       122       121       121       120       120
      119       120       122       122       123       122       122       124
      125       124       126       125       122       119       119       120
      122       122       124       123       124       126       125       124
      125       124       123       125       128       132       133       134
      136       132       131       130       126       125       122       121
      122       122       121       120       121       119       120       119
      122       122       122       124       126       130       132       131
      131       129       130       128       131       132       133       129
      129       131       130       130       129       128       127       125
      127       129       129       131       129       126       124       123
      123       123       119       118       116       116       118       119
      120       121       120       122       125       128       131       130
      126       125       122       120       120       120       120       120
      122       122       123       123       125       125       126       127
      126       127       128       127       127       127       126       124
      125       126       127       127       129       130       131       128
      125       124       125       125       122       122       122       120
      121       121       123       125       125       122       121       123
      124       125       126       130       131       132       133       132
      132       130       127       123       122       122       121       122
      121       123       124       123       124       125       126       124
      125       124       125       124       122       122       121       122
      123       123       125       126       127       127       126       125
      125       125       124       126       125       124       125       125
      125       128       132       132       128       126       123       121
      119       118       117       116       118       120       123       126
      127       127       126       125       123       124       125       126
      127       127       128       126       125       120       118       117
      115       113       114       115       118       123       125       126
      127       130       130       129       131       130       127       125
      125       124       126       125       122       120       120       120
      118       116       116       113       112       114       114       115
      118       118       120       121       122       123       123       123
      123       123       122       121       121       120       121       122
      123       123       123       126       127       128       129       130
      128       127       125       124       125       126       127       128
      130       134       133       132       133       132       131       129
      126       125       124       121       120       122       122       122
      122       124       126       128       132       134       134       134
      132       130       129       127       126       127       127       126
      127       128       132       137       138       137       135       133
      132       129       127       126       124       121       122       121
      124       129       131       131       131       130       132       130
      132       133       132       132       133       128       129       127
      124       120       117       115       115       113       115       118
      119       122       123       122       125       125       128       130
      128       129       130       131       131       132       131       130
      128       127       127       126       128       127       125       126
      126       126       125       126       124       124       121       118
      119       117       117       119       117       118       117       119
      119       120       122       124       121       120       122       121
      124       126       123       124       123       123       123       120
      117       115       112       112       114       114       114       114
      115       118       121       124       126       127       125       126
      125       126       127       125       124       124       124       125
      126       126       127       128       123       122       122       123
      124       123       123       122       122       123       123       122
      122       124       123       125       125       124       124       122
      122       123       125       126       126       127       126       125
      124       124       123       124       124       123       124       125
      127       127       125       125       123       119       119       119
      120       120       121       123       123       123       124       124
      124       128       129       128       128       129       128       127
      126       126       125       125       125       127       130       131
      131       128       126       126       124       122       119       120
      119       120       120       121       123       121       121       120
      123       128       131       131       131       131       130       129
      129       130       129       129       129       131       133       134
      134       132       130       130       132       133       136       139
      137       139       139       137       134       132       130       128
      128       129       131       132       134       136       136       134
      131       129       127       126       126       125       126       126
      126       126       127       129       128       125       124       124
      124       123       124       123       123       123       126       129
      128       129       130       129       129       130       131       127
      125       124       124       125       126       125       121       124
      125       127       129       133       133       132       134       134
      134       131       130       127       125       125       123       123
      124       125       127       128       128       128       126       125
      128       128       129       128       125       126       127       127
      127       127       126       126       125       124       125       126
      128       129       129       129       129       129       128       129
      127       125       122       123       123       128       129       130
      131       129       131       132       130       132       130       125
      124       124       120       121       119       119       120       120
      122       124       124       127       128       127       128       126
      125       127       127       129       128       127       128       129
      128       128       128       129       129       129       129       128
      128       126       124       122       123       121       118       117
      118       120       120       124       127       128       132       134
      137       139       140       139       138       137       135       131
      128       125       121       118       118       118       119       120
      123       124       125       126       124       123       123       122
      123       126       126       125       126       124       124       123
      121       119       118       119       120       124       128       129
      131       133       135       136       137       137       136       135
      132       130       131       133       132       132       131       130
      129       130       127       125       125       123       123       126
      129       131       131       132       130       129       131       131
      129       126       124       123       125       125       127       127
      125       125       125       128       130       130       131       129
      130       131       132       131       129       124       124       124
      124       126       125       126       127       128       129       129
      126       124       124       123       124       123       120       121
      122       122       123       126       126       129       131       133
      133       132       131       128       126       127       126       124
      124       125       126       128       129       127       126       126
      124       121       122       124       124       121       120       122
      124       123       121       121       120       118       118       118
      117       115       115       113       115       120       125       127
      129       132       135       137       137       133       129       127
      124       121       122       122       121       120       119       118
      120       118       117       117       118       120       120       122
      124       126       126       126       126       127       128       127
      127       129       131       131       130       130       131       130
      129       128       128       125       124       123       125       127
      125       125       124       126       129       128       131       130
      128       126       125       125       126       123       122       121
      121       125       128       130       132       129       129       129
      128       128       128       127       127       125       126       127
      129       130       128       126       128       128       128       128
      128       129       130       128       129       130       131       131
      130       129       128       126       127       126       127       130
      129       126       127       126       125       124       124       124
      125       124       126       125       128       127       124       124
      125       125       126       125       126       128       127       127
      129       128       129       128       129       130       130       129
      127       126       125       123       122       121       123       123
      125       125       123       122       124       124       125       125
      123       124       125       125       124       123       121       119
      120       121       122       122       124       125       126       127
      127       127       126       125       125       124       123       122
      122       121       121       120       120       119       122       122
      122       123       122       121       121       123       123       122
      122       124       124       123       123       125       125       125
      124       124       125       126       127       126       125       125
      124       124       126       126       123       120       117       115
      113       112       114       116       119       123       127       129
      132       132       131       127       124       120       118       117
      120       123       123       123       122       123       125       125
      127       126       126       128       125       126       127       125
      123       122       121       122       123       124       127       128
      128       126       125       125       124       123       122       122
      123       122       123       122       121       119       115       114
      115       115       116       117       121       126       129       132
      135       135       135       132       129       126       123       120
      118       118       118       117       118       119       121       123
      125       124       125       126       124       125       125       126
      124       123       125       126       129       131       130       130
      129       128       126       126       126       126       124       124
      125       124       125       123       121       121       121       121
      121       120       121       121       118       122       123       122
      120       120       122       125       125       125       124       124
      125       126       127       130       129       127       127       129
      130       129       126       125       123       122       122       122
      123       124       125       126       130       131       132       130
      128       125       122       119       115       113       115       117
      121       124       130       133       133       134       134       133
      128       125       121       120       120       119       120       122
      124       124       125       128       129       128       124       124
      122       122       120       118       119       122       122       122
      125       123       121       121       121       123       123       124
      124       125       126       127       126       126       127       124
      124       127       129       128       127       127       127       128
      127       126       125       125       127       125       125       124
      122       119       119       120       121       121       123       125
      127       129       132       132       133       132       133       133
      134       134       130       127       125       122       119       117
      119       118       119       121       125       129       132       135
      137       137       138       136       136       136       135       132
      133       132       130       127       124       123       122       119
      117       117       118       118       119       120       122       122
      122       122       124       124       123       125       125       125
      125       122       121       120       119       120       122       125
      128       129       132       134       136       138       138       137
      138       137       134       135       133       131       128       128
      126       125       124       124       124       126       127       126
      124       126       125       124       125       128       128       126
      126       126       126       126       125       123       120       121
      121       122       126       126       129       130       132       131
      128       127       127       125       125       126       128       128
      128       126       128       128       128       129       128       128
      129       131       132       132       131       129       126       123
      121       122       121       122       122       122       121       122
      122       122       123       124       125       122       123       124
      124       124       124       124       122       123       122       121
      120       121       121       120       122       121       121       121
      121       122       123       125       126       126       127       129
      131       132       130       130       129       127       125       124
      124       124       125       125       126       126       125       126
      127       129       128       128       128       129       128       128
      131       130       127       127       125       128       128       127
      125       124       124       126       126       128       131       132
      132       135       135       137       135       132       130       131
      130       131       131       131       129       130       130       130
      131       132       130       129       128       129       128       127
      125       124       123       124       124       126       126       125
      122       119       117       117       117       118       116       118
      118       119       123       126       126       125       126       127
      129       129       129       131       130       129       129       131
      133       132       128       127       129       129       129       126
      128       128       128       128       128       127       128       129
      130       130       130       130       129       127       126       125
      123       121       117       117       120       122       124       123
      125       126       126       127       126       125       122       120
      117       118       117       119       119       121       123       125
      126       127       127       129       130       129       127       125
      124       124       123       122       123       123       121       123
      126       127       130       130       129       130       132       132
      131       132       132       132       130       129       127       124
      123       120       116       114       113       111       113       118
      123       126       129       132       133       134       132       129
      125       121       119       117       116       118       117       117
      119       121       124       124       124       125       124       124
      123       124       123       124       121       123       124       126
      127       124       123       124       123       124       124       126
      128       129       129       131       132       132       132       130
      129       127       123       122       121       121       120       118
      121       126       127       130       135       137       137       133
      129       127       123       121       119       119       121       123
      123       125       127       126       125       122       120       118
      118       120       120       123       124       127       126       127
      125       125       125       124       122       123       124       123
      121       123       123       122       120       121       118       117
      115       115       115       116       116       116       114       114
      117       119       121       124       128       129       127       127
      128       129       131       130       129       127       129       131
      131       133       136       134       133       133       134       134
      136       134       133       130       129       129       127       126
      124       124       123       120       120       118       120       120
      120       121       125       127       125       125       126       127
      126       125       128       129       129       129       130       129
      127       125       121       120       119       118       117       119
      118       119       117       118       120       118       117       118
      119       122       124       125       124       124       124       125
      125       125       127       125       124       124       123       123
      122       120       118       119       120       121       121       119
      122       120       120       120       118       118       115       114
      116       115       116       118       120       123       127       129
      133       134       133       133       130       128       128       125
      126       129       129       130       130       132       130       129
      128       129       129       130       131       130       131       132
      130       127       126       125       122       122       121       120
      119       121       122       121       122       122       120       117
      119       118       118       119       119       121       122       124
      125       127       129       126       124       125       128       126
      125       126       129       131       132       131       132       131
      127       122       121       122       119       117       118       120
      122       124       126       126       127       130       132       135
      134       132       128       127       126       123       121       120
      119       118       118       121       123       125       124       123
      123       124       125       126       128       129       128       127
      125       125       126       125       124       123       121       123
      122       121       120       121       118       118       120       124
      124       124       124       124       125       126       125       123
      122       124       123       124       127       127       126       126
      125       124       124       122       121       120       121       120
      120       120       122       124       125       125       123       122
      121       120       120       119       116       116       119       120
      121       123       124       124       124       124       124       125
      125       121       120       123       123       123       123       123
      123       122       122       121       122       120       122       120
      122       124       125       127       127       126       128       127
      127       123       120       119       117       114       115       115
      117       118       121       123       126       126       126       124
      125       126       125       125       126       127       128       128
      128       127       128       127       125       124       122       122
      123       123       123       124       125       125       125       126
      130       128       128       128       129       131       131       129
      127       124       122       123       123       123       123       122
      124       124       125       124       123       123       122       121
      121       125       127       125       127       130       130       128
      127       126       124       124       122       119       117       116
      117       115       117       118       117       117       118       118
      118       120       120       120       123       123       125       126
      127       130       130       131       132       133       133       134
      133       133       133       132       130       129       127       126
      125       125       125       124       124       123       125       127
      129       131       132       132       131       130       127       125
      125       121       121       120       121       122       122       125
      125       125       125       126       124       126       126       123
      122       120       117       119       118       119       119       120
      121       124       126       129       129       127       126       126
      127       130       128       128       128       126       125       124
      124       125       122       120       118       119       120       117
      118       119       120       120       124       127       128       131
      130       129       129       131       130       128       130       128
      124       123       124       124       125       126       125       124
      126       127       129       128       127       126       125       124
      125       127       128       128       125       123       124       124
      124       122       122       122       122       123       124       126
      126       127       126       126       128       126       124       123
      123       120       121       122       122       125       126       126
      126       128       128       128       128       127       125       124
      125       127       127       125       125       124       123       123
      125       127       128       129       131       133       133       135
      132       129       129       126       125       125       123       122
      120       120       119       120       121       123       123       124
      128       130       132       132       130       130       129       128
      126       127       126       126       126       125       125       125
      124       121       120       121       121       122       122       123
      124       126       126       126       128       128       127       126
      125       124       122       121       121       121       118       118
      119       119       118       117       118       119       120       120
      122       123       125       126       125       126       127       126
      124       123       121       121       122       120       120       118
      118       118       118       118       119       120       123       125
      127       130       130       131       131       131       132       129
      127       125       122       121       122       123       124       124
      122       125       125       124       123       122       121       120
      121       122       123       122       121       119       115       115
      114       114       114       115       117       120       124       124
      123       123       124       121       120       119       119       118
      118       118       122       123       123       123       124       125
      126       127       126       122       123       120       120       119
      119       118       118       119       119       119       121       122
      121       121       121       123       123       124       123       122
      123       124       123       124       124       122       121       120
      121       124       125       124       122       120       122       122
      121       119       117       116       117       119       120       121
      123       122       124       125       126       127       124       122
      120       122       122       120       118       118       120       119
      122       123       125       126       126       125       127       129
      128       127       127       130       130       128       127       126
      126       125       124       123       124       124       125       126
      128       130       130       127       126       125       125       124
      123       123       123       122       121       119       119       116
      116       114       116       118       118       120       123       124
      126       126       125       123       123       121       123       123
      126       130       133       134       135       135       134       132
      129       127       126       122       120       120       120       124
      125       124       125       125       126       125       124       121
      117       117       118       119       120       124       124       124
      127       128       129       127       126       126       125       127
      127       128       128       128       125       126       129       129
      128       127       127       128       126       125       126       126
      126       126       126       127       128       127       125       123
      124       122       119       120       121       122       123       124
      126       124       125       122       119       119       119       116
      116       116       117       118       119       120       119       118
      119       120       120       121       120       122       121       119
      121       121       120       121       122       124       129       131
      129       129       130       131       129       127       126       124
      123       122       122       122       124       124       123       125
      129       129       128       124       122       120       119       118
      117       118       120       120       119       121       124       125
      125       123       125       126       128       127       127       127
      127       124       121       122       123       124       123       122
      123       120       119       119       121       123       123       123
      123       124       123       122       121       122       120       117
      118       121       122       123       124       126       126       125
      125       126       126       127       124       122       123       123
      123       121       121       120       118       117       119       121
      120       120       118       116       116       117       119       118
      118       119       120       123       129       130       129       128
      127       124       123       123       122       119       117       117
      118       121       122       121       122       122       123       121
      120       121       121       120       119       120       120       122
      122       122       122       120       119       118       117       118
      121       123       123       127       129       130       129       128
      128       124       121       119       118       118       119       119
      118       120       119       120       122       123       125       124
      124       126       125       123       122       121       121       120
      121       122       124       124       128       130       130       130
      128       128       127       126       125       123       122       122
      124       124       125       126       126       125       125       126
      125       124       124       124       124       125       126       125
      124       127       126       125       125       126       125       124
      125       123       121       120       118       118       115       114
      112       113       114       116       118       119       122       122
      122       123       121       120       119       120       122       120
      120       121       123       124       125       125       128       127
      127       131       135       136       135       132       131       129
      129       125       123       122       122       121       121       120
      119       117       118       117       117       118       121       123
      124       124       126       126       126       124       124       125
      125       122       122       121       122       122       120       120
      119       119       119       118       119       120       120       119
      120       121       122       121       122       123       123       123
      123       122       126       127       128       128       128       128
      127       127       126       125       125       124       123       123
      126       126       126       125       126       125       125       123
      120       119       120       119       116       116       118       118
      114       113       114       112       113       112       110       112
      115       116       117       122       124       124       122       124
      126       125       125       123       121       120       119       118
      118       115       113       114       114       117       118       120
      123       125       127       127       127       128       127       125
      126       126       124       123       121       121       120       120
      119       120       119       121       121       121       123       122
      120       118       117       116       117       117       119       118
      118       120       121       123       123       122       121       121
      119       119       123       123       125       126       128       132
      132       134       134       134       133       132       130       130
      133       132       134       137       138       143       143       145
      145       143       143       138       134       132       131       127
      126       125       126       127       124       123       122       122
      124       122       122       124       125       124       125       125
      125       122       119       117       117       118       120       120
      120       123       123       123       124       123       123       122
      122       122       122       121       123       124       124       126
      125       125       127       126       126       126       128       128
      127       125       127       129       127       125       123       123
      123       120       120       121       121       122       122       121
      122       119       118       117       118       117       114       113
      113       116       118       122       122       122       123       123
      126       125       126       124       123       121       119       122
      122       124       124       126       127       127       127       126
      123       123       122       120       119       120       122       123
      123       123       121       123       122       120       119       120
      121       120       119       120       121       119       117       118
      118       120       123       124       124       123       122       121
      122       123       124       123       121       120       120       121
      122       122       121       120       119       120       122       123
      122       117       114       115       118       119       121       124
      123       124       123       124       124       123       121       118
      118       120       120       121       122       121       120       123
      123       127       129       131       131       131       131       129
      127       126       125       123       122       121       120       121
      119       119       116       114       116       115       116       116
      117       118       120       122       122       124       126       126
      125       129       134       134       132       129       128       128
      127       125       123       126       125       124       124       127
      127       125       124       125       125       126       125       126
      127       127       124       124       123       123       123       121
      121       119       118       114       111       112       114       114
      114       116       117       117       119       120       121       121
      122       120       120       122       122       119       116       114
      111       111       114       115       117       121       124       125
      126       126       124       120       118       116       114       114
      113       116       118       122       123       124       123       124
      123       122       123       123       122       123       122       124
      123       124       124       125       124       125       125       126
      124       123       122       123       121       119       118       119
      120       121       120       119       119       119       119       122
      123       127       126       126       128       126       127       126
      124       121       121       120       121       121       121       121
      119       121       122       120       120       120       120       120
      121       119       120       118       115       116       117       118
      118       118       120       122       125       128       128       127
      127       124       120       121       121       119       117       116
      116       118       120       123       122       124       125       124
      124       123       122       121       119       121       121       120
      119       120       119       121       121       122       124       122
      123       124       123       126       125       123       124       126
      128       127       125       125       122       121       118       117
      115       115       114       116       120       123       124       121
      121       118       117       116       114       116       116       115
      115       119       122       122       122       122       122       118
      118       115       115       113       113       112       113       116
      117       116       117       119       122       121       122       120
      119       117       119       118       119       118       116       116
      118       118       119       120       120       121       120       121
      120       120       120       118       118       119       120       117
      116       118       116       115       116       116       116       118
      117       115       117       119       121       120       120       122
      121       122       125       124       123       121       120       119
      120       121       121       122       122       122       123       125
      126       127       126       124       122       121       119       118
      116       113       114       114       118       121       120       121
      122       121       120       121       120       120       118       115
      117       119       121       121       121       120       122       122
      122       123       122       121       119       117       116       117
      117       117       117       118       121       122       124       124
      122       121       122       121       121       121       120       119
      120       121       121       119       120       119       119       119
      120       123       124       126       126       127       126       125
      123       122       123       121       119       117       117       118
      119       118       120       120       121       122       124       124
      125       123       123       123       120       119       118       116
      118       118       117       116       119       118       120       122
      123       123       124       125       124       124       123       119
      117       118       122       122       125       128       129       128
      128       126       127       129       126       127       127       128
      129       130       131       129       126       124       122       122
      125       126       125       127       126       126       128       126
      123       121       121       121       120       121       123       124
      126       125       126       127       124       122       119       117
      117       118       119       121       121       120       120       118
      120       119       118       119       120       121       123       124
      124       124       123       121       120       118       118       120
      121       123       125       126       127       129       130       133
      133       132       129       127       125       124       118       118
      115       115       116       117       118       122       123       125
      128       130       130       128       124       125       123       121
      122       118       118       120       120       122       123       122
      121       117       117       119       120       117       117       117
      120       120       121       120       121       119       116       114
      114       113       111       110       112       115       116       116
      116       116       118       116       117       116       115       117
      119       122       123       124       124       122       122       123
      123       122       121       119       117       117       115       114
      114       114       116       118       120       120       121       122
      122       121       118       118       119       120       122       121
      123       123       123       123       123       123       121       118
      116       116       116       115       116       114       114       115
      118       119       122       123       122       120       121       122
      123       123       122       120       117       118       119       121
      123       124       124       124       127       128       128       128
      124       121       120       121       122       124       125       124
      124       124       125       124       122       120       118       117
      119       120       119       122       122       124       126       128
      130       131       129       128       125       124       123       121
      118       117       115       114       114       115       115       115
      114       112       110       113       114       114       112       112
      111       110       110       113       114       117       119       120
      122       126       126       124       123       122       117       112
      112       113       113       112       111       112       113       115
      115       118       120       121       121       121       124       124
      122       120       115       114       112       114       113       116
      120       123       124       124       123       121       119       117
      113       113       111       111       109       112       113       116
      116       117       119       120       121       122       124       125
      124       123       120       121       120       120       119       119
      118       116       115       114       113       113       111       112
      113       114       118       121       125       129       131       131
      132       130       128       125       122       121       120       119
      121       121       121       121       121       120       121       120
      120       121       123       124       124       124       124       123
      123       122       122       120       121       119       120       121
      123       123       124       124       123       122       124       123
      124       122       121       121       121       123       123       122
      121       117       114       114       118       120       121       119
      121       123       121       120       120       118       117       114
      115       114       115       118       119       119       119       119
      118       118       117       118       118       118       118       118
      120       122       122       123       122       122       120       116
      112       112       112       112       111       112       112       114
      117       117       117       116       116       115       113       113
      115       115       114       114       111       113       112       108
      108       109       109       107       108       110       111       115
      116       118       119       123       125       126       127       125
      122       120       118       116       116       120       119       119
      121       122       122       122       120       117       114       113
      111       111       113       115       115       119       121       122
      124       123       122       121       119       118       118       117
      117       116       117       120       119       118       119       118
      118       117       118       118       120       119       118       116
      117       117       116       113       115       116       117       119
      123       124       123       122       124       124       126       126
      124       121       121       118       117       116       115       112
      108       106       106       107       110       111       112       113
      115       116       119       120       122       122       118       117
      117       118       119       119       119       122       123       124
      123       124       124       124       123       123       123       122
      121       122       123       125       123       122       120       122
      122       119       119       119       118       118       116       117
      117       117       116       117       118       120       120       118
      119       120       118       117       117       117       117       116
      116       118       119       118       118       118       123       126
      126       127       127       127       126       123       124       124
      121       117       118       119       120       122       121       119
      118       120       120       120       123       122       120       116
      111       110       109       111       111       111       112       115
      117       121       122       121       119       118       117       120
      122       126       127       127       126       127       126       124
      121       118       117       116       116       117       118       120
      119       118       116       116       114       112       111       112
      110       111       113       116       120       124       125       126
      125       126       125       122       118       116       112       112
      113       117       118       117       119       120       120       122
      124       122       119       119       122       123       123       121
      119       117       117       116       116       118       117       113
      112       115       118       117       115       114       112       111
      113       115       118       118       119       120       123       126
      128       127       126       125       123       121       120       118
      118       116       117       117       117       119       120       118
      118       119       117       116       116       116       118       119
      121       121       121       120       116       115       114       113
      111       111       110       113       116       118       119       122
      121       120       119       120       117       115       113       111
      112       115       116       118       121       123       122       122
      123       122       120       118       115       115       116       116
      117       118       117       116       116       118       120       120
      119       120       122       124       123       122       123       121
      119       118       121       121       121       120       123       126
      127       126       126       124       122       120       117       116
      115       115       116       117       119       120       119       120
      122       120       118       117       115       114       115       116
      115       114       114       112       111       112       112       110
      110       110       109       112       113       113       115       118
      121       122       123       121       121       118       118       118
      116       118       118       118       118       117       118       115
      114       116       116       115       114       116       116       118
      118       115       114       112       112       112       113       116
      115       116       116       118       119       120       119       117
      120       118       117       117       116       116       115       116
      116       116       118       118       119       119       120       117
      117       117       117       117       116       115       115       116
      118       119       119       117       116       116       118       118
      118       119       117       118       119       122       122       122
      123       123       123       124       123       122       121       122
      121       122       122       123       122       121       121       119
      118       114       112       110       111       111       112       114
      118       122       124       123       124       122       121       121
      122       122       125       124       125       126       127       127
      127       124       119       116       116       118       119       119
      120       119       120       120       122       122       122       118
      117       116       118       121       122       122       123       124
      125       124       125       122       120       116       116       115
      116       114       114       113       114       116       115       114
      113       112       113       114       114       114       113       114
      116       118       119       118       115       115       115       113
      116       116       114       116       118       122       123       125
      123       121       120       119       119       116       116       115
      115       115       114       113       112       116       116       119
      118       117       118       119       118       118       118       118
      117       118       117       118       118       117       113       113
      112       115       114       115       116       118       119       119
      118       119       119       115       114       117       117       117
      116       116       115       117       117       117       117       116
      116       114       115       116       116       115       115       113
      113       115       115       114       114       114       115       115
      115       114       117       117       117       116       119       120
      120       121       120       120       120       119       118       118
      120       121       121       122       122       122       121       121
      119       117       115       112       113       115       116       117
      118       118       117       115       116       115       113       112
      112       112       116       119       121       122       126       129
      129       129       128       126       125       124       123       122
      121       119       117       116       116       116       114       112
      109       110       111       113       116       117       119       120
      122       123       123       121       120       118       117       118
      117       118       119       119       119       120       123       121
      120       119       119       117       116       115       114       113
      111       110       110       109       107       105       105       107
      110       112       114       118       120       122       123       126
      125       122       119       117       116       115       116       117
      118       119       117       118       117       117       113       112
      111       110       109       110       112       115       118       116
      117       120       121       122       122       120       120       119
      119       118       116       115       115       113       114       116
      118       118       116       116       116       117       117       115
      114       116       118       118       119       119       123       123
      123       122       121       123       123       124       125       126
      124       121       118       118       119       116       114       114
      114       117       117       120       122       122       121       121
      120       119       118       117       117       118       117       116
      114       114       113       110       109       111       112       113
      114       114       116       117       117       117       116       115
      115       115       115       115       117       117       114       111
      111       111       111       111       114       115       116       117
      117       119       121       121       121       120       119       119
      118       118       117       117       115       116       117       116
      117       118       119       119       118       116       116       116
      117       117       115       114       114       113       113       115
      117       120       119       117       117       117       121       120
      118       119       120       120       117       117       118       116
      112       110       108       106       108       111       114       116
      117       116       117       120       121       122       123       124
      121       118       118       120       118       116       113       111
      113       114       115       115       115       115       114       113
      113       115       117       117       117       119       120       117
      116       116       117       117       116       116       118       120
      122       122       123       121       118       116       116       116
      114       110       110       108       108       109       110       110
      114       117       118       120       121       121       119       116
      113       110       109       108       107       108       110       112
      116       117       118       119       118       117       116       116
      117       116       115       115       112       113       115       115
      117       115       115       114       112       112       111       110
      111       110       111       114       117       118       117       115
      116       114       113       113       111       112       111       110
      110       109       109       110       110       112       113       112
      115       116       117       118       116       114       112       112
      112       112       111       110       109       108       109       109
      110       109       109       108       111       114       115       118
      120       122       121       120       119       120       120       118
      118       119       121       121       122       122       120       119
      117       116       116       119       117       115       115       113
      112       112       111       109       108       107       107       107
      109       111       111       111       111       111       114       116
      118       117       118       118       118       119       121       119
      118       117       118       118       121       120       119       117
      119       119       120       119       118       117       118       119
      118       118       117       113       111       110       111       112
      112       112       114       117       120       124       125       125
      123       122       120       120       119       116       111       110
      109       108       110       112       114       115       115       116
      115       116       117       115       114       115       116       117
      118       118       120       119       116       117       117       117
      118       120       123       123       122       123       120       120
      120       118       117       120       118       118       119       121
      122       119       116       115       114       114       112       108
      108       109       108       108       109       110       112       113
      113       115       118       120       118       117       116       116
      116       114       113       112       111       111       111       115
      116       115       113       111       109       110       110       109
      109       108       110       115       118       119       118       117
      117       118       118       119       118       119       120       121
      122       121       117       113       112       112       112       112
      112       114       115       118       123       125       125       125
      124       124       124       124       122       121       120       121
      124       128       132       133       132       135       136       137
      137       138       139       139       140       143       143       143
      140       137       134       133       130       126       124       124
      123       122       121       121       119       119       117       116
      115       115       112       112       113       113       113       113
      113       113       116       116       117       119       119       121
      122       121       120       119       117       115       113       113
      115       115       118       121       121       122       124       120
      119       117       116       116       116       117       117       118
      120       120       119       119       117       114       115       115
      114       112       112       113       112       111       109       106
      105       103       103       106       110       111       113       115
      115       116       116       114       111       109       107       107
      110       113       115       116       118       119       117       119
      118       118       116       114       111       112       112       113
      109       109       112       112       114       116       115       114
      112       110       107       107       107       108       105       107
      110       111       112       111       111       110       110       109
      109       110       112       111       110       110       109       109
      108       111       115       116       115       115       116       116
      117       113       111       108       107       107       106       109
      112       115       115       115       115       115       114       110
      109       106       102       102       102       105       109       112
      112       113       112       111       110       108       108       106
      107       110       111       112       112       115       117       117
      116       116       116       115       116       117       117       115
      115       116       118       121       124       124       126       126
      123       120       116       115       113       112       111       111
      112       113       113       111       108       106       105       103
      102       103       106       108       109       112       115       116
      117       116       118       119       119       116       113       112
      111       112       115       116       117       117       115       115
      116       115       115       113       112       111       111       114
      118       116       113       112       110       112       113       113
      115       114       115       114       114       113       113       111
      109       108       109       111       112       112       114       115
      117       118       119       118       118       117       115       115
      118       115       114       112       110       111       113       113
      113       114       114       115       114       116       116       114
      114       112       111       113       117       116       117       117
      114       112       110       109       110       110       111       109
      110       111       112       112       113       113       111       112
      112       112       116       119       119       118       118       116
      119       120       120       118       118       120       119       120
      121       119       114       115       117       118       121       121
      120       120       120       120       119       119       116       111
      110       113       115       117       117       118       117       114
      113       112       110       109       106       106       106       106
      110       113       114       115       114       112       113       113
      111       111       111       111       110       111       112       111
      112       113       115       115       116       115       114       114
      113       113       113       114       112       112       113       112
      111       109       109       107       108       108       110       115
      118       119       120       118       117       116       114       111
      109       107       106       106       107       110       112       112
      114       112       112       113       111       108       107       106
      108       108       109       112       112       112       113       114
      116       116       114       112       113       113       114       111
      112       111       112       111       111       113       112       110
      109       111       111       111       112       112       113       115
      116       115       114       113       111       111       112       114
      115       119       121       123       124       125       123       120
      116       113       109       108       107       108       109       110
      112       113       114       114       113       112       112       111
      110       110       110       109       109       108       106       106
      108       108       106       106       107       108       107       108
      109       110       112       109       110       113       114       110
      107       106       107       108       109       111       111       112
      114       113       115       114       112       108       107       106
      107       109       110       110       108       110       111       109
      109       109       108       106       106       104       103       103
      101       101       101       103       103       106       110       111
      112       113       114       113       114       112       112       111
      113       113       112       113       111       111       110       110
      110       111       112       113       115       119       124       123
      123       124       124       126       126       124       123       121
      121       120       121       122       124       125       128       131
      133       139       142       142       143       144       146       144
      143       141       138       135       131       129       126       125
      122       119       118       121       122       122       125       127
      128       128       127       127       123       119       115       110
      109       108       105       106       106       108       109       110
      111       111       110       112       113       115       117       117
      118       118       117       118       117       115       112       110
      108       107       107       108       109       113       116       117
      120       122       121       119       119       119       119       116
      112       110       111       111       110       109       109       107
      106       109       111       115       118       117       117       116
      116       115       115       114       113       113       112       114
      113       115       117       117       117       114       115       116
      116       116       116       115       113       110       108       108
      107       105       103       103       105       106       107       109
      109       110       112       111       113       115       113       112
      111       114       116       118       120       122       121       120
      119       118       116       112       109       106       104       106
      105       106       108       111       112       112       115       115
      114       113       113       113       113       115       112       112
      114       117       119       120       122       119       120       119
      119       119       117       115       111       109       109       108
      109       111       110       111       112       112       111       111
      109       108       107       108       109       107       109       107
      109       110       112       114       115       116       116       117
      116       117       114       111       112       109       112       112
      112       113       113       114       113       112       110       110
      110       113       115       115




;
_cod_data_source_file            K2ZrF6-form-III-768K.cif
_cod_data_source_block           K2ZrF6-form-III-768K
_cod_depositor_comments
;
The following automatic conversions were performed:

'_symmetry_cell_setting' value 'Cubic' changed to 'cubic' according
to the built-in table from CIF Core dictionary named 'cif_core.dic'
version 2.4.1 from 2010-06-29.

Automatic conversion script
Id: cif_fix_values 4624 2016-04-14 12:54:50Z antanas 
;
_cod_original_cell_volume        767.672(8)
_cod_database_code               3500044
_pd_proc_ls_prof_cr_factor       25.0225
_pd_proc_ls_prof_cwr_factor      22.9284
_pd_proc_ls_prof_cwr_expected    15.0442
_pd_proc_ls_prof_chi2            2.3228
_pd_proc_ls_prof_echi2           2.8663
loop_
_publ_manuscript_incl_extra_item
_publ_manuscript_incl_extra_info
_publ_manuscript_incl_extra_defn
'_pd_proc_ls_prof_cR_factor' 'Prof. R-factor CORRECTED for background' no
'_pd_proc_ls_prof_cwR_factor' 'wProf.R-factor CORRECTED for background' no
'_pd_proc_ls_prof_cwR_expected' 'wProf.Expected CORRECTED for background' no
'_pd_proc_ls_prof_chi2' 'Chi-square for all considered points' no
'_pd_proc_ls_prof_echi2' 'Chi-2 for points with Bragg contribution' no
loop_
_symmetry_equiv_pos_as_xyz
x,y,z
x,-y,-z
-x,y,-z
-x,-y,z
y,z,x
-y,-z,x
y,-z,-x
-y,z,-x
z,x,y
-z,x,-y
-z,-x,y
z,-x,-y
y,x,z
-y,x,-z
y,-x,-z
-y,-x,z
z,y,x
-z,-y,x
-z,y,-x
z,-y,-x
x,z,y
x,-z,-y
-x,-z,y
-x,z,-y
-x,-y,-z
-x,y,z
x,-y,z
x,y,-z
-y,-z,-x
y,z,-x
-y,z,x
y,-z,x
-z,-x,-y
z,-x,y
z,x,-y
-z,x,y
-y,-x,-z
y,-x,z
-y,x,z
y,x,-z
-z,-y,-x
z,y,-x
z,-y,x
-z,y,x
-x,-z,-y
-x,z,y
x,z,-y
x,-z,y
x+1/2,y+1/2,z
x+1/2,-y+1/2,-z
-x+1/2,y+1/2,-z
-x+1/2,-y+1/2,z
y+1/2,z+1/2,x
-y+1/2,-z+1/2,x
y+1/2,-z+1/2,-x
-y+1/2,z+1/2,-x
z+1/2,x+1/2,y
-z+1/2,x+1/2,-y
-z+1/2,-x+1/2,y
z+1/2,-x+1/2,-y
y+1/2,x+1/2,z
-y+1/2,x+1/2,-z
y+1/2,-x+1/2,-z
-y+1/2,-x+1/2,z
z+1/2,y+1/2,x
-z+1/2,-y+1/2,x
-z+1/2,y+1/2,-x
z+1/2,-y+1/2,-x
x+1/2,z+1/2,y
x+1/2,-z+1/2,-y
-x+1/2,-z+1/2,y
-x+1/2,z+1/2,-y
-x+1/2,-y+1/2,-z
-x+1/2,y+1/2,z
x+1/2,-y+1/2,z
x+1/2,y+1/2,-z
-y+1/2,-z+1/2,-x
y+1/2,z+1/2,-x
-y+1/2,z+1/2,x
y+1/2,-z+1/2,x
-z+1/2,-x+1/2,-y
z+1/2,-x+1/2,y
z+1/2,x+1/2,-y
-z+1/2,x+1/2,y
-y+1/2,-x+1/2,-z
y+1/2,-x+1/2,z
-y+1/2,x+1/2,z
y+1/2,x+1/2,-z
-z+1/2,-y+1/2,-x
z+1/2,y+1/2,-x
z+1/2,-y+1/2,x
-z+1/2,y+1/2,x
-x+1/2,-z+1/2,-y
-x+1/2,z+1/2,y
x+1/2,z+1/2,-y
x+1/2,-z+1/2,y
x+1/2,y,z+1/2
x+1/2,-y,-z+1/2
-x+1/2,y,-z+1/2
-x+1/2,-y,z+1/2
y+1/2,z,x+1/2
-y+1/2,-z,x+1/2
y+1/2,-z,-x+1/2
-y+1/2,z,-x+1/2
z+1/2,x,y+1/2
-z+1/2,x,-y+1/2
-z+1/2,-x,y+1/2
z+1/2,-x,-y+1/2
y+1/2,x,z+1/2
-y+1/2,x,-z+1/2
y+1/2,-x,-z+1/2
-y+1/2,-x,z+1/2
z+1/2,y,x+1/2
-z+1/2,-y,x+1/2
-z+1/2,y,-x+1/2
z+1/2,-y,-x+1/2
x+1/2,z,y+1/2
x+1/2,-z,-y+1/2
-x+1/2,-z,y+1/2
-x+1/2,z,-y+1/2
-x+1/2,-y,-z+1/2
-x+1/2,y,z+1/2
x+1/2,-y,z+1/2
x+1/2,y,-z+1/2
-y+1/2,-z,-x+1/2
y+1/2,z,-x+1/2
-y+1/2,z,x+1/2
y+1/2,-z,x+1/2
-z+1/2,-x,-y+1/2
z+1/2,-x,y+1/2
z+1/2,x,-y+1/2
-z+1/2,x,y+1/2
-y+1/2,-x,-z+1/2
y+1/2,-x,z+1/2
-y+1/2,x,z+1/2
y+1/2,x,-z+1/2
-z+1/2,-y,-x+1/2
z+1/2,y,-x+1/2
z+1/2,-y,x+1/2
-z+1/2,y,x+1/2
-x+1/2,-z,-y+1/2
-x+1/2,z,y+1/2
x+1/2,z,-y+1/2
x+1/2,-z,y+1/2
x,y+1/2,z+1/2
x,-y+1/2,-z+1/2
-x,y+1/2,-z+1/2
-x,-y+1/2,z+1/2
y,z+1/2,x+1/2
-y,-z+1/2,x+1/2
y,-z+1/2,-x+1/2
-y,z+1/2,-x+1/2
z,x+1/2,y+1/2
-z,x+1/2,-y+1/2
-z,-x+1/2,y+1/2
z,-x+1/2,-y+1/2
y,x+1/2,z+1/2
-y,x+1/2,-z+1/2
y,-x+1/2,-z+1/2
-y,-x+1/2,z+1/2
z,y+1/2,x+1/2
-z,-y+1/2,x+1/2
-z,y+1/2,-x+1/2
z,-y+1/2,-x+1/2
x,z+1/2,y+1/2
x,-z+1/2,-y+1/2
-x,-z+1/2,y+1/2
-x,z+1/2,-y+1/2
-x,-y+1/2,-z+1/2
-x,y+1/2,z+1/2
x,-y+1/2,z+1/2
x,y+1/2,-z+1/2
-y,-z+1/2,-x+1/2
y,z+1/2,-x+1/2
-y,z+1/2,x+1/2
y,-z+1/2,x+1/2
-z,-x+1/2,-y+1/2
z,-x+1/2,y+1/2
z,x+1/2,-y+1/2
-z,x+1/2,y+1/2
-y,-x+1/2,-z+1/2
y,-x+1/2,z+1/2
-y,x+1/2,z+1/2
y,x+1/2,-z+1/2
-z,-y+1/2,-x+1/2
z,y+1/2,-x+1/2
z,-y+1/2,x+1/2
-z,y+1/2,x+1/2
-x,-z+1/2,-y+1/2
-x,z+1/2,y+1/2
x,z+1/2,-y+1/2
x,-z+1/2,y+1/2
loop_
_atom_site_label
_atom_site_fract_x
_atom_site_fract_y
_atom_site_fract_z
_atom_site_U_iso_or_equiv
_atom_site_occupancy
_atom_site_adp_type
_atom_site_type_symbol
K1 0.50000 0.50000 0.50000 0.1579(16) 0.740(3) Uiso K
K2 0.25000 0.25000 0.25000 0.1579(16) 0.630(15) Uiso K
Zr1 0.00000 0.00000 0.00000 0.1007(10) 1. Uiso Zr
F1 0.00000 0.00000 0.7841(17) 0.142(3) 0.4198(14) Uiso F
F2 0.890(2) 0.00000 0.7891(13) 0.142(3) 0.1450(3) Uiso F
loop_
_atom_type_symbol
_atom_type_scat_Cromer_Mann_a1
_atom_type_scat_Cromer_Mann_b1
_atom_type_scat_Cromer_Mann_a2
_atom_type_scat_Cromer_Mann_b2
_atom_type_scat_Cromer_Mann_a3
_atom_type_scat_Cromer_Mann_b3
_atom_type_scat_Cromer_Mann_a4
_atom_type_scat_Cromer_Mann_b4
_atom_type_scat_Cromer_Mann_c
_atom_type_scat_dispersion_real
_atom_type_scat_dispersion_imag
_atom_type_scat_source
F 3.63220 5.27756 3.51057 14.73530 1.26064 0.44226 0.94071 47.34370 0.65340
0.02400 0.01000
International_Tables_for_Crystallography_Vol.C(1991)_Tables_6.1.1.4_and_6.1.1.5
Zr 18.16680 1.21480 10.05620 10.14830 1.01118 21.60540 -2.64790 -0.10276
9.41454 -1.44700 0.74000
International_Tables_for_Crystallography_Vol.C(1991)_Tables_6.1.1.4_and_6.1.1.5
K 7.95780 12.63310 7.49170 0.76740 6.35900 -0.00200 1.19150 31.91280 -4.99780
0.24600 0.33500
International_Tables_for_Crystallography_Vol.C(1991)_Tables_6.1.1.4_and_6.1.1.5
loop_
_geom_angle_atom_site_label_1
_geom_angle_atom_site_label_2
_geom_angle_atom_site_label_3
_geom_angle
_geom_angle_site_symmetry_1
_geom_angle_site_symmetry_3
F1 K1 F1 180.0(11) 49_555 50_556
F1 K1 F1 90.0(6) 49_555 101_555
F1 K1 F1 90.0(6) 49_555 102_565
F1 K1 F1 90.0(6) 49_555 153_555
F1 K1 F1 90.0(6) 49_555 154_655
F1 K1 F2 159.2(9) 49_555 50_456
F1 K1 F2 159.2(9) 49_555 51_656
F1 K1 F2 159.2(9) 49_555 62_546
F1 K1 F2 159.2(9) 49_555 63_566
F1 K1 F2 110.8(7) 49_555 101_554
F1 K1 F2 110.8(7) 49_555 102_564
F1 K1 F2 69.2(4) 49_555 103_566
F1 K1 F2 69.2(4) 49_555 104_556
F1 K1 F2 90.0(6) 49_555 117_455
F1 K1 F2 90.0(6) 49_555 118_465
F1 K1 F2 90.0(6) 49_555 119_665
F1 K1 F2 90.0(6) 49_555 120_655
F1 K1 F2 90.0(7) 49_555 153_545
F1 K1 F2 90.0(7) 49_555 154_645
F1 K1 F2 90.0(7) 49_555 155_665
F1 K1 F2 90.0(7) 49_555 156_565
F1 K1 F2 110.8(8) 49_555 161_554
F1 K1 F2 110.8(8) 49_555 162_654
F1 K1 F2 69.2(7) 49_555 163_656
F1 K1 F2 69.2(7) 49_555 164_556
F1 K1 F1 90.0(6) 50_556 101_555
F1 K1 F1 90.0(6) 50_556 102_565
F1 K1 F1 90.0(6) 50_556 153_555
F1 K1 F1 90.0(6) 50_556 154_655
F1 K1 F2 159.2(9) 50_556 49_455
F1 K1 F2 159.2(9) 50_556 52_655
F1 K1 F2 159.2(9) 50_556 61_545
F1 K1 F2 159.2(9) 50_556 64_565
F1 K1 F2 69.2(4) 50_556 101_554
F1 K1 F2 69.2(4) 50_556 102_564
F1 K1 F2 110.8(7) 50_556 103_566
F1 K1 F2 110.8(7) 50_556 104_556
F1 K1 F2 90.0(6) 50_556 117_455
F1 K1 F2 90.0(6) 50_556 118_465
F1 K1 F2 90.0(6) 50_556 119_665
F1 K1 F2 90.0(6) 50_556 120_655
F1 K1 F2 90.0(7) 50_556 153_545
F1 K1 F2 90.0(7) 50_556 154_645
F1 K1 F2 90.0(7) 50_556 155_665
F1 K1 F2 90.0(7) 50_556 156_565
F1 K1 F2 69.2(7) 50_556 161_554
F1 K1 F2 69.2(7) 50_556 162_654
F1 K1 F2 110.8(8) 50_556 163_656
F1 K1 F2 110.8(8) 50_556 164_556
F1 K1 F1 180.0000(8) 101_555 102_565
F1 K1 F1 90.0000(4) 101_555 153_555
F1 K1 F1 90.0000(4) 101_555 154_655
F1 K1 F2 90.0(5) 101_555 49_455
F1 K1 F2 90.0(5) 101_555 50_456
F1 K1 F2 90.0(5) 101_555 51_656
F1 K1 F2 90.0(5) 101_555 52_655
F1 K1 F2 110.8(5) 101_555 61_545
F1 K1 F2 110.8(5) 101_555 62_546
F1 K1 F2 69.2(5) 101_555 63_566
F1 K1 F2 69.2(5) 101_555 64_565
F1 K1 F2 159.17(18) 101_555 102_564
F1 K1 F2 159.17(18) 101_555 103_566
F1 K1 F2 159.17(19) 101_555 118_465
F1 K1 F2 159.17(19) 101_555 119_665
F1 K1 F2 110.8(5) 101_555 153_545
F1 K1 F2 110.8(5) 101_555 154_645
F1 K1 F2 69.2(5) 101_555 155_665
F1 K1 F2 69.2(5) 101_555 156_565
F1 K1 F2 90.0(5) 101_555 161_554
F1 K1 F2 90.0(5) 101_555 162_654
F1 K1 F2 90.0(5) 101_555 163_656
F1 K1 F2 90.0(5) 101_555 164_556
F1 K1 F1 90.0000(4) 102_565 153_555
F1 K1 F1 90.0000(4) 102_565 154_655
F1 K1 F2 90.0(5) 102_565 49_455
F1 K1 F2 90.0(5) 102_565 50_456
F1 K1 F2 90.0(5) 102_565 51_656
F1 K1 F2 90.0(5) 102_565 52_655
F1 K1 F2 69.2(5) 102_565 61_545
F1 K1 F2 69.2(5) 102_565 62_546
F1 K1 F2 110.8(5) 102_565 63_566
F1 K1 F2 110.8(5) 102_565 64_565
F1 K1 F2 159.17(18) 102_565 101_554
F1 K1 F2 159.17(18) 102_565 104_556
F1 K1 F2 159.17(19) 102_565 117_455
F1 K1 F2 159.17(19) 102_565 120_655
F1 K1 F2 69.2(5) 102_565 153_545
F1 K1 F2 69.2(5) 102_565 154_645
F1 K1 F2 110.8(5) 102_565 155_665
F1 K1 F2 110.8(5) 102_565 156_565
F1 K1 F2 90.0(5) 102_565 161_554
F1 K1 F2 90.0(5) 102_565 162_654
F1 K1 F2 90.0(5) 102_565 163_656
F1 K1 F2 90.0(5) 102_565 164_556
F1 K1 F1 180.0000(8) 153_555 154_655
F1 K1 F2 110.8(7) 153_555 49_455
F1 K1 F2 110.8(7) 153_555 50_456
F1 K1 F2 69.2(5) 153_555 51_656
F1 K1 F2 69.2(5) 153_555 52_655
F1 K1 F2 90.0(6) 153_555 61_545
F1 K1 F2 90.0(6) 153_555 62_546
F1 K1 F2 90.0(6) 153_555 63_566
F1 K1 F2 90.0(6) 153_555 64_565
F1 K1 F2 90.0(4) 153_555 101_554
F1 K1 F2 90.0(4) 153_555 102_564
F1 K1 F2 90.0(4) 153_555 103_566
F1 K1 F2 90.0(4) 153_555 104_556
F1 K1 F2 110.8(5) 153_555 117_455
F1 K1 F2 110.8(5) 153_555 118_465
F1 K1 F2 69.2(3) 153_555 119_665
F1 K1 F2 69.2(3) 153_555 120_655
F1 K1 F2 159.2(8) 153_555 154_645
F1 K1 F2 159.2(8) 153_555 155_665
F1 K1 F2 159.2(8) 153_555 162_654
F1 K1 F2 159.2(8) 153_555 163_656
F1 K1 F2 69.2(5) 154_655 49_455
F1 K1 F2 69.2(5) 154_655 50_456
F1 K1 F2 110.8(7) 154_655 51_656
F1 K1 F2 110.8(7) 154_655 52_655
F1 K1 F2 90.0(6) 154_655 61_545
F1 K1 F2 90.0(6) 154_655 62_546
F1 K1 F2 90.0(6) 154_655 63_566
F1 K1 F2 90.0(6) 154_655 64_565
F1 K1 F2 90.0(4) 154_655 101_554
F1 K1 F2 90.0(4) 154_655 102_564
F1 K1 F2 90.0(4) 154_655 103_566
F1 K1 F2 90.0(4) 154_655 104_556
F1 K1 F2 69.2(3) 154_655 117_455
F1 K1 F2 69.2(3) 154_655 118_465
F1 K1 F2 110.8(5) 154_655 119_665
F1 K1 F2 110.8(5) 154_655 120_655
F1 K1 F2 159.2(8) 154_655 153_545
F1 K1 F2 159.2(8) 154_655 156_565
F1 K1 F2 159.2(8) 154_655 161_554
F1 K1 F2 159.2(8) 154_655 164_556
F2 K1 F2 138.3(7) 49_455 50_456
F2 K1 F2 180.0(8) 49_455 51_656
F2 K1 F2 150.9(7) 49_455 62_546
F2 K1 F2 150.9(7) 49_455 63_566
F2 K1 F2 109.4(6) 49_455 101_554
F2 K1 F2 109.4(6) 49_455 102_564
F2 K1 F2 70.6(4) 49_455 103_566
F2 K1 F2 70.6(4) 49_455 104_556
F2 K1 F2 82.7(4) 49_455 117_455
F2 K1 F2 82.7(4) 49_455 118_465
F2 K1 F2 97.3(6) 49_455 119_665
F2 K1 F2 97.3(6) 49_455 120_655
F2 K1 F2 109.4(9) 49_455 153_545
F2 K1 F2 70.6(6) 49_455 154_645
F2 K1 F2 70.6(6) 49_455 155_665
F2 K1 F2 109.4(9) 49_455 156_565
F2 K1 F2 131.7(9) 49_455 161_554
F2 K1 F2 90.0(7) 49_455 162_654
F2 K1 F2 48.3(6) 49_455 163_656
F2 K1 F2 90.0(8) 49_455 164_556
F2 K1 F2 180.0(8) 50_456 52_655
F2 K1 F2 150.9(7) 50_456 61_545
F2 K1 F2 150.9(7) 50_456 64_565
F2 K1 F2 70.6(4) 50_456 101_554
F2 K1 F2 70.6(4) 50_456 102_564
F2 K1 F2 109.4(6) 50_456 103_566
F2 K1 F2 109.4(6) 50_456 104_556
F2 K1 F2 82.7(4) 50_456 117_455
F2 K1 F2 82.7(4) 50_456 118_465
F2 K1 F2 97.3(6) 50_456 119_665
F2 K1 F2 97.3(6) 50_456 120_655
F2 K1 F2 109.4(9) 50_456 153_545
F2 K1 F2 70.6(6) 50_456 154_645
F2 K1 F2 70.6(6) 50_456 155_665
F2 K1 F2 109.4(9) 50_456 156_565
F2 K1 F2 90.0(8) 50_456 161_554
F2 K1 F2 48.3(6) 50_456 162_654
F2 K1 F2 90.0(7) 50_456 163_656
F2 K1 F2 131.7(9) 50_456 164_556
F2 K1 F2 138.3(7) 51_656 52_655
F2 K1 F2 150.9(7) 51_656 61_545
F2 K1 F2 150.9(7) 51_656 64_565
F2 K1 F2 70.6(4) 51_656 101_554
F2 K1 F2 70.6(4) 51_656 102_564
F2 K1 F2 109.4(6) 51_656 103_566
F2 K1 F2 109.4(6) 51_656 104_556
F2 K1 F2 97.3(6) 51_656 117_455
F2 K1 F2 97.3(6) 51_656 118_465
F2 K1 F2 82.7(4) 51_656 119_665
F2 K1 F2 82.7(4) 51_656 120_655
F2 K1 F2 70.6(6) 51_656 153_545
F2 K1 F2 109.4(9) 51_656 154_645
F2 K1 F2 109.4(9) 51_656 155_665
F2 K1 F2 70.6(6) 51_656 156_565
F2 K1 F2 48.3(6) 51_656 161_554
F2 K1 F2 90.0(8) 51_656 162_654
F2 K1 F2 131.7(9) 51_656 163_656
F2 K1 F2 90.0(7) 51_656 164_556
F2 K1 F2 150.9(7) 52_655 62_546
F2 K1 F2 150.9(7) 52_655 63_566
F2 K1 F2 109.4(6) 52_655 101_554
F2 K1 F2 109.4(6) 52_655 102_564
F2 K1 F2 70.6(4) 52_655 103_566
F2 K1 F2 70.6(4) 52_655 104_556
F2 K1 F2 97.3(6) 52_655 117_455
F2 K1 F2 97.3(6) 52_655 118_465
F2 K1 F2 82.7(4) 52_655 119_665
F2 K1 F2 82.7(4) 52_655 120_655
F2 K1 F2 70.6(6) 52_655 153_545
F2 K1 F2 109.4(9) 52_655 154_645
F2 K1 F2 109.4(9) 52_655 155_665
F2 K1 F2 70.6(6) 52_655 156_565
F2 K1 F2 90.0(7) 52_655 161_554
F2 K1 F2 131.7(9) 52_655 162_654
F2 K1 F2 90.0(8) 52_655 163_656
F2 K1 F2 48.3(6) 52_655 164_556
F2 K1 F2 138.3(7) 61_545 62_546
F2 K1 F2 180.0(7) 61_545 63_566
F2 K1 F2 131.7(5) 61_545 101_554
F2 K1 F2 90.0(5) 61_545 102_564
F2 K1 F2 48.3(3) 61_545 103_566
F2 K1 F2 90.0(3) 61_545 104_556
F2 K1 F2 109.4(5) 61_545 117_455
F2 K1 F2 70.6(5) 61_545 118_465
F2 K1 F2 70.6(5) 61_545 119_665
F2 K1 F2 109.4(5) 61_545 120_655
F2 K1 F2 82.7(7) 61_545 153_545
F2 K1 F2 82.7(7) 61_545 154_645
F2 K1 F2 97.3(7) 61_545 155_665
F2 K1 F2 97.3(7) 61_545 156_565
F2 K1 F2 109.4(8) 61_545 161_554
F2 K1 F2 109.4(8) 61_545 162_654
F2 K1 F2 70.6(7) 61_545 163_656
F2 K1 F2 70.6(7) 61_545 164_556
F2 K1 F2 180.0(7) 62_546 64_565
F2 K1 F2 90.0(3) 62_546 101_554
F2 K1 F2 48.3(3) 62_546 102_564
F2 K1 F2 90.0(5) 62_546 103_566
F2 K1 F2 131.7(5) 62_546 104_556
F2 K1 F2 109.4(5) 62_546 117_455
F2 K1 F2 70.6(5) 62_546 118_465
F2 K1 F2 70.6(5) 62_546 119_665
F2 K1 F2 109.4(5) 62_546 120_655
F2 K1 F2 82.7(7) 62_546 153_545
F2 K1 F2 82.7(7) 62_546 154_645
F2 K1 F2 97.3(7) 62_546 155_665
F2 K1 F2 97.3(7) 62_546 156_565
F2 K1 F2 70.6(7) 62_546 161_554
F2 K1 F2 70.6(7) 62_546 162_654
F2 K1 F2 109.4(8) 62_546 163_656
F2 K1 F2 109.4(8) 62_546 164_556
F2 K1 F2 138.3(7) 63_566 64_565
F2 K1 F2 48.3(3) 63_566 101_554
F2 K1 F2 90.0(3) 63_566 102_564
F2 K1 F2 131.7(5) 63_566 103_566
F2 K1 F2 90.0(5) 63_566 104_556
F2 K1 F2 70.6(5) 63_566 117_455
F2 K1 F2 109.4(5) 63_566 118_465
F2 K1 F2 109.4(5) 63_566 119_665
F2 K1 F2 70.6(5) 63_566 120_655
F2 K1 F2 97.3(7) 63_566 153_545
F2 K1 F2 97.3(7) 63_566 154_645
F2 K1 F2 82.7(7) 63_566 155_665
F2 K1 F2 82.7(7) 63_566 156_565
F2 K1 F2 70.6(7) 63_566 161_554
F2 K1 F2 70.6(7) 63_566 162_654
F2 K1 F2 109.4(8) 63_566 163_656
F2 K1 F2 109.4(8) 63_566 164_556
F2 K1 F2 90.0(5) 64_565 101_554
F2 K1 F2 131.7(5) 64_565 102_564
F2 K1 F2 90.0(3) 64_565 103_566
F2 K1 F2 48.3(3) 64_565 104_556
F2 K1 F2 70.6(5) 64_565 117_455
F2 K1 F2 109.4(5) 64_565 118_465
F2 K1 F2 109.4(5) 64_565 119_665
F2 K1 F2 70.6(5) 64_565 120_655
F2 K1 F2 97.3(7) 64_565 153_545
F2 K1 F2 97.3(7) 64_565 154_645
F2 K1 F2 82.7(7) 64_565 155_665
F2 K1 F2 82.7(7) 64_565 156_565
F2 K1 F2 109.4(8) 64_565 161_554
F2 K1 F2 109.4(8) 64_565 162_654
F2 K1 F2 70.6(7) 64_565 163_656
F2 K1 F2 70.6(7) 64_565 164_556
F2 K1 F2 138.34(12) 101_554 102_564
F2 K1 F2 180.0(3) 101_554 103_566
F2 K1 F2 150.9(3) 101_554 118_465
F2 K1 F2 150.9(3) 101_554 119_665
F2 K1 F2 109.4(6) 101_554 153_545
F2 K1 F2 109.4(6) 101_554 154_645
F2 K1 F2 70.6(6) 101_554 155_665
F2 K1 F2 70.6(6) 101_554 156_565
F2 K1 F2 82.7(6) 101_554 161_554
F2 K1 F2 82.7(6) 101_554 162_654
F2 K1 F2 97.3(7) 101_554 163_656
F2 K1 F2 97.3(7) 101_554 164_556
F2 K1 F2 180.0(3) 102_564 104_556
F2 K1 F2 150.9(3) 102_564 117_455
F2 K1 F2 150.9(3) 102_564 120_655
F2 K1 F2 70.6(6) 102_564 153_545
F2 K1 F2 70.6(6) 102_564 154_645
F2 K1 F2 109.4(6) 102_564 155_665
F2 K1 F2 109.4(6) 102_564 156_565
F2 K1 F2 82.7(6) 102_564 161_554
F2 K1 F2 82.7(6) 102_564 162_654
F2 K1 F2 97.3(7) 102_564 163_656
F2 K1 F2 97.3(7) 102_564 164_556
F2 K1 F2 138.34(12) 103_566 104_556
F2 K1 F2 150.9(3) 103_566 117_455
F2 K1 F2 150.9(3) 103_566 120_655
F2 K1 F2 70.6(6) 103_566 153_545
F2 K1 F2 70.6(6) 103_566 154_645
F2 K1 F2 109.4(6) 103_566 155_665
F2 K1 F2 109.4(6) 103_566 156_565
F2 K1 F2 97.3(7) 103_566 161_554
F2 K1 F2 97.3(7) 103_566 162_654
F2 K1 F2 82.7(6) 103_566 163_656
F2 K1 F2 82.7(6) 103_566 164_556
F2 K1 F2 150.9(3) 104_556 118_465
F2 K1 F2 150.9(3) 104_556 119_665
F2 K1 F2 109.4(6) 104_556 153_545
F2 K1 F2 109.4(6) 104_556 154_645
F2 K1 F2 70.6(6) 104_556 155_665
F2 K1 F2 70.6(6) 104_556 156_565
F2 K1 F2 97.3(7) 104_556 161_554
F2 K1 F2 97.3(7) 104_556 162_654
F2 K1 F2 82.7(6) 104_556 163_656
F2 K1 F2 82.7(6) 104_556 164_556
F2 K1 F2 138.34(19) 117_455 118_465
F2 K1 F2 180.0(4) 117_455 119_665
F2 K1 F2 131.7(8) 117_455 153_545
F2 K1 F2 90.0(5) 117_455 154_645
F2 K1 F2 48.3(5) 117_455 155_665
F2 K1 F2 90.0(8) 117_455 156_565
F2 K1 F2 109.4(8) 117_455 161_554
F2 K1 F2 70.6(5) 117_455 162_654
F2 K1 F2 70.6(5) 117_455 163_656
F2 K1 F2 109.4(8) 117_455 164_556
F2 K1 F2 180.0(4) 118_465 120_655
F2 K1 F2 90.0(8) 118_465 153_545
F2 K1 F2 48.3(5) 118_465 154_645
F2 K1 F2 90.0(5) 118_465 155_665
F2 K1 F2 131.7(8) 118_465 156_565
F2 K1 F2 109.4(8) 118_465 161_554
F2 K1 F2 70.6(5) 118_465 162_654
F2 K1 F2 70.6(5) 118_465 163_656
F2 K1 F2 109.4(8) 118_465 164_556
F2 K1 F2 138.34(19) 119_665 120_655
F2 K1 F2 48.3(5) 119_665 153_545
F2 K1 F2 90.0(8) 119_665 154_645
F2 K1 F2 131.7(8) 119_665 155_665
F2 K1 F2 90.0(5) 119_665 156_565
F2 K1 F2 70.6(5) 119_665 161_554
F2 K1 F2 109.4(8) 119_665 162_654
F2 K1 F2 109.4(8) 119_665 163_656
F2 K1 F2 70.6(5) 119_665 164_556
F2 K1 F2 90.0(5) 120_655 153_545
F2 K1 F2 131.7(8) 120_655 154_645
F2 K1 F2 90.0(8) 120_655 155_665
F2 K1 F2 48.3(5) 120_655 156_565
F2 K1 F2 70.6(5) 120_655 161_554
F2 K1 F2 109.4(8) 120_655 162_654
F2 K1 F2 109.4(8) 120_655 163_656
F2 K1 F2 70.6(5) 120_655 164_556
F2 K1 F2 138.3(11) 153_545 154_645
F2 K1 F2 180.0(11) 153_545 155_665
F2 K1 F2 150.9(11) 153_545 162_654
F2 K1 F2 150.9(11) 153_545 163_656
F2 K1 F2 180.0(11) 154_645 156_565
F2 K1 F2 150.9(11) 154_645 161_554
F2 K1 F2 150.9(11) 154_645 164_556
F2 K1 F2 138.3(11) 155_665 156_565
F2 K1 F2 150.9(11) 155_665 161_554
F2 K1 F2 150.9(11) 155_665 164_556
F2 K1 F2 150.9(11) 156_565 162_654
F2 K1 F2 150.9(11) 156_565 163_656
F2 K1 F2 138.3(11) 161_554 162_654
F2 K1 F2 180.0(11) 161_554 163_656
F2 K1 F2 180.0(11) 162_654 164_556
F2 K1 F2 138.3(11) 163_656 164_556
F1 K2 F1 50.9(3) 2_556 6_565
F1 K2 F1 50.9(3) 2_556 10_655
F1 K2 F1 168.98(4) 2_556 50_556
F1 K2 F1 119.7(3) 2_556 53_545
F1 K2 F1 119.7(3) 2_556 57_455
F1 K2 F1 90.53(8) 2_556 97_554
F1 K2 F1 119.7(4) 2_556 102_565
F1 K2 F1 68.9(4) 2_556 105_455
F1 K2 F1 90.53(8) 2_556 145_554
F1 K2 F1 68.9(4) 2_556 149_545
F1 K2 F1 119.7(4) 2_556 154_655
F1 K2 F2 58.7(4) 2_556 11_665
F1 K2 F2 58.7(4) 2_556 23_665
F1 K2 F2 159.4(5) 2_556 50_456
F1 K2 F2 131.1(7) 2_556 56_546
F1 K2 F2 110.7(5) 2_556 57_445
F1 K2 F2 159.4(7) 2_556 62_546
F1 K2 F2 131.1(4) 2_556 68_456
F1 K2 F2 110.7(6) 2_556 69_445
F1 K2 F2 75.2(5) 2_556 97_454
F1 K2 F2 124.0(7) 2_556 102_564
F1 K2 F2 80.6(5) 2_556 108_465
F1 K2 F2 106.3(7) 2_556 112_564
F1 K2 F2 62.2(4) 2_556 113_454
F1 K2 F2 109.2(6) 2_556 118_465
F1 K2 F2 106.3(2) 2_556 148_654
F1 K2 F2 62.2(4) 2_556 149_544
F1 K2 F2 109.2(5) 2_556 154_645
F1 K2 F2 75.2(4) 2_556 157_544
F1 K2 F2 124.0(3) 2_556 162_654
F1 K2 F2 80.6(5) 2_556 168_645
F1 K2 F1 50.9(3) 6_565 10_655
F1 K2 F1 119.7(3) 6_565 50_556
F1 K2 F1 90.5(3) 6_565 53_545
F1 K2 F1 68.9(3) 6_565 57_455
F1 K2 F1 119.7(4) 6_565 97_554
F1 K2 F1 169.0(6) 6_565 102_565
F1 K2 F1 119.7(6) 6_565 105_455
F1 K2 F1 68.9(4) 6_565 145_554
F1 K2 F1 90.5(6) 6_565 149_545
F1 K2 F1 119.7(6) 6_565 154_655
F1 K2 F2 58.7(4) 6_565 3_656
F1 K2 F2 58.7(4) 6_565 19_656
F1 K2 F2 109.2(6) 6_565 50_456
F1 K2 F2 106.3(7) 6_565 56_546
F1 K2 F2 62.2(4) 6_565 57_445
F1 K2 F2 124.0(7) 6_565 62_546
F1 K2 F2 80.6(4) 6_565 68_456
F1 K2 F2 75.2(6) 6_565 69_445
F1 K2 F2 110.7(6) 6_565 97_454
F1 K2 F2 159.4(8) 6_565 102_564
F1 K2 F2 131.1(7) 6_565 108_465
F1 K2 F2 131.1(8) 6_565 112_564
F1 K2 F2 110.7(6) 6_565 113_454
F1 K2 F2 159.4(8) 6_565 118_465
F1 K2 F2 80.6(5) 6_565 148_654
F1 K2 F2 75.2(6) 6_565 149_544
F1 K2 F2 124.0(7) 6_565 154_645
F1 K2 F2 62.2(5) 6_565 157_544
F1 K2 F2 109.2(6) 6_565 162_654
F1 K2 F2 106.3(7) 6_565 168_645
F1 K2 F1 119.7(3) 10_655 50_556
F1 K2 F1 68.9(3) 10_655 53_545
F1 K2 F1 90.5(3) 10_655 57_455
F1 K2 F1 68.9(4) 10_655 97_554
F1 K2 F1 119.7(6) 10_655 102_565
F1 K2 F1 90.5(6) 10_655 105_455
F1 K2 F1 119.7(4) 10_655 145_554
F1 K2 F1 119.7(6) 10_655 149_545
F1 K2 F1 169.0(6) 10_655 154_655
F1 K2 F2 58.7(5) 10_655 7_566
F1 K2 F2 58.7(5) 10_655 15_566
F1 K2 F2 124.0(4) 10_655 50_456
F1 K2 F2 80.6(5) 10_655 56_546
F1 K2 F2 75.2(3) 10_655 57_445
F1 K2 F2 109.2(6) 10_655 62_546
F1 K2 F2 106.3(3) 10_655 68_456
F1 K2 F2 62.2(4) 10_655 69_445
F1 K2 F2 62.2(5) 10_655 97_454
F1 K2 F2 109.2(7) 10_655 102_564
F1 K2 F2 106.3(7) 10_655 108_465
F1 K2 F2 80.6(6) 10_655 112_564
F1 K2 F2 75.2(5) 10_655 113_454
F1 K2 F2 124.0(7) 10_655 118_465
F1 K2 F2 131.1(5) 10_655 148_654
F1 K2 F2 110.7(7) 10_655 149_544
F1 K2 F2 159.4(7) 10_655 154_645
F1 K2 F2 110.7(6) 10_655 157_544
F1 K2 F2 159.4(5) 10_655 162_654
F1 K2 F2 131.1(7) 10_655 168_645
F1 K2 F1 50.9(3) 50_556 53_545
F1 K2 F1 50.9(3) 50_556 57_455
F1 K2 F1 90.53(8) 50_556 97_554
F1 K2 F1 68.9(4) 50_556 102_565
F1 K2 F1 119.7(4) 50_556 105_455
F1 K2 F1 90.53(8) 50_556 145_554
F1 K2 F1 119.7(4) 50_556 149_545
F1 K2 F1 68.9(4) 50_556 154_655
F1 K2 F2 159.4(5) 50_556 3_656
F1 K2 F2 131.1(7) 50_556 7_566
F1 K2 F2 110.7(5) 50_556 11_665
F1 K2 F2 159.4(7) 50_556 15_566
F1 K2 F2 131.1(4) 50_556 19_656
F1 K2 F2 110.7(6) 50_556 23_665
F1 K2 F2 58.7(4) 50_556 57_445
F1 K2 F2 58.7(4) 50_556 69_445
F1 K2 F2 106.3(2) 50_556 97_454
F1 K2 F2 62.2(4) 50_556 102_564
F1 K2 F2 109.2(5) 50_556 108_465
F1 K2 F2 75.2(4) 50_556 112_564
F1 K2 F2 124.0(3) 50_556 113_454
F1 K2 F2 80.6(5) 50_556 118_465
F1 K2 F2 75.2(5) 50_556 148_654
F1 K2 F2 124.0(7) 50_556 149_544
F1 K2 F2 80.6(5) 50_556 154_645
F1 K2 F2 106.3(7) 50_556 157_544
F1 K2 F2 62.2(4) 50_556 162_654
F1 K2 F2 109.2(6) 50_556 168_645
F1 K2 F1 50.9(3) 53_545 57_455
F1 K2 F1 68.9(4) 53_545 97_554
F1 K2 F1 90.5(6) 53_545 102_565
F1 K2 F1 119.7(6) 53_545 105_455
F1 K2 F1 119.7(4) 53_545 145_554
F1 K2 F1 169.0(6) 53_545 149_545
F1 K2 F1 119.7(6) 53_545 154_655
F1 K2 F2 109.2(6) 53_545 3_656
F1 K2 F2 106.3(7) 53_545 7_566
F1 K2 F2 62.2(4) 53_545 11_665
F1 K2 F2 124.0(7) 53_545 15_566
F1 K2 F2 80.6(4) 53_545 19_656
F1 K2 F2 75.2(6) 53_545 23_665
F1 K2 F2 58.7(4) 53_545 50_456
F1 K2 F2 58.7(4) 53_545 68_456
F1 K2 F2 80.6(5) 53_545 97_454
F1 K2 F2 75.2(6) 53_545 102_564
F1 K2 F2 124.0(7) 53_545 108_465
F1 K2 F2 62.2(5) 53_545 112_564
F1 K2 F2 109.2(6) 53_545 113_454
F1 K2 F2 106.3(7) 53_545 118_465
F1 K2 F2 110.7(6) 53_545 148_654
F1 K2 F2 159.4(8) 53_545 149_544
F1 K2 F2 131.1(7) 53_545 154_645
F1 K2 F2 131.1(8) 53_545 157_544
F1 K2 F2 110.7(6) 53_545 162_654
F1 K2 F2 159.4(8) 53_545 168_645
F1 K2 F1 119.7(4) 57_455 97_554
F1 K2 F1 119.7(6) 57_455 102_565
F1 K2 F1 169.0(6) 57_455 105_455
F1 K2 F1 68.9(4) 57_455 145_554
F1 K2 F1 119.7(6) 57_455 149_545
F1 K2 F1 90.5(6) 57_455 154_655
F1 K2 F2 124.0(4) 57_455 3_656
F1 K2 F2 80.6(5) 57_455 7_566
F1 K2 F2 75.2(3) 57_455 11_665
F1 K2 F2 109.2(6) 57_455 15_566
F1 K2 F2 106.3(3) 57_455 19_656
F1 K2 F2 62.2(4) 57_455 23_665
F1 K2 F2 58.7(5) 57_455 56_546
F1 K2 F2 58.7(5) 57_455 62_546
F1 K2 F2 131.1(5) 57_455 97_454
F1 K2 F2 110.7(7) 57_455 102_564
F1 K2 F2 159.4(7) 57_455 108_465
F1 K2 F2 110.7(6) 57_455 112_564
F1 K2 F2 159.4(5) 57_455 113_454
F1 K2 F2 131.1(7) 57_455 118_465
F1 K2 F2 62.2(5) 57_455 148_654
F1 K2 F2 109.2(7) 57_455 149_544
F1 K2 F2 106.3(7) 57_455 154_645
F1 K2 F2 80.6(6) 57_455 157_544
F1 K2 F2 75.2(5) 57_455 162_654
F1 K2 F2 124.0(7) 57_455 168_645
F1 K2 F1 50.9(3) 97_554 102_565
F1 K2 F1 50.9(3) 97_554 105_455
F1 K2 F1 168.98(4) 97_554 145_554
F1 K2 F1 119.7(3) 97_554 149_545
F1 K2 F1 119.7(3) 97_554 154_655
F1 K2 F2 75.2(5) 97_554 3_656
F1 K2 F2 124.0(7) 97_554 7_566
F1 K2 F2 80.6(5) 97_554 11_665
F1 K2 F2 106.3(7) 97_554 15_566
F1 K2 F2 62.2(4) 97_554 19_656
F1 K2 F2 109.2(6) 97_554 23_665
F1 K2 F2 106.3(2) 97_554 50_456
F1 K2 F2 62.2(4) 97_554 56_546
F1 K2 F2 109.2(5) 97_554 57_445
F1 K2 F2 75.2(4) 97_554 62_546
F1 K2 F2 124.0(3) 97_554 68_456
F1 K2 F2 80.6(5) 97_554 69_445
F1 K2 F2 58.7(4) 97_554 108_465
F1 K2 F2 58.7(4) 97_554 118_465
F1 K2 F2 159.4(5) 97_554 148_654
F1 K2 F2 131.1(7) 97_554 149_544
F1 K2 F2 110.7(5) 97_554 154_645
F1 K2 F2 159.4(7) 97_554 157_544
F1 K2 F2 131.1(4) 97_554 162_654
F1 K2 F2 110.7(6) 97_554 168_645
F1 K2 F1 50.9(3) 102_565 105_455
F1 K2 F1 119.7(3) 102_565 145_554
F1 K2 F1 90.5(3) 102_565 149_545
F1 K2 F1 68.9(3) 102_565 154_655
F1 K2 F2 110.7(6) 102_565 3_656
F1 K2 F2 159.4(8) 102_565 7_566
F1 K2 F2 131.1(7) 102_565 11_665
F1 K2 F2 131.1(8) 102_565 15_566
F1 K2 F2 110.7(6) 102_565 19_656
F1 K2 F2 159.4(8) 102_565 23_665
F1 K2 F2 80.6(5) 102_565 50_456
F1 K2 F2 75.2(6) 102_565 56_546
F1 K2 F2 124.0(7) 102_565 57_445
F1 K2 F2 62.2(5) 102_565 62_546
F1 K2 F2 109.2(6) 102_565 68_456
F1 K2 F2 106.3(7) 102_565 69_445
F1 K2 F2 58.7(4) 102_565 97_454
F1 K2 F2 58.7(4) 102_565 113_454
F1 K2 F2 109.2(6) 102_565 148_654
F1 K2 F2 106.3(7) 102_565 149_544
F1 K2 F2 62.2(4) 102_565 154_645
F1 K2 F2 124.0(7) 102_565 157_544
F1 K2 F2 80.6(4) 102_565 162_654
F1 K2 F2 75.2(6) 102_565 168_645
F1 K2 F1 119.7(3) 105_455 145_554
F1 K2 F1 68.9(3) 105_455 149_545
F1 K2 F1 90.5(3) 105_455 154_655
F1 K2 F2 62.2(5) 105_455 3_656
F1 K2 F2 109.2(7) 105_455 7_566
F1 K2 F2 106.3(7) 105_455 11_665
F1 K2 F2 80.6(6) 105_455 15_566
F1 K2 F2 75.2(5) 105_455 19_656
F1 K2 F2 124.0(7) 105_455 23_665
F1 K2 F2 131.1(5) 105_455 50_456
F1 K2 F2 110.7(7) 105_455 56_546
F1 K2 F2 159.4(7) 105_455 57_445
F1 K2 F2 110.7(6) 105_455 62_546
F1 K2 F2 159.4(5) 105_455 68_456
F1 K2 F2 131.1(7) 105_455 69_445
F1 K2 F2 58.7(5) 105_455 102_564
F1 K2 F2 58.7(5) 105_455 112_564
F1 K2 F2 124.0(4) 105_455 148_654
F1 K2 F2 80.6(5) 105_455 149_544
F1 K2 F2 75.2(3) 105_455 154_645
F1 K2 F2 109.2(6) 105_455 157_544
F1 K2 F2 106.3(3) 105_455 162_654
F1 K2 F2 62.2(4) 105_455 168_645
F1 K2 F1 50.9(3) 145_554 149_545
F1 K2 F1 50.9(3) 145_554 154_655
F1 K2 F2 106.3(2) 145_554 3_656
F1 K2 F2 62.2(4) 145_554 7_566
F1 K2 F2 109.2(5) 145_554 11_665
F1 K2 F2 75.2(4) 145_554 15_566
F1 K2 F2 124.0(3) 145_554 19_656
F1 K2 F2 80.6(5) 145_554 23_665
F1 K2 F2 75.2(5) 145_554 50_456
F1 K2 F2 124.0(7) 145_554 56_546
F1 K2 F2 80.6(5) 145_554 57_445
F1 K2 F2 106.3(7) 145_554 62_546
F1 K2 F2 62.2(4) 145_554 68_456
F1 K2 F2 109.2(6) 145_554 69_445
F1 K2 F2 159.4(5) 145_554 97_454
F1 K2 F2 131.1(7) 145_554 102_564
F1 K2 F2 110.7(5) 145_554 108_465
F1 K2 F2 159.4(7) 145_554 112_564
F1 K2 F2 131.1(4) 145_554 113_454
F1 K2 F2 110.7(6) 145_554 118_465
F1 K2 F2 58.7(4) 145_554 154_645
F1 K2 F2 58.7(4) 145_554 168_645
F1 K2 F1 50.9(3) 149_545 154_655
F1 K2 F2 80.6(5) 149_545 3_656
F1 K2 F2 75.2(6) 149_545 7_566
F1 K2 F2 124.0(7) 149_545 11_665
F1 K2 F2 62.2(5) 149_545 15_566
F1 K2 F2 109.2(6) 149_545 19_656
F1 K2 F2 106.3(7) 149_545 23_665
F1 K2 F2 110.7(6) 149_545 50_456
F1 K2 F2 159.4(8) 149_545 56_546
F1 K2 F2 131.1(7) 149_545 57_445
F1 K2 F2 131.1(8) 149_545 62_546
F1 K2 F2 110.7(6) 149_545 68_456
F1 K2 F2 159.4(8) 149_545 69_445
F1 K2 F2 109.2(6) 149_545 97_454
F1 K2 F2 106.3(7) 149_545 102_564
F1 K2 F2 62.2(4) 149_545 108_465
F1 K2 F2 124.0(7) 149_545 112_564
F1 K2 F2 80.6(4) 149_545 113_454
F1 K2 F2 75.2(6) 149_545 118_465
F1 K2 F2 58.7(4) 149_545 148_654
F1 K2 F2 58.7(4) 149_545 162_654
F1 K2 F2 131.1(5) 154_655 3_656
F1 K2 F2 110.7(7) 154_655 7_566
F1 K2 F2 159.4(7) 154_655 11_665
F1 K2 F2 110.7(6) 154_655 15_566
F1 K2 F2 159.4(5) 154_655 19_656
F1 K2 F2 131.1(7) 154_655 23_665
F1 K2 F2 62.2(5) 154_655 50_456
F1 K2 F2 109.2(7) 154_655 56_546
F1 K2 F2 106.3(7) 154_655 57_445
F1 K2 F2 80.6(6) 154_655 62_546
F1 K2 F2 75.2(5) 154_655 68_456
F1 K2 F2 124.0(7) 154_655 69_445
F1 K2 F2 124.0(4) 154_655 97_454
F1 K2 F2 80.6(5) 154_655 102_564
F1 K2 F2 75.2(3) 154_655 108_465
F1 K2 F2 109.2(6) 154_655 112_564
F1 K2 F2 106.3(3) 154_655 113_454
F1 K2 F2 62.2(4) 154_655 118_465
F1 K2 F2 58.7(5) 154_655 149_544
F1 K2 F2 58.7(5) 154_655 157_544
F2 K2 F2 53.1(5) 3_656 7_566
F2 K2 F2 53.1(4) 3_656 11_665
F2 K2 F2 62.1(4) 3_656 23_665
F2 K2 F2 164.5(6) 3_656 50_456
F2 K2 F2 118.0(9) 3_656 56_546
F2 K2 F2 111.5(5) 3_656 57_445
F2 K2 F2 145.0(9) 3_656 62_546
F2 K2 F2 138.4(4) 3_656 68_456
F2 K2 F2 103.6(7) 3_656 69_445
F2 K2 F2 60.4(6) 3_656 97_454
F2 K2 F2 111.5(9) 3_656 102_564
F2 K2 F2 76.3(6) 3_656 108_465
F2 K2 F2 91.0(9) 3_656 112_564
F2 K2 F2 51.9(5) 3_656 113_454
F2 K2 F2 103.6(7) 3_656 118_465
F2 K2 F2 122.1(3) 3_656 148_654
F2 K2 F2 76.3(5) 3_656 149_544
F2 K2 F2 118.0(5) 3_656 154_645
F2 K2 F2 91.0(5) 3_656 157_544
F2 K2 F2 138.4(4) 3_656 162_654
F2 K2 F2 90.0(5) 3_656 168_645
F2 K2 F2 53.1(6) 7_566 11_665
F2 K2 F2 62.1(6) 7_566 19_656
F2 K2 F2 118.0(9) 7_566 50_456
F2 K2 F2 122.1(11) 7_566 56_546
F2 K2 F2 76.3(7) 7_566 57_445
F2 K2 F2 138.4(11) 7_566 62_546
F2 K2 F2 90.0(7) 7_566 68_456
F2 K2 F2 91.0(9) 7_566 69_445
F2 K2 F2 111.5(9) 7_566 97_454
F2 K2 F2 164.5(12) 7_566 102_564
F2 K2 F2 118.0(9) 7_566 108_465
F2 K2 F2 138.4(11) 7_566 112_564
F2 K2 F2 103.6(8) 7_566 113_454
F2 K2 F2 145.0(10) 7_566 118_465
F2 K2 F2 76.3(5) 7_566 148_654
F2 K2 F2 60.4(6) 7_566 149_544
F2 K2 F2 111.5(8) 7_566 154_645
F2 K2 F2 51.9(5) 7_566 157_544
F2 K2 F2 103.6(7) 7_566 162_654
F2 K2 F2 91.0(7) 7_566 168_645
F2 K2 F2 62.1(6) 11_665 15_566
F2 K2 F2 111.5(5) 11_665 50_456
F2 K2 F2 76.3(7) 11_665 56_546
F2 K2 F2 60.4(4) 11_665 57_445
F2 K2 F2 103.6(7) 11_665 62_546
F2 K2 F2 91.0(3) 11_665 68_456
F2 K2 F2 51.9(5) 11_665 69_445
F2 K2 F2 76.3(6) 11_665 97_454
F2 K2 F2 118.0(9) 11_665 102_564
F2 K2 F2 122.1(7) 11_665 108_465
F2 K2 F2 90.0(8) 11_665 112_564
F2 K2 F2 91.0(6) 11_665 113_454
F2 K2 F2 138.4(8) 11_665 118_465
F2 K2 F2 118.0(5) 11_665 148_654
F2 K2 F2 111.5(8) 11_665 149_544
F2 K2 F2 164.5(7) 11_665 154_645
F2 K2 F2 103.6(7) 11_665 157_544
F2 K2 F2 145.0(6) 11_665 162_654
F2 K2 F2 138.4(8) 11_665 168_645
F2 K2 F2 53.1(6) 15_566 19_656
F2 K2 F2 53.1(6) 15_566 23_665
F2 K2 F2 145.0(9) 15_566 50_456
F2 K2 F2 138.4(11) 15_566 56_546
F2 K2 F2 103.6(7) 15_566 57_445
F2 K2 F2 164.5(11) 15_566 62_546
F2 K2 F2 118.0(7) 15_566 68_456
F2 K2 F2 111.5(9) 15_566 69_445
F2 K2 F2 91.0(9) 15_566 97_454
F2 K2 F2 138.4(11) 15_566 102_564
F2 K2 F2 90.0(8) 15_566 108_465
F2 K2 F2 122.1(11) 15_566 112_564
F2 K2 F2 76.3(7) 15_566 113_454
F2 K2 F2 118.0(10) 15_566 118_465
F2 K2 F2 91.0(5) 15_566 148_654
F2 K2 F2 51.9(5) 15_566 149_544
F2 K2 F2 103.6(7) 15_566 154_645
F2 K2 F2 60.4(5) 15_566 157_544
F2 K2 F2 111.5(6) 15_566 162_654
F2 K2 F2 76.3(6) 15_566 168_645
F2 K2 F2 53.1(4) 19_656 23_665
F2 K2 F2 138.4(4) 19_656 50_456
F2 K2 F2 90.0(7) 19_656 56_546
F2 K2 F2 91.0(3) 19_656 57_445
F2 K2 F2 118.0(7) 19_656 62_546
F2 K2 F2 122.1(2) 19_656 68_456
F2 K2 F2 76.3(5) 19_656 69_445
F2 K2 F2 51.9(5) 19_656 97_454
F2 K2 F2 103.6(8) 19_656 102_564
F2 K2 F2 91.0(6) 19_656 108_465
F2 K2 F2 76.3(7) 19_656 112_564
F2 K2 F2 60.4(4) 19_656 113_454
F2 K2 F2 111.5(7) 19_656 118_465
F2 K2 F2 138.4(4) 19_656 148_654
F2 K2 F2 103.6(7) 19_656 149_544
F2 K2 F2 145.0(6) 19_656 154_645
F2 K2 F2 111.5(6) 19_656 157_544
F2 K2 F2 164.5(4) 19_656 162_654
F2 K2 F2 118.0(6) 19_656 168_645
F2 K2 F2 103.6(7) 23_665 50_456
F2 K2 F2 91.0(9) 23_665 56_546
F2 K2 F2 51.9(5) 23_665 57_445
F2 K2 F2 111.5(9) 23_665 62_546
F2 K2 F2 76.3(5) 23_665 68_456
F2 K2 F2 60.4(7) 23_665 69_445
F2 K2 F2 103.6(7) 23_665 97_454
F2 K2 F2 145.0(10) 23_665 102_564
F2 K2 F2 138.4(8) 23_665 108_465
F2 K2 F2 118.0(10) 23_665 112_564
F2 K2 F2 111.5(7) 23_665 113_454
F2 K2 F2 164.5(9) 23_665 118_465
F2 K2 F2 90.0(5) 23_665 148_654
F2 K2 F2 91.0(7) 23_665 149_544
F2 K2 F2 138.4(8) 23_665 154_645
F2 K2 F2 76.3(6) 23_665 157_544
F2 K2 F2 118.0(6) 23_665 162_654
F2 K2 F2 122.1(8) 23_665 168_645
F2 K2 F2 53.1(5) 50_456 56_546
F2 K2 F2 53.1(4) 50_456 57_445
F2 K2 F2 62.1(4) 50_456 69_445
F2 K2 F2 122.1(3) 50_456 97_454
F2 K2 F2 76.3(5) 50_456 102_564
F2 K2 F2 118.0(5) 50_456 108_465
F2 K2 F2 91.0(5) 50_456 112_564
F2 K2 F2 138.4(4) 50_456 113_454
F2 K2 F2 90.0(5) 50_456 118_465
F2 K2 F2 60.4(6) 50_456 148_654
F2 K2 F2 111.5(9) 50_456 149_544
F2 K2 F2 76.3(6) 50_456 154_645
F2 K2 F2 91.0(9) 50_456 157_544
F2 K2 F2 51.9(5) 50_456 162_654
F2 K2 F2 103.6(7) 50_456 168_645
F2 K2 F2 53.1(6) 56_546 57_445
F2 K2 F2 62.1(6) 56_546 68_456
F2 K2 F2 76.3(5) 56_546 97_454
F2 K2 F2 60.4(6) 56_546 102_564
F2 K2 F2 111.5(8) 56_546 108_465
F2 K2 F2 51.9(5) 56_546 112_564
F2 K2 F2 103.6(7) 56_546 113_454
F2 K2 F2 91.0(7) 56_546 118_465
F2 K2 F2 111.5(9) 56_546 148_654
F2 K2 F2 164.5(12) 56_546 149_544
F2 K2 F2 118.0(9) 56_546 154_645
F2 K2 F2 138.4(11) 56_546 157_544
F2 K2 F2 103.6(8) 56_546 162_654
F2 K2 F2 145.0(10) 56_546 168_645
F2 K2 F2 62.1(6) 57_445 62_546
F2 K2 F2 118.0(5) 57_445 97_454
F2 K2 F2 111.5(8) 57_445 102_564
F2 K2 F2 164.5(7) 57_445 108_465
F2 K2 F2 103.6(7) 57_445 112_564
F2 K2 F2 145.0(6) 57_445 113_454
F2 K2 F2 138.4(8) 57_445 118_465
F2 K2 F2 76.3(6) 57_445 148_654
F2 K2 F2 118.0(9) 57_445 149_544
F2 K2 F2 122.1(7) 57_445 154_645
F2 K2 F2 90.0(8) 57_445 157_544
F2 K2 F2 91.0(6) 57_445 162_654
F2 K2 F2 138.4(8) 57_445 168_645
F2 K2 F2 53.1(6) 62_546 68_456
F2 K2 F2 53.1(6) 62_546 69_445
F2 K2 F2 91.0(5) 62_546 97_454
F2 K2 F2 51.9(5) 62_546 102_564
F2 K2 F2 103.6(7) 62_546 108_465
F2 K2 F2 60.4(5) 62_546 112_564
F2 K2 F2 111.5(6) 62_546 113_454
F2 K2 F2 76.3(6) 62_546 118_465
F2 K2 F2 91.0(9) 62_546 148_654
F2 K2 F2 138.4(11) 62_546 149_544
F2 K2 F2 90.0(8) 62_546 154_645
F2 K2 F2 122.1(11) 62_546 157_544
F2 K2 F2 76.3(7) 62_546 162_654
F2 K2 F2 118.0(10) 62_546 168_645
F2 K2 F2 53.1(4) 68_456 69_445
F2 K2 F2 138.4(4) 68_456 97_454
F2 K2 F2 103.6(7) 68_456 102_564
F2 K2 F2 145.0(6) 68_456 108_465
F2 K2 F2 111.5(6) 68_456 112_564
F2 K2 F2 164.5(4) 68_456 113_454
F2 K2 F2 118.0(6) 68_456 118_465
F2 K2 F2 51.9(5) 68_456 148_654
F2 K2 F2 103.6(8) 68_456 149_544
F2 K2 F2 91.0(6) 68_456 154_645
F2 K2 F2 76.3(7) 68_456 157_544
F2 K2 F2 60.4(4) 68_456 162_654
F2 K2 F2 111.5(7) 68_456 168_645
F2 K2 F2 90.0(5) 69_445 97_454
F2 K2 F2 91.0(7) 69_445 102_564
F2 K2 F2 138.4(8) 69_445 108_465
F2 K2 F2 76.3(6) 69_445 112_564
F2 K2 F2 118.0(6) 69_445 113_454
F2 K2 F2 122.1(8) 69_445 118_465
F2 K2 F2 103.6(7) 69_445 148_654
F2 K2 F2 145.0(10) 69_445 149_544
F2 K2 F2 138.4(8) 69_445 154_645
F2 K2 F2 118.0(10) 69_445 157_544
F2 K2 F2 111.5(7) 69_445 162_654
F2 K2 F2 164.5(9) 69_445 168_645
F2 K2 F2 53.1(5) 97_454 102_564
F2 K2 F2 53.1(4) 97_454 108_465
F2 K2 F2 62.1(4) 97_454 118_465
F2 K2 F2 164.5(6) 97_454 148_654
F2 K2 F2 118.0(9) 97_454 149_544
F2 K2 F2 111.5(5) 97_454 154_645
F2 K2 F2 145.0(9) 97_454 157_544
F2 K2 F2 138.4(4) 97_454 162_654
F2 K2 F2 103.6(7) 97_454 168_645
F2 K2 F2 53.1(6) 102_564 108_465
F2 K2 F2 62.1(6) 102_564 113_454
F2 K2 F2 118.0(9) 102_564 148_654
F2 K2 F2 122.1(11) 102_564 149_544
F2 K2 F2 76.3(7) 102_564 154_645
F2 K2 F2 138.4(11) 102_564 157_544
F2 K2 F2 90.0(7) 102_564 162_654
F2 K2 F2 91.0(9) 102_564 168_645
F2 K2 F2 62.1(6) 108_465 112_564
F2 K2 F2 111.5(5) 108_465 148_654
F2 K2 F2 76.3(7) 108_465 149_544
F2 K2 F2 60.4(4) 108_465 154_645
F2 K2 F2 103.6(7) 108_465 157_544
F2 K2 F2 91.0(3) 108_465 162_654
F2 K2 F2 51.9(5) 108_465 168_645
F2 K2 F2 53.1(6) 112_564 113_454
F2 K2 F2 53.1(6) 112_564 118_465
F2 K2 F2 145.0(9) 112_564 148_654
F2 K2 F2 138.4(11) 112_564 149_544
F2 K2 F2 103.6(7) 112_564 154_645
F2 K2 F2 164.5(11) 112_564 157_544
F2 K2 F2 118.0(7) 112_564 162_654
F2 K2 F2 111.5(9) 112_564 168_645
F2 K2 F2 53.1(4) 113_454 118_465
F2 K2 F2 138.4(4) 113_454 148_654
F2 K2 F2 90.0(7) 113_454 149_544
F2 K2 F2 91.0(3) 113_454 154_645
F2 K2 F2 118.0(7) 113_454 157_544
F2 K2 F2 122.1(2) 113_454 162_654
F2 K2 F2 76.3(5) 113_454 168_645
F2 K2 F2 103.6(7) 118_465 148_654
F2 K2 F2 91.0(9) 118_465 149_544
F2 K2 F2 51.9(5) 118_465 154_645
F2 K2 F2 111.5(9) 118_465 157_544
F2 K2 F2 76.3(5) 118_465 162_654
F2 K2 F2 60.4(7) 118_465 168_645
F2 K2 F2 53.1(5) 148_654 149_544
F2 K2 F2 53.1(4) 148_654 154_645
F2 K2 F2 62.1(4) 148_654 168_645
F2 K2 F2 53.1(6) 149_544 154_645
F2 K2 F2 62.1(6) 149_544 162_654
F2 K2 F2 62.1(6) 154_645 157_544
F2 K2 F2 53.1(6) 157_544 162_654
F2 K2 F2 53.1(6) 157_544 168_645
F2 K2 F2 53.1(4) 162_654 168_645
F1 Zr1 F1 180.0(14) 1_554 2_556
F1 Zr1 F1 90.0(8) 1_554 5_545
F1 Zr1 F1 90.0(8) 1_554 6_565
F1 Zr1 F1 90.0(8) 1_554 9_455
F1 Zr1 F1 90.0(8) 1_554 10_655
F1 Zr1 F2 152.5(12) 1_554 2_456
F1 Zr1 F2 152.5(12) 1_554 3_656
F1 Zr1 F2 62.5(5) 1_554 5_544
F1 Zr1 F2 62.5(5) 1_554 6_564
F1 Zr1 F2 117.5(9) 1_554 7_566
F1 Zr1 F2 117.5(9) 1_554 8_546
F1 Zr1 F2 90.0(9) 1_554 9_445
F1 Zr1 F2 90.0(9) 1_554 10_645
F1 Zr1 F2 90.0(9) 1_554 11_665
F1 Zr1 F2 90.0(9) 1_554 12_465
F1 Zr1 F2 152.5(11) 1_554 14_546
F1 Zr1 F2 152.5(11) 1_554 15_566
F1 Zr1 F2 62.5(8) 1_554 17_454
F1 Zr1 F2 62.5(8) 1_554 18_654
F1 Zr1 F2 117.5(11) 1_554 19_656
F1 Zr1 F2 117.5(11) 1_554 20_456
F1 Zr1 F2 90.0(8) 1_554 21_445
F1 Zr1 F2 90.0(8) 1_554 22_465
F1 Zr1 F2 90.0(8) 1_554 23_665
F1 Zr1 F2 90.0(8) 1_554 24_645
F1 Zr1 F1 90.0(8) 2_556 5_545
F1 Zr1 F1 90.0(8) 2_556 6_565
F1 Zr1 F1 90.0(8) 2_556 9_455
F1 Zr1 F1 90.0(8) 2_556 10_655
F1 Zr1 F2 152.5(12) 2_556 1_454
F1 Zr1 F2 152.5(12) 2_556 4_654
F1 Zr1 F2 117.5(9) 2_556 5_544
F1 Zr1 F2 117.5(9) 2_556 6_564
F1 Zr1 F2 62.5(5) 2_556 7_566
F1 Zr1 F2 62.5(5) 2_556 8_546
F1 Zr1 F2 90.0(9) 2_556 9_445
F1 Zr1 F2 90.0(9) 2_556 10_645
F1 Zr1 F2 90.0(9) 2_556 11_665
F1 Zr1 F2 90.0(9) 2_556 12_465
F1 Zr1 F2 152.5(11) 2_556 13_544
F1 Zr1 F2 152.5(11) 2_556 16_564
F1 Zr1 F2 117.5(11) 2_556 17_454
F1 Zr1 F2 117.5(11) 2_556 18_654
F1 Zr1 F2 62.5(8) 2_556 19_656
F1 Zr1 F2 62.5(8) 2_556 20_456
F1 Zr1 F2 90.0(8) 2_556 21_445
F1 Zr1 F2 90.0(8) 2_556 22_465
F1 Zr1 F2 90.0(8) 2_556 23_665
F1 Zr1 F2 90.0(8) 2_556 24_645
F1 Zr1 F1 180.0000(8) 5_545 6_565
F1 Zr1 F1 90.0000(4) 5_545 9_455
F1 Zr1 F1 90.0000(4) 5_545 10_655
F1 Zr1 F2 90.0(7) 5_545 1_454
F1 Zr1 F2 90.0(7) 5_545 2_456
F1 Zr1 F2 90.0(7) 5_545 3_656
F1 Zr1 F2 90.0(7) 5_545 4_654
F1 Zr1 F2 152.5(3) 5_545 6_564
F1 Zr1 F2 152.5(3) 5_545 7_566
F1 Zr1 F2 62.5(6) 5_545 9_445
F1 Zr1 F2 62.5(6) 5_545 10_645
F1 Zr1 F2 117.5(6) 5_545 11_665
F1 Zr1 F2 117.5(6) 5_545 12_465
F1 Zr1 F2 62.5(6) 5_545 13_544
F1 Zr1 F2 62.5(6) 5_545 14_546
F1 Zr1 F2 117.5(6) 5_545 15_566
F1 Zr1 F2 117.5(6) 5_545 16_564
F1 Zr1 F2 90.0(7) 5_545 17_454
F1 Zr1 F2 90.0(7) 5_545 18_654
F1 Zr1 F2 90.0(7) 5_545 19_656
F1 Zr1 F2 90.0(7) 5_545 20_456
F1 Zr1 F2 152.5(3) 5_545 22_465
F1 Zr1 F2 152.5(3) 5_545 23_665
F1 Zr1 F1 90.0000(4) 6_565 9_455
F1 Zr1 F1 90.0000(4) 6_565 10_655
F1 Zr1 F2 90.0(7) 6_565 1_454
F1 Zr1 F2 90.0(7) 6_565 2_456
F1 Zr1 F2 90.0(7) 6_565 3_656
F1 Zr1 F2 90.0(7) 6_565 4_654
F1 Zr1 F2 152.5(3) 6_565 5_544
F1 Zr1 F2 152.5(3) 6_565 8_546
F1 Zr1 F2 117.5(6) 6_565 9_445
F1 Zr1 F2 117.5(6) 6_565 10_645
F1 Zr1 F2 62.5(6) 6_565 11_665
F1 Zr1 F2 62.5(6) 6_565 12_465
F1 Zr1 F2 117.5(6) 6_565 13_544
F1 Zr1 F2 117.5(6) 6_565 14_546
F1 Zr1 F2 62.5(6) 6_565 15_566
F1 Zr1 F2 62.5(6) 6_565 16_564
F1 Zr1 F2 90.0(7) 6_565 17_454
F1 Zr1 F2 90.0(7) 6_565 18_654
F1 Zr1 F2 90.0(7) 6_565 19_656
F1 Zr1 F2 90.0(7) 6_565 20_456
F1 Zr1 F2 152.5(3) 6_565 21_445
F1 Zr1 F2 152.5(3) 6_565 24_645
F1 Zr1 F1 180.0000(8) 9_455 10_655
F1 Zr1 F2 62.5(7) 9_455 1_454
F1 Zr1 F2 62.5(7) 9_455 2_456
F1 Zr1 F2 117.5(10) 9_455 3_656
F1 Zr1 F2 117.5(10) 9_455 4_654
F1 Zr1 F2 90.0(6) 9_455 5_544
F1 Zr1 F2 90.0(6) 9_455 6_564
F1 Zr1 F2 90.0(6) 9_455 7_566
F1 Zr1 F2 90.0(6) 9_455 8_546
F1 Zr1 F2 152.5(10) 9_455 10_645
F1 Zr1 F2 152.5(10) 9_455 11_665
F1 Zr1 F2 90.0(8) 9_455 13_544
F1 Zr1 F2 90.0(8) 9_455 14_546
F1 Zr1 F2 90.0(8) 9_455 15_566
F1 Zr1 F2 90.0(8) 9_455 16_564
F1 Zr1 F2 152.5(11) 9_455 18_654
F1 Zr1 F2 152.5(11) 9_455 19_656
F1 Zr1 F2 62.5(3) 9_455 21_445
F1 Zr1 F2 62.5(3) 9_455 22_465
F1 Zr1 F2 117.5(8) 9_455 23_665
F1 Zr1 F2 117.5(8) 9_455 24_645
F1 Zr1 F2 117.5(10) 10_655 1_454
F1 Zr1 F2 117.5(10) 10_655 2_456
F1 Zr1 F2 62.5(7) 10_655 3_656
F1 Zr1 F2 62.5(7) 10_655 4_654
F1 Zr1 F2 90.0(6) 10_655 5_544
F1 Zr1 F2 90.0(6) 10_655 6_564
F1 Zr1 F2 90.0(6) 10_655 7_566
F1 Zr1 F2 90.0(6) 10_655 8_546
F1 Zr1 F2 152.5(10) 10_655 9_445
F1 Zr1 F2 152.5(10) 10_655 12_465
F1 Zr1 F2 90.0(8) 10_655 13_544
F1 Zr1 F2 90.0(8) 10_655 14_546
F1 Zr1 F2 90.0(8) 10_655 15_566
F1 Zr1 F2 90.0(8) 10_655 16_564
F1 Zr1 F2 152.5(11) 10_655 17_454
F1 Zr1 F2 152.5(11) 10_655 20_456
F1 Zr1 F2 117.5(8) 10_655 21_445
F1 Zr1 F2 117.5(8) 10_655 22_465
F1 Zr1 F2 62.5(3) 10_655 23_665
F1 Zr1 F2 62.5(3) 10_655 24_645
F2 Zr1 F2 124.9(9) 1_454 2_456
F2 Zr1 F2 180.0(11) 1_454 3_656
F2 Zr1 F2 55.1(8) 1_454 4_654
F2 Zr1 F2 65.8(5) 1_454 5_544
F2 Zr1 F2 65.8(5) 1_454 6_564
F2 Zr1 F2 114.2(8) 1_454 7_566
F2 Zr1 F2 114.2(8) 1_454 8_546
F2 Zr1 F2 65.8(7) 1_454 9_445
F2 Zr1 F2 114.2(11) 1_454 10_645
F2 Zr1 F2 114.2(11) 1_454 11_665
F2 Zr1 F2 65.8(7) 1_454 12_465
F2 Zr1 F2 141.8(10) 1_454 14_546
F2 Zr1 F2 141.8(10) 1_454 15_566
F2 Zr1 F2 90.0(11) 1_454 18_654
F2 Zr1 F2 145.1(12) 1_454 19_656
F2 Zr1 F2 90.0(9) 1_454 20_456
F2 Zr1 F2 77.7(6) 1_454 21_445
F2 Zr1 F2 77.7(6) 1_454 22_465
F2 Zr1 F2 102.3(9) 1_454 23_665
F2 Zr1 F2 102.3(9) 1_454 24_645
F2 Zr1 F2 55.1(8) 2_456 3_656
F2 Zr1 F2 180.0(11) 2_456 4_654
F2 Zr1 F2 114.2(8) 2_456 5_544
F2 Zr1 F2 114.2(8) 2_456 6_564
F2 Zr1 F2 65.8(5) 2_456 7_566
F2 Zr1 F2 65.8(5) 2_456 8_546
F2 Zr1 F2 65.8(7) 2_456 9_445
F2 Zr1 F2 114.2(11) 2_456 10_645
F2 Zr1 F2 114.2(11) 2_456 11_665
F2 Zr1 F2 65.8(7) 2_456 12_465
F2 Zr1 F2 141.8(10) 2_456 13_544
F2 Zr1 F2 141.8(10) 2_456 16_564
F2 Zr1 F2 90.0(9) 2_456 17_454
F2 Zr1 F2 145.1(12) 2_456 18_654
F2 Zr1 F2 90.0(11) 2_456 19_656
F2 Zr1 F2 77.7(6) 2_456 21_445
F2 Zr1 F2 77.7(6) 2_456 22_465
F2 Zr1 F2 102.3(9) 2_456 23_665
F2 Zr1 F2 102.3(9) 2_456 24_645
F2 Zr1 F2 124.9(9) 3_656 4_654
F2 Zr1 F2 114.2(8) 3_656 5_544
F2 Zr1 F2 114.2(8) 3_656 6_564
F2 Zr1 F2 65.8(5) 3_656 7_566
F2 Zr1 F2 65.8(5) 3_656 8_546
F2 Zr1 F2 114.2(11) 3_656 9_445
F2 Zr1 F2 65.8(7) 3_656 10_645
F2 Zr1 F2 65.8(7) 3_656 11_665
F2 Zr1 F2 114.2(11) 3_656 12_465
F2 Zr1 F2 141.8(10) 3_656 13_544
F2 Zr1 F2 141.8(10) 3_656 16_564
F2 Zr1 F2 145.1(12) 3_656 17_454
F2 Zr1 F2 90.0(9) 3_656 18_654
F2 Zr1 F2 90.0(11) 3_656 20_456
F2 Zr1 F2 102.3(9) 3_656 21_445
F2 Zr1 F2 102.3(9) 3_656 22_465
F2 Zr1 F2 77.7(6) 3_656 23_665
F2 Zr1 F2 77.7(6) 3_656 24_645
F2 Zr1 F2 65.8(5) 4_654 5_544
F2 Zr1 F2 65.8(5) 4_654 6_564
F2 Zr1 F2 114.2(8) 4_654 7_566
F2 Zr1 F2 114.2(8) 4_654 8_546
F2 Zr1 F2 114.2(11) 4_654 9_445
F2 Zr1 F2 65.8(7) 4_654 10_645
F2 Zr1 F2 65.8(7) 4_654 11_665
F2 Zr1 F2 114.2(11) 4_654 12_465
F2 Zr1 F2 141.8(10) 4_654 14_546
F2 Zr1 F2 141.8(10) 4_654 15_566
F2 Zr1 F2 90.0(11) 4_654 17_454
F2 Zr1 F2 90.0(9) 4_654 19_656
F2 Zr1 F2 145.1(12) 4_654 20_456
F2 Zr1 F2 102.3(9) 4_654 21_445
F2 Zr1 F2 102.3(9) 4_654 22_465
F2 Zr1 F2 77.7(6) 4_654 23_665
F2 Zr1 F2 77.7(6) 4_654 24_645
F2 Zr1 F2 124.9(2) 5_544 6_564
F2 Zr1 F2 180.0(5) 5_544 7_566
F2 Zr1 F2 55.1(5) 5_544 8_546
F2 Zr1 F2 65.8(8) 5_544 9_445
F2 Zr1 F2 65.8(8) 5_544 10_645
F2 Zr1 F2 114.2(8) 5_544 11_665
F2 Zr1 F2 114.2(8) 5_544 12_465
F2 Zr1 F2 90.0(7) 5_544 14_546
F2 Zr1 F2 145.1(7) 5_544 15_566
F2 Zr1 F2 90.0(4) 5_544 16_564
F2 Zr1 F2 77.7(8) 5_544 17_454
F2 Zr1 F2 77.7(8) 5_544 18_654
F2 Zr1 F2 102.3(9) 5_544 19_656
F2 Zr1 F2 102.3(9) 5_544 20_456
F2 Zr1 F2 141.8(5) 5_544 22_465
F2 Zr1 F2 141.8(5) 5_544 23_665
F2 Zr1 F2 55.1(5) 6_564 7_566
F2 Zr1 F2 180.0(5) 6_564 8_546
F2 Zr1 F2 114.2(8) 6_564 9_445
F2 Zr1 F2 114.2(8) 6_564 10_645
F2 Zr1 F2 65.8(8) 6_564 11_665
F2 Zr1 F2 65.8(8) 6_564 12_465
F2 Zr1 F2 90.0(4) 6_564 13_544
F2 Zr1 F2 145.1(7) 6_564 14_546
F2 Zr1 F2 90.0(7) 6_564 15_566
F2 Zr1 F2 77.7(8) 6_564 17_454
F2 Zr1 F2 77.7(8) 6_564 18_654
F2 Zr1 F2 102.3(9) 6_564 19_656
F2 Zr1 F2 102.3(9) 6_564 20_456
F2 Zr1 F2 141.8(5) 6_564 21_445
F2 Zr1 F2 141.8(5) 6_564 24_645
F2 Zr1 F2 124.9(2) 7_566 8_546
F2 Zr1 F2 114.2(8) 7_566 9_445
F2 Zr1 F2 114.2(8) 7_566 10_645
F2 Zr1 F2 65.8(8) 7_566 11_665
F2 Zr1 F2 65.8(8) 7_566 12_465
F2 Zr1 F2 145.1(7) 7_566 13_544
F2 Zr1 F2 90.0(4) 7_566 14_546
F2 Zr1 F2 90.0(7) 7_566 16_564
F2 Zr1 F2 102.3(9) 7_566 17_454
F2 Zr1 F2 102.3(9) 7_566 18_654
F2 Zr1 F2 77.7(8) 7_566 19_656
F2 Zr1 F2 77.7(8) 7_566 20_456
F2 Zr1 F2 141.8(5) 7_566 21_445
F2 Zr1 F2 141.8(5) 7_566 24_645
F2 Zr1 F2 65.8(8) 8_546 9_445
F2 Zr1 F2 65.8(8) 8_546 10_645
F2 Zr1 F2 114.2(8) 8_546 11_665
F2 Zr1 F2 114.2(8) 8_546 12_465
F2 Zr1 F2 90.0(7) 8_546 13_544
F2 Zr1 F2 90.0(4) 8_546 15_566
F2 Zr1 F2 145.1(7) 8_546 16_564
F2 Zr1 F2 102.3(9) 8_546 17_454
F2 Zr1 F2 102.3(9) 8_546 18_654
F2 Zr1 F2 77.7(8) 8_546 19_656
F2 Zr1 F2 77.7(8) 8_546 20_456
F2 Zr1 F2 141.8(5) 8_546 22_465
F2 Zr1 F2 141.8(5) 8_546 23_665
F2 Zr1 F2 124.9(14) 9_445 10_645
F2 Zr1 F2 180.0(14) 9_445 11_665
F2 Zr1 F2 55.1(6) 9_445 12_465
F2 Zr1 F2 77.7(9) 9_445 13_544
F2 Zr1 F2 77.7(9) 9_445 14_546
F2 Zr1 F2 102.3(9) 9_445 15_566
F2 Zr1 F2 102.3(9) 9_445 16_564
F2 Zr1 F2 141.8(14) 9_445 18_654
F2 Zr1 F2 141.8(14) 9_445 19_656
F2 Zr1 F2 90.0(6) 9_445 22_465
F2 Zr1 F2 145.1(10) 9_445 23_665
F2 Zr1 F2 90.0(10) 9_445 24_645
F2 Zr1 F2 55.1(6) 10_645 11_665
F2 Zr1 F2 180.0(14) 10_645 12_465
F2 Zr1 F2 77.7(9) 10_645 13_544
F2 Zr1 F2 77.7(9) 10_645 14_546
F2 Zr1 F2 102.3(9) 10_645 15_566
F2 Zr1 F2 102.3(9) 10_645 16_564
F2 Zr1 F2 141.8(14) 10_645 17_454
F2 Zr1 F2 141.8(14) 10_645 20_456
F2 Zr1 F2 90.0(10) 10_645 21_445
F2 Zr1 F2 145.1(10) 10_645 22_465
F2 Zr1 F2 90.0(6) 10_645 23_665
F2 Zr1 F2 124.9(14) 11_665 12_465
F2 Zr1 F2 102.3(9) 11_665 13_544
F2 Zr1 F2 102.3(9) 11_665 14_546
F2 Zr1 F2 77.7(9) 11_665 15_566
F2 Zr1 F2 77.7(9) 11_665 16_564
F2 Zr1 F2 141.8(14) 11_665 17_454
F2 Zr1 F2 141.8(14) 11_665 20_456
F2 Zr1 F2 145.1(10) 11_665 21_445
F2 Zr1 F2 90.0(10) 11_665 22_465
F2 Zr1 F2 90.0(6) 11_665 24_645
F2 Zr1 F2 102.3(9) 12_465 13_544
F2 Zr1 F2 102.3(9) 12_465 14_546
F2 Zr1 F2 77.7(9) 12_465 15_566
F2 Zr1 F2 77.7(9) 12_465 16_564
F2 Zr1 F2 141.8(14) 12_465 18_654
F2 Zr1 F2 141.8(14) 12_465 19_656
F2 Zr1 F2 90.0(6) 12_465 21_445
F2 Zr1 F2 90.0(10) 12_465 23_665
F2 Zr1 F2 145.1(10) 12_465 24_645
F2 Zr1 F2 124.9(9) 13_544 14_546
F2 Zr1 F2 180.0(9) 13_544 15_566
F2 Zr1 F2 55.1(4) 13_544 16_564
F2 Zr1 F2 65.8(8) 13_544 17_454
F2 Zr1 F2 65.8(8) 13_544 18_654
F2 Zr1 F2 114.2(10) 13_544 19_656
F2 Zr1 F2 114.2(10) 13_544 20_456
F2 Zr1 F2 65.8(6) 13_544 21_445
F2 Zr1 F2 114.2(6) 13_544 22_465
F2 Zr1 F2 114.2(6) 13_544 23_665
F2 Zr1 F2 65.8(6) 13_544 24_645
F2 Zr1 F2 55.1(4) 14_546 15_566
F2 Zr1 F2 180.0(9) 14_546 16_564
F2 Zr1 F2 114.2(10) 14_546 17_454
F2 Zr1 F2 114.2(10) 14_546 18_654
F2 Zr1 F2 65.8(8) 14_546 19_656
F2 Zr1 F2 65.8(8) 14_546 20_456
F2 Zr1 F2 65.8(6) 14_546 21_445
F2 Zr1 F2 114.2(6) 14_546 22_465
F2 Zr1 F2 114.2(6) 14_546 23_665
F2 Zr1 F2 65.8(6) 14_546 24_645
F2 Zr1 F2 124.9(9) 15_566 16_564
F2 Zr1 F2 114.2(10) 15_566 17_454
F2 Zr1 F2 114.2(10) 15_566 18_654
F2 Zr1 F2 65.8(8) 15_566 19_656
F2 Zr1 F2 65.8(8) 15_566 20_456
F2 Zr1 F2 114.2(6) 15_566 21_445
F2 Zr1 F2 65.8(6) 15_566 22_465
F2 Zr1 F2 65.8(6) 15_566 23_665
F2 Zr1 F2 114.2(6) 15_566 24_645
F2 Zr1 F2 65.8(8) 16_564 17_454
F2 Zr1 F2 65.8(8) 16_564 18_654
F2 Zr1 F2 114.2(10) 16_564 19_656
F2 Zr1 F2 114.2(10) 16_564 20_456
F2 Zr1 F2 114.2(6) 16_564 21_445
F2 Zr1 F2 65.8(6) 16_564 22_465
F2 Zr1 F2 65.8(6) 16_564 23_665
F2 Zr1 F2 114.2(6) 16_564 24_645
F2 Zr1 F2 124.9(14) 17_454 18_654
F2 Zr1 F2 180.0(14) 17_454 19_656
F2 Zr1 F2 55.1(8) 17_454 20_456
F2 Zr1 F2 65.8(6) 17_454 21_445
F2 Zr1 F2 65.8(6) 17_454 22_465
F2 Zr1 F2 114.2(11) 17_454 23_665
F2 Zr1 F2 114.2(11) 17_454 24_645
F2 Zr1 F2 55.1(8) 18_654 19_656
F2 Zr1 F2 180.0(14) 18_654 20_456
F2 Zr1 F2 114.2(11) 18_654 21_445
F2 Zr1 F2 114.2(11) 18_654 22_465
F2 Zr1 F2 65.8(6) 18_654 23_665
F2 Zr1 F2 65.8(6) 18_654 24_645
F2 Zr1 F2 124.9(14) 19_656 20_456
F2 Zr1 F2 114.2(11) 19_656 21_445
F2 Zr1 F2 114.2(11) 19_656 22_465
F2 Zr1 F2 65.8(6) 19_656 23_665
F2 Zr1 F2 65.8(6) 19_656 24_645
F2 Zr1 F2 65.8(6) 20_456 21_445
F2 Zr1 F2 65.8(6) 20_456 22_465
F2 Zr1 F2 114.2(11) 20_456 23_665
F2 Zr1 F2 114.2(11) 20_456 24_645
F2 Zr1 F2 124.9(3) 21_445 22_465
F2 Zr1 F2 180.0(7) 21_445 23_665
F2 Zr1 F2 55.1(7) 21_445 24_645
F2 Zr1 F2 55.1(7) 22_465 23_665
F2 Zr1 F2 180.0(7) 22_465 24_645
F2 Zr1 F2 124.9(3) 23_665 24_645
K1 F1 K2 84.5(3) 49_445 2_556
K1 F1 K2 84.5(3) 49_445 3_556
K1 F1 K2 84.5(3) 49_445 25_556
K1 F1 K2 84.5(3) 49_445 28_556
K1 F1 Zr1 180.0(6) 49_445 1_556
K1 F1 F1 135.0(7) 49_445 5_546
K1 F1 F1 135.0(7) 49_445 6_566
K1 F1 F1 135.0(7) 49_445 9_456
K1 F1 F1 135.0(7) 49_445 10_656
K1 F1 F2 92.6(14) 49_445 1_455
K1 F1 F2 92.6(14) 49_445 4_655
K1 F1 F2 116.7(6) 49_445 5_545
K1 F1 F2 116.7(6) 49_445 6_565
K1 F1 F2 132.2(7) 49_445 9_446
K1 F1 F2 132.2(7) 49_445 10_646
K1 F1 F2 132.2(7) 49_445 11_666
K1 F1 F2 132.2(7) 49_445 12_466
K1 F1 F2 92.6(8) 49_445 13_545
K1 F1 F2 92.6(8) 49_445 16_565
K1 F1 F2 116.7(8) 49_445 17_455
K1 F1 F2 116.7(8) 49_445 18_655
K1 F1 F2 132.2(6) 49_445 21_446
K1 F1 F2 132.2(6) 49_445 22_466
K1 F1 F2 132.2(6) 49_445 23_666
K1 F1 F2 132.2(6) 49_445 24_646
K1 F1 F2 58.9(6) 49_445 115_556
K1 F1 F2 58.9(6) 49_445 116_456
K1 F1 F2 58.9(4) 49_445 151_556
K1 F1 F2 58.9(4) 49_445 152_546
K2 F1 K2 168.98(4) 2_556 3_556
K2 F1 K2 89.47(4) 2_556 25_556
K2 F1 K2 89.47(4) 2_556 28_556
K2 F1 Zr1 95.5(5) 2_556 1_556
K2 F1 F1 64.5(4) 2_556 5_546
K2 F1 F1 124.4(4) 2_556 6_566
K2 F1 F1 124.4(4) 2_556 9_456
K2 F1 F1 64.5(4) 2_556 10_656
K2 F1 F2 135.0(15) 2_556 1_455
K2 F1 F2 45.7(11) 2_556 4_655
K2 F1 F2 54.1(4) 2_556 5_545
K2 F1 F2 132.2(4) 2_556 6_565
K2 F1 F2 106.6(6) 2_556 9_446
K2 F1 F2 50.3(4) 2_556 10_646
K2 F1 F2 81.0(4) 2_556 11_666
K2 F1 F2 140.1(6) 2_556 12_466
K2 F1 F2 45.7(7) 2_556 13_545
K2 F1 F2 135.0(7) 2_556 16_565
K2 F1 F2 132.2(8) 2_556 17_455
K2 F1 F2 54.1(5) 2_556 18_655
K2 F1 F2 81.0(5) 2_556 21_446
K2 F1 F2 140.1(5) 2_556 22_466
K2 F1 F2 106.6(4) 2_556 23_666
K2 F1 F2 50.3(4) 2_556 24_646
K2 F1 F2 123.6(6) 2_556 115_556
K2 F1 F2 49.3(4) 2_556 116_456
K2 F1 F2 49.3(3) 2_556 151_556
K2 F1 F2 123.6(3) 2_556 152_546
K2 F1 K2 89.47(4) 3_556 25_556
K2 F1 K2 89.47(4) 3_556 28_556
K2 F1 Zr1 95.5(5) 3_556 1_556
K2 F1 F1 124.4(4) 3_556 5_546
K2 F1 F1 64.5(4) 3_556 6_566
K2 F1 F1 64.5(4) 3_556 9_456
K2 F1 F1 124.4(4) 3_556 10_656
K2 F1 F2 45.7(11) 3_556 1_455
K2 F1 F2 135.0(15) 3_556 4_655
K2 F1 F2 132.2(4) 3_556 5_545
K2 F1 F2 54.1(4) 3_556 6_565
K2 F1 F2 81.0(4) 3_556 9_446
K2 F1 F2 140.1(6) 3_556 10_646
K2 F1 F2 106.6(6) 3_556 11_666
K2 F1 F2 50.3(4) 3_556 12_466
K2 F1 F2 135.0(7) 3_556 13_545
K2 F1 F2 45.7(7) 3_556 16_565
K2 F1 F2 54.1(5) 3_556 17_455
K2 F1 F2 132.2(8) 3_556 18_655
K2 F1 F2 106.6(4) 3_556 21_446
K2 F1 F2 50.3(4) 3_556 22_466
K2 F1 F2 81.0(5) 3_556 23_666
K2 F1 F2 140.1(5) 3_556 24_646
K2 F1 F2 49.3(4) 3_556 115_556
K2 F1 F2 123.6(6) 3_556 116_456
K2 F1 F2 123.6(3) 3_556 151_556
K2 F1 F2 49.3(3) 3_556 152_546
K2 F1 K2 168.98(4) 25_556 28_556
K2 F1 Zr1 95.5(5) 25_556 1_556
K2 F1 F1 64.5(4) 25_556 5_546
K2 F1 F1 124.4(4) 25_556 6_566
K2 F1 F1 64.5(4) 25_556 9_456
K2 F1 F1 124.4(4) 25_556 10_656
K2 F1 F2 45.7(11) 25_556 1_455
K2 F1 F2 135.0(15) 25_556 4_655
K2 F1 F2 54.1(4) 25_556 5_545
K2 F1 F2 132.2(4) 25_556 6_565
K2 F1 F2 50.3(4) 25_556 9_446
K2 F1 F2 106.6(6) 25_556 10_646
K2 F1 F2 140.1(6) 25_556 11_666
K2 F1 F2 81.0(4) 25_556 12_466
K2 F1 F2 45.7(7) 25_556 13_545
K2 F1 F2 135.0(7) 25_556 16_565
K2 F1 F2 54.1(5) 25_556 17_455
K2 F1 F2 132.2(8) 25_556 18_655
K2 F1 F2 50.3(4) 25_556 21_446
K2 F1 F2 106.6(4) 25_556 22_466
K2 F1 F2 140.1(5) 25_556 23_666
K2 F1 F2 81.0(5) 25_556 24_646
K2 F1 F2 49.3(4) 25_556 115_556
K2 F1 F2 123.6(6) 25_556 116_456
K2 F1 F2 49.3(3) 25_556 151_556
K2 F1 F2 123.6(3) 25_556 152_546
K2 F1 Zr1 95.5(5) 28_556 1_556
K2 F1 F1 124.4(4) 28_556 5_546
K2 F1 F1 64.5(4) 28_556 6_566
K2 F1 F1 124.4(4) 28_556 9_456
K2 F1 F1 64.5(4) 28_556 10_656
K2 F1 F2 135.0(15) 28_556 1_455
K2 F1 F2 45.7(11) 28_556 4_655
K2 F1 F2 132.2(4) 28_556 5_545
K2 F1 F2 54.1(4) 28_556 6_565
K2 F1 F2 140.1(6) 28_556 9_446
K2 F1 F2 81.0(4) 28_556 10_646
K2 F1 F2 50.3(4) 28_556 11_666
K2 F1 F2 106.6(6) 28_556 12_466
K2 F1 F2 135.0(7) 28_556 13_545
K2 F1 F2 45.7(7) 28_556 16_565
K2 F1 F2 132.2(8) 28_556 17_455
K2 F1 F2 54.1(5) 28_556 18_655
K2 F1 F2 140.1(5) 28_556 21_446
K2 F1 F2 81.0(5) 28_556 22_466
K2 F1 F2 50.3(4) 28_556 23_666
K2 F1 F2 106.6(4) 28_556 24_646
K2 F1 F2 123.6(6) 28_556 115_556
K2 F1 F2 49.3(4) 28_556 116_456
K2 F1 F2 123.6(3) 28_556 151_556
K2 F1 F2 49.3(3) 28_556 152_546
Zr1 F1 F1 45.0(6) 1_556 5_546
Zr1 F1 F1 45.0(6) 1_556 6_566
Zr1 F1 F1 45.0(6) 1_556 9_456
Zr1 F1 F1 45.0(6) 1_556 10_656
Zr1 F1 F2 87.4(14) 1_556 1_455
Zr1 F1 F2 87.4(14) 1_556 4_655
Zr1 F1 F2 63.3(5) 1_556 5_545
Zr1 F1 F2 63.3(5) 1_556 6_565
Zr1 F1 F2 47.8(7) 1_556 9_446
Zr1 F1 F2 47.8(7) 1_556 10_646
Zr1 F1 F2 47.8(7) 1_556 11_666
Zr1 F1 F2 47.8(7) 1_556 12_466
Zr1 F1 F2 87.4(8) 1_556 13_545
Zr1 F1 F2 87.4(8) 1_556 16_565
Zr1 F1 F2 63.3(8) 1_556 17_455
Zr1 F1 F2 63.3(8) 1_556 18_655
Zr1 F1 F2 47.8(6) 1_556 21_446
Zr1 F1 F2 47.8(6) 1_556 22_466
Zr1 F1 F2 47.8(6) 1_556 23_666
Zr1 F1 F2 47.8(6) 1_556 24_646
Zr1 F1 F2 121.1(8) 1_556 115_556
Zr1 F1 F2 121.1(8) 1_556 116_456
Zr1 F1 F2 121.1(6) 1_556 151_556
Zr1 F1 F2 121.1(6) 1_556 152_546
F1 F1 F1 90.0(5) 5_546 6_566
F1 F1 F1 60.0(5) 5_546 9_456
F1 F1 F1 60.0(5) 5_546 10_656
F1 F1 F2 88.2(14) 5_546 1_455
F1 F1 F2 88.2(14) 5_546 4_655
F1 F1 F2 108.3(4) 5_546 6_565
F1 F1 F2 76.5(5) 5_546 11_666
F1 F1 F2 76.5(5) 5_546 12_466
F1 F1 F2 132.4(8) 5_546 16_565
F1 F1 F2 71.5(7) 5_546 17_455
F1 F1 F2 71.5(7) 5_546 18_655
F1 F1 F2 89.4(4) 5_546 22_466
F1 F1 F2 89.4(4) 5_546 23_666
F1 F1 F2 111.4(7) 5_546 115_556
F1 F1 F2 111.4(7) 5_546 116_456
F1 F1 F2 76.1(6) 5_546 151_556
F1 F1 F2 166.1(6) 5_546 152_546
F1 F1 F1 60.0(5) 6_566 9_456
F1 F1 F1 60.0(5) 6_566 10_656
F1 F1 F2 88.2(14) 6_566 1_455
F1 F1 F2 88.2(14) 6_566 4_655
F1 F1 F2 108.3(4) 6_566 5_545
F1 F1 F2 76.5(5) 6_566 9_446
F1 F1 F2 76.5(5) 6_566 10_646
F1 F1 F2 132.4(8) 6_566 13_545
F1 F1 F2 71.5(7) 6_566 17_455
F1 F1 F2 71.5(7) 6_566 18_655
F1 F1 F2 89.4(4) 6_566 21_446
F1 F1 F2 89.4(4) 6_566 24_646
F1 F1 F2 111.4(7) 6_566 115_556
F1 F1 F2 111.4(7) 6_566 116_456
F1 F1 F2 166.1(6) 6_566 151_556
F1 F1 F2 76.1(6) 6_566 152_546
F1 F1 F1 90.0(5) 9_456 10_656
F1 F1 F2 132.4(17) 9_456 4_655
F1 F1 F2 71.5(6) 9_456 5_545
F1 F1 F2 71.5(6) 9_456 6_565
F1 F1 F2 89.4(7) 9_456 10_646
F1 F1 F2 89.4(7) 9_456 11_666
F1 F1 F2 88.2(11) 9_456 13_545
F1 F1 F2 88.2(11) 9_456 16_565
F1 F1 F2 108.3(9) 9_456 18_655
F1 F1 F2 76.5(6) 9_456 23_666
F1 F1 F2 76.5(6) 9_456 24_646
F1 F1 F2 76.1(7) 9_456 115_556
F1 F1 F2 166.1(9) 9_456 116_456
F1 F1 F2 111.4(6) 9_456 151_556
F1 F1 F2 111.4(6) 9_456 152_546
F1 F1 F2 132.4(17) 10_656 1_455
F1 F1 F2 71.5(6) 10_656 5_545
F1 F1 F2 71.5(6) 10_656 6_565
F1 F1 F2 89.4(7) 10_656 9_446
F1 F1 F2 89.4(7) 10_656 12_466
F1 F1 F2 88.2(11) 10_656 13_545
F1 F1 F2 88.2(11) 10_656 16_565
F1 F1 F2 108.3(9) 10_656 17_455
F1 F1 F2 76.5(6) 10_656 21_446
F1 F1 F2 76.5(6) 10_656 22_466
F1 F1 F2 166.1(9) 10_656 115_556
F1 F1 F2 76.1(7) 10_656 116_456
F1 F1 F2 111.4(6) 10_656 151_556
F1 F1 F2 111.4(6) 10_656 152_546
F2 F1 F2 175(3) 1_455 4_655
F2 F1 F2 88.8(13) 1_455 5_545
F2 F1 F2 88.8(13) 1_455 6_565
F2 F1 F2 46.7(13) 1_455 9_446
F2 F1 F2 128.7(19) 1_455 10_646
F2 F1 F2 128.7(19) 1_455 11_666
F2 F1 F2 46.7(13) 1_455 12_466
F2 F1 F2 89.9(18) 1_455 13_545
F2 F1 F2 89.9(18) 1_455 16_565
F2 F1 F2 151(2) 1_455 18_655
F2 F1 F2 68.1(12) 1_455 21_446
F2 F1 F2 68.1(12) 1_455 22_466
F2 F1 F2 108.2(16) 1_455 23_666
F2 F1 F2 108.2(16) 1_455 24_646
F2 F1 F2 152(2) 1_455 116_456
F2 F1 F2 91.3(13) 1_455 151_556
F2 F1 F2 91.3(13) 1_455 152_546
F2 F1 F2 88.8(13) 4_655 5_545
F2 F1 F2 88.8(13) 4_655 6_565
F2 F1 F2 128.7(19) 4_655 9_446
F2 F1 F2 46.7(13) 4_655 10_646
F2 F1 F2 46.7(13) 4_655 11_666
F2 F1 F2 128.7(19) 4_655 12_466
F2 F1 F2 89.9(18) 4_655 13_545
F2 F1 F2 89.9(18) 4_655 16_565
F2 F1 F2 151(2) 4_655 17_455
F2 F1 F2 108.2(16) 4_655 21_446
F2 F1 F2 108.2(16) 4_655 22_466
F2 F1 F2 68.1(12) 4_655 23_666
F2 F1 F2 68.1(12) 4_655 24_646
F2 F1 F2 152(2) 4_655 115_556
F2 F1 F2 91.3(13) 4_655 151_556
F2 F1 F2 91.3(13) 4_655 152_546
F2 F1 F2 126.7(3) 5_545 6_565
F2 F1 F2 52.6(6) 5_545 9_446
F2 F1 F2 52.6(6) 5_545 10_646
F2 F1 F2 90.3(6) 5_545 11_666
F2 F1 F2 90.3(6) 5_545 12_466
F2 F1 F2 150.7(5) 5_545 16_565
F2 F1 F2 78.4(8) 5_545 17_455
F2 F1 F2 78.4(8) 5_545 18_655
F2 F1 F2 106.6(5) 5_545 22_466
F2 F1 F2 106.6(5) 5_545 23_666
F2 F1 F2 103.4(8) 5_545 115_556
F2 F1 F2 103.4(8) 5_545 116_456
F2 F1 F2 57.7(5) 5_545 151_556
F2 F1 F2 175.6(5) 5_545 152_546
F2 F1 F2 90.3(6) 6_565 9_446
F2 F1 F2 90.3(6) 6_565 10_646
F2 F1 F2 52.6(6) 6_565 11_666
F2 F1 F2 52.6(6) 6_565 12_466
F2 F1 F2 150.7(5) 6_565 13_545
F2 F1 F2 78.4(8) 6_565 17_455
F2 F1 F2 78.4(8) 6_565 18_655
F2 F1 F2 106.6(5) 6_565 21_446
F2 F1 F2 106.6(5) 6_565 24_646
F2 F1 F2 103.4(8) 6_565 115_556
F2 F1 F2 103.4(8) 6_565 116_456
F2 F1 F2 175.6(5) 6_565 151_556
F2 F1 F2 57.7(5) 6_565 152_546
F2 F1 F2 82.1(8) 9_446 10_646
F2 F1 F2 95.5(8) 9_446 11_666
F2 F1 F2 68.1(12) 9_446 13_545
F2 F1 F2 108.2(12) 9_446 16_565
F2 F1 F2 106.6(11) 9_446 18_655
F2 F1 F2 63.1(5) 9_446 22_466
F2 F1 F2 89.9(7) 9_446 23_666
F2 F1 F2 63.1(7) 9_446 24_646
F2 F1 F2 77.5(6) 9_446 115_556
F2 F1 F2 155.4(10) 9_446 116_456
F2 F1 F2 93.1(6) 9_446 151_556
F2 F1 F2 129.8(6) 9_446 152_546
F2 F1 F2 95.5(8) 10_646 12_466
F2 F1 F2 68.1(12) 10_646 13_545
F2 F1 F2 108.2(12) 10_646 16_565
F2 F1 F2 106.6(11) 10_646 17_455
F2 F1 F2 63.1(7) 10_646 21_446
F2 F1 F2 89.9(7) 10_646 22_466
F2 F1 F2 63.1(5) 10_646 23_666
F2 F1 F2 155.4(10) 10_646 115_556
F2 F1 F2 77.5(6) 10_646 116_456
F2 F1 F2 93.1(6) 10_646 151_556
F2 F1 F2 129.8(6) 10_646 152_546
F2 F1 F2 82.1(8) 11_666 12_466
F2 F1 F2 108.2(12) 11_666 13_545
F2 F1 F2 68.1(12) 11_666 16_565
F2 F1 F2 106.6(11) 11_666 17_455
F2 F1 F2 89.9(7) 11_666 21_446
F2 F1 F2 63.1(7) 11_666 22_466
F2 F1 F2 63.1(5) 11_666 24_646
F2 F1 F2 155.4(10) 11_666 115_556
F2 F1 F2 77.5(6) 11_666 116_456
F2 F1 F2 129.8(6) 11_666 151_556
F2 F1 F2 93.1(6) 11_666 152_546
F2 F1 F2 108.2(12) 12_466 13_545
F2 F1 F2 68.1(12) 12_466 16_565
F2 F1 F2 106.6(11) 12_466 18_655
F2 F1 F2 63.1(5) 12_466 21_446
F2 F1 F2 63.1(7) 12_466 23_666
F2 F1 F2 89.9(7) 12_466 24_646
F2 F1 F2 77.5(6) 12_466 115_556
F2 F1 F2 155.4(10) 12_466 116_456
F2 F1 F2 129.8(6) 12_466 151_556
F2 F1 F2 93.1(6) 12_466 152_546
F2 F1 F2 174.80(7) 13_545 16_565
F2 F1 F2 88.8(15) 13_545 17_455
F2 F1 F2 88.8(15) 13_545 18_655
F2 F1 F2 46.7(9) 13_545 21_446
F2 F1 F2 128.7(9) 13_545 22_466
F2 F1 F2 128.7(9) 13_545 23_666
F2 F1 F2 46.7(9) 13_545 24_646
F2 F1 F2 91.3(14) 13_545 115_556
F2 F1 F2 91.3(14) 13_545 116_456
F2 F1 F2 151.5(5) 13_545 152_546
F2 F1 F2 88.8(15) 16_565 17_455
F2 F1 F2 88.8(15) 16_565 18_655
F2 F1 F2 128.7(9) 16_565 21_446
F2 F1 F2 46.7(9) 16_565 22_466
F2 F1 F2 46.7(9) 16_565 23_666
F2 F1 F2 128.7(9) 16_565 24_646
F2 F1 F2 91.3(14) 16_565 115_556
F2 F1 F2 91.3(14) 16_565 116_456
F2 F1 F2 151.5(5) 16_565 151_556
F2 F1 F2 126.7(14) 17_455 18_655
F2 F1 F2 52.6(6) 17_455 21_446
F2 F1 F2 52.6(6) 17_455 22_466
F2 F1 F2 90.3(9) 17_455 23_666
F2 F1 F2 90.3(9) 17_455 24_646
F2 F1 F2 57.7(7) 17_455 115_556
F2 F1 F2 175.6(12) 17_455 116_456
F2 F1 F2 103.4(8) 17_455 151_556
F2 F1 F2 103.4(8) 17_455 152_546
F2 F1 F2 90.3(9) 18_655 21_446
F2 F1 F2 90.3(9) 18_655 22_466
F2 F1 F2 52.6(6) 18_655 23_666
F2 F1 F2 52.6(6) 18_655 24_646
F2 F1 F2 175.6(12) 18_655 115_556
F2 F1 F2 57.7(7) 18_655 116_456
F2 F1 F2 103.4(8) 18_655 151_556
F2 F1 F2 103.4(8) 18_655 152_546
F2 F1 F2 82.1(4) 21_446 22_466
F2 F1 F2 95.5(5) 21_446 23_666
F2 F1 F2 93.1(6) 21_446 115_556
F2 F1 F2 129.8(8) 21_446 116_456
F2 F1 F2 77.5(5) 21_446 151_556
F2 F1 F2 155.4(5) 21_446 152_546
F2 F1 F2 95.5(5) 22_466 24_646
F2 F1 F2 93.1(6) 22_466 115_556
F2 F1 F2 129.8(8) 22_466 116_456
F2 F1 F2 155.4(5) 22_466 151_556
F2 F1 F2 77.5(5) 22_466 152_546
F2 F1 F2 82.1(4) 23_666 24_646
F2 F1 F2 129.8(8) 23_666 115_556
F2 F1 F2 93.1(6) 23_666 116_456
F2 F1 F2 155.4(5) 23_666 151_556
F2 F1 F2 77.5(5) 23_666 152_546
F2 F1 F2 129.8(8) 24_646 115_556
F2 F1 F2 93.1(6) 24_646 116_456
F2 F1 F2 77.5(5) 24_646 151_556
F2 F1 F2 155.4(5) 24_646 152_546
F2 F1 F2 117.9(10) 115_556 116_456
F2 F1 F2 74.6(6) 115_556 151_556
F2 F1 F2 74.6(6) 115_556 152_546
F2 F1 F2 74.6(6) 116_456 151_556
F2 F1 F2 74.6(6) 116_456 152_546
F2 F1 F2 117.9(3) 151_556 152_546
K1 F2 K2 92.6(3) 49_545 3_656
K1 F2 K2 92.6(3) 49_545 25_656
K1 F2 Zr1 131.6(4) 49_545 1_656
K1 F2 F1 66.6(13) 49_545 1_655
K1 F2 F1 119.5(6) 49_545 5_646
K1 F2 F1 119.5(6) 49_545 6_666
K1 F2 F1 174.2(9) 49_545 9_556
K1 F2 F1 51.9(4) 49_545 106_655
K1 F2 F2 69.2(9) 49_545 4_755
K1 F2 F2 102.3(5) 49_545 5_645
K1 F2 F2 102.3(5) 49_545 6_665
K1 F2 F2 154.4(7) 49_545 9_546
K1 F2 F2 154.4(7) 49_545 12_566
K1 F2 F2 75.4(9) 49_545 13_645
K1 F2 F2 75.4(9) 49_545 16_665
K1 F2 F2 155.8(13) 49_545 17_555
K1 F2 F2 86.6(6) 49_545 18_755
K1 F2 F2 176.6(7) 49_545 20_557
K1 F2 F2 131.4(6) 49_545 21_546
K1 F2 F2 131.4(6) 49_545 22_566
K1 F2 F2 108.7(5) 49_545 23_766
K1 F2 F2 108.7(5) 49_545 24_746
K1 F2 F2 95.2(8) 49_545 99_656
K1 F2 F2 54.7(5) 49_545 106_645
K1 F2 F2 54.7(5) 49_545 107_665
K1 F2 F2 65.8(7) 49_545 115_656
K1 F2 F2 54.7(3) 49_545 151_656
K1 F2 F2 54.7(3) 49_545 152_646
K2 F2 K2 119.6(3) 3_656 25_656
K2 F2 Zr1 110.1(4) 3_656 1_656
K2 F2 F1 118.5(11) 3_656 1_655
K2 F2 F1 146.7(4) 3_656 5_646
K2 F2 F1 70.9(4) 3_656 6_666
K2 F2 F1 84.5(7) 3_656 9_556
K2 F2 F1 68.6(5) 3_656 106_655
K2 F2 F2 119.0(10) 3_656 4_755
K2 F2 F2 164.7(5) 3_656 5_645
K2 F2 F2 63.5(5) 3_656 6_665
K2 F2 F2 106.8(5) 3_656 9_546
K2 F2 F2 63.5(5) 3_656 12_566
K2 F2 F2 162.5(10) 3_656 13_645
K2 F2 F2 74.4(10) 3_656 16_665
K2 F2 F2 75.7(10) 3_656 17_555
K2 F2 F2 120.2(8) 3_656 18_755
K2 F2 F2 89.1(5) 3_656 20_557
K2 F2 F2 135.0(4) 3_656 21_546
K2 F2 F2 59.0(4) 3_656 22_566
K2 F2 F2 82.7(6) 3_656 23_766
K2 F2 F2 148.9(6) 3_656 24_746
K2 F2 F2 59.8(6) 3_656 99_656
K2 F2 F2 85.1(4) 3_656 106_645
K2 F2 F2 51.8(4) 3_656 107_665
K2 F2 F2 64.0(6) 3_656 115_656
K2 F2 F2 141.3(4) 3_656 151_656
K2 F2 F2 51.8(4) 3_656 152_646
K2 F2 Zr1 110.1(4) 25_656 1_656
K2 F2 F1 118.5(11) 25_656 1_655
K2 F2 F1 70.9(4) 25_656 5_646
K2 F2 F1 146.7(4) 25_656 6_666
K2 F2 F1 84.5(7) 25_656 9_556
K2 F2 F1 68.6(5) 25_656 106_655
K2 F2 F2 119.0(10) 25_656 4_755
K2 F2 F2 63.5(5) 25_656 5_645
K2 F2 F2 164.7(5) 25_656 6_665
K2 F2 F2 63.5(5) 25_656 9_546
K2 F2 F2 106.8(5) 25_656 12_566
K2 F2 F2 74.4(10) 25_656 13_645
K2 F2 F2 162.5(10) 25_656 16_665
K2 F2 F2 75.7(10) 25_656 17_555
K2 F2 F2 120.2(8) 25_656 18_755
K2 F2 F2 89.1(5) 25_656 20_557
K2 F2 F2 59.0(4) 25_656 21_546
K2 F2 F2 135.0(4) 25_656 22_566
K2 F2 F2 148.9(6) 25_656 23_766
K2 F2 F2 82.7(6) 25_656 24_746
K2 F2 F2 59.8(6) 25_656 99_656
K2 F2 F2 51.8(4) 25_656 106_645
K2 F2 F2 85.1(4) 25_656 107_665
K2 F2 F2 64.0(6) 25_656 115_656
K2 F2 F2 51.8(4) 25_656 151_656
K2 F2 F2 141.3(4) 25_656 152_646
Zr1 F2 F1 65.1(14) 1_656 1_655
Zr1 F2 F1 54.2(6) 1_656 9_556
Zr1 F2 F1 176.5(8) 1_656 106_655
Zr1 F2 F2 62.5(9) 1_656 4_755
Zr1 F2 F2 57.1(5) 1_656 5_645
Zr1 F2 F2 57.1(5) 1_656 6_665
Zr1 F2 F2 57.1(7) 1_656 9_546
Zr1 F2 F2 57.1(7) 1_656 12_566
Zr1 F2 F2 70.9(9) 1_656 13_645
Zr1 F2 F2 70.9(9) 1_656 16_665
Zr1 F2 F2 72.5(13) 1_656 17_555
Zr1 F2 F2 51.2(5) 1_656 21_546
Zr1 F2 F2 51.2(5) 1_656 22_566
Zr1 F2 F2 133.1(10) 1_656 99_656
Zr1 F2 F2 161.6(8) 1_656 106_645
Zr1 F2 F2 161.6(8) 1_656 107_665
Zr1 F2 F2 162.5(10) 1_656 115_656
Zr1 F2 F2 107.6(5) 1_656 151_656
Zr1 F2 F2 107.6(5) 1_656 152_646
F1 F2 F1 71.8(14) 1_655 5_646
F1 F2 F1 71.8(14) 1_655 6_666
F1 F2 F1 119.3(16) 1_655 9_556
F1 F2 F1 118.5(15) 1_655 106_655
F1 F2 F2 65.9(12) 1_655 5_645
F1 F2 F2 65.9(12) 1_655 6_665
F1 F2 F2 115.3(17) 1_655 9_546
F1 F2 F2 115.3(17) 1_655 12_566
F1 F2 F2 45.1(13) 1_655 13_645
F1 F2 F2 45.1(13) 1_655 16_665
F1 F2 F2 138(2) 1_655 17_555
F1 F2 F2 110.1(17) 1_655 20_557
F1 F2 F2 91.8(14) 1_655 21_546
F1 F2 F2 91.8(14) 1_655 22_566
F1 F2 F2 55.4(13) 1_655 23_766
F1 F2 F2 55.4(13) 1_655 24_746
F1 F2 F2 161.8(18) 1_655 99_656
F1 F2 F2 117.6(16) 1_655 106_645
F1 F2 F2 117.6(16) 1_655 107_665
F1 F2 F2 132.4(18) 1_655 115_656
F1 F2 F2 70.7(12) 1_655 151_656
F1 F2 F2 70.7(12) 1_655 152_646
F1 F2 F1 84.5(4) 5_646 6_666
F1 F2 F1 64.3(6) 5_646 9_556
F1 F2 F1 137.7(8) 5_646 106_655
F1 F2 F2 70.0(9) 5_646 4_755
F1 F2 F2 98.4(4) 5_646 6_665
F1 F2 F2 46.5(6) 5_646 9_546
F1 F2 F2 83.3(6) 5_646 12_566
F1 F2 F2 103.5(9) 5_646 16_665
F1 F2 F2 77.2(12) 5_646 17_555
F1 F2 F2 58.4(6) 5_646 18_755
F1 F2 F2 58.4(5) 5_646 20_557
F1 F2 F2 90.6(4) 5_646 22_566
F1 F2 F2 78.8(4) 5_646 23_766
F1 F2 F2 120.4(9) 5_646 99_656
F1 F2 F2 119.7(7) 5_646 106_645
F1 F2 F2 155.4(7) 5_646 107_665
F1 F2 F2 134.9(9) 5_646 115_656
F1 F2 F2 71.3(5) 5_646 151_656
F1 F2 F2 140.1(5) 5_646 152_646
F1 F2 F1 64.3(6) 6_666 9_556
F1 F2 F1 137.7(8) 6_666 106_655
F1 F2 F2 70.0(9) 6_666 4_755
F1 F2 F2 98.4(4) 6_666 5_645
F1 F2 F2 83.3(6) 6_666 9_546
F1 F2 F2 46.5(6) 6_666 12_566
F1 F2 F2 103.5(9) 6_666 13_645
F1 F2 F2 77.2(12) 6_666 17_555
F1 F2 F2 58.4(6) 6_666 18_755
F1 F2 F2 58.4(5) 6_666 20_557
F1 F2 F2 90.6(4) 6_666 21_546
F1 F2 F2 78.8(4) 6_666 24_746
F1 F2 F2 120.4(9) 6_666 99_656
F1 F2 F2 155.4(7) 6_666 106_645
F1 F2 F2 119.7(7) 6_666 107_665
F1 F2 F2 134.9(9) 6_666 115_656
F1 F2 F2 140.1(5) 6_666 151_656
F1 F2 F2 71.3(5) 6_666 152_646
F1 F2 F1 122.3(11) 9_556 106_655
F1 F2 F2 116.7(13) 9_556 4_755
F1 F2 F2 80.9(8) 9_556 5_645
F1 F2 F2 80.9(8) 9_556 6_665
F1 F2 F2 108.5(13) 9_556 13_645
F1 F2 F2 108.5(13) 9_556 16_665
F1 F2 F2 99.2(9) 9_556 18_755
F1 F2 F2 50.8(6) 9_556 21_546
F1 F2 F2 50.8(6) 9_556 22_566
F1 F2 F2 76.0(7) 9_556 23_766
F1 F2 F2 76.0(7) 9_556 24_746
F1 F2 F2 78.9(10) 9_556 99_656
F1 F2 F2 119.9(10) 9_556 106_645
F1 F2 F2 119.9(10) 9_556 107_665
F1 F2 F2 108.3(11) 9_556 115_656
F1 F2 F2 125.9(8) 9_556 151_656
F1 F2 F2 125.9(8) 9_556 152_646
F1 F2 F2 121.1(11) 106_655 4_755
F1 F2 F2 123.7(8) 106_655 5_645
F1 F2 F2 123.7(8) 106_655 6_665
F1 F2 F2 119.9(9) 106_655 9_546
F1 F2 F2 119.9(9) 106_655 12_566
F1 F2 F2 111.4(12) 106_655 13_645
F1 F2 F2 111.4(12) 106_655 16_665
F1 F2 F2 103.9(14) 106_655 17_555
F1 F2 F2 138.5(9) 106_655 18_755
F1 F2 F2 131.5(8) 106_655 20_557
F1 F2 F2 127.3(8) 106_655 21_546
F1 F2 F2 127.3(8) 106_655 22_566
F1 F2 F2 142.5(8) 106_655 23_766
F1 F2 F2 142.5(8) 106_655 24_746
F1 F2 F2 74.3(5) 106_655 151_656
F1 F2 F2 74.3(5) 106_655 152_646
F2 F2 F2 64.8(9) 4_755 5_645
F2 F2 F2 64.8(9) 4_755 6_665
F2 F2 F2 113.0(13) 4_755 9_546
F2 F2 F2 113.0(13) 4_755 12_566
F2 F2 F2 135(2) 4_755 17_555
F2 F2 F2 107.5(12) 4_755 20_557
F2 F2 F2 90.0(10) 4_755 21_546
F2 F2 F2 90.0(10) 4_755 22_566
F2 F2 F2 53.6(8) 4_755 23_766
F2 F2 F2 53.6(8) 4_755 24_746
F2 F2 F2 164.4(16) 4_755 99_656
F2 F2 F2 120.1(12) 4_755 106_645
F2 F2 F2 120.1(12) 4_755 107_665
F2 F2 F2 135.0(15) 4_755 115_656
F2 F2 F2 72.1(8) 4_755 151_656
F2 F2 F2 72.1(8) 4_755 152_646
F2 F2 F2 109.4(4) 5_645 6_665
F2 F2 F2 60.0(7) 5_645 9_546
F2 F2 F2 101.2(7) 5_645 12_566
F2 F2 F2 106.0(8) 5_645 16_665
F2 F2 F2 91.4(14) 5_645 17_555
F2 F2 F2 58.4(7) 5_645 18_755
F2 F2 F2 75.8(7) 5_645 20_557
F2 F2 F2 107.5(5) 5_645 22_566
F2 F2 F2 89.4(5) 5_645 23_766
F2 F2 F2 121.0(11) 5_645 99_656
F2 F2 F2 106.1(8) 5_645 106_645
F2 F2 F2 141.3(8) 5_645 107_665
F2 F2 F2 125.3(11) 5_645 115_656
F2 F2 F2 53.4(5) 5_645 151_656
F2 F2 F2 136.5(5) 5_645 152_646
F2 F2 F2 101.2(7) 6_665 9_546
F2 F2 F2 60.0(7) 6_665 12_566
F2 F2 F2 106.0(8) 6_665 13_645
F2 F2 F2 91.4(14) 6_665 17_555
F2 F2 F2 58.4(7) 6_665 18_755
F2 F2 F2 75.8(7) 6_665 20_557
F2 F2 F2 107.5(5) 6_665 21_546
F2 F2 F2 89.4(5) 6_665 24_746
F2 F2 F2 121.0(11) 6_665 99_656
F2 F2 F2 141.3(8) 6_665 106_645
F2 F2 F2 106.1(8) 6_665 107_665
F2 F2 F2 125.3(11) 6_665 115_656
F2 F2 F2 136.5(5) 6_665 151_656
F2 F2 F2 53.4(5) 6_665 152_646
F2 F2 F2 50.4(6) 9_546 12_566
F2 F2 F2 88.6(13) 9_546 13_645
F2 F2 F2 125.3(13) 9_546 16_665
F2 F2 F2 97.3(10) 9_546 18_755
F2 F2 F2 74.0(5) 9_546 22_566
F2 F2 F2 90.5(7) 9_546 23_766
F2 F2 F2 61.6(7) 9_546 24_746
F2 F2 F2 81.0(9) 9_546 99_656
F2 F2 F2 109.5(8) 9_546 106_645
F2 F2 F2 126.6(8) 9_546 107_665
F2 F2 F2 107.5(9) 9_546 115_656
F2 F2 F2 100.7(7) 9_546 151_656
F2 F2 F2 150.9(7) 9_546 152_646
F2 F2 F2 125.3(13) 12_566 13_645
F2 F2 F2 88.6(13) 12_566 16_665
F2 F2 F2 97.3(10) 12_566 18_755
F2 F2 F2 74.0(5) 12_566 21_546
F2 F2 F2 61.6(7) 12_566 23_766
F2 F2 F2 90.5(7) 12_566 24_746
F2 F2 F2 81.0(9) 12_566 99_656
F2 F2 F2 126.6(8) 12_566 106_645
F2 F2 F2 109.5(8) 12_566 107_665
F2 F2 F2 107.5(9) 12_566 115_656
F2 F2 F2 150.9(7) 12_566 151_656
F2 F2 F2 100.7(7) 12_566 152_646
F2 F2 F2 90.0(10) 13_645 16_665
F2 F2 F2 120(2) 13_645 17_555
F2 F2 F2 47.6(11) 13_645 18_755
F2 F2 F2 102.2(12) 13_645 20_557
F2 F2 F2 60.0(10) 13_645 21_546
F2 F2 F2 120.0(10) 13_645 22_566
F2 F2 F2 89.0(9) 13_645 23_766
F2 F2 F2 132.9(17) 13_645 99_656
F2 F2 F2 97.9(13) 13_645 106_645
F2 F2 F2 124.9(13) 13_645 107_665
F2 F2 F2 120.0(16) 13_645 115_656
F2 F2 F2 110.8(8) 13_645 152_646
F2 F2 F2 120(2) 16_665 17_555
F2 F2 F2 47.6(11) 16_665 18_755
F2 F2 F2 102.2(12) 16_665 20_557
F2 F2 F2 120.0(10) 16_665 21_546
F2 F2 F2 60.0(10) 16_665 22_566
F2 F2 F2 89.0(9) 16_665 24_746
F2 F2 F2 132.9(17) 16_665 99_656
F2 F2 F2 124.9(13) 16_665 106_645
F2 F2 F2 97.9(13) 16_665 107_665
F2 F2 F2 120.0(16) 16_665 115_656
F2 F2 F2 110.8(8) 16_665 151_656
F2 F2 F2 117.5(18) 17_555 18_755
F2 F2 F2 60.0(11) 17_555 21_546
F2 F2 F2 60.0(11) 17_555 22_566
F2 F2 F2 91.0(14) 17_555 23_766
F2 F2 F2 91.0(14) 17_555 24_746
F2 F2 F2 60.6(14) 17_555 99_656
F2 F2 F2 102.6(13) 17_555 106_645
F2 F2 F2 102.6(13) 17_555 107_665
F2 F2 F2 90.0(14) 17_555 115_656
F2 F2 F2 124.9(13) 17_555 151_656
F2 F2 F2 124.9(13) 17_555 152_646
F2 F2 F2 90.0(9) 18_755 20_557
F2 F2 F2 77.8(8) 18_755 21_546
F2 F2 F2 77.8(8) 18_755 22_566
F2 F2 F2 178.1(12) 18_755 99_656
F2 F2 F2 136.1(9) 18_755 106_645
F2 F2 F2 136.1(9) 18_755 107_665
F2 F2 F2 152.5(12) 18_755 115_656
F2 F2 F2 81.8(6) 18_755 151_656
F2 F2 F2 81.8(6) 18_755 152_646
F2 F2 F2 47.6(5) 20_557 21_546
F2 F2 F2 47.6(5) 20_557 22_566
F2 F2 F2 68.6(6) 20_557 23_766
F2 F2 F2 68.6(6) 20_557 24_746
F2 F2 F2 88.1(8) 20_557 99_656
F2 F2 F2 128.4(7) 20_557 106_645
F2 F2 F2 128.4(7) 20_557 107_665
F2 F2 F2 117.5(9) 20_557 115_656
F2 F2 F2 124.8(7) 20_557 151_656
F2 F2 F2 124.8(7) 20_557 152_646
F2 F2 F2 90.0(4) 21_546 22_566
F2 F2 F2 90.0(5) 21_546 23_766
F2 F2 F2 101.0(9) 21_546 99_656
F2 F2 F2 110.8(7) 21_546 106_645
F2 F2 F2 142.1(7) 21_546 107_665
F2 F2 F2 120.0(9) 21_546 115_656
F2 F2 F2 77.4(5) 21_546 151_656
F2 F2 F2 157.9(5) 21_546 152_646
F2 F2 F2 90.0(5) 22_566 24_746
F2 F2 F2 101.0(9) 22_566 99_656
F2 F2 F2 142.1(7) 22_566 106_645
F2 F2 F2 110.8(7) 22_566 107_665
F2 F2 F2 120.0(9) 22_566 115_656
F2 F2 F2 157.9(5) 22_566 151_656
F2 F2 F2 77.4(5) 22_566 152_646
F2 F2 F2 69.4(4) 23_766 24_746
F2 F2 F2 136.5(10) 23_766 99_656
F2 F2 F2 158.9(8) 23_766 106_645
F2 F2 F2 125.6(8) 23_766 107_665
F2 F2 F2 145.3(10) 23_766 115_656
F2 F2 F2 124.2(5) 23_766 151_656
F2 F2 F2 69.0(5) 23_766 152_646
F2 F2 F2 136.5(10) 24_746 99_656
F2 F2 F2 125.6(8) 24_746 106_645
F2 F2 F2 158.9(8) 24_746 107_665
F2 F2 F2 145.3(10) 24_746 115_656
F2 F2 F2 69.0(5) 24_746 151_656
F2 F2 F2 124.2(5) 24_746 152_646
F2 F2 F2 45.6(7) 99_656 106_645
F2 F2 F2 45.6(7) 99_656 107_665
F2 F2 F2 99.3(8) 99_656 151_656
F2 F2 F2 99.3(8) 99_656 152_646
F2 F2 F2 60.0(5) 106_645 151_656
F2 F2 F2 89.9(5) 106_645 152_646
F2 F2 F2 89.9(5) 107_665 151_656
F2 F2 F2 60.0(5) 107_665 152_646
F2 F2 F2 82.1(8) 115_656 151_656
F2 F2 F2 82.1(8) 115_656 152_646
F2 F2 F2 108.0(3) 151_656 152_646
loop_
_geom_bond_atom_site_label_1
_geom_bond_atom_site_label_2
_geom_bond_distance
_geom_bond_site_symmetry_2
K1 F1 2.601(16) 49_555
K1 F1 2.601(16) 50_556
K1 F1 2.601(16) 101_555
K1 F1 2.601(16) 102_565
K1 F1 2.601(16) 153_555
K1 F1 2.601(16) 154_655
K1 F2 2.832(13) 49_455
K1 F2 2.832(13) 50_456
K1 F2 2.832(13) 51_656
K1 F2 2.832(13) 52_655
K1 F2 2.832(11) 61_545
K1 F2 2.832(11) 62_546
K1 F2 2.832(11) 63_566
K1 F2 2.832(11) 64_565
K1 F2 2.832(4) 101_554
K1 F2 2.832(4) 102_564
K1 F2 2.832(4) 103_566
K1 F2 2.832(4) 104_556
K1 F2 2.832(7) 117_455
K1 F2 2.832(7) 118_465
K1 F2 2.832(7) 119_665
K1 F2 2.832(7) 120_655
K1 F2 2.832(17) 153_545
K1 F2 2.832(17) 154_645
K1 F2 2.832(17) 155_665
K1 F2 2.832(17) 156_565
K1 F2 2.832(18) 161_554
K1 F2 2.832(18) 162_654
K1 F2 2.832(18) 163_656
K1 F2 2.832(18) 164_556
K2 F1 3.2523(15) 2_556
K2 F1 3.252(11) 6_565
K2 F1 3.252(11) 10_655
K2 F1 3.2523(15) 50_556
K2 F1 3.252(11) 53_545
K2 F1 3.252(11) 57_455
K2 F1 3.2523(15) 97_554
K2 F1 3.252(11) 102_565
K2 F1 3.252(11) 105_455
K2 F1 3.2523(15) 145_554
K2 F1 3.252(11) 149_545
K2 F1 3.252(11) 154_655
K2 F2 2.648(9) 3_656
K2 F2 2.648(17) 7_566
K2 F2 2.648(11) 11_665
K2 F2 2.648(16) 15_566
K2 F2 2.648(6) 19_656
K2 F2 2.648(14) 23_665
K2 F2 2.648(9) 50_456
K2 F2 2.648(17) 56_546
K2 F2 2.648(11) 57_445
K2 F2 2.648(16) 62_546
K2 F2 2.648(6) 68_456
K2 F2 2.648(14) 69_445
K2 F2 2.648(9) 97_454
K2 F2 2.648(17) 102_564
K2 F2 2.648(11) 108_465
K2 F2 2.648(16) 112_564
K2 F2 2.648(6) 113_454
K2 F2 2.648(14) 118_465
K2 F2 2.648(9) 148_654
K2 F2 2.648(17) 149_544
K2 F2 2.648(11) 154_645
K2 F2 2.648(16) 157_544
K2 F2 2.648(6) 162_654
K2 F2 2.648(14) 168_645
Zr1 F1 1.977(16) 1_554
Zr1 F1 1.977(16) 2_556
Zr1 F1 1.977(16) 5_545
Zr1 F1 1.977(16) 6_565
Zr1 F1 1.977(16) 9_455
Zr1 F1 1.977(16) 10_655
Zr1 F2 2.178(14) 1_454
Zr1 F2 2.178(14) 2_456
Zr1 F2 2.178(14) 3_656
Zr1 F2 2.178(14) 4_654
Zr1 F2 2.178(6) 5_544
Zr1 F2 2.178(6) 6_564
Zr1 F2 2.178(6) 7_566
Zr1 F2 2.178(6) 8_546
Zr1 F2 2.178(16) 9_445
Zr1 F2 2.178(16) 10_645
Zr1 F2 2.178(16) 11_665
Zr1 F2 2.178(16) 12_465
Zr1 F2 2.178(11) 13_544
Zr1 F2 2.178(11) 14_546
Zr1 F2 2.178(11) 15_566
Zr1 F2 2.178(11) 16_564
Zr1 F2 2.178(17) 17_454
Zr1 F2 2.178(17) 18_654
Zr1 F2 2.178(17) 19_656
Zr1 F2 2.178(17) 20_456
Zr1 F2 2.178(8) 21_445
Zr1 F2 2.178(8) 22_465
Zr1 F2 2.178(8) 23_665
Zr1 F2 2.178(8) 24_645
F1 K1 2.601(16) 49_445
F1 K2 3.2523(15) 2_556
F1 K2 3.2523(15) 3_556
F1 K2 3.2523(15) 25_556
F1 K2 3.2523(15) 28_556
F1 Zr1 1.977(16) 1_556
F1 F1 3.95(2) 2_557
F1 F1 2.796(16) 5_546
F1 F1 2.796(16) 6_566
F1 F1 2.796(16) 9_456
F1 F1 2.796(16) 10_656
F1 F1 3.679(16) 105_455
F1 F1 3.679(16) 106_555
F1 F1 3.679(16) 149_545
F1 F1 3.679(16) 150_555
F1 F2 1.008(18) 1_455
F1 F2 1.008(18) 4_655
F1 F2 2.161(9) 5_545
F1 F2 2.161(9) 6_565
F1 F2 3.554(16) 7_567
F1 F2 3.554(16) 8_547
F1 F2 2.941(18) 9_446
F1 F2 2.941(18) 10_646
F1 F2 2.941(18) 11_666
F1 F2 2.941(18) 12_466
F1 F2 1.0082(9) 13_545
F1 F2 1.0082(9) 16_565
F1 F2 2.161(19) 17_455
F1 F2 2.161(19) 18_655
F1 F2 3.554(19) 19_657
F1 F2 3.554(19) 20_457
F1 F2 2.941(15) 21_446
F1 F2 2.941(15) 22_466
F1 F2 2.941(15) 23_666
F1 F2 2.941(15) 24_646
F1 F2 3.633(18) 98_456
F1 F2 3.633(18) 99_556
F1 F2 3.846(18) 105_445
F1 F2 3.846(18) 106_545
F1 F2 3.846(18) 107_565
F1 F2 3.846(18) 108_465
F1 F2 3.090(19) 115_556
F1 F2 3.090(19) 116_456
F1 F2 3.090(10) 151_556
F1 F2 3.090(10) 152_546
F1 F2 3.633(4) 158_546
F1 F2 3.633(4) 159_556
F1 F2 3.846(14) 165_445
F1 F2 3.846(14) 166_455
F1 F2 3.846(14) 167_655
F1 F2 3.846(14) 168_645
F2 K1 2.832(13) 49_545
F2 K2 2.648(9) 3_656
F2 K2 2.648(9) 25_656
F2 Zr1 2.178(14) 1_656
F2 F1 1.008(18) 1_655
F2 F1 2.941(14) 5_646
F2 F1 2.941(14) 6_666
F2 F1 2.161(19) 9_556
F2 F1 3.554(19) 10_756
F2 F1 3.633(18) 98_556
F2 F1 3.090(19) 106_655
F2 F1 3.846(14) 149_645
F2 F1 3.846(14) 150_655
F2 F2 3.862(17) 2_557
F2 F2 2.01(3) 4_755
F2 F2 2.366(13) 5_645
F2 F2 2.366(13) 6_665
F2 F2 3.657(15) 7_667
F2 F2 3.657(15) 8_647
F2 F2 2.366(17) 9_546
F2 F2 3.66(2) 10_746
F2 F2 3.66(2) 11_766
F2 F2 2.366(17) 12_566
F2 F2 1.424(18) 13_645
F2 F2 1.424(18) 16_665
F2 F2 1.31(2) 17_555
F2 F2 3.08(3) 18_755
F2 F2 3.080(18) 20_557
F2 F2 2.731(12) 21_546
F2 F2 2.731(12) 22_566
F2 F2 3.394(18) 23_766
F2 F2 3.394(18) 24_746
F2 F2 2.66(3) 99_656
F2 F2 3.273(19) 106_645
F2 F2 3.273(19) 107_665
F2 F2 3.78(2) 110_546
F2 F2 3.78(2) 111_566
F2 F2 2.32(2) 115_656
F2 F2 3.273(12) 151_656
F2 F2 3.273(12) 152_646
F2 F2 3.779(8) 158_646
F2 F2 3.779(8) 159_656
F2 F2 3.744(12) 165_545
F2 F2 3.744(12) 166_555
